# generated using pymatgen
data_Li5Ti2Mn3O10
_symmetry_space_group_name_H-M   'P 1'
_cell_length_a   5.24146805
_cell_length_b   5.27730675
_cell_length_c   14.47622304
_cell_angle_alpha   92.18181382
_cell_angle_beta   85.56365702
_cell_angle_gamma   101.47015275
_symmetry_Int_Tables_number   1
_chemical_formula_structural   Li5Ti2Mn3O10
_chemical_formula_sum   'Li10 Ti4 Mn6 O20'
_cell_volume   391.14605638
_cell_formula_units_Z   2
loop_
 _symmetry_equiv_pos_site_id
 _symmetry_equiv_pos_as_xyz
  1  'x, y, z'
loop_
 _atom_site_type_symbol
 _atom_site_label
 _atom_site_symmetry_multiplicity
 _atom_site_fract_x
 _atom_site_fract_y
 _atom_site_fract_z
 _atom_site_occupancy
  Li  Li0  1  0.01881400  0.69471800  0.19922800  1
  Li  Li1  1  0.51876200  0.19456700  0.69936500  1
  Li  Li2  1  0.00004900  0.90355100  0.39178800  1
  Li  Li3  1  0.49952300  0.40373600  0.89140100  1
  Li  Li4  1  0.25152300  0.24301300  0.25273700  1
  Li  Li5  1  0.75155300  0.74300600  0.75275200  1
  Li  Li6  1  0.48141100  0.80251800  0.30202800  1
  Li  Li7  1  0.98148600  0.30267500  0.80189900  1
  Li  Li8  1  0.49599800  0.59457500  0.11094000  1
  Li  Li9  1  0.99651200  0.09446500  0.61129900  1
  Ti  Ti10  1  0.75482600  0.37432900  0.34377300  1
  Ti  Ti11  1  0.25708300  0.87412500  0.84390900  1
  Ti  Ti12  1  0.74446400  0.12528600  0.15758800  1
  Ti  Ti13  1  0.24227700  0.62551700  0.65742700  1
  Mn  Mn14  1  0.49937000  0.00091000  0.50085800  1
  Mn  Mn15  1  0.23793900  0.43959800  0.44912000  1
  Mn  Mn16  1  0.74106200  0.93872100  0.94925100  1
  Mn  Mn17  1  0.99576000  0.49919700  0.99984700  1
  Mn  Mn18  1  0.25937400  0.06024100  0.05234700  1
  Mn  Mn19  1  0.75643200  0.56116100  0.55229100  1
  O  O20  1  0.63361000  0.64982100  0.41533800  1
  O  O21  1  0.13624900  0.15092200  0.91602300  1
  O  O22  1  0.86514200  0.05727900  0.27133300  1
  O  O23  1  0.36533400  0.55761000  0.77122500  1
  O  O24  1  0.84603000  0.21522500  0.46736500  1
  O  O25  1  0.34239800  0.71719600  0.96766800  1
  O  O26  1  0.09947600  0.37811900  0.11587900  1
  O  O27  1  0.60164800  0.88086200  0.61668900  1
  O  O28  1  0.09796900  0.56037200  0.32636100  1
  O  O29  1  0.59836200  0.06058200  0.82617500  1
  O  O30  1  0.40034400  0.93827200  0.17487600  1
  O  O31  1  0.90002300  0.43810200  0.67509500  1
  O  O32  1  0.39601500  0.12120500  0.38437500  1
  O  O33  1  0.89376300  0.61863800  0.88356600  1
  O  O34  1  0.64965900  0.28426500  0.03332600  1
  O  O35  1  0.15345800  0.78240000  0.53296700  1
  O  O36  1  0.63332100  0.44081300  0.22973200  1
  O  O37  1  0.13314700  0.94050700  0.72982500  1
  O  O38  1  0.86402000  0.84936400  0.08548500  1
  O  O39  1  0.36133400  0.34835500  0.58476400  1
