# generated using pymatgen
data_LiCoPO4
_symmetry_space_group_name_H-M   'P 1'
_cell_length_a   5.05277700
_cell_length_b   10.08316400
_cell_length_c   13.66016100
_cell_angle_alpha   90.00000000
_cell_angle_beta   90.00000000
_cell_angle_gamma   90.00000000
_symmetry_Int_Tables_number   1
_chemical_formula_structural   LiCoPO4
_chemical_formula_sum   'Li8 Co8 P8 O32'
_cell_volume   695.95759776
_cell_formula_units_Z   8
loop_
 _symmetry_equiv_pos_site_id
 _symmetry_equiv_pos_as_xyz
  1  'x, y, z'
loop_
 _atom_site_type_symbol
 _atom_site_label
 _atom_site_symmetry_multiplicity
 _atom_site_fract_x
 _atom_site_fract_y
 _atom_site_fract_z
 _atom_site_occupancy
  Li  Li0  1  0.05862100  0.03206200  0.24860900  1
  Li  Li1  1  0.55038500  0.21758400  0.99730300  1
  Li  Li2  1  0.55038500  0.28241600  0.49730300  1
  Li  Li3  1  0.05862100  0.46793800  0.74860900  1
  Li  Li4  1  0.94137900  0.53206200  0.24860900  1
  Li  Li5  1  0.44961500  0.71758400  0.99730300  1
  Li  Li6  1  0.44961500  0.78241600  0.49730300  1
  Li  Li7  1  0.94137900  0.96793800  0.74860900  1
  Co  Co8  1  0.93132700  0.03030200  0.49920900  1
  Co  Co9  1  0.55248500  0.21924700  0.24808800  1
  Co  Co10  1  0.55248500  0.28075300  0.74808800  1
  Co  Co11  1  0.93132700  0.46969800  0.99920900  1
  Co  Co12  1  0.06867300  0.53030200  0.49920900  1
  Co  Co13  1  0.44751500  0.71924700  0.24808800  1
  Co  Co14  1  0.44751500  0.78075300  0.74808800  1
  Co  Co15  1  0.06867300  0.96969800  0.99920900  1
  P  P16  1  0.43778700  0.03046400  0.62390200  1
  P  P17  1  0.05460200  0.21713100  0.87249000  1
  P  P18  1  0.05460200  0.28286900  0.37249000  1
  P  P19  1  0.43778700  0.46953600  0.12390200  1
  P  P20  1  0.56221300  0.53046400  0.62390200  1
  P  P21  1  0.94539800  0.71713100  0.87249000  1
  P  P22  1  0.94539800  0.78286900  0.37249000  1
  P  P23  1  0.56221300  0.96953600  0.12390200  1
  O  O24  1  0.86503500  0.99948100  0.12165300  1
  O  O25  1  0.56297200  0.96981600  0.53013300  1
  O  O26  1  0.44329300  0.03295600  0.21771800  1
  O  O27  1  0.99639800  0.06559600  0.87399900  1
  O  O28  1  0.49456000  0.18176300  0.62495100  1
  O  O29  1  0.92642500  0.22229200  0.46588000  1
  O  O30  1  0.93633700  0.28033600  0.77844600  1
  O  O31  1  0.35715600  0.24497400  0.87201800  1
  O  O32  1  0.35715600  0.25502600  0.37201800  1
  O  O33  1  0.93633700  0.21966400  0.27844600  1
  O  O34  1  0.92642500  0.27770800  0.96588000  1
  O  O35  1  0.49456000  0.31823700  0.12495100  1
  O  O36  1  0.99639800  0.43440400  0.37399900  1
  O  O37  1  0.44329300  0.46704400  0.71771800  1
  O  O38  1  0.56297200  0.53018400  0.03013300  1
  O  O39  1  0.86503500  0.50051900  0.62165300  1
  O  O40  1  0.13496500  0.49948100  0.12165300  1
  O  O41  1  0.43702800  0.46981600  0.53013300  1
  O  O42  1  0.55670700  0.53295600  0.21771800  1
  O  O43  1  0.00360200  0.56559600  0.87399900  1
  O  O44  1  0.50544000  0.68176300  0.62495100  1
  O  O45  1  0.07357500  0.72229200  0.46588000  1
  O  O46  1  0.06366300  0.78033600  0.77844600  1
  O  O47  1  0.64284400  0.74497400  0.87201800  1
  O  O48  1  0.64284400  0.75502600  0.37201800  1
  O  O49  1  0.06366300  0.71966400  0.27844600  1
  O  O50  1  0.07357500  0.77770800  0.96588000  1
  O  O51  1  0.50544000  0.81823700  0.12495100  1
  O  O52  1  0.00360200  0.93440400  0.37399900  1
  O  O53  1  0.55670700  0.96704400  0.71771800  1
  O  O54  1  0.43702800  0.03018400  0.03013300  1
  O  O55  1  0.13496500  0.00051900  0.62165300  1
