# generated using pymatgen
data_Li3Co5OF11
_symmetry_space_group_name_H-M   'P 1'
_cell_length_a   5.18107837
_cell_length_b   5.55201500
_cell_length_c   9.36411261
_cell_angle_alpha   86.27992780
_cell_angle_beta   72.51940491
_cell_angle_gamma   116.90830387
_symmetry_Int_Tables_number   1
_chemical_formula_structural   Li3Co5OF11
_chemical_formula_sum   'Li3 Co5 O1 F11'
_cell_volume   222.62886239
_cell_formula_units_Z   1
loop_
 _symmetry_equiv_pos_site_id
 _symmetry_equiv_pos_as_xyz
  1  'x, y, z'
loop_
 _atom_site_type_symbol
 _atom_site_label
 _atom_site_symmetry_multiplicity
 _atom_site_fract_x
 _atom_site_fract_y
 _atom_site_fract_z
 _atom_site_occupancy
  Li  Li0  1  0.02248206  0.03520020  0.99938954  1
  Li  Li1  1  0.53053128  0.29890086  0.26623007  1
  Li  Li2  1  0.50840804  0.76430328  0.76095881  1
  Co  Co3  1  0.97807123  0.49542215  0.49802017  1
  Co  Co4  1  0.31276181  0.77182881  0.14608428  1
  Co  Co5  1  0.30308618  0.23260290  0.64761538  1
  Co  Co6  1  0.77091040  0.00475540  0.40110232  1
  Co  Co7  1  0.80850989  0.50741452  0.90652138  1
  O  O8  1  0.60282295  0.25386529  0.45706024  1
  F  F9  1  0.07965152  0.85477391  0.35222448  1
  F  F10  1  0.22358635  0.42394426  0.28868821  1
  F  F11  1  0.20803101  0.89864301  0.80281646  1
  F  F12  1  0.40695458  0.15927208  0.04214420  1
  F  F13  1  0.37723447  0.63819753  0.54260577  1
  F  F14  1  0.09808203  0.34656387  0.84706734  1
  F  F15  1  0.91195488  0.59967215  0.10310376  1
  F  F16  1  0.59603992  0.74982065  0.95067163  1
  F  F17  1  0.70949980  0.00233167  0.19511237  1
  F  F18  1  0.70902018  0.50628526  0.70909026  1
  F  F19  1  0.89211941  0.08060222  0.60837331  1
