# generated using pymatgen
data_Li2MnF6
_symmetry_space_group_name_H-M   'P 1'
_cell_length_a   4.63390100
_cell_length_b   4.98838900
_cell_length_c   16.88517516
_cell_angle_alpha   89.97871748
_cell_angle_beta   90.00000000
_cell_angle_gamma   90.00000000
_symmetry_Int_Tables_number   1
_chemical_formula_structural   Li2MnF6
_chemical_formula_sum   'Li8 Mn4 F24'
_cell_volume   390.31262973
_cell_formula_units_Z   4
loop_
 _symmetry_equiv_pos_site_id
 _symmetry_equiv_pos_as_xyz
  1  'x, y, z'
loop_
 _atom_site_type_symbol
 _atom_site_label
 _atom_site_symmetry_multiplicity
 _atom_site_fract_x
 _atom_site_fract_y
 _atom_site_fract_z
 _atom_site_occupancy
  Li  Li0  1  0.51419900  0.25224300  0.77150800  1
  Li  Li1  1  0.00989200  0.25377600  0.94706500  1
  Li  Li2  1  0.98580100  0.25224300  0.27150800  1
  Li  Li3  1  0.49010800  0.25377600  0.44706500  1
  Li  Li4  1  0.50989200  0.74622400  0.55293500  1
  Li  Li5  1  0.01419900  0.74775700  0.72849200  1
  Li  Li6  1  0.99010800  0.74622400  0.05293500  1
  Li  Li7  1  0.48580100  0.74775700  0.22849200  1
  Mn  Mn8  1  0.00933600  0.24726500  0.61989600  1
  Mn  Mn9  1  0.49066400  0.24726500  0.11989600  1
  Mn  Mn10  1  0.50933600  0.75273500  0.88010400  1
  Mn  Mn11  1  0.99066400  0.75273500  0.38010400  1
  F  F12  1  0.74098400  0.05235900  0.87502100  1
  F  F13  1  0.29714000  0.91637200  0.79964400  1
  F  F14  1  0.73097400  0.09502900  0.04619800  1
  F  F15  1  0.75901600  0.05235900  0.37502100  1
  F  F16  1  0.20286000  0.91637200  0.29964400  1
  F  F17  1  0.76902600  0.09502900  0.54619800  1
  F  F18  1  0.24428300  0.40171700  0.54473900  1
  F  F19  1  0.77865100  0.54673700  0.62612500  1
  F  F20  1  0.22759900  0.41146600  0.69927300  1
  F  F21  1  0.72759900  0.58853400  0.80072700  1
  F  F22  1  0.25571700  0.40171700  0.04473900  1
  F  F23  1  0.27865100  0.45326300  0.87387500  1
  F  F24  1  0.72134900  0.54673700  0.12612500  1
  F  F25  1  0.74428300  0.59828300  0.95526100  1
  F  F26  1  0.27240100  0.41146600  0.19927300  1
  F  F27  1  0.77240100  0.58853400  0.30072700  1
  F  F28  1  0.22134900  0.45326300  0.37387500  1
  F  F29  1  0.75571700  0.59828300  0.45526100  1
  F  F30  1  0.23097400  0.90497100  0.45380200  1
  F  F31  1  0.79714000  0.08362800  0.70035600  1
  F  F32  1  0.24098400  0.94764100  0.62497900  1
  F  F33  1  0.26902600  0.90497100  0.95380200  1
  F  F34  1  0.70286000  0.08362800  0.20035600  1
  F  F35  1  0.25901600  0.94764100  0.12497900  1
