# generated using pymatgen
data_Li6Ni9(PO4)8
_symmetry_space_group_name_H-M   'P 1'
_cell_length_a   8.68493500
_cell_length_b   8.76445042
_cell_length_c   9.14528779
_cell_angle_alpha   112.10791524
_cell_angle_beta   99.80020437
_cell_angle_gamma   102.06335412
_symmetry_Int_Tables_number   1
_chemical_formula_structural   Li6Ni9(PO4)8
_chemical_formula_sum   'Li6 Ni9 P8 O32'
_cell_volume   606.44317751
_cell_formula_units_Z   1
loop_
 _symmetry_equiv_pos_site_id
 _symmetry_equiv_pos_as_xyz
  1  'x, y, z'
loop_
 _atom_site_type_symbol
 _atom_site_label
 _atom_site_symmetry_multiplicity
 _atom_site_fract_x
 _atom_site_fract_y
 _atom_site_fract_z
 _atom_site_occupancy
  Li  Li0  1  0.36151800  0.09931200  0.97169300  1
  Li  Li1  1  0.98081800  0.28072100  0.74466100  1
  Li  Li2  1  0.67820500  0.68462300  0.64705500  1
  Li  Li3  1  0.32179500  0.31537700  0.35294500  1
  Li  Li4  1  0.01918200  0.71927900  0.25533900  1
  Li  Li5  1  0.63848200  0.90068800  0.02830700  1
  Ni  Ni6  1  0.50000000  0.50000000  0.00000000  1
  Ni  Ni7  1  0.19514700  0.72942700  0.92910300  1
  Ni  Ni8  1  0.29812900  0.14542400  0.58335100  1
  Ni  Ni9  1  0.00000000  0.00000000  0.00000000  1
  Ni  Ni10  1  0.67847200  0.29316400  0.54237000  1
  Ni  Ni11  1  0.00000000  0.50000000  0.50000000  1
  Ni  Ni12  1  0.32152800  0.70683600  0.45763000  1
  Ni  Ni13  1  0.70187100  0.85457600  0.41664900  1
  Ni  Ni14  1  0.80485300  0.27057300  0.07089700  1
  P  P15  1  0.60880900  0.04251900  0.71629200  1
  P  P16  1  0.83320000  0.62056900  0.90995800  1
  P  P17  1  0.33928600  0.55184500  0.72107500  1
  P  P18  1  0.04588000  0.88005000  0.65254400  1
  P  P19  1  0.95412000  0.11995000  0.34745600  1
  P  P20  1  0.66071400  0.44815500  0.27892500  1
  P  P21  1  0.16680000  0.37943100  0.09004200  1
  P  P22  1  0.39119100  0.95748100  0.28370800  1
  O  O23  1  0.70013100  0.04368100  0.87687800  1
  O  O24  1  0.98885000  0.32326600  0.98113900  1
  O  O25  1  0.72167700  0.51784900  0.97650400  1
  O  O26  1  0.11418600  0.06323300  0.66818000  1
  O  O27  1  0.45601800  0.10074200  0.74118700  1
  O  O28  1  0.39806700  0.40669600  0.74897900  1
  O  O29  1  0.41788300  0.72713000  0.87642100  1
  O  O30  1  0.78950700  0.78836900  0.92290200  1
  O  O31  1  0.14951600  0.51572200  0.70467200  1
  O  O32  1  0.72924300  0.14939200  0.65717900  1
  O  O33  1  0.09843000  0.87919300  0.82598000  1
  O  O34  1  0.82029900  0.51755100  0.72533300  1
  O  O35  1  0.14213500  0.18560800  0.41218100  1
  O  O36  1  0.44590700  0.14714300  0.42475400  1
  O  O37  1  0.38028000  0.55744200  0.56660600  1
  O  O38  1  0.11690000  0.74421700  0.53844200  1
  O  O39  1  0.88310000  0.25578300  0.46155800  1
  O  O40  1  0.61972000  0.44255800  0.43339400  1
  O  O41  1  0.55409300  0.85285700  0.57524600  1
  O  O42  1  0.85786500  0.81439200  0.58781900  1
  O  O43  1  0.17970100  0.48244900  0.27466700  1
  O  O44  1  0.90157000  0.12080700  0.17402000  1
  O  O45  1  0.27075700  0.85060800  0.34282100  1
  O  O46  1  0.85048400  0.48427800  0.29532800  1
  O  O47  1  0.21049300  0.21163100  0.07709800  1
  O  O48  1  0.58211700  0.27287000  0.12357900  1
  O  O49  1  0.60193300  0.59330400  0.25102100  1
  O  O50  1  0.54398200  0.89925800  0.25881300  1
  O  O51  1  0.88581400  0.93676700  0.33182000  1
  O  O52  1  0.27832300  0.48215100  0.02349600  1
  O  O53  1  0.01115000  0.67673400  0.01886100  1
  O  O54  1  0.29986900  0.95631900  0.12312200  1
