# generated using pymatgen
data_Li2Ti2MnCr2(PO4)6
_symmetry_space_group_name_H-M   'P 1'
_cell_length_a   8.62235400
_cell_length_b   8.64346848
_cell_length_c   14.93492485
_cell_angle_alpha   90.21796011
_cell_angle_beta   106.53895960
_cell_angle_gamma   119.91898012
_symmetry_Int_Tables_number   1
_chemical_formula_structural   Li2Ti2MnCr2(PO4)6
_chemical_formula_sum   'Li4 Ti4 Mn2 Cr4 P12 O48'
_cell_volume   910.45887013
_cell_formula_units_Z   2
loop_
 _symmetry_equiv_pos_site_id
 _symmetry_equiv_pos_as_xyz
  1  'x, y, z'
loop_
 _atom_site_type_symbol
 _atom_site_label
 _atom_site_symmetry_multiplicity
 _atom_site_fract_x
 _atom_site_fract_y
 _atom_site_fract_z
 _atom_site_occupancy
  Li  Li0  1  0.00866900  0.01231900  0.00158700  1
  Li  Li1  1  0.48951800  0.23878900  0.75079500  1
  Li  Li2  1  0.74363600  0.57078600  0.92943500  1
  Li  Li3  1  0.35946400  0.47749600  0.62554700  1
  Ti  Ti4  1  0.85896500  0.21177700  0.07172200  1
  Ti  Ti5  1  0.64385400  0.04108500  0.68017700  1
  Ti  Ti6  1  0.35255900  0.96980300  0.32113300  1
  Ti  Ti7  1  0.15107500  0.78995200  0.92782300  1
  Mn  Mn8  1  0.98696000  0.49654700  0.49359600  1
  Mn  Mn9  1  0.50504600  0.74987000  0.25124300  1
  Cr  Cr10  1  0.64216300  0.53363700  0.17962500  1
  Cr  Cr11  1  0.85944200  0.71667900  0.57040100  1
  Cr  Cr12  1  0.14090200  0.28425200  0.42818200  1
  Cr  Cr13  1  0.35614400  0.46141500  0.82207600  1
  P  P14  1  0.24959300  0.27492100  0.22973900  1
  P  P15  1  0.95579200  0.83444400  0.37479500  1
  P  P16  1  0.54626800  0.76875100  0.02158400  1
  P  P17  1  0.46201100  0.73117000  0.47972200  1
  P  P18  1  0.03964500  0.66367300  0.12510300  1
  P  P19  1  0.24975800  0.76543600  0.72584500  1
  P  P20  1  0.75027900  0.23041100  0.27113400  1
  P  P21  1  0.95832900  0.33451400  0.87545800  1
  P  P22  1  0.54143900  0.27441000  0.52242000  1
  P  P23  1  0.46093200  0.23137900  0.98089600  1
  P  P24  1  0.04164400  0.16569900  0.62556300  1
  P  P25  1  0.75063600  0.73075400  0.76926200  1
  O  O26  1  0.69254600  0.37002000  0.25494800  1
  O  O27  1  0.49070800  0.36212600  0.06100000  1
  O  O28  1  0.08681700  0.19213600  0.13371200  1
  O  O29  1  0.88024600  0.65754200  0.15247800  1
  O  O30  1  0.19620100  0.31851600  0.31065300  1
  O  O31  1  0.41516400  0.45731300  0.22123200  1
  O  O32  1  0.94480100  0.72111400  0.45573200  1
  O  O33  1  0.76400600  0.73349500  0.29267800  1
  O  O34  1  0.61928000  0.69118000  0.49560100  1
  O  O35  1  0.55475600  0.70258600  0.11808300  1
  O  O36  1  0.27214800  0.55896400  0.47985200  1
  O  O37  1  0.99929600  0.47147500  0.09817500  1
  O  O38  1  0.99175900  0.02018400  0.40399400  1
  O  O39  1  0.69668400  0.87555400  0.74950100  1
  O  O40  1  0.73334500  0.94666800  0.03195500  1
  O  O41  1  0.43503600  0.79511700  0.38214900  1
  O  O42  1  0.37581600  0.79885800  0.99593700  1
  O  O43  1  0.50402900  0.87132700  0.56132100  1
  O  O44  1  0.23595100  0.76692100  0.20539500  1
  O  O45  1  0.08349500  0.68926100  0.63075500  1
  O  O46  1  0.87757000  0.15327500  0.65338700  1
  O  O47  1  0.19226500  0.80088200  0.81000800  1
  O  O48  1  0.04818400  0.76234000  0.03782400  1
  O  O49  1  0.41372500  0.95168200  0.72054500  1
  O  O50  1  0.58579700  0.04303500  0.27936300  1
  O  O51  1  0.93723600  0.22646900  0.95830900  1
  O  O52  1  0.80914100  0.19024100  0.19010800  1
  O  O53  1  0.12006100  0.84807200  0.34422500  1
  O  O54  1  0.91455900  0.30862800  0.36825200  1
  O  O55  1  0.76648200  0.23327400  0.79256600  1
  O  O56  1  0.49173900  0.13382300  0.43764900  1
  O  O57  1  0.62518000  0.19483000  0.00298400  1
  O  O58  1  0.56322000  0.20156200  0.61649600  1
  O  O59  1  0.26800900  0.05322500  0.96633500  1
  O  O60  1  0.30823300  0.13082500  0.25096500  1
  O  O61  1  0.00866300  0.98119300  0.59713400  1
  O  O62  1  0.98977200  0.52421900  0.90320200  1
  O  O63  1  0.73467200  0.44207100  0.52704900  1
  O  O64  1  0.46269600  0.31086500  0.88743600  1
  O  O65  1  0.38545400  0.31743400  0.51056300  1
  O  O66  1  0.23887000  0.27496600  0.70453700  1
  O  O67  1  0.06509000  0.28655900  0.54599300  1
  O  O68  1  0.58194800  0.54699900  0.77682100  1
  O  O69  1  0.80251500  0.68385200  0.68849400  1
  O  O70  1  0.12106900  0.34555400  0.84969700  1
  O  O71  1  0.90607600  0.79642700  0.86844500  1
  O  O72  1  0.52186700  0.63611400  0.94310500  1
  O  O73  1  0.30610500  0.62275900  0.73999100  1
