# generated using pymatgen
data_LiMnPO4
_symmetry_space_group_name_H-M   'P 1'
_cell_length_a   5.67375800
_cell_length_b   8.41879700
_cell_length_c   19.84523900
_cell_angle_alpha   90.00000000
_cell_angle_beta   90.00000000
_cell_angle_gamma   90.00000000
_symmetry_Int_Tables_number   1
_chemical_formula_structural   LiMnPO4
_chemical_formula_sum   'Li12 Mn12 P12 O48'
_cell_volume   947.93198910
_cell_formula_units_Z   12
loop_
 _symmetry_equiv_pos_site_id
 _symmetry_equiv_pos_as_xyz
  1  'x, y, z'
loop_
 _atom_site_type_symbol
 _atom_site_label
 _atom_site_symmetry_multiplicity
 _atom_site_fract_x
 _atom_site_fract_y
 _atom_site_fract_z
 _atom_site_occupancy
  Li  Li0  1  0.69114300  0.27462300  0.98895700  1
  Li  Li1  1  0.30778100  0.75764800  0.17458100  1
  Li  Li2  1  0.73055000  0.24142300  0.15411500  1
  Li  Li3  1  0.23055000  0.74142300  0.34588500  1
  Li  Li4  1  0.80778100  0.25764800  0.32541900  1
  Li  Li5  1  0.19114300  0.77462300  0.51104300  1
  Li  Li6  1  0.69114300  0.22537700  0.48895700  1
  Li  Li7  1  0.30778100  0.74235200  0.67458100  1
  Li  Li8  1  0.73055000  0.25857700  0.65411500  1
  Li  Li9  1  0.23055000  0.75857700  0.84588500  1
  Li  Li10  1  0.80778100  0.24235200  0.82541900  1
  Li  Li11  1  0.19114300  0.72537700  0.01104300  1
  Mn  Mn12  1  0.75406200  0.96443600  0.06620900  1
  Mn  Mn13  1  0.20786800  0.43132600  0.10158800  1
  Mn  Mn14  1  0.74581600  0.56060200  0.23301300  1
  Mn  Mn15  1  0.24581600  0.06060200  0.26698700  1
  Mn  Mn16  1  0.70786800  0.93132600  0.39841200  1
  Mn  Mn17  1  0.25406200  0.46443600  0.43379100  1
  Mn  Mn18  1  0.75406200  0.53556400  0.56620900  1
  Mn  Mn19  1  0.20786800  0.06867400  0.60158800  1
  Mn  Mn20  1  0.74581600  0.93939800  0.73301300  1
  Mn  Mn21  1  0.24581600  0.43939800  0.76698700  1
  Mn  Mn22  1  0.70786800  0.56867400  0.89841200  1
  Mn  Mn23  1  0.25406200  0.03556400  0.93379100  1
  P  P24  1  0.70796300  0.58477400  0.07049000  1
  P  P25  1  0.26123700  0.08420500  0.09506400  1
  P  P26  1  0.73326200  0.93333700  0.24175200  1
  P  P27  1  0.23326200  0.43333700  0.25824800  1
  P  P28  1  0.76123700  0.58420500  0.40493600  1
  P  P29  1  0.20796300  0.08477400  0.42951000  1
  P  P30  1  0.70796300  0.91522600  0.57049000  1
  P  P31  1  0.26123700  0.41579500  0.59506400  1
  P  P32  1  0.73326200  0.56666300  0.74175200  1
  P  P33  1  0.23326200  0.06666300  0.75824800  1
  P  P34  1  0.76123700  0.91579500  0.90493600  1
  P  P35  1  0.20796300  0.41522600  0.92951000  1
  O  O36  1  0.67614900  0.50564300  0.00117300  1
  O  O37  1  0.32944000  0.96467700  0.03676900  1
  O  O38  1  0.44940000  0.22049000  0.09355500  1
  O  O39  1  0.01888500  0.16429500  0.08067700  1
  O  O40  1  0.87410800  0.73237300  0.06514600  1
  O  O41  1  0.46273000  0.63280000  0.10027700  1
  O  O42  1  0.82466800  0.46414600  0.12047100  1
  O  O43  1  0.26127400  0.99053800  0.16154600  1
  O  O44  1  0.75496600  0.99864700  0.17017300  1
  O  O45  1  0.11905100  0.56561900  0.21307300  1
  O  O46  1  0.47333400  0.38985800  0.22524200  1
  O  O47  1  0.07015300  0.28235900  0.25578100  1
  O  O48  1  0.57015300  0.78235900  0.24421900  1
  O  O49  1  0.97333400  0.88985800  0.27475800  1
  O  O50  1  0.61905100  0.06561900  0.28692700  1
  O  O51  1  0.25496600  0.49864700  0.32982700  1
  O  O52  1  0.76127400  0.49053800  0.33845400  1
  O  O53  1  0.32466800  0.96414600  0.37952900  1
  O  O54  1  0.96273000  0.13280000  0.39972300  1
  O  O55  1  0.37410800  0.23237300  0.43485400  1
  O  O56  1  0.51888500  0.66429500  0.41932300  1
  O  O57  1  0.94940000  0.72049000  0.40644500  1
  O  O58  1  0.82944000  0.46467700  0.46323100  1
  O  O59  1  0.17614900  0.00564300  0.49882700  1
  O  O60  1  0.67614900  0.99435700  0.50117300  1
  O  O61  1  0.32944000  0.53532300  0.53676900  1
  O  O62  1  0.44940000  0.27951000  0.59355500  1
  O  O63  1  0.01888500  0.33570500  0.58067700  1
  O  O64  1  0.87410800  0.76762700  0.56514600  1
  O  O65  1  0.46273000  0.86720000  0.60027700  1
  O  O66  1  0.82466800  0.03585400  0.62047100  1
  O  O67  1  0.26127400  0.50946200  0.66154600  1
  O  O68  1  0.75496600  0.50135300  0.67017300  1
  O  O69  1  0.11905100  0.93438100  0.71307300  1
  O  O70  1  0.47333400  0.11014200  0.72524200  1
  O  O71  1  0.07015300  0.21764100  0.75578100  1
  O  O72  1  0.57015300  0.71764100  0.74421900  1
  O  O73  1  0.97333400  0.61014200  0.77475800  1
  O  O74  1  0.61905100  0.43438100  0.78692700  1
  O  O75  1  0.25496600  0.00135300  0.82982700  1
  O  O76  1  0.76127400  0.00946200  0.83845400  1
  O  O77  1  0.32466800  0.53585400  0.87952900  1
  O  O78  1  0.96273000  0.36720000  0.89972300  1
  O  O79  1  0.37410800  0.26762700  0.93485400  1
  O  O80  1  0.51888500  0.83570500  0.91932300  1
  O  O81  1  0.94940000  0.77951000  0.90644500  1
  O  O82  1  0.82944000  0.03532300  0.96323100  1
  O  O83  1  0.17614900  0.49435700  0.99882700  1
