# generated using pymatgen
data_LiMn2OF3
_symmetry_space_group_name_H-M   'P 1'
_cell_length_a   6.27620929
_cell_length_b   6.27848990
_cell_length_c   8.98151425
_cell_angle_alpha   90.15689272
_cell_angle_beta   90.07264204
_cell_angle_gamma   90.01142351
_symmetry_Int_Tables_number   1
_chemical_formula_structural   LiMn2OF3
_chemical_formula_sum   'Li4 Mn8 O4 F12'
_cell_volume   353.91599804
_cell_formula_units_Z   4
loop_
 _symmetry_equiv_pos_site_id
 _symmetry_equiv_pos_as_xyz
  1  'x, y, z'
loop_
 _atom_site_type_symbol
 _atom_site_label
 _atom_site_symmetry_multiplicity
 _atom_site_fract_x
 _atom_site_fract_y
 _atom_site_fract_z
 _atom_site_occupancy
  Li  Li0  1  0.25171300  0.51083500  0.24984900  1
  Li  Li1  1  0.48922200  0.25143700  0.99953600  1
  Li  Li2  1  0.50944000  0.74867900  0.49981500  1
  Li  Li3  1  0.74868700  0.49014100  0.74961600  1
  Mn  Mn4  1  0.75085300  0.01499400  0.73377400  1
  Mn  Mn5  1  0.25832100  0.77485000  0.88559100  1
  Mn  Mn6  1  0.74328900  0.22568200  0.38530000  1
  Mn  Mn7  1  0.77536200  0.74205400  0.13578000  1
  Mn  Mn8  1  0.01349400  0.25099000  0.98385000  1
  Mn  Mn9  1  0.98365100  0.75036400  0.48319400  1
  Mn  Mn10  1  0.25165200  0.98556400  0.23292700  1
  Mn  Mn11  1  0.22565700  0.25766200  0.63468400  1
  O  O12  1  0.03317400  0.74429900  0.25819300  1
  O  O13  1  0.25515700  0.03304700  0.00777700  1
  O  O14  1  0.74339200  0.96716800  0.50783000  1
  O  O15  1  0.96705900  0.25585600  0.75759600  1
  F  F16  1  0.00889300  0.26123500  0.24190600  1
  F  F17  1  0.26137400  0.99033700  0.49198800  1
  F  F18  1  0.73740000  0.00825100  0.99364100  1
  F  F19  1  0.99189800  0.73692400  0.74315000  1
  F  F20  1  0.26185200  0.49694700  0.01299700  1
  F  F21  1  0.50286700  0.26150500  0.76294700  1
  F  F22  1  0.49731400  0.73782100  0.26295000  1
  F  F23  1  0.73775300  0.50293100  0.51306100  1
  F  F24  1  0.25522600  0.51785800  0.49288700  1
  F  F25  1  0.51852000  0.74465600  0.74301200  1
  F  F26  1  0.48257100  0.25584000  0.24318700  1
  F  F27  1  0.74421000  0.48207100  0.99295800  1
