# generated using pymatgen
data_Li3MnF5
_symmetry_space_group_name_H-M   'P 1'
_cell_length_a   5.78844300
_cell_length_b   5.78844300
_cell_length_c   11.24769100
_cell_angle_alpha   90.00000000
_cell_angle_beta   90.00000000
_cell_angle_gamma   90.00000000
_symmetry_Int_Tables_number   1
_chemical_formula_structural   Li3MnF5
_chemical_formula_sum   'Li12 Mn4 F20'
_cell_volume   376.86594858
_cell_formula_units_Z   4
loop_
 _symmetry_equiv_pos_site_id
 _symmetry_equiv_pos_as_xyz
  1  'x, y, z'
loop_
 _atom_site_type_symbol
 _atom_site_label
 _atom_site_symmetry_multiplicity
 _atom_site_fract_x
 _atom_site_fract_y
 _atom_site_fract_z
 _atom_site_occupancy
  Li  Li0  1  0.02430000  0.16651000  0.32033700  1
  Li  Li1  1  0.08287800  0.32880600  0.84647400  1
  Li  Li2  1  0.21902500  0.44343600  0.61575600  1
  Li  Li3  1  0.16651000  0.97570000  0.07033700  1
  Li  Li4  1  0.32880600  0.91712200  0.59647400  1
  Li  Li5  1  0.44343600  0.78097500  0.36575600  1
  Li  Li6  1  0.55656400  0.21902500  0.86575600  1
  Li  Li7  1  0.67119400  0.08287800  0.09647400  1
  Li  Li8  1  0.83349000  0.02430000  0.57033700  1
  Li  Li9  1  0.78097500  0.55656400  0.11575600  1
  Li  Li10  1  0.91712200  0.67119400  0.34647400  1
  Li  Li11  1  0.97570000  0.83349000  0.82033700  1
  Mn  Mn12  1  0.28328300  0.48741100  0.14189400  1
  Mn  Mn13  1  0.48741100  0.71671700  0.89189400  1
  Mn  Mn14  1  0.51258900  0.28328300  0.39189400  1
  Mn  Mn15  1  0.71671700  0.51258900  0.64189400  1
  F  F16  1  0.97064200  0.24886000  0.14498400  1
  F  F17  1  0.01302400  0.76774000  0.17449600  1
  F  F18  1  0.15214700  0.57953200  0.96557900  1
  F  F19  1  0.23226000  0.01302400  0.42449600  1
  F  F20  1  0.20506100  0.49104000  0.33055100  1
  F  F21  1  0.24886000  0.02935800  0.89498400  1
  F  F22  1  0.42046800  0.15214700  0.21557900  1
  F  F23  1  0.36899600  0.44218600  0.77136900  1
  F  F24  1  0.55781400  0.36899600  0.02136900  1
  F  F25  1  0.49104000  0.79493900  0.08055100  1
  F  F26  1  0.50896000  0.20506100  0.58055100  1
  F  F27  1  0.44218600  0.63100400  0.52136900  1
  F  F28  1  0.63100400  0.55781400  0.27136900  1
  F  F29  1  0.57953200  0.84785300  0.71557900  1
  F  F30  1  0.75114000  0.97064200  0.39498400  1
  F  F31  1  0.79493900  0.50896000  0.83055100  1
  F  F32  1  0.76774000  0.98697600  0.92449600  1
  F  F33  1  0.84785300  0.42046800  0.46557900  1
  F  F34  1  0.98697600  0.23226000  0.67449600  1
  F  F35  1  0.02935800  0.75114000  0.64498400  1
