# generated using pymatgen
data_Li4Mn2(PO4)3
_symmetry_space_group_name_H-M   'P 1'
_cell_length_a   8.75585700
_cell_length_b   8.90392800
_cell_length_c   15.26851984
_cell_angle_alpha   55.26032043
_cell_angle_beta   90.00000000
_cell_angle_gamma   90.00000000
_symmetry_Int_Tables_number   1
_chemical_formula_structural   Li4Mn2(PO4)3
_chemical_formula_sum   'Li16 Mn8 P12 O48'
_cell_volume   978.17539913
_cell_formula_units_Z   4
loop_
 _symmetry_equiv_pos_site_id
 _symmetry_equiv_pos_as_xyz
  1  'x, y, z'
loop_
 _atom_site_type_symbol
 _atom_site_label
 _atom_site_symmetry_multiplicity
 _atom_site_fract_x
 _atom_site_fract_y
 _atom_site_fract_z
 _atom_site_occupancy
  Li  Li0  1  0.94206000  0.15448400  0.79017300  1
  Li  Li1  1  0.57575300  0.73715300  0.21261700  1
  Li  Li2  1  0.23671800  0.48260600  0.31787600  1
  Li  Li3  1  0.26256400  0.10464900  0.67770300  1
  Li  Li4  1  0.76256400  0.89535100  0.82229700  1
  Li  Li5  1  0.73671800  0.51739400  0.18212400  1
  Li  Li6  1  0.07575300  0.26284700  0.28738300  1
  Li  Li7  1  0.44206000  0.84551600  0.70982700  1
  Li  Li8  1  0.55794000  0.15448400  0.29017300  1
  Li  Li9  1  0.92424700  0.73715300  0.71261700  1
  Li  Li10  1  0.26328200  0.48260600  0.81787600  1
  Li  Li11  1  0.23743600  0.10464900  0.17770300  1
  Li  Li12  1  0.73743600  0.89535100  0.32229700  1
  Li  Li13  1  0.76328200  0.51739400  0.68212400  1
  Li  Li14  1  0.42424700  0.26284700  0.78738300  1
  Li  Li15  1  0.05794000  0.84551600  0.20982700  1
  Mn  Mn16  1  0.94910500  0.14552100  0.60479100  1
  Mn  Mn17  1  0.44910500  0.85447900  0.89520900  1
  Mn  Mn18  1  0.55089500  0.14552100  0.10479100  1
  Mn  Mn19  1  0.05089500  0.85447900  0.39520900  1
  Mn  Mn20  1  0.04742800  0.64365500  0.10453100  1
  Mn  Mn21  1  0.54742800  0.35634500  0.39546900  1
  Mn  Mn22  1  0.45257200  0.64365500  0.60453100  1
  Mn  Mn23  1  0.95257200  0.35634500  0.89546900  1
  P  P24  1  0.75062000  0.94799500  0.00004300  1
  P  P25  1  0.60786000  0.24783600  0.64910300  1
  P  P26  1  0.89425600  0.55119300  0.34884000  1
  P  P27  1  0.10786000  0.75216400  0.85089700  1
  P  P28  1  0.39425600  0.44880700  0.15116000  1
  P  P29  1  0.25062000  0.05200500  0.49995700  1
  P  P30  1  0.74938000  0.94799500  0.50004300  1
  P  P31  1  0.60574400  0.55119300  0.84884000  1
  P  P32  1  0.89214000  0.24783600  0.14910300  1
  P  P33  1  0.10574400  0.44880700  0.65116000  1
  P  P34  1  0.39214000  0.75216400  0.35089700  1
  P  P35  1  0.24938000  0.05200500  0.99995700  1
  O  O36  1  0.13857500  0.89331000  0.07213600  1
  O  O37  1  0.33762000  0.03282100  0.91762400  1
  O  O38  1  0.09862600  0.25963700  0.66404400  1
  O  O39  1  0.40989100  0.61305300  0.32076000  1
  O  O40  1  0.64326400  0.94677700  0.91797000  1
  O  O41  1  0.77186000  0.15754800  0.69108900  1
  O  O42  1  0.59712500  0.33424000  0.53115200  1
  O  O43  1  0.73576900  0.54324800  0.30522300  1
  O  O44  1  0.82832700  0.75945600  0.06920300  1
  O  O45  1  0.92102400  0.38753700  0.46210000  1
  O  O46  1  0.02397600  0.56442500  0.27441900  1
  O  O47  1  0.48020900  0.10051300  0.71248000  1
  O  O48  1  0.98020900  0.89948700  0.78752000  1
  O  O49  1  0.52397600  0.43557500  0.22558100  1
  O  O50  1  0.42102400  0.61246300  0.03790000  1
  O  O51  1  0.32832700  0.24054400  0.43079700  1
  O  O52  1  0.09712500  0.66576000  0.96884800  1
  O  O53  1  0.23576900  0.45675200  0.19477700  1
  O  O54  1  0.27186000  0.84245200  0.80891100  1
  O  O55  1  0.14326400  0.05322300  0.58203000  1
  O  O56  1  0.59862600  0.74036300  0.83595600  1
  O  O57  1  0.90989100  0.38694700  0.17924000  1
  O  O58  1  0.83762000  0.96717900  0.58237600  1
  O  O59  1  0.63857500  0.10669000  0.42786400  1
  O  O60  1  0.36142500  0.89331000  0.57213600  1
  O  O61  1  0.16238000  0.03282100  0.41762400  1
  O  O62  1  0.09010900  0.61305300  0.82076000  1
  O  O63  1  0.40137400  0.25963700  0.16404400  1
  O  O64  1  0.85673600  0.94677700  0.41797000  1
  O  O65  1  0.72814000  0.15754800  0.19108900  1
  O  O66  1  0.76423100  0.54324800  0.80522300  1
  O  O67  1  0.90287500  0.33424000  0.03115200  1
  O  O68  1  0.67167300  0.75945600  0.56920300  1
  O  O69  1  0.57897600  0.38753700  0.96210000  1
  O  O70  1  0.47602400  0.56442500  0.77441900  1
  O  O71  1  0.01979100  0.10051300  0.21248000  1
  O  O72  1  0.51979100  0.89948700  0.28752000  1
  O  O73  1  0.97602400  0.43557500  0.72558100  1
  O  O74  1  0.07897600  0.61246300  0.53790000  1
  O  O75  1  0.17167300  0.24054400  0.93079700  1
  O  O76  1  0.26423100  0.45675200  0.69477700  1
  O  O77  1  0.40287500  0.66576000  0.46884800  1
  O  O78  1  0.22814000  0.84245200  0.30891100  1
  O  O79  1  0.35673600  0.05322300  0.08203000  1
  O  O80  1  0.59010900  0.38694700  0.67924000  1
  O  O81  1  0.90137400  0.74036300  0.33595600  1
  O  O82  1  0.66238000  0.96717900  0.08237600  1
  O  O83  1  0.86142500  0.10669000  0.92786400  1
