# generated using pymatgen
data_Li6W2O9
_symmetry_space_group_name_H-M   'P 1'
_cell_length_a   6.66817173
_cell_length_b   6.66817173
_cell_length_c   8.32740693
_cell_angle_alpha   71.85428243
_cell_angle_beta   71.85428243
_cell_angle_gamma   83.87383061
_symmetry_Int_Tables_number   1
_chemical_formula_structural   Li6W2O9
_chemical_formula_sum   'Li12 W4 O18'
_cell_volume   334.34122374
_cell_formula_units_Z   2
loop_
 _symmetry_equiv_pos_site_id
 _symmetry_equiv_pos_as_xyz
  1  'x, y, z'
loop_
 _atom_site_type_symbol
 _atom_site_label
 _atom_site_symmetry_multiplicity
 _atom_site_fract_x
 _atom_site_fract_y
 _atom_site_fract_z
 _atom_site_occupancy
  Li  Li0  1  0.34531600  0.98386400  0.41607700  1
  Li  Li1  1  0.66029600  0.66436600  0.41869000  1
  Li  Li2  1  0.00147100  0.35718100  0.41123000  1
  Li  Li3  1  0.35718100  0.00147100  0.91123000  1
  Li  Li4  1  0.98386400  0.34531600  0.91607700  1
  Li  Li5  1  0.66436600  0.66029600  0.91869000  1
  Li  Li6  1  0.65468400  0.01613600  0.58392300  1
  Li  Li7  1  0.33970400  0.33563400  0.58131000  1
  Li  Li8  1  0.99852900  0.64281900  0.58877000  1
  Li  Li9  1  0.01613600  0.65468400  0.08392300  1
  Li  Li10  1  0.33563400  0.33970400  0.08131000  1
  Li  Li11  1  0.64281900  0.99852900  0.08877000  1
  W  W12  1  0.01014500  0.98985500  0.25000000  1
  W  W13  1  0.98985500  0.01014500  0.75000000  1
  W  W14  1  0.36305300  0.63694700  0.75000000  1
  W  W15  1  0.63694700  0.36305300  0.25000000  1
  O  O16  1  0.67787200  0.65171900  0.16754700  1
  O  O17  1  0.01548400  0.30050100  0.66897600  1
  O  O18  1  0.30050100  0.01548400  0.16897600  1
  O  O19  1  0.30844500  0.98108100  0.67930000  1
  O  O20  1  0.98108100  0.30844500  0.17930000  1
  O  O21  1  0.65171900  0.67787200  0.66754700  1
  O  O22  1  0.33039900  0.66980700  0.52463800  1
  O  O23  1  0.00000000  0.00000000  0.00000000  1
  O  O24  1  0.00000000  0.00000000  0.50000000  1
  O  O25  1  0.33019300  0.66960100  0.97536200  1
  O  O26  1  0.98451600  0.69949900  0.33102400  1
  O  O27  1  0.34828100  0.32212800  0.33245300  1
  O  O28  1  0.01891900  0.69155500  0.82070000  1
  O  O29  1  0.69949900  0.98451600  0.83102400  1
  O  O30  1  0.69155500  0.01891900  0.32070000  1
  O  O31  1  0.32212800  0.34828100  0.83245300  1
  O  O32  1  0.66960100  0.33019300  0.47536200  1
  O  O33  1  0.66980700  0.33039900  0.02463800  1
