# generated using pymatgen
data_Li2Mn3F8
_symmetry_space_group_name_H-M   'P 1'
_cell_length_a   10.36896000
_cell_length_b   6.09473400
_cell_length_c   10.94049419
_cell_angle_alpha   86.33973334
_cell_angle_beta   90.00000000
_cell_angle_gamma   90.00000000
_symmetry_Int_Tables_number   1
_chemical_formula_structural   Li2Mn3F8
_chemical_formula_sum   'Li8 Mn12 F32'
_cell_volume   689.98569297
_cell_formula_units_Z   4
loop_
 _symmetry_equiv_pos_site_id
 _symmetry_equiv_pos_as_xyz
  1  'x, y, z'
loop_
 _atom_site_type_symbol
 _atom_site_label
 _atom_site_symmetry_multiplicity
 _atom_site_fract_x
 _atom_site_fract_y
 _atom_site_fract_z
 _atom_site_occupancy
  Li  Li0  1  0.05225500  0.87638800  0.79205000  1
  Li  Li1  1  0.44774500  0.87638800  0.29205000  1
  Li  Li2  1  0.64585200  0.64320200  0.87847600  1
  Li  Li3  1  0.85414800  0.64320200  0.37847600  1
  Li  Li4  1  0.14585200  0.35679800  0.62152400  1
  Li  Li5  1  0.35414800  0.35679800  0.12152400  1
  Li  Li6  1  0.55225500  0.12361200  0.70795000  1
  Li  Li7  1  0.94774500  0.12361200  0.20795000  1
  Mn  Mn8  1  0.36401800  0.88597400  0.96513100  1
  Mn  Mn9  1  0.13598200  0.88597400  0.46513100  1
  Mn  Mn10  1  0.35676100  0.64168000  0.71521900  1
  Mn  Mn11  1  0.62789600  0.64450900  0.55536000  1
  Mn  Mn12  1  0.14323900  0.64168000  0.21521900  1
  Mn  Mn13  1  0.87210400  0.64450900  0.05536000  1
  Mn  Mn14  1  0.12789600  0.35549100  0.94464000  1
  Mn  Mn15  1  0.85676100  0.35832000  0.78478100  1
  Mn  Mn16  1  0.37210400  0.35549100  0.44464000  1
  Mn  Mn17  1  0.64323900  0.35832000  0.28478100  1
  Mn  Mn18  1  0.86401800  0.11402600  0.53486900  1
  Mn  Mn19  1  0.63598200  0.11402600  0.03486900  1
  F  F20  1  0.49500600  0.86289700  0.63086700  1
  F  F21  1  0.23783100  0.85977300  0.80999600  1
  F  F22  1  0.01114600  0.89682400  0.62007500  1
  F  F23  1  0.73759300  0.85004500  0.96684000  1
  F  F24  1  0.00499400  0.86289700  0.13086700  1
  F  F25  1  0.26216900  0.85977300  0.30999600  1
  F  F26  1  0.48885400  0.89682400  0.12007500  1
  F  F27  1  0.76240700  0.85004500  0.46684000  1
  F  F28  1  0.46830400  0.63869900  0.87506700  1
  F  F29  1  0.98337900  0.60406700  0.88142200  1
  F  F30  1  0.72212400  0.60412600  0.72410200  1
  F  F31  1  0.03169600  0.63869900  0.37506700  1
  F  F32  1  0.51662100  0.60406700  0.38142200  1
  F  F33  1  0.25140600  0.60490500  0.54585600  1
  F  F34  1  0.77787600  0.60412600  0.22410200  1
  F  F35  1  0.24859400  0.60490500  0.04585600  1
  F  F36  1  0.75140600  0.39509500  0.95414400  1
  F  F37  1  0.22212400  0.39587400  0.77589800  1
  F  F38  1  0.74859400  0.39509500  0.45414400  1
  F  F39  1  0.48337900  0.39593300  0.61857800  1
  F  F40  1  0.96830400  0.36130100  0.62493300  1
  F  F41  1  0.27787600  0.39587400  0.27589800  1
  F  F42  1  0.01662100  0.39593300  0.11857800  1
  F  F43  1  0.53169600  0.36130100  0.12493300  1
  F  F44  1  0.23759300  0.14995500  0.53316000  1
  F  F45  1  0.51114600  0.10317600  0.87992500  1
  F  F46  1  0.73783100  0.14022700  0.69000400  1
  F  F47  1  0.99500600  0.13710300  0.86913300  1
  F  F48  1  0.26240700  0.14995500  0.03316000  1
  F  F49  1  0.98885400  0.10317600  0.37992500  1
  F  F50  1  0.76216900  0.14022700  0.19000400  1
  F  F51  1  0.50499400  0.13710300  0.36913300  1
