# generated using pymatgen
data_Li4Mn3(CoO4)3
_symmetry_space_group_name_H-M   'P 1'
_cell_length_a   6.90874397
_cell_length_b   5.87553143
_cell_length_c   5.70726440
_cell_angle_alpha   89.12519062
_cell_angle_beta   102.18759626
_cell_angle_gamma   76.72399242
_symmetry_Int_Tables_number   1
_chemical_formula_structural   Li4Mn3(CoO4)3
_chemical_formula_sum   'Li4 Mn3 Co3 O12'
_cell_volume   219.90360592
_cell_formula_units_Z   1
loop_
 _symmetry_equiv_pos_site_id
 _symmetry_equiv_pos_as_xyz
  1  'x, y, z'
loop_
 _atom_site_type_symbol
 _atom_site_label
 _atom_site_symmetry_multiplicity
 _atom_site_fract_x
 _atom_site_fract_y
 _atom_site_fract_z
 _atom_site_occupancy
  Li  Li0  1  0.02673900  0.97586600  0.48003100  1
  Li  Li1  1  0.66692900  0.33317400  0.16667900  1
  Li  Li2  1  0.66648300  0.33341400  0.66661600  1
  Li  Li3  1  0.30659300  0.69083300  0.85339300  1
  Mn  Mn4  1  0.00095500  0.49871900  0.99602700  1
  Mn  Mn5  1  0.33245700  0.16795800  0.33721100  1
  Mn  Mn6  1  0.66664400  0.83330700  0.66664700  1
  Co  Co7  1  0.00556500  0.50011100  0.50032400  1
  Co  Co8  1  0.32777200  0.16658300  0.83300000  1
  Co  Co9  1  0.66665100  0.83332800  0.16661900  1
  O  O10  1  0.02828000  0.26709100  0.26015600  1
  O  O11  1  0.00407400  0.28175600  0.74592000  1
  O  O12  1  0.30499400  0.39959800  0.07318600  1
  O  O13  1  0.62857200  0.09485900  0.41838800  1
  O  O14  1  0.32929200  0.38493500  0.58741000  1
  O  O15  1  0.65456000  0.05360400  0.91732200  1
  O  O16  1  0.36230500  0.94193700  0.09108600  1
  O  O17  1  0.67874400  0.61300200  0.41607400  1
  O  O18  1  0.33012700  0.94627300  0.58850100  1
  O  O19  1  0.70474800  0.57180100  0.91493900  1
  O  O20  1  0.97099000  0.72475800  0.24226600  1
  O  O21  1  0.00319300  0.72042700  0.74487100  1
