# generated using pymatgen
data_LiMnV(PO4)3
_symmetry_space_group_name_H-M   'P 1'
_cell_length_a   9.16171521
_cell_length_b   8.26536985
_cell_length_c   8.25922296
_cell_angle_alpha   61.11164427
_cell_angle_beta   61.98665366
_cell_angle_gamma   92.06450353
_symmetry_Int_Tables_number   1
_chemical_formula_structural   LiMnV(PO4)3
_chemical_formula_sum   'Li2 Mn2 V2 P6 O24'
_cell_volume   454.61764981
_cell_formula_units_Z   2
loop_
 _symmetry_equiv_pos_site_id
 _symmetry_equiv_pos_as_xyz
  1  'x, y, z'
loop_
 _atom_site_type_symbol
 _atom_site_label
 _atom_site_symmetry_multiplicity
 _atom_site_fract_x
 _atom_site_fract_y
 _atom_site_fract_z
 _atom_site_occupancy
  Li  Li0  1  0.36859008  0.18797208  0.37636615  1
  Li  Li1  1  0.88928533  0.93271079  0.36256687  1
  Mn  Mn2  1  0.57034227  0.85512423  0.27997754  1
  Mn  Mn3  1  0.43555368  0.13887043  0.72138237  1
  V  V4  1  0.04750676  0.36019218  0.30364993  1
  V  V5  1  0.95488806  0.64350618  0.70685323  1
  P  P6  1  0.24863091  0.04814211  0.20927033  1
  P  P7  1  0.24863961  0.46707084  0.49554083  1
  P  P8  1  0.25350622  0.75270961  0.78094657  1
  P  P9  1  0.75225369  0.24159935  0.21755893  1
  P  P10  1  0.75435949  0.53151814  0.50703097  1
  P  P11  1  0.75199818  0.95676973  0.78818438  1
  O  O12  1  0.09635466  0.84309848  0.38171146  1
  O  O13  1  0.26665183  0.12251037  0.99043965  1
  O  O14  1  0.18202943  0.19088017  0.28193717  1
  O  O15  1  0.18613626  0.48793349  0.33770771  1
  O  O16  1  0.10359636  0.49149760  0.67273168  1
  O  O17  1  0.10992888  0.78113575  0.72441698  1
  O  O18  1  0.41174033  0.04517591  0.21444598  1
  O  O19  1  0.26723480  0.26677798  0.59302499  1
  O  O20  1  0.42227960  0.63252359  0.34843301  1
  O  O21  1  0.18193240  0.53889577  0.99052588  1
  O  O22  1  0.27037649  0.89691424  0.84099062  1
  O  O23  1  0.42527871  0.78538854  0.58652509  1
  O  O24  1  0.57457844  0.21563354  0.40240933  1
  O  O25  1  0.73634859  0.10301943  0.15065617  1
  O  O26  1  0.82189056  0.45899251  0.01116835  1
  O  O27  1  0.57995883  0.36985423  0.64767932  1
  O  O28  1  0.74641413  0.73574793  0.38921723  1
  O  O29  1  0.58621144  0.96720179  0.79457030  1
  O  O30  1  0.89066917  0.20646303  0.27796759  1
  O  O31  1  0.89769700  0.50536598  0.32677088  1
  O  O32  1  0.81829117  0.51805712  0.65922411  1
  O  O33  1  0.82384499  0.81997601  0.70787768  1
  O  O34  1  0.73653706  0.87971183  0.00627050  1
  O  O35  1  0.90053959  0.16700705  0.60965921  1
