# generated using pymatgen
data_Li3Sb17S27
_symmetry_space_group_name_H-M   'P 1'
_cell_length_a   8.84026600
_cell_length_b   8.84909578
_cell_length_c   15.49285948
_cell_angle_alpha   103.86284120
_cell_angle_beta   95.38247109
_cell_angle_gamma   96.31730546
_symmetry_Int_Tables_number   1
_chemical_formula_structural   Li3Sb17S27
_chemical_formula_sum   'Li3 Sb17 S27'
_cell_volume   1160.42971755
_cell_formula_units_Z   1
loop_
 _symmetry_equiv_pos_site_id
 _symmetry_equiv_pos_as_xyz
  1  'x, y, z'
loop_
 _atom_site_type_symbol
 _atom_site_label
 _atom_site_symmetry_multiplicity
 _atom_site_fract_x
 _atom_site_fract_y
 _atom_site_fract_z
 _atom_site_occupancy
  Li  Li0  1  0.16783500  0.17034100  0.50607600  1
  Li  Li1  1  0.50167700  0.49864800  0.50162900  1
  Li  Li2  1  0.83579000  0.83250600  0.50159200  1
  Sb  Sb3  1  0.62237800  0.33248500  0.92103900  1
  Sb  Sb4  1  0.12635700  0.59406300  0.61747800  1
  Sb  Sb5  1  0.88665700  0.00566000  0.80783200  1
  Sb  Sb6  1  0.53688100  0.05903100  0.38640200  1
  Sb  Sb7  1  0.05235800  0.33191300  0.06715800  1
  Sb  Sb8  1  0.81487400  0.28152700  0.61795400  1
  Sb  Sb9  1  0.28331700  0.99398900  0.92111900  1
  Sb  Sb10  1  0.53449600  0.65407000  0.80719300  1
  Sb  Sb11  1  0.46789700  0.31993000  0.18297600  1
  Sb  Sb12  1  0.71032200  0.00235700  0.06931400  1
  Sb  Sb13  1  0.20591700  0.72364200  0.38730900  1
  Sb  Sb14  1  0.95839300  0.66326100  0.92905900  1
  Sb  Sb15  1  0.45256600  0.95235900  0.61093400  1
  Sb  Sb16  1  0.13469400  0.99568500  0.18748200  1
  Sb  Sb17  1  0.87029000  0.38830000  0.38568500  1
  Sb  Sb18  1  0.37934000  0.65994100  0.06772300  1
  Sb  Sb19  1  0.79542400  0.65780100  0.18641900  1
  S  S20  1  0.15672300  0.01493300  0.77419600  1
  S  S21  1  0.10440600  0.32918300  0.65393600  1
  S  S22  1  0.22082600  0.01502900  0.35076200  1
  S  S23  1  0.56078500  0.02277900  0.87325500  1
  S  S24  1  0.16831600  0.30354900  0.22241900  1
  S  S25  1  0.18028400  0.46776500  0.46277700  1
  S  S26  1  0.47707500  0.19863800  0.53525700  1
  S  S27  1  0.50364800  0.36280600  0.77454800  1
  S  S28  1  0.23593400  0.68893600  0.88075100  1
  S  S29  1  0.09700200  0.64966000  0.12502000  1
  S  S30  1  0.84158700  0.12985700  0.46259100  1
  S  S31  1  0.43868600  0.64835900  0.64782900  1
  S  S32  1  0.55924600  0.34367200  0.35337000  1
  S  S33  1  0.15717000  0.87900900  0.53481900  1
  S  S34  1  0.89892500  0.35285100  0.87942500  1
  S  S35  1  0.32482600  0.34743400  0.01023800  1
  S  S36  1  0.75698100  0.31689600  0.13078500  1
  S  S37  1  0.50832000  0.64173000  0.22317600  1
  S  S38  1  0.51298200  0.79566900  0.46617400  1
  S  S39  1  0.81958500  0.53814200  0.53450200  1
  S  S40  1  0.82908400  0.69163300  0.77615000  1
  S  S41  1  0.43247800  0.99249400  0.13012300  1
  S  S42  1  0.78229600  0.99246300  0.64713500  1
  S  S43  1  0.89169000  0.67887500  0.35256000  1
  S  S44  1  0.66453700  0.67186900  0.00397700  1
  S  S45  1  0.83773200  0.97100500  0.22127700  1
  S  S46  1  0.99409100  0.00357000  0.00139600  1
