# generated using pymatgen
data_LiFeSiO4
_symmetry_space_group_name_H-M   'P 1'
_cell_length_a   5.21243000
_cell_length_b   8.43028700
_cell_length_c   8.55500264
_cell_angle_alpha   72.25926021
_cell_angle_beta   90.00000000
_cell_angle_gamma   90.00000000
_symmetry_Int_Tables_number   1
_chemical_formula_structural   LiFeSiO4
_chemical_formula_sum   'Li4 Fe4 Si4 O16'
_cell_volume   358.04917470
_cell_formula_units_Z   4
loop_
 _symmetry_equiv_pos_site_id
 _symmetry_equiv_pos_as_xyz
  1  'x, y, z'
loop_
 _atom_site_type_symbol
 _atom_site_label
 _atom_site_symmetry_multiplicity
 _atom_site_fract_x
 _atom_site_fract_y
 _atom_site_fract_z
 _atom_site_occupancy
  Li  Li0  1  0.33547900  0.09445400  0.01977600  1
  Li  Li1  1  0.82323700  0.26673900  0.49927700  1
  Li  Li2  1  0.66452100  0.59445400  0.01977600  1
  Li  Li3  1  0.17676300  0.76673900  0.49927700  1
  Fe  Fe4  1  0.17181000  0.00007500  0.74968900  1
  Fe  Fe5  1  0.32730000  0.33186300  0.26335500  1
  Fe  Fe6  1  0.82819000  0.50007500  0.74968900  1
  Fe  Fe7  1  0.67270000  0.83186300  0.26335500  1
  Si  Si8  1  0.82301200  0.22011300  0.13497700  1
  Si  Si9  1  0.31989700  0.37229200  0.63032200  1
  Si  Si10  1  0.17698800  0.72011300  0.13497700  1
  Si  Si11  1  0.68010300  0.87229200  0.63032200  1
  O  O12  1  0.68470600  0.05225800  0.11534800  1
  O  O13  1  0.83762700  0.03072600  0.65732400  1
  O  O14  1  0.13206100  0.19136400  0.17097900  1
  O  O15  1  0.68036400  0.26976300  0.28704400  1
  O  O16  1  0.26950200  0.20421300  0.78627900  1
  O  O17  1  0.19868300  0.32772500  0.47015000  1
  O  O18  1  0.31529400  0.55225800  0.11534800  1
  O  O19  1  0.62743500  0.41448400  0.60608700  1
  O  O20  1  0.77091400  0.37772100  0.97062000  1
  O  O21  1  0.16237300  0.53072600  0.65732400  1
  O  O22  1  0.86793900  0.69136400  0.17097900  1
  O  O23  1  0.31963600  0.76976300  0.28704400  1
  O  O24  1  0.73049800  0.70421300  0.78627900  1
  O  O25  1  0.80131700  0.82772500  0.47015000  1
  O  O26  1  0.37256500  0.91448400  0.60608700  1
  O  O27  1  0.22908600  0.87772100  0.97062000  1
