# generated using pymatgen
data_Li3MnV(PO4)3
_symmetry_space_group_name_H-M   'P 1'
_cell_length_a   8.66183300
_cell_length_b   8.71488286
_cell_length_c   8.72838739
_cell_angle_alpha   91.50580180
_cell_angle_beta   118.60988468
_cell_angle_gamma   119.09054343
_symmetry_Int_Tables_number   1
_chemical_formula_structural   Li3MnV(PO4)3
_chemical_formula_sum   'Li6 Mn2 V2 P6 O24'
_cell_volume   475.76373546
_cell_formula_units_Z   2
loop_
 _symmetry_equiv_pos_site_id
 _symmetry_equiv_pos_as_xyz
  1  'x, y, z'
loop_
 _atom_site_type_symbol
 _atom_site_label
 _atom_site_symmetry_multiplicity
 _atom_site_fract_x
 _atom_site_fract_y
 _atom_site_fract_z
 _atom_site_occupancy
  Li  Li0  1  0.37151600  0.11141100  0.70470500  1
  Li  Li1  1  0.61164600  0.64883400  0.67636500  1
  Li  Li2  1  0.37150800  0.26090800  0.20497900  1
  Li  Li3  1  0.01568600  0.63726500  0.74541200  1
  Li  Li4  1  0.01631400  0.37950700  0.24750600  1
  Li  Li5  1  0.61496300  0.96396600  0.17637700  1
  Mn  Mn6  1  0.78952000  0.14695800  0.85637500  1
  Mn  Mn7  1  0.19646100  0.35106300  0.63842300  1
  V  V8  1  0.79176200  0.64395700  0.36000900  1
  V  V9  1  0.20432800  0.84720900  0.14237600  1
  P  P10  1  0.71980600  0.47050800  0.95473500  1
  P  P11  1  0.71773200  0.24949600  0.45477300  1
  P  P12  1  0.00132400  0.04810000  0.25810200  1
  P  P13  1  0.27873200  0.75077600  0.53956200  1
  P  P14  1  0.00336700  0.95469800  0.75612700  1
  P  P15  1  0.27742200  0.52527200  0.03920700  1
  O  O16  1  0.68212300  0.27370700  0.91821300  1
  O  O17  1  0.90521800  0.62010700  0.94372600  1
  O  O18  1  0.76435400  0.25001400  0.64545200  1
  O  O19  1  0.90258700  0.28237600  0.43910700  1
  O  O20  1  0.51702900  0.44838600  0.79357200  1
  O  O21  1  0.83314600  0.07506500  0.10827400  1
  O  O22  1  0.51610200  0.06580100  0.29278400  1
  O  O23  1  0.87297000  0.99261300  0.80709400  1
  O  O24  1  0.12893900  0.10420600  0.69667200  1
  O  O25  1  0.67604600  0.40354200  0.41532900  1
  O  O26  1  0.82963700  0.75743000  0.60137100  1
  O  O27  1  0.21570900  0.47781300  0.83732500  1
  O  O28  1  0.76466700  0.51693200  0.14665100  1
  O  O29  1  0.17891100  0.23596200  0.42833500  1
  O  O30  1  0.33387500  0.60713000  0.58293900  1
  O  O31  1  0.87757400  0.88506400  0.30855000  1
  O  O32  1  0.12997300  0.02228400  0.19710100  1
  O  O33  1  0.46529500  0.94836200  0.68284400  1
  O  O34  1  0.17167600  0.93880500  0.92130800  1
  O  O35  1  0.46849900  0.52237500  0.18160600  1
  O  O36  1  0.08698600  0.70592500  0.55039900  1
  O  O37  1  0.21514700  0.73844200  0.33907100  1
  O  O38  1  0.09022300  0.38178800  0.05248900  1
  O  O39  1  0.32922800  0.72494100  0.08366700  1
