# generated using pymatgen
data_Li2Cr4Si4O13
_symmetry_space_group_name_H-M   'P 1'
_cell_length_a   6.93987600
_cell_length_b   7.87320941
_cell_length_c   10.34148963
_cell_angle_alpha   108.07467538
_cell_angle_beta   88.28101661
_cell_angle_gamma   99.79968960
_symmetry_Int_Tables_number   1
_chemical_formula_structural   Li2Cr4Si4O13
_chemical_formula_sum   'Li4 Cr8 Si8 O26'
_cell_volume   529.17130577
_cell_formula_units_Z   2
loop_
 _symmetry_equiv_pos_site_id
 _symmetry_equiv_pos_as_xyz
  1  'x, y, z'
loop_
 _atom_site_type_symbol
 _atom_site_label
 _atom_site_symmetry_multiplicity
 _atom_site_fract_x
 _atom_site_fract_y
 _atom_site_fract_z
 _atom_site_occupancy
  Li  Li0  1  0.77881000  0.59802400  0.11142900  1
  Li  Li1  1  0.24751900  0.41004400  0.41217200  1
  Li  Li2  1  0.75248100  0.58995600  0.58782800  1
  Li  Li3  1  0.22119000  0.40197600  0.88857100  1
  Cr  Cr4  1  0.08236300  0.81342800  0.99735300  1
  Cr  Cr5  1  0.56656100  0.81146300  0.00712600  1
  Cr  Cr6  1  0.57169500  0.78863400  0.37980000  1
  Cr  Cr7  1  0.06869900  0.78490600  0.37639800  1
  Cr  Cr8  1  0.93130100  0.21509400  0.62360200  1
  Cr  Cr9  1  0.42830500  0.21136600  0.62020000  1
  Cr  Cr10  1  0.43343900  0.18853700  0.99287400  1
  Cr  Cr11  1  0.91763700  0.18657200  0.00264700  1
  Si  Si12  1  0.27681100  0.57466900  0.16695500  1
  Si  Si13  1  0.71937500  0.39202900  0.29756300  1
  Si  Si14  1  0.37657900  0.09152500  0.27695600  1
  Si  Si15  1  0.92778000  0.08409600  0.28123400  1
  Si  Si16  1  0.07222000  0.91590400  0.71876600  1
  Si  Si17  1  0.62342100  0.90847500  0.72304400  1
  Si  Si18  1  0.28062500  0.60797100  0.70243700  1
  Si  Si19  1  0.72318900  0.42533100  0.83304500  1
  O  O20  1  0.88555000  0.00254200  0.11774800  1
  O  O21  1  0.23049600  0.36151800  0.07381200  1
  O  O22  1  0.49996300  0.66768600  0.14132900  1
  O  O23  1  0.09672700  0.68170700  0.14555100  1
  O  O24  1  0.74197900  0.35663600  0.13556300  1
  O  O25  1  0.40191100  0.01052700  0.11406500  1
  O  O26  1  0.85563200  0.94604900  0.36955000  1
  O  O27  1  0.39954900  0.97182500  0.37452100  1
  O  O28  1  0.27339800  0.60887300  0.33653900  1
  O  O29  1  0.76278400  0.60525400  0.39058700  1
  O  O30  1  0.16157100  0.14978900  0.30985000  1
  O  O31  1  0.50050700  0.30278400  0.33692500  1
  O  O32  1  0.86329500  0.28344700  0.35573800  1
  O  O33  1  0.13670500  0.71655300  0.64426200  1
  O  O34  1  0.49949300  0.69721600  0.66307500  1
  O  O35  1  0.83842900  0.85021100  0.69015000  1
  O  O36  1  0.23721600  0.39474600  0.60941300  1
  O  O37  1  0.72660200  0.39112700  0.66346100  1
  O  O38  1  0.60045100  0.02817500  0.62547900  1
  O  O39  1  0.14436800  0.05395100  0.63045000  1
  O  O40  1  0.59808900  0.98947300  0.88593500  1
  O  O41  1  0.25802100  0.64336400  0.86443700  1
  O  O42  1  0.90327300  0.31829300  0.85444900  1
  O  O43  1  0.50003700  0.33231400  0.85867100  1
  O  O44  1  0.76950400  0.63848200  0.92618800  1
  O  O45  1  0.11445000  0.99745800  0.88225200  1
