# generated using pymatgen
data_Li4V3Fe3(TeO8)2
_symmetry_space_group_name_H-M   'P 1'
_cell_length_a   6.02220936
_cell_length_b   5.94584329
_cell_length_c   10.23177824
_cell_angle_alpha   90.16827874
_cell_angle_beta   89.48689886
_cell_angle_gamma   118.88339881
_symmetry_Int_Tables_number   1
_chemical_formula_structural   Li4V3Fe3(TeO8)2
_chemical_formula_sum   'Li4 V3 Fe3 Te2 O16'
_cell_volume   320.78234660
_cell_formula_units_Z   1
loop_
 _symmetry_equiv_pos_site_id
 _symmetry_equiv_pos_as_xyz
  1  'x, y, z'
loop_
 _atom_site_type_symbol
 _atom_site_label
 _atom_site_symmetry_multiplicity
 _atom_site_fract_x
 _atom_site_fract_y
 _atom_site_fract_z
 _atom_site_occupancy
  Li  Li0  1  0.33146900  0.67578200  0.90114100  1
  Li  Li1  1  0.99740000  0.99335000  0.99474500  1
  Li  Li2  1  0.99152500  0.99861300  0.48470900  1
  Li  Li3  1  0.67344000  0.33012400  0.40675500  1
  V  V4  1  0.64251800  0.79952000  0.22701600  1
  V  V5  1  0.81256700  0.65950300  0.72027800  1
  V  V6  1  0.82714400  0.17271800  0.71511000  1
  Fe  Fe7  1  0.18048200  0.84001100  0.21930700  1
  Fe  Fe8  1  0.16718700  0.34196600  0.21495100  1
  Fe  Fe9  1  0.33748600  0.16367400  0.71167600  1
  Te  Te10  1  0.30694000  0.65665400  0.49370200  1
  Te  Te11  1  0.66293400  0.32114300  0.00817200  1
  O  O12  1  0.14295400  0.82927800  0.59615000  1
  O  O13  1  0.04298800  0.52663800  0.35674800  1
  O  O14  1  0.34872000  0.68758400  0.10789500  1
  O  O15  1  0.98171100  0.98433900  0.30310300  1
  O  O16  1  0.00533900  0.99884400  0.80993900  1
  O  O17  1  0.15051000  0.31659800  0.59434200  1
  O  O18  1  0.49109000  0.97257000  0.33263000  1
  O  O19  1  0.51723900  0.52763000  0.33377400  1
  O  O20  1  0.32809200  0.16050900  0.09624300  1
  O  O21  1  0.71632300  0.87335100  0.61180800  1
  O  O22  1  0.52408400  0.51093600  0.81339400  1
  O  O23  1  0.51911800  0.02884800  0.82301500  1
  O  O24  1  0.66947400  0.33734700  0.60868500  1
  O  O25  1  0.83406700  0.66374800  0.10686200  1
  O  O26  1  0.97760200  0.48096400  0.81573600  1
  O  O27  1  0.81960000  0.14805700  0.09995500  1
