# generated using pymatgen
data_LiCoSiO4
_symmetry_space_group_name_H-M   'P 1'
_cell_length_a   8.01311900
_cell_length_b   8.63778500
_cell_length_c   17.34467685
_cell_angle_alpha   60.34661146
_cell_angle_beta   90.00000000
_cell_angle_gamma   90.00000000
_symmetry_Int_Tables_number   1
_chemical_formula_structural   LiCoSiO4
_chemical_formula_sum   'Li12 Co12 Si12 O48'
_cell_volume   1043.29496191
_cell_formula_units_Z   12
loop_
 _symmetry_equiv_pos_site_id
 _symmetry_equiv_pos_as_xyz
  1  'x, y, z'
loop_
 _atom_site_type_symbol
 _atom_site_label
 _atom_site_symmetry_multiplicity
 _atom_site_fract_x
 _atom_site_fract_y
 _atom_site_fract_z
 _atom_site_occupancy
  Li  Li0  1  0.47176300  0.21925800  0.05718500  1
  Li  Li1  1  0.53367100  0.86363400  0.40442800  1
  Li  Li2  1  0.34903800  0.50556700  0.74941500  1
  Li  Li3  1  0.84903800  0.49443300  0.75058500  1
  Li  Li4  1  0.03367100  0.13636600  0.09557200  1
  Li  Li5  1  0.97176300  0.78074200  0.44281500  1
  Li  Li6  1  0.02823700  0.21925800  0.55718500  1
  Li  Li7  1  0.96632900  0.86363400  0.90442800  1
  Li  Li8  1  0.15096200  0.50556700  0.24941500  1
  Li  Li9  1  0.65096200  0.49443300  0.25058500  1
  Li  Li10  1  0.46632900  0.13636600  0.59557200  1
  Li  Li11  1  0.52823700  0.78074200  0.94281500  1
  Co  Co12  1  0.76926600  0.85962400  0.59483100  1
  Co  Co13  1  0.70964500  0.17962400  0.22861100  1
  Co  Co14  1  0.77391000  0.45590700  0.92884800  1
  Co  Co15  1  0.27391000  0.54409300  0.57115200  1
  Co  Co16  1  0.20964500  0.82037600  0.27138900  1
  Co  Co17  1  0.26926600  0.14037600  0.90516900  1
  Co  Co18  1  0.73073400  0.85962400  0.09483100  1
  Co  Co19  1  0.79035500  0.17962400  0.72861100  1
  Co  Co20  1  0.72609000  0.45590700  0.42884800  1
  Co  Co21  1  0.22609000  0.54409300  0.07115200  1
  Co  Co22  1  0.29035500  0.82037600  0.77138900  1
  Co  Co23  1  0.23073400  0.14037600  0.40516900  1
  Si  Si24  1  0.16324600  0.85606800  0.59335000  1
  Si  Si25  1  0.32581300  0.18972100  0.22549200  1
  Si  Si26  1  0.16846700  0.46715500  0.92347600  1
  Si  Si27  1  0.66846700  0.53284500  0.57652400  1
  Si  Si28  1  0.82581300  0.81027900  0.27450800  1
  Si  Si29  1  0.66324600  0.14393200  0.90665000  1
  Si  Si30  1  0.33675400  0.85606800  0.09335000  1
  Si  Si31  1  0.17418700  0.18972100  0.72549200  1
  Si  Si32  1  0.33153300  0.46715500  0.42347600  1
  Si  Si33  1  0.83153300  0.53284500  0.07652400  1
  Si  Si34  1  0.67418700  0.81027900  0.77450800  1
  Si  Si35  1  0.83675400  0.14393200  0.40665000  1
  O  O36  1  0.01700900  0.06983800  0.39266200  1
  O  O37  1  0.85638300  0.31528000  0.13815900  1
  O  O38  1  0.72671800  0.96639800  0.47380300  1
  O  O39  1  0.77061600  0.62039600  0.80608700  1
  O  O40  1  0.28177000  0.41928800  0.01177100  1
  O  O41  1  0.50293400  0.22836000  0.17116700  1
  O  O42  1  0.36468000  0.08795000  0.33331300  1
  O  O43  1  0.26473300  0.74171500  0.68719600  1
  O  O44  1  0.98792100  0.36539600  0.96138000  1
  O  O45  1  0.12967400  0.72818600  0.54854400  1
  O  O46  1  0.26031800  0.38763000  0.86565700  1
  O  O47  1  0.20889000  0.06568100  0.19924200  1
  O  O48  1  0.76031800  0.61237000  0.63434300  1
  O  O49  1  0.70889000  0.93431900  0.30075800  1
  O  O50  1  0.62967400  0.27181400  0.95145600  1
  O  O51  1  0.48792100  0.63460400  0.53862000  1
  O  O52  1  0.76473300  0.25828500  0.81280400  1
  O  O53  1  0.86468000  0.91205000  0.16668700  1
  O  O54  1  0.00293400  0.77164000  0.32883300  1
  O  O55  1  0.27061600  0.37960400  0.69391300  1
  O  O56  1  0.78177000  0.58071200  0.48822900  1
  O  O57  1  0.22671800  0.03360200  0.02619700  1
  O  O58  1  0.35638300  0.68472000  0.36184100  1
  O  O59  1  0.51700900  0.93016200  0.10733800  1
  O  O60  1  0.48299100  0.06983800  0.89266200  1
  O  O61  1  0.64361700  0.31528000  0.63815900  1
  O  O62  1  0.77328200  0.96639800  0.97380300  1
  O  O63  1  0.21823000  0.41928800  0.51177100  1
  O  O64  1  0.72938400  0.62039600  0.30608700  1
  O  O65  1  0.99706600  0.22836000  0.67116700  1
  O  O66  1  0.13532000  0.08795000  0.83331300  1
  O  O67  1  0.23526700  0.74171500  0.18719600  1
  O  O68  1  0.51207900  0.36539600  0.46138000  1
  O  O69  1  0.37032600  0.72818600  0.04854400  1
  O  O70  1  0.29111000  0.06568100  0.69924200  1
  O  O71  1  0.23968200  0.38763000  0.36565700  1
  O  O72  1  0.79111000  0.93431900  0.80075800  1
  O  O73  1  0.73968200  0.61237000  0.13434300  1
  O  O74  1  0.87032600  0.27181400  0.45145600  1
  O  O75  1  0.01207900  0.63460400  0.03862000  1
  O  O76  1  0.73526700  0.25828500  0.31280400  1
  O  O77  1  0.63532000  0.91205000  0.66668700  1
  O  O78  1  0.49706600  0.77164000  0.82883300  1
  O  O79  1  0.71823000  0.58071200  0.98822900  1
  O  O80  1  0.22938400  0.37960400  0.19391300  1
  O  O81  1  0.27328200  0.03360200  0.52619700  1
  O  O82  1  0.14361700  0.68472000  0.86184100  1
  O  O83  1  0.98299100  0.93016200  0.60733800  1
