# generated using pymatgen
data_Li4Mn3Co3(SnO8)2
_symmetry_space_group_name_H-M   'P 1'
_cell_length_a   5.87245363
_cell_length_b   10.17847603
_cell_length_c   9.68961969
_cell_angle_alpha   89.53790753
_cell_angle_beta   89.38560800
_cell_angle_gamma   89.33879021
_symmetry_Int_Tables_number   1
_chemical_formula_structural   Li4Mn3Co3(SnO8)2
_chemical_formula_sum   'Li8 Mn6 Co6 Sn4 O32'
_cell_volume   579.08391166
_cell_formula_units_Z   2
loop_
 _symmetry_equiv_pos_site_id
 _symmetry_equiv_pos_as_xyz
  1  'x, y, z'
loop_
 _atom_site_type_symbol
 _atom_site_label
 _atom_site_symmetry_multiplicity
 _atom_site_fract_x
 _atom_site_fract_y
 _atom_site_fract_z
 _atom_site_occupancy
  Li  Li0  1  0.50650500  0.17089200  0.89913500  1
  Li  Li1  1  0.00775400  0.67063600  0.89775300  1
  Li  Li2  1  0.00178500  0.99893000  0.99412800  1
  Li  Li3  1  0.50203700  0.49654800  0.99488500  1
  Li  Li4  1  0.00041500  0.99652000  0.49254400  1
  Li  Li5  1  0.49914500  0.49579400  0.49301900  1
  Li  Li6  1  0.49914300  0.83344300  0.39426800  1
  Li  Li7  1  0.99978900  0.33212000  0.39221500  1
  Mn  Mn8  1  0.24631000  0.58250700  0.21568000  1
  Mn  Mn9  1  0.74464600  0.91562800  0.71525000  1
  Mn  Mn10  1  0.24601900  0.41482700  0.71671500  1
  Mn  Mn11  1  0.74314900  0.08767900  0.21395700  1
  Mn  Mn12  1  0.50322600  0.66828100  0.71470700  1
  Mn  Mn13  1  0.00133100  0.16830900  0.71408700  1
  Co  Co14  1  0.49611000  0.32862300  0.21493900  1
  Co  Co15  1  0.00006700  0.83210100  0.21456200  1
  Co  Co16  1  0.25387400  0.08751800  0.21440200  1
  Co  Co17  1  0.75296300  0.58264300  0.21400900  1
  Co  Co18  1  0.25445100  0.91479000  0.71417000  1
  Co  Co19  1  0.75528100  0.41407900  0.71535900  1
  Sn  Sn20  1  0.49178800  0.16472400  0.48918600  1
  Sn  Sn21  1  0.99819100  0.66238600  0.49221800  1
  Sn  Sn22  1  0.49646300  0.83699400  0.99197500  1
  Sn  Sn23  1  0.00040800  0.33529200  0.99323600  1
  O  O24  1  0.50010600  0.33857100  0.60571700  1
  O  O25  1  0.00068100  0.83878000  0.60497700  1
  O  O26  1  0.27406900  0.24102200  0.33024100  1
  O  O27  1  0.77855800  0.74154600  0.33788100  1
  O  O28  1  0.49971700  0.16788100  0.11225000  1
  O  O29  1  0.01433400  0.66298100  0.10753700  1
  O  O30  1  0.99724100  0.00815400  0.30709100  1
  O  O31  1  0.49132700  0.49444100  0.30715400  1
  O  O32  1  0.99641600  0.99913600  0.80637700  1
  O  O33  1  0.49786700  0.49895100  0.80745800  1
  O  O34  1  0.23334500  0.07574900  0.59807700  1
  O  O35  1  0.73528800  0.57444300  0.59855800  1
  O  O36  1  0.72080000  0.24215500  0.33199900  1
  O  O37  1  0.23399800  0.73276700  0.33881700  1
  O  O38  1  0.49755100  0.01759300  0.32856600  1
  O  O39  1  0.01033800  0.51438300  0.33506100  1
  O  O40  1  0.23730400  0.92439200  0.10495200  1
  O  O41  1  0.73655800  0.41958500  0.10427400  1
  O  O42  1  0.74632000  0.06884700  0.59325700  1
  O  O43  1  0.24920000  0.56818000  0.59824600  1
  O  O44  1  0.49505600  0.98664500  0.82753400  1
  O  O45  1  0.99584800  0.48526500  0.82970100  1
  O  O46  1  0.27655400  0.76393500  0.83637100  1
  O  O47  1  0.77775000  0.26223300  0.83765100  1
  O  O48  1  0.50466000  0.83348000  0.61223600  1
  O  O49  1  0.00512800  0.33355600  0.61271900  1
  O  O50  1  0.75222100  0.92834300  0.10179400  1
  O  O51  1  0.26161600  0.42210200  0.10415400  1
  O  O52  1  0.74343100  0.77299600  0.84535600  1
  O  O53  1  0.24422400  0.27171800  0.84559800  1
  O  O54  1  0.49282100  0.66044200  0.10021800  1
  O  O55  1  0.99912200  0.15876400  0.10145500  1
