# generated using pymatgen
data_Li2Fe(CoO3)2
_symmetry_space_group_name_H-M   'P 1'
_cell_length_a   4.98103370
_cell_length_b   4.98103370
_cell_length_c   10.00657900
_cell_angle_alpha   90.00000000
_cell_angle_beta   90.00000000
_cell_angle_gamma   120.11859789
_symmetry_Int_Tables_number   1
_chemical_formula_structural   Li2Fe(CoO3)2
_chemical_formula_sum   'Li4 Fe2 Co4 O12'
_cell_volume   214.75088676
_cell_formula_units_Z   2
loop_
 _symmetry_equiv_pos_site_id
 _symmetry_equiv_pos_as_xyz
  1  'x, y, z'
loop_
 _atom_site_type_symbol
 _atom_site_label
 _atom_site_symmetry_multiplicity
 _atom_site_fract_x
 _atom_site_fract_y
 _atom_site_fract_z
 _atom_site_occupancy
  Li  Li0  1  0.66498100  0.16498100  0.25000000  1
  Li  Li1  1  0.83501900  0.33501900  0.75000000  1
  Li  Li2  1  0.16498100  0.66498100  0.25000000  1
  Li  Li3  1  0.33501900  0.83501900  0.75000000  1
  Fe  Fe4  1  0.50000000  0.50000000  0.50000000  1
  Fe  Fe5  1  0.00000000  0.00000000  0.00000000  1
  Co  Co6  1  0.83442300  0.16557700  0.50000000  1
  Co  Co7  1  0.33442300  0.66557700  0.00000000  1
  Co  Co8  1  0.66557700  0.33442300  0.00000000  1
  Co  Co9  1  0.16557700  0.83442300  0.50000000  1
  O  O10  1  0.66613300  0.66613300  0.09681900  1
  O  O11  1  0.83386700  0.83386700  0.59681900  1
  O  O12  1  0.16613300  0.16613300  0.40318100  1
  O  O13  1  0.49195800  0.84369500  0.39531600  1
  O  O14  1  0.33386700  0.33386700  0.90318100  1
  O  O15  1  0.65630500  0.00804200  0.89531600  1
  O  O16  1  0.99195800  0.34369500  0.10468400  1
  O  O17  1  0.15630500  0.50804200  0.60468400  1
  O  O18  1  0.50804200  0.15630500  0.60468400  1
  O  O19  1  0.84369500  0.49195800  0.39531600  1
  O  O20  1  0.00804200  0.65630500  0.89531600  1
  O  O21  1  0.34369500  0.99195800  0.10468400  1
