# generated using pymatgen
data_LiSiBiO4
_symmetry_space_group_name_H-M   'P 1'
_cell_length_a   5.96667900
_cell_length_b   8.94894800
_cell_length_c   21.12076400
_cell_angle_alpha   90.00000000
_cell_angle_beta   90.00000000
_cell_angle_gamma   90.00000000
_symmetry_Int_Tables_number   1
_chemical_formula_structural   LiSiBiO4
_chemical_formula_sum   'Li12 Si12 Bi12 O48'
_cell_volume   1127.75375635
_cell_formula_units_Z   12
loop_
 _symmetry_equiv_pos_site_id
 _symmetry_equiv_pos_as_xyz
  1  'x, y, z'
loop_
 _atom_site_type_symbol
 _atom_site_label
 _atom_site_symmetry_multiplicity
 _atom_site_fract_x
 _atom_site_fract_y
 _atom_site_fract_z
 _atom_site_occupancy
  Li  Li0  1  0.91847500  0.23900200  0.99462100  1
  Li  Li1  1  0.41847500  0.76099800  0.00537900  1
  Li  Li2  1  0.60862000  0.74516900  0.16990700  1
  Li  Li3  1  0.92986300  0.25861000  0.16212900  1
  Li  Li4  1  0.42986300  0.75861000  0.33787100  1
  Li  Li5  1  0.10862000  0.24516900  0.33009300  1
  Li  Li6  1  0.91847500  0.26099800  0.49462100  1
  Li  Li7  1  0.41847500  0.73900200  0.50537900  1
  Li  Li8  1  0.60862000  0.75483100  0.66990700  1
  Li  Li9  1  0.92986300  0.24139000  0.66212900  1
  Li  Li10  1  0.42986300  0.74139000  0.83787100  1
  Li  Li11  1  0.10862000  0.25483100  0.83009300  1
  Si  Si12  1  0.97690700  0.94057600  0.07905600  1
  Si  Si13  1  0.54092700  0.44475300  0.08671700  1
  Si  Si14  1  0.00926700  0.55314400  0.24833500  1
  Si  Si15  1  0.50926700  0.05314400  0.25166500  1
  Si  Si16  1  0.04092700  0.94475300  0.41328300  1
  Si  Si17  1  0.47690700  0.44057600  0.42094400  1
  Si  Si18  1  0.97690700  0.55942400  0.57905600  1
  Si  Si19  1  0.54092700  0.05524700  0.58671700  1
  Si  Si20  1  0.00926700  0.94685600  0.74833500  1
  Si  Si21  1  0.50926700  0.44685600  0.75166500  1
  Si  Si22  1  0.04092700  0.55524700  0.91328300  1
  Si  Si23  1  0.47690700  0.05942400  0.92094400  1
  Bi  Bi24  1  0.05725600  0.51484000  0.07687000  1
  Bi  Bi25  1  0.44704700  0.02241900  0.09360400  1
  Bi  Bi26  1  0.02873300  0.98110500  0.24133500  1
  Bi  Bi27  1  0.52873300  0.48110500  0.25866500  1
  Bi  Bi28  1  0.94704700  0.52241900  0.40639600  1
  Bi  Bi29  1  0.55725600  0.01484000  0.42313000  1
  Bi  Bi30  1  0.05725600  0.98516000  0.57687000  1
  Bi  Bi31  1  0.44704700  0.47758100  0.59360400  1
  Bi  Bi32  1  0.02873300  0.51889500  0.74133500  1
  Bi  Bi33  1  0.52873300  0.01889500  0.75866500  1
  Bi  Bi34  1  0.94704700  0.97758100  0.90639600  1
  Bi  Bi35  1  0.55725600  0.48516000  0.92313000  1
  O  O36  1  0.45888100  0.96749600  0.98728000  1
  O  O37  1  0.95888100  0.03250400  0.01272000  1
  O  O38  1  0.52927100  0.56529900  0.02770900  1
  O  O39  1  0.77590100  0.34457900  0.08116400  1
  O  O40  1  0.31442100  0.33798600  0.08033700  1
  O  O41  1  0.20465900  0.83093200  0.07821700  1
  O  O42  1  0.74390200  0.85515100  0.09833200  1
  O  O43  1  0.04732900  0.06479700  0.13475900  1
  O  O44  1  0.52984000  0.53955900  0.15266500  1
  O  O45  1  0.03739600  0.45999900  0.18257800  1
  O  O46  1  0.44276400  0.92753000  0.19690600  1
  O  O47  1  0.28437600  0.16448900  0.25329400  1
  O  O48  1  0.74016600  0.14422000  0.23137900  1
  O  O49  1  0.78437600  0.66448900  0.24670600  1
  O  O50  1  0.24016600  0.64422000  0.26862100  1
  O  O51  1  0.94276400  0.42753000  0.30309400  1
  O  O52  1  0.53739600  0.95999900  0.31742200  1
  O  O53  1  0.02984000  0.03955900  0.34733500  1
  O  O54  1  0.54732900  0.56479700  0.36524100  1
  O  O55  1  0.24390200  0.35515100  0.40166800  1
  O  O56  1  0.70465900  0.33093200  0.42178300  1
  O  O57  1  0.81442100  0.83798600  0.41966300  1
  O  O58  1  0.27590100  0.84457900  0.41883600  1
  O  O59  1  0.02927100  0.06529900  0.47229100  1
  O  O60  1  0.45888100  0.53250400  0.48728000  1
  O  O61  1  0.95888100  0.46749600  0.51272000  1
  O  O62  1  0.52927100  0.93470100  0.52770900  1
  O  O63  1  0.77590100  0.15542100  0.58116400  1
  O  O64  1  0.31442100  0.16201400  0.58033700  1
  O  O65  1  0.20465900  0.66906800  0.57821700  1
  O  O66  1  0.74390200  0.64484900  0.59833200  1
  O  O67  1  0.04732900  0.43520300  0.63475900  1
  O  O68  1  0.52984000  0.96044100  0.65266500  1
  O  O69  1  0.03739600  0.04000100  0.68257800  1
  O  O70  1  0.44276400  0.57247000  0.69690600  1
  O  O71  1  0.74016600  0.35578000  0.73137900  1
  O  O72  1  0.28437600  0.33551100  0.75329400  1
  O  O73  1  0.24016600  0.85578000  0.76862100  1
  O  O74  1  0.78437600  0.83551100  0.74670600  1
  O  O75  1  0.94276400  0.07247000  0.80309400  1
  O  O76  1  0.53739600  0.54000100  0.81742200  1
  O  O77  1  0.02984000  0.46044100  0.84733500  1
  O  O78  1  0.54732900  0.93520300  0.86524100  1
  O  O79  1  0.24390200  0.14484900  0.90166800  1
  O  O80  1  0.70465900  0.16906800  0.92178300  1
  O  O81  1  0.81442100  0.66201400  0.91966300  1
  O  O82  1  0.27590100  0.65542100  0.91883600  1
  O  O83  1  0.02927100  0.43470100  0.97229100  1
