# generated using pymatgen
data_Li2TiNi2O5
_symmetry_space_group_name_H-M   'P 1'
_cell_length_a   5.03235575
_cell_length_b   7.84112965
_cell_length_c   5.07822099
_cell_angle_alpha   84.11259733
_cell_angle_beta   108.63532662
_cell_angle_gamma   108.71770097
_symmetry_Int_Tables_number   1
_chemical_formula_structural   Li2TiNi2O5
_chemical_formula_sum   'Li4 Ti2 Ni4 O10'
_cell_volume   179.83513806
_cell_formula_units_Z   2
loop_
 _symmetry_equiv_pos_site_id
 _symmetry_equiv_pos_as_xyz
  1  'x, y, z'
loop_
 _atom_site_type_symbol
 _atom_site_label
 _atom_site_symmetry_multiplicity
 _atom_site_fract_x
 _atom_site_fract_y
 _atom_site_fract_z
 _atom_site_occupancy
  Li  Li0  1  0.09735700  0.19470500  0.49999400  1
  Li  Li1  1  0.20264000  0.40528800  0.00000800  1
  Li  Li2  1  0.90092400  0.80187800  0.49999500  1
  Li  Li3  1  0.39907600  0.79812100  0.00000600  1
  Ti  Ti4  1  0.29634100  0.59270800  0.50000000  1
  Ti  Ti5  1  0.00365300  0.00728100  0.99999900  1
  Ni  Ni6  1  0.60132900  0.20263900  0.00001400  1
  Ni  Ni7  1  0.49769300  0.99531600  0.50000200  1
  Ni  Ni8  1  0.69869600  0.39740700  0.49998600  1
  Ni  Ni9  1  0.80229300  0.60466800  0.99999800  1
  O  O10  1  0.65000600  0.79999200  0.74998500  1
  O  O11  1  0.14998600  0.79999200  0.25001400  1
  O  O12  1  0.84723000  0.18742400  0.75689200  1
  O  O13  1  0.45278600  0.41258000  0.74310100  1
  O  O14  1  0.95979400  0.41257400  0.25692600  1
  O  O15  1  0.34019400  0.18743200  0.24308000  1
  O  O16  1  0.05946700  0.59650300  0.73342400  1
  O  O17  1  0.53703500  0.59650800  0.26657900  1
  O  O18  1  0.24055600  0.00349300  0.76661000  1
  O  O19  1  0.76294000  0.00348900  0.23338900  1
