# generated using pymatgen
data_LiCr2O4
_symmetry_space_group_name_H-M   'P 1'
_cell_length_a   2.93955200
_cell_length_b   8.99198500
_cell_length_c   10.36252200
_cell_angle_alpha   90.00000000
_cell_angle_beta   90.00000000
_cell_angle_gamma   90.00000000
_symmetry_Int_Tables_number   1
_chemical_formula_structural   LiCr2O4
_chemical_formula_sum   'Li4 Cr8 O16'
_cell_volume   273.90640414
_cell_formula_units_Z   4
loop_
 _symmetry_equiv_pos_site_id
 _symmetry_equiv_pos_as_xyz
  1  'x, y, z'
loop_
 _atom_site_type_symbol
 _atom_site_label
 _atom_site_symmetry_multiplicity
 _atom_site_fract_x
 _atom_site_fract_y
 _atom_site_fract_z
 _atom_site_occupancy
  Li  Li0  1  0.25000000  0.25765000  0.13128700  1
  Li  Li1  1  0.25000000  0.75765000  0.36871300  1
  Li  Li2  1  0.75000000  0.24235000  0.63128700  1
  Li  Li3  1  0.75000000  0.74235000  0.86871300  1
  Cr  Cr4  1  0.75000000  0.58620200  0.10282800  1
  Cr  Cr5  1  0.25000000  0.94019900  0.11797100  1
  Cr  Cr6  1  0.25000000  0.44019900  0.38202900  1
  Cr  Cr7  1  0.75000000  0.08620200  0.39717200  1
  Cr  Cr8  1  0.25000000  0.91379800  0.60282800  1
  Cr  Cr9  1  0.75000000  0.55980100  0.61797100  1
  Cr  Cr10  1  0.75000000  0.05980100  0.88202900  1
  Cr  Cr11  1  0.25000000  0.41379800  0.89717200  1
  O  O12  1  0.75000000  0.38134700  0.02648400  1
  O  O13  1  0.75000000  0.08271300  0.06996700  1
  O  O14  1  0.75000000  0.80271900  0.15506300  1
  O  O15  1  0.25000000  0.53052600  0.21797800  1
  O  O16  1  0.25000000  0.03052600  0.28202200  1
  O  O17  1  0.75000000  0.30271900  0.34493700  1
  O  O18  1  0.75000000  0.58271300  0.43003300  1
  O  O19  1  0.75000000  0.88134700  0.47351600  1
  O  O20  1  0.25000000  0.11865300  0.52648400  1
  O  O21  1  0.25000000  0.41728700  0.56996700  1
  O  O22  1  0.25000000  0.69728100  0.65506300  1
  O  O23  1  0.75000000  0.96947400  0.71797800  1
  O  O24  1  0.75000000  0.46947400  0.78202200  1
  O  O25  1  0.25000000  0.19728100  0.84493700  1
  O  O26  1  0.25000000  0.91728700  0.93003300  1
  O  O27  1  0.25000000  0.61865300  0.97351600  1
