# generated using pymatgen
data_Li10Mn3Cr2Ni3O16
_symmetry_space_group_name_H-M   'P 1'
_cell_length_a   5.96447348
_cell_length_b   5.96447348
_cell_length_c   9.78053432
_cell_angle_alpha   89.38106665
_cell_angle_beta   89.38106665
_cell_angle_gamma   59.66545640
_symmetry_Int_Tables_number   1
_chemical_formula_structural   Li10Mn3Cr2Ni3O16
_chemical_formula_sum   'Li10 Mn3 Cr2 Ni3 O16'
_cell_volume   300.28236460
_cell_formula_units_Z   1
loop_
 _symmetry_equiv_pos_site_id
 _symmetry_equiv_pos_as_xyz
  1  'x, y, z'
loop_
 _atom_site_type_symbol
 _atom_site_label
 _atom_site_symmetry_multiplicity
 _atom_site_fract_x
 _atom_site_fract_y
 _atom_site_fract_z
 _atom_site_occupancy
  Li  Li0  1  0.37797900  0.81433900  0.05670800  1
  Li  Li1  1  0.81433900  0.37797900  0.05670800  1
  Li  Li2  1  0.66469400  0.66469400  0.26663000  1
  Li  Li3  1  0.79821000  0.79821000  0.04082900  1
  Li  Li4  1  0.00206200  0.00206200  0.98059300  1
  Li  Li5  1  0.19949200  0.19949200  0.54835600  1
  Li  Li6  1  0.33518400  0.33518400  0.76644400  1
  Li  Li7  1  0.18696500  0.60722300  0.53967200  1
  Li  Li8  1  0.00952800  0.00952800  0.47889400  1
  Li  Li9  1  0.60722300  0.18696500  0.53967200  1
  Mn  Mn10  1  0.33995300  0.83214200  0.78038300  1
  Mn  Mn11  1  0.83214200  0.33995300  0.78038300  1
  Mn  Mn12  1  0.18008700  0.18008700  0.27997600  1
  Cr  Cr13  1  0.34105000  0.34105000  0.02531400  1
  Cr  Cr14  1  0.67565700  0.67565700  0.52200800  1
  Ni  Ni15  1  0.83405100  0.83405100  0.77862500  1
  Ni  Ni16  1  0.17369100  0.67262400  0.28008500  1
  Ni  Ni17  1  0.67262400  0.17369100  0.28008500  1
  O  O18  1  0.34118800  0.85847800  0.39762100  1
  O  O19  1  0.50816000  0.50816000  0.63871300  1
  O  O20  1  0.02066400  0.02066400  0.17173900  1
  O  O21  1  0.65911500  0.65911500  0.89131100  1
  O  O22  1  0.01394300  0.01394300  0.67550800  1
  O  O23  1  0.50725600  0.97976000  0.65470200  1
  O  O24  1  0.85847800  0.34118800  0.39762100  1
  O  O25  1  0.97976000  0.50725600  0.65470200  1
  O  O26  1  0.17432000  0.17432000  0.91152100  1
  O  O27  1  0.02569100  0.48864800  0.15683100  1
  O  O28  1  0.84417000  0.84417000  0.41502500  1
  O  O29  1  0.48864800  0.02569100  0.15683100  1
  O  O30  1  0.33127100  0.33127100  0.39491400  1
  O  O31  1  0.17141500  0.67126500  0.90375900  1
  O  O32  1  0.49551900  0.49551900  0.15242500  1
  O  O33  1  0.67126500  0.17141500  0.90375900  1
