# generated using pymatgen
data_Li4Mn3Sn3(TeO8)2
_symmetry_space_group_name_H-M   'P 1'
_cell_length_a   6.27948509
_cell_length_b   10.87850934
_cell_length_c   12.04659623
_cell_angle_alpha   116.28677079
_cell_angle_beta   74.91097080
_cell_angle_gamma   89.99292606
_symmetry_Int_Tables_number   1
_chemical_formula_structural   Li4Mn3Sn3(TeO8)2
_chemical_formula_sum   'Li8 Mn6 Sn6 Te4 O32'
_cell_volume   706.02366467
_cell_formula_units_Z   2
loop_
 _symmetry_equiv_pos_site_id
 _symmetry_equiv_pos_as_xyz
  1  'x, y, z'
loop_
 _atom_site_type_symbol
 _atom_site_label
 _atom_site_symmetry_multiplicity
 _atom_site_fract_x
 _atom_site_fract_y
 _atom_site_fract_z
 _atom_site_occupancy
  Li  Li0  1  0.55087700  0.77457100  0.89830700  1
  Li  Li1  1  0.05086600  0.27455200  0.89831700  1
  Li  Li2  1  0.50601200  0.49775200  0.98791400  1
  Li  Li3  1  0.00600700  0.99777100  0.98791900  1
  Li  Li4  1  0.75229200  0.25259000  0.49541000  1
  Li  Li5  1  0.25227900  0.75259700  0.49541400  1
  Li  Li6  1  0.29610300  0.37013300  0.40793500  1
  Li  Li7  1  0.79609800  0.87013000  0.40794000  1
  Mn  Mn8  1  0.89456800  0.27405000  0.21064700  1
  Mn  Mn9  1  0.89386200  0.93872800  0.71255000  1
  Mn  Mn10  1  0.39370900  0.93875900  0.71252400  1
  Mn  Mn11  1  0.39456500  0.77404900  0.21064500  1
  Mn  Mn12  1  0.39390400  0.43871100  0.71256300  1
  Mn  Mn13  1  0.89361700  0.43871200  0.71252600  1
  Sn  Sn14  1  0.14212300  0.68822100  0.71593900  1
  Sn  Sn15  1  0.64212400  0.18818300  0.71594300  1
  Sn  Sn16  1  0.14019300  0.52617000  0.21590700  1
  Sn  Sn17  1  0.64018500  0.02620400  0.21591100  1
  Sn  Sn18  1  0.64395500  0.52615200  0.21583800  1
  Sn  Sn19  1  0.14395100  0.02618800  0.21585000  1
  Te  Te20  1  0.75639100  0.56673300  0.48733900  1
  Te  Te21  1  0.25641900  0.06670700  0.48730400  1
  Te  Te22  1  0.00795600  0.63454800  0.98401300  1
  Te  Te23  1  0.50791600  0.13455700  0.98401000  1
  O  O24  1  0.83886700  0.65812400  0.32231900  1
  O  O25  1  0.33888000  0.15814100  0.32227000  1
  O  O26  1  0.94558000  0.39174400  0.10893200  1
  O  O27  1  0.44553100  0.89184400  0.10895500  1
  O  O28  1  0.84254900  0.15951100  0.31538200  1
  O  O29  1  0.34256200  0.65949300  0.31538800  1
  O  O30  1  0.59710500  0.41293600  0.80640600  1
  O  O31  1  0.09706500  0.91302200  0.80644600  1
  O  O32  1  0.44481400  0.40602900  0.10947300  1
  O  O33  1  0.94483100  0.90612000  0.10945600  1
  O  O34  1  0.71149000  0.45405500  0.57688100  1
  O  O35  1  0.21162700  0.95404700  0.57686600  1
  O  O36  1  0.19209300  0.46349500  0.61582000  1
  O  O37  1  0.69211200  0.96347600  0.61583500  1
  O  O38  1  0.07022000  0.44006200  0.85980300  1
  O  O39  1  0.57019300  0.94004700  0.85978100  1
  O  O40  1  0.96763300  0.73504500  0.61042500  1
  O  O41  1  0.46769900  0.23501000  0.61043400  1
  O  O42  1  0.42191900  0.73516300  0.61057400  1
  O  O43  1  0.92187900  0.23514800  0.61060100  1
  O  O44  1  0.04776000  0.44391300  0.35207700  1
  O  O45  1  0.54768800  0.94391500  0.35207600  1
  O  O46  1  0.60049000  0.44378400  0.35190900  1
  O  O47  1  0.10050100  0.94386000  0.35191900  1
  O  O48  1  0.32033700  0.64399800  0.82346900  1
  O  O49  1  0.82035100  0.14396600  0.82347000  1
  O  O50  1  0.85621000  0.64400200  0.82336700  1
  O  O51  1  0.35620500  0.14398000  0.82339800  1
  O  O52  1  0.71042200  0.11704900  0.08844900  1
  O  O53  1  0.21037400  0.61705100  0.08851700  1
  O  O54  1  0.20087200  0.11653600  0.08815900  1
  O  O55  1  0.70092100  0.61650600  0.08816000  1
