# generated using pymatgen
data_LiMn2(BO3)2
_symmetry_space_group_name_H-M   'P 1'
_cell_length_a   5.29549800
_cell_length_b   5.77968581
_cell_length_c   13.42474048
_cell_angle_alpha   97.50300844
_cell_angle_beta   90.99392571
_cell_angle_gamma   113.72457966
_symmetry_Int_Tables_number   1
_chemical_formula_structural   LiMn2(BO3)2
_chemical_formula_sum   'Li3 Mn6 B6 O18'
_cell_volume   371.83054269
_cell_formula_units_Z   3
loop_
 _symmetry_equiv_pos_site_id
 _symmetry_equiv_pos_as_xyz
  1  'x, y, z'
loop_
 _atom_site_type_symbol
 _atom_site_label
 _atom_site_symmetry_multiplicity
 _atom_site_fract_x
 _atom_site_fract_y
 _atom_site_fract_z
 _atom_site_occupancy
  Li  Li0  1  0.09030600  0.98131400  0.31083500  1
  Li  Li1  1  0.58368000  0.35533500  0.01868900  1
  Li  Li2  1  0.91902600  0.02096500  0.68593900  1
  Mn  Mn3  1  0.56065300  0.94109800  0.19801800  1
  Mn  Mn4  1  0.10135900  0.37991200  0.13082000  1
  Mn  Mn5  1  0.75692800  0.70474400  0.45584800  1
  Mn  Mn6  1  0.22981800  0.28974400  0.53642200  1
  Mn  Mn7  1  0.90268900  0.62614500  0.87082000  1
  Mn  Mn8  1  0.43454100  0.05396700  0.79666900  1
  B  B9  1  0.34240900  0.83966700  0.58130200  1
  B  B10  1  0.99031200  0.82954600  0.09225800  1
  B  B11  1  0.67440600  0.49616000  0.23931900  1
  B  B12  1  0.32703400  0.50093600  0.75841400  1
  B  B13  1  0.00199000  0.16546900  0.91343500  1
  B  B14  1  0.66067700  0.16527600  0.41639300  1
  O  O15  1  0.11313300  0.89623900  0.56819500  1
  O  O16  1  0.18831300  0.73608200  0.11261800  1
  O  O17  1  0.99234800  0.03009900  0.16763100  1
  O  O18  1  0.53240200  0.94814100  0.66344500  1
  O  O19  1  0.79740600  0.72330900  0.01487700  1
  O  O20  1  0.39368500  0.67464800  0.50682600  1
  O  O21  1  0.45454300  0.55833600  0.22371900  1
  O  O22  1  0.31589100  0.70519100  0.82574200  1
  O  O23  1  0.86678600  0.61506200  0.32006700  1
  O  O24  1  0.13806800  0.38201300  0.67950500  1
  O  O25  1  0.71217200  0.32521200  0.16181700  1
  O  O26  1  0.52859000  0.41424400  0.78360400  1
  O  O27  1  0.65339200  0.36003800  0.48906200  1
  O  O28  1  0.19351900  0.25679300  0.99461700  1
  O  O29  1  0.47096200  0.06850100  0.33691400  1
  O  O30  1  0.03942000  0.00815700  0.83070300  1
  O  O31  1  0.77726600  0.23060000  0.90705500  1
  O  O32  1  0.86737200  0.07145200  0.43132600  1
