# generated using pymatgen
data_Li8Mn7Fe(BO3)8
_symmetry_space_group_name_H-M   'P 1'
_cell_length_a   5.25732700
_cell_length_b   9.10981404
_cell_length_c   10.52142643
_cell_angle_alpha   88.40539369
_cell_angle_beta   88.92892953
_cell_angle_gamma   89.84107781
_symmetry_Int_Tables_number   1
_chemical_formula_structural   Li8Mn7Fe(BO3)8
_chemical_formula_sum   'Li8 Mn7 Fe1 B8 O24'
_cell_volume   503.62109841
_cell_formula_units_Z   1
loop_
 _symmetry_equiv_pos_site_id
 _symmetry_equiv_pos_as_xyz
  1  'x, y, z'
loop_
 _atom_site_type_symbol
 _atom_site_label
 _atom_site_symmetry_multiplicity
 _atom_site_fract_x
 _atom_site_fract_y
 _atom_site_fract_z
 _atom_site_occupancy
  Li  Li0  1  0.14655800  0.17455400  0.66780800  1
  Li  Li1  1  0.18666100  0.16070900  0.16757100  1
  Li  Li2  1  0.32111800  0.33143400  0.41779300  1
  Li  Li3  1  0.33641700  0.32577100  0.91760700  1
  Li  Li4  1  0.64661500  0.67424700  0.66793200  1
  Li  Li5  1  0.68828500  0.66033900  0.16794900  1
  Li  Li6  1  0.81960000  0.83194300  0.41799800  1
  Li  Li7  1  0.83591300  0.82591200  0.91802400  1
  Mn  Mn8  1  0.17795300  0.49843100  0.13321800  1
  Mn  Mn9  1  0.15857800  0.83827100  0.63374400  1
  Mn  Mn10  1  0.33126000  0.66395500  0.38357200  1
  Mn  Mn11  1  0.33169900  0.99818100  0.88346100  1
  Mn  Mn12  1  0.66067700  0.33742500  0.63070300  1
  Mn  Mn13  1  0.67888200  0.99969700  0.13433600  1
  Mn  Mn14  1  0.83091000  0.49782700  0.88319600  1
  Fe  Fe15  1  0.83519700  0.16190500  0.38225500  1
  B  B16  1  0.17371400  0.82948100  0.12624800  1
  B  B17  1  0.15746500  0.50138400  0.62564700  1
  B  B18  1  0.33383600  0.99930200  0.37734100  1
  B  B19  1  0.32820700  0.66713700  0.87578900  1
  B  B20  1  0.67335000  0.32948900  0.12672600  1
  B  B21  1  0.65789800  0.00129800  0.62453400  1
  B  B22  1  0.83667900  0.49579900  0.37492600  1
  B  B23  1  0.82820800  0.16717600  0.87564700  1
  O  O24  1  0.09692000  0.48123700  0.34514800  1
  O  O25  1  0.08964300  0.17916600  0.86107700  1
  O  O26  1  0.17405700  0.78886800  0.84539400  1
  O  O27  1  0.19478600  0.87610800  0.41698200  1
  O  O28  1  0.21690300  0.13535100  0.36285100  1
  O  O29  1  0.21716600  0.53517000  0.91777200  1
  O  O30  1  0.26641200  0.36417600  0.61097100  1
  O  O31  1  0.28967700  0.96497200  0.09645200  1
  O  O32  1  0.30291100  0.62698700  0.59572000  1
  O  O33  1  0.32240100  0.71061900  0.16695500  1
  O  O34  1  0.41344400  0.31460700  0.11185400  1
  O  O35  1  0.40543000  0.01656100  0.66605800  1
  O  O36  1  0.59482300  0.98795300  0.34823300  1
  O  O37  1  0.58942800  0.67930300  0.86118200  1
  O  O38  1  0.67420000  0.28865400  0.84500400  1
  O  O39  1  0.69624400  0.37302100  0.41532900  1
  O  O40  1  0.72339400  0.63287200  0.36177700  1
  O  O41  1  0.71755200  0.03512900  0.91782800  1
  O  O42  1  0.78858300  0.46491300  0.09594700  1
  O  O43  1  0.76571600  0.86354000  0.61084800  1
  O  O44  1  0.80366100  0.12630500  0.59377900  1
  O  O45  1  0.82213700  0.21088800  0.16787600  1
  O  O46  1  0.91346500  0.81522400  0.11197600  1
  O  O47  1  0.90476600  0.51611200  0.66655600  1
