# generated using pymatgen
data_Li4Mn3OF8
_symmetry_space_group_name_H-M   'P 1'
_cell_length_a   5.24942900
_cell_length_b   5.71474600
_cell_length_c   24.52011600
_cell_angle_alpha   90.00000000
_cell_angle_beta   90.00000000
_cell_angle_gamma   90.00000000
_symmetry_Int_Tables_number   1
_chemical_formula_structural   Li4Mn3OF8
_chemical_formula_sum   'Li16 Mn12 O4 F32'
_cell_volume   735.58272078
_cell_formula_units_Z   4
loop_
 _symmetry_equiv_pos_site_id
 _symmetry_equiv_pos_as_xyz
  1  'x, y, z'
loop_
 _atom_site_type_symbol
 _atom_site_label
 _atom_site_symmetry_multiplicity
 _atom_site_fract_x
 _atom_site_fract_y
 _atom_site_fract_z
 _atom_site_occupancy
  Li  Li0  1  0.98422800  0.94018500  0.56942600  1
  Li  Li1  1  0.98422800  0.94018500  0.43057400  1
  Li  Li2  1  0.55514000  0.99235000  0.77978000  1
  Li  Li3  1  0.55514000  0.99235000  0.22022000  1
  Li  Li4  1  0.05514000  0.00765000  0.72022000  1
  Li  Li5  1  0.05514000  0.00765000  0.27978000  1
  Li  Li6  1  0.48422800  0.05981500  0.06942600  1
  Li  Li7  1  0.48422800  0.05981500  0.93057400  1
  Li  Li8  1  0.52365100  0.40166900  0.56310100  1
  Li  Li9  1  0.52365100  0.40166900  0.43689900  1
  Li  Li10  1  0.92934400  0.48597200  0.21858900  1
  Li  Li11  1  0.92934400  0.48597200  0.78141100  1
  Li  Li12  1  0.42934400  0.51402800  0.71858900  1
  Li  Li13  1  0.42934400  0.51402800  0.28141100  1
  Li  Li14  1  0.02365100  0.59833100  0.06310100  1
  Li  Li15  1  0.02365100  0.59833100  0.93689900  1
  Mn  Mn16  1  0.45367300  0.87985600  0.50000000  1
  Mn  Mn17  1  0.98593400  0.98264600  0.13521800  1
  Mn  Mn18  1  0.98593400  0.98264600  0.86478200  1
  Mn  Mn19  1  0.48593400  0.01735400  0.63521800  1
  Mn  Mn20  1  0.48593400  0.01735400  0.36478200  1
  Mn  Mn21  1  0.95367300  0.12014400  0.00000000  1
  Mn  Mn22  1  0.09108400  0.31498700  0.50000000  1
  Mn  Mn23  1  0.49144000  0.49015600  0.14123100  1
  Mn  Mn24  1  0.49144000  0.49015600  0.85876900  1
  Mn  Mn25  1  0.99144000  0.50984400  0.64123100  1
  Mn  Mn26  1  0.99144000  0.50984400  0.35876900  1
  Mn  Mn27  1  0.59108400  0.68501300  0.00000000  1
  O  O28  1  0.30918900  0.10368800  0.44003400  1
  O  O29  1  0.30918900  0.10368800  0.55996600  1
  O  O30  1  0.80918900  0.89631200  0.94003400  1
  O  O31  1  0.80918900  0.89631200  0.05996600  1
  F  F32  1  0.29188600  0.75733600  0.10215400  1
  F  F33  1  0.29188600  0.75733600  0.89784600  1
  F  F34  1  0.74531300  0.73272000  0.17983300  1
  F  F35  1  0.74531300  0.73272000  0.82016700  1
  F  F36  1  0.33900100  0.99159600  0.00000000  1
  F  F37  1  0.19913400  0.98702800  0.20954300  1
  F  F38  1  0.19913400  0.98702800  0.79045700  1
  F  F39  1  0.69913400  0.01297200  0.70954300  1
  F  F40  1  0.69913400  0.01297200  0.29045700  1
  F  F41  1  0.83900100  0.00840400  0.50000000  1
  F  F42  1  0.24531300  0.26728000  0.67983300  1
  F  F43  1  0.24531300  0.26728000  0.32016700  1
  F  F44  1  0.79188600  0.24266400  0.60215400  1
  F  F45  1  0.79188600  0.24266400  0.39784600  1
  F  F46  1  0.23106300  0.25328300  0.89596400  1
  F  F47  1  0.23106300  0.25328300  0.10403600  1
  F  F48  1  0.73953200  0.23484700  0.17712000  1
  F  F49  1  0.73953200  0.23484700  0.82288000  1
  F  F50  1  0.17870100  0.48357500  0.00000000  1
  F  F51  1  0.28056000  0.48900800  0.21300700  1
  F  F52  1  0.28056000  0.48900800  0.78699300  1
  F  F53  1  0.20235700  0.59250900  0.55983500  1
  F  F54  1  0.20235700  0.59250900  0.44016500  1
  F  F55  1  0.70235700  0.40749100  0.05983500  1
  F  F56  1  0.70235700  0.40749100  0.94016500  1
  F  F57  1  0.78056000  0.51099200  0.71300700  1
  F  F58  1  0.78056000  0.51099200  0.28699300  1
  F  F59  1  0.67870100  0.51642500  0.50000000  1
  F  F60  1  0.23953200  0.76515300  0.67712000  1
  F  F61  1  0.23953200  0.76515300  0.32288000  1
  F  F62  1  0.73106300  0.74671700  0.60403600  1
  F  F63  1  0.73106300  0.74671700  0.39596400  1
