# generated using pymatgen
data_LiSnPO4
_symmetry_space_group_name_H-M   'P 1'
_cell_length_a   5.37542400
_cell_length_b   5.62216300
_cell_length_c   14.19081800
_cell_angle_alpha   90.00000000
_cell_angle_beta   90.00000000
_cell_angle_gamma   90.00000000
_symmetry_Int_Tables_number   1
_chemical_formula_structural   LiSnPO4
_chemical_formula_sum   'Li4 Sn4 P4 O16'
_cell_volume   428.86794699
_cell_formula_units_Z   4
loop_
 _symmetry_equiv_pos_site_id
 _symmetry_equiv_pos_as_xyz
  1  'x, y, z'
loop_
 _atom_site_type_symbol
 _atom_site_label
 _atom_site_symmetry_multiplicity
 _atom_site_fract_x
 _atom_site_fract_y
 _atom_site_fract_z
 _atom_site_occupancy
  Li  Li0  1  0.20140000  0.63808900  0.24998900  1
  Li  Li1  1  0.29860000  0.36191100  0.74998900  1
  Li  Li2  1  0.79860000  0.13808900  0.25001100  1
  Li  Li3  1  0.70140000  0.86191100  0.75001100  1
  Sn  Sn4  1  0.70661400  0.97050700  0.02818900  1
  Sn  Sn5  1  0.79338600  0.02949300  0.52818900  1
  Sn  Sn6  1  0.29338600  0.47050700  0.47181100  1
  Sn  Sn7  1  0.20661400  0.52949300  0.97181100  1
  P  P8  1  0.24464200  0.83476000  0.62653100  1
  P  P9  1  0.25535800  0.16524000  0.12653100  1
  P  P10  1  0.75535800  0.33476000  0.87346900  1
  P  P11  1  0.74464200  0.66524000  0.37346900  1
  O  O12  1  0.80418600  0.92645300  0.35319200  1
  O  O13  1  0.51235200  0.07945900  0.16511100  1
  O  O14  1  0.04377500  0.99658100  0.15792800  1
  O  O15  1  0.20852900  0.85006800  0.51400500  1
  O  O16  1  0.29147100  0.14993200  0.01400500  1
  O  O17  1  0.45622500  0.00341900  0.65792800  1
  O  O18  1  0.98764800  0.92054100  0.66511100  1
  O  O19  1  0.69581400  0.07354700  0.85319200  1
  O  O20  1  0.19581400  0.42645300  0.14680800  1
  O  O21  1  0.48764800  0.57945900  0.33488900  1
  O  O22  1  0.95622500  0.49658100  0.34207200  1
  O  O23  1  0.79147100  0.35006800  0.98599500  1
  O  O24  1  0.70852900  0.64993200  0.48599500  1
  O  O25  1  0.54377500  0.50341900  0.84207200  1
  O  O26  1  0.01235200  0.42054100  0.83488900  1
  O  O27  1  0.30418600  0.57354700  0.64680800  1
