# generated using pymatgen
data_LiMnF3
_symmetry_space_group_name_H-M   'P 1'
_cell_length_a   5.89076100
_cell_length_b   9.33973100
_cell_length_c   10.06838700
_cell_angle_alpha   90.00000000
_cell_angle_beta   90.00000000
_cell_angle_gamma   90.00000000
_symmetry_Int_Tables_number   1
_chemical_formula_structural   LiMnF3
_chemical_formula_sum   'Li8 Mn8 F24'
_cell_volume   553.94375564
_cell_formula_units_Z   8
loop_
 _symmetry_equiv_pos_site_id
 _symmetry_equiv_pos_as_xyz
  1  'x, y, z'
loop_
 _atom_site_type_symbol
 _atom_site_label
 _atom_site_symmetry_multiplicity
 _atom_site_fract_x
 _atom_site_fract_y
 _atom_site_fract_z
 _atom_site_occupancy
  Li  Li0  1  0.54884600  0.42031800  0.20334700  1
  Li  Li1  1  0.04884600  0.57968200  0.20334700  1
  Li  Li2  1  0.04884600  0.07968200  0.29665300  1
  Li  Li3  1  0.54884600  0.92031800  0.29665300  1
  Li  Li4  1  0.45115400  0.07968200  0.70334700  1
  Li  Li5  1  0.95115400  0.92031800  0.70334700  1
  Li  Li6  1  0.95115400  0.42031800  0.79665300  1
  Li  Li7  1  0.45115400  0.57968200  0.79665300  1
  Mn  Mn8  1  0.25000000  0.28225400  0.00000000  1
  Mn  Mn9  1  0.75000000  0.09372000  0.00000000  1
  Mn  Mn10  1  0.25000000  0.90628000  0.00000000  1
  Mn  Mn11  1  0.75000000  0.71774600  0.00000000  1
  Mn  Mn12  1  0.75000000  0.59372000  0.50000000  1
  Mn  Mn13  1  0.25000000  0.78225400  0.50000000  1
  Mn  Mn14  1  0.75000000  0.21774600  0.50000000  1
  Mn  Mn15  1  0.25000000  0.40628000  0.50000000  1
  F  F16  1  0.08565500  0.08735700  0.10377800  1
  F  F17  1  0.58565500  0.91264300  0.10377800  1
  F  F18  1  0.56939300  0.25068700  0.09910700  1
  F  F19  1  0.06939300  0.74931300  0.09910700  1
  F  F20  1  0.23474100  0.43017500  0.15383500  1
  F  F21  1  0.73474100  0.56982500  0.15383500  1
  F  F22  1  0.23474100  0.93017500  0.34616500  1
  F  F23  1  0.73474100  0.06982500  0.34616500  1
  F  F24  1  0.06939300  0.24931300  0.40089300  1
  F  F25  1  0.56939300  0.75068700  0.40089300  1
  F  F26  1  0.08565500  0.58735700  0.39622200  1
  F  F27  1  0.58565500  0.41264300  0.39622200  1
  F  F28  1  0.91434500  0.41264300  0.60377800  1
  F  F29  1  0.41434500  0.58735700  0.60377800  1
  F  F30  1  0.43060700  0.24931300  0.59910700  1
  F  F31  1  0.93060700  0.75068700  0.59910700  1
  F  F32  1  0.26525900  0.93017500  0.65383500  1
  F  F33  1  0.76525900  0.06982500  0.65383500  1
  F  F34  1  0.26525900  0.43017500  0.84616500  1
  F  F35  1  0.76525900  0.56982500  0.84616500  1
  F  F36  1  0.93060700  0.25068700  0.90089300  1
  F  F37  1  0.43060700  0.74931300  0.90089300  1
  F  F38  1  0.41434500  0.08735700  0.89622200  1
  F  F39  1  0.91434500  0.91264300  0.89622200  1
