# generated using pymatgen
data_Li3Fe(SbO3)4
_symmetry_space_group_name_H-M   'P 1'
_cell_length_a   5.58408224
_cell_length_b   10.56941632
_cell_length_c   7.70102612
_cell_angle_alpha   90.12699760
_cell_angle_beta   85.65503868
_cell_angle_gamma   90.15288297
_symmetry_Int_Tables_number   1
_chemical_formula_structural   Li3Fe(SbO3)4
_chemical_formula_sum   'Li6 Fe2 Sb8 O24'
_cell_volume   453.20950538
_cell_formula_units_Z   2
loop_
 _symmetry_equiv_pos_site_id
 _symmetry_equiv_pos_as_xyz
  1  'x, y, z'
loop_
 _atom_site_type_symbol
 _atom_site_label
 _atom_site_symmetry_multiplicity
 _atom_site_fract_x
 _atom_site_fract_y
 _atom_site_fract_z
 _atom_site_occupancy
  Li  Li0  1  0.05701400  0.25017500  0.78465100  1
  Li  Li1  1  0.05629200  0.75033200  0.78431800  1
  Li  Li2  1  0.56762000  0.49970200  0.78376700  1
  Li  Li3  1  0.56762400  0.00050200  0.78367300  1
  Li  Li4  1  0.05793300  0.24886100  0.27911400  1
  Li  Li5  1  0.05734300  0.74945400  0.27913100  1
  Fe  Fe6  1  0.57355200  0.50045600  0.28305500  1
  Fe  Fe7  1  0.57819200  0.99733700  0.28187200  1
  Sb  Sb8  1  0.99751400  0.00069200  0.98990400  1
  Sb  Sb9  1  0.99639400  0.49989300  0.99086300  1
  Sb  Sb10  1  0.48397400  0.24925600  0.50154500  1
  Sb  Sb11  1  0.48690200  0.74954300  0.50305100  1
  Sb  Sb12  1  0.99452000  0.49898200  0.50047000  1
  Sb  Sb13  1  0.99361000  0.99818600  0.50066000  1
  Sb  Sb14  1  0.48874200  0.25145500  0.99168300  1
  Sb  Sb15  1  0.48831700  0.75176200  0.99034400  1
  O  O16  1  0.77947400  0.14737100  0.41453600  1
  O  O17  1  0.78458300  0.64997400  0.41638300  1
  O  O18  1  0.96496100  0.06733800  0.74371900  1
  O  O19  1  0.96472300  0.56683900  0.74445600  1
  O  O20  1  0.16207200  0.16405500  0.04687400  1
  O  O21  1  0.16287400  0.66314800  0.04848900  1
  O  O22  1  0.28892500  0.09820600  0.41506700  1
  O  O23  1  0.29081400  0.59797400  0.41431100  1
  O  O24  1  0.29387800  0.40274500  0.91418200  1
  O  O25  1  0.29350300  0.90269800  0.91234600  1
  O  O26  1  0.46508200  0.18277100  0.74462600  1
  O  O27  1  0.46446400  0.68148000  0.74535200  1
  O  O28  1  0.46034300  0.31422800  0.24339800  1
  O  O29  1  0.46261600  0.81590200  0.24253900  1
  O  O30  1  0.66294900  0.08912800  0.04545800  1
  O  O31  1  0.66176800  0.58947900  0.04601200  1
  O  O32  1  0.65366900  0.41521000  0.54052200  1
  O  O33  1  0.65459100  0.91460500  0.54650600  1
  O  O34  1  0.78803900  0.35033800  0.91364700  1
  O  O35  1  0.78867300  0.85032600  0.91447700  1
  O  O36  1  0.95604300  0.43586400  0.24148500  1
  O  O37  1  0.95842300  0.93686200  0.24070800  1
  O  O38  1  0.15466900  0.33361800  0.54848200  1
  O  O39  1  0.15572300  0.83325300  0.54753000  1
