# generated using pymatgen
data_LiNiPO4
_symmetry_space_group_name_H-M   'P 1'
_cell_length_a   4.78575700
_cell_length_b   7.36489700
_cell_length_c   17.63229608
_cell_angle_alpha   87.40151464
_cell_angle_beta   90.00000000
_cell_angle_gamma   90.00000000
_symmetry_Int_Tables_number   1
_chemical_formula_structural   LiNiPO4
_chemical_formula_sum   'Li8 Ni8 P8 O32'
_cell_volume   620.83959319
_cell_formula_units_Z   8
loop_
 _symmetry_equiv_pos_site_id
 _symmetry_equiv_pos_as_xyz
  1  'x, y, z'
loop_
 _atom_site_type_symbol
 _atom_site_label
 _atom_site_symmetry_multiplicity
 _atom_site_fract_x
 _atom_site_fract_y
 _atom_site_fract_z
 _atom_site_occupancy
  Li  Li0  1  0.77953000  0.13704300  0.77597100  1
  Li  Li1  1  0.72047000  0.13704300  0.27597100  1
  Li  Li2  1  0.21675500  0.34602500  0.51419000  1
  Li  Li3  1  0.28324500  0.34602500  0.01419000  1
  Li  Li4  1  0.71675500  0.65397500  0.98581000  1
  Li  Li5  1  0.78324500  0.65397500  0.48581000  1
  Li  Li6  1  0.27953000  0.86295700  0.72402900  1
  Li  Li7  1  0.22047000  0.86295700  0.22402900  1
  Ni  Ni8  1  0.71368400  0.04183400  0.60010300  1
  Ni  Ni9  1  0.78631600  0.04183400  0.10010300  1
  Ni  Ni10  1  0.34950600  0.49734800  0.82708500  1
  Ni  Ni11  1  0.15049400  0.49734800  0.32708500  1
  Ni  Ni12  1  0.84950600  0.50265200  0.67291500  1
  Ni  Ni13  1  0.65049400  0.50265200  0.17291500  1
  Ni  Ni14  1  0.21368400  0.95816600  0.89989700  1
  Ni  Ni15  1  0.28631600  0.95816600  0.39989700  1
  P  P16  1  0.35820500  0.25505200  0.67884500  1
  P  P17  1  0.14179500  0.25505200  0.17884500  1
  P  P18  1  0.69144400  0.22456200  0.93073400  1
  P  P19  1  0.80855600  0.22456200  0.43073400  1
  P  P20  1  0.19144400  0.77543800  0.56926600  1
  P  P21  1  0.30855600  0.77543800  0.06926600  1
  P  P22  1  0.85820500  0.74494800  0.82115500  1
  P  P23  1  0.64179500  0.74494800  0.32115500  1
  O  O24  1  0.49358400  0.07307000  0.70650200  1
  O  O25  1  0.00641600  0.07307000  0.20650200  1
  O  O26  1  0.59772500  0.17203800  0.01219400  1
  O  O27  1  0.54995200  0.10817100  0.87077600  1
  O  O28  1  0.45983400  0.27974900  0.59609700  1
  O  O29  1  0.03906000  0.26143400  0.69103800  1
  O  O30  1  0.90227500  0.17203800  0.51219400  1
  O  O31  1  0.95004800  0.10817100  0.37077600  1
  O  O32  1  0.04016600  0.27974900  0.09609700  1
  O  O33  1  0.46094000  0.26143400  0.19103800  1
  O  O34  1  0.01304900  0.21150200  0.92055200  1
  O  O35  1  0.48695100  0.21150200  0.42055200  1
  O  O36  1  0.49394000  0.41171000  0.72537000  1
  O  O37  1  0.00606000  0.41171000  0.22537000  1
  O  O38  1  0.57925900  0.42503600  0.91674600  1
  O  O39  1  0.92074100  0.42503600  0.41674600  1
  O  O40  1  0.07925900  0.57496400  0.58325400  1
  O  O41  1  0.42074100  0.57496400  0.08325400  1
  O  O42  1  0.99394000  0.58829000  0.77463000  1
  O  O43  1  0.50606000  0.58829000  0.27463000  1
  O  O44  1  0.51304900  0.78849800  0.57944800  1
  O  O45  1  0.98695100  0.78849800  0.07944800  1
  O  O46  1  0.53906000  0.73856600  0.80896200  1
  O  O47  1  0.95983400  0.72025100  0.90390300  1
  O  O48  1  0.04995200  0.89182900  0.62922400  1
  O  O49  1  0.09772500  0.82796200  0.48780600  1
  O  O50  1  0.96094000  0.73856600  0.30896200  1
  O  O51  1  0.54016600  0.72025100  0.40390300  1
  O  O52  1  0.45004800  0.89182900  0.12922400  1
  O  O53  1  0.40227500  0.82796200  0.98780600  1
  O  O54  1  0.99358400  0.92693000  0.79349800  1
  O  O55  1  0.50641600  0.92693000  0.29349800  1
