# generated using pymatgen
data_Li8NiO5F
_symmetry_space_group_name_H-M   'P 1'
_cell_length_a   5.51430953
_cell_length_b   5.51430953
_cell_length_c   10.85088200
_cell_angle_alpha   90.00000000
_cell_angle_beta   90.00000000
_cell_angle_gamma   119.99999434
_symmetry_Int_Tables_number   1
_chemical_formula_structural   Li8NiO5F
_chemical_formula_sum   'Li16 Ni2 O10 F2'
_cell_volume   285.74456429
_cell_formula_units_Z   2
loop_
 _symmetry_equiv_pos_site_id
 _symmetry_equiv_pos_as_xyz
  1  'x, y, z'
loop_
 _atom_site_type_symbol
 _atom_site_label
 _atom_site_symmetry_multiplicity
 _atom_site_fract_x
 _atom_site_fract_y
 _atom_site_fract_z
 _atom_site_occupancy
  Li  Li0  1  0.97649100  0.68789800  0.77248400  1
  Li  Li1  1  0.01873600  0.63805500  0.12105000  1
  Li  Li2  1  0.98126400  0.36194500  0.62105000  1
  Li  Li3  1  0.02350900  0.31210200  0.27248400  1
  Li  Li4  1  0.33333300  0.66666700  0.41478400  1
  Li  Li5  1  0.33333300  0.66666700  0.92623200  1
  Li  Li6  1  0.31210200  0.28859400  0.77248400  1
  Li  Li7  1  0.36194500  0.38068000  0.12105000  1
  Li  Li8  1  0.63805500  0.61932000  0.62105000  1
  Li  Li9  1  0.28859400  0.97649100  0.27248400  1
  Li  Li10  1  0.68789800  0.71140600  0.27248400  1
  Li  Li11  1  0.38068000  0.01873600  0.62105000  1
  Li  Li12  1  0.66666700  0.33333300  0.91478400  1
  Li  Li13  1  0.66666700  0.33333300  0.42623200  1
  Li  Li14  1  0.61932000  0.98126400  0.12105000  1
  Li  Li15  1  0.71140600  0.02350900  0.77248400  1
  Ni  Ni16  1  0.00000000  0.00000000  0.98860800  1
  Ni  Ni17  1  0.00000000  0.00000000  0.48860800  1
  O  O18  1  0.00164300  0.68010900  0.94775800  1
  O  O19  1  0.99835700  0.31989100  0.44775800  1
  O  O20  1  0.33333300  0.66666700  0.21284500  1
  O  O21  1  0.00000000  0.00000000  0.67107500  1
  O  O22  1  0.00000000  0.00000000  0.17107500  1
  O  O23  1  0.31989100  0.32153500  0.94775800  1
  O  O24  1  0.32153500  0.00164300  0.44775800  1
  O  O25  1  0.68010900  0.67846500  0.44775800  1
  O  O26  1  0.66666700  0.33333300  0.71284500  1
  O  O27  1  0.67846500  0.99835700  0.94775800  1
  F  F28  1  0.33333300  0.66666700  0.70820700  1
  F  F29  1  0.66666700  0.33333300  0.20820700  1
