# generated using pymatgen
data_Na7Li3V10O30
_symmetry_space_group_name_H-M   'P 1'
_cell_length_a   7.07003700
_cell_length_b   12.21718999
_cell_length_c   16.63120589
_cell_angle_alpha   89.52389380
_cell_angle_beta   101.01394841
_cell_angle_gamma   99.82739141
_symmetry_Int_Tables_number   1
_chemical_formula_structural   Na7Li3V10O30
_chemical_formula_sum   'Na14 Li6 V20 O60'
_cell_volume   1388.94736898
_cell_formula_units_Z   2
loop_
 _symmetry_equiv_pos_site_id
 _symmetry_equiv_pos_as_xyz
  1  'x, y, z'
loop_
 _atom_site_type_symbol
 _atom_site_label
 _atom_site_symmetry_multiplicity
 _atom_site_fract_x
 _atom_site_fract_y
 _atom_site_fract_z
 _atom_site_occupancy
  Na  Na0  1  0.91646900  0.11671600  0.01653300  1
  Na  Na1  1  0.71138800  0.35827200  0.03559000  1
  Na  Na2  1  0.71232900  0.75671900  0.23409700  1
  Na  Na3  1  0.91637100  0.91676100  0.41659600  1
  Na  Na4  1  0.28909600  0.04213000  0.16575800  1
  Na  Na5  1  0.71072200  0.15806400  0.43416000  1
  Na  Na6  1  0.28608200  0.44264900  0.36458200  1
  Na  Na7  1  0.91637200  0.31695500  0.61589500  1
  Na  Na8  1  0.71080300  0.55785600  0.63441000  1
  Na  Na9  1  0.91645900  0.71646000  0.81726000  1
  Na  Na10  1  0.28876400  0.84222600  0.56544800  1
  Na  Na11  1  0.71084900  0.95781500  0.83431500  1
  Na  Na12  1  0.28890900  0.24234400  0.76549200  1
  Na  Na13  1  0.28932800  0.64221700  0.96554600  1
  Li  Li14  1  0.91200500  0.51763000  0.21483400  1
  Li  Li15  1  0.08935800  0.28361100  0.18635800  1
  Li  Li16  1  0.08908700  0.68092800  0.38492100  1
  Li  Li17  1  0.09007400  0.08199000  0.58598300  1
  Li  Li18  1  0.09011300  0.48199100  0.78609900  1
  Li  Li19  1  0.09012400  0.88197500  0.98621600  1
  V  V20  1  0.80231600  0.62298200  0.00459400  1
  V  V21  1  0.61611600  0.85810400  0.02852300  1
  V  V22  1  0.80203800  0.02476400  0.20162700  1
  V  V23  1  0.61848000  0.26044900  0.22843700  1
  V  V24  1  0.38094100  0.53946500  0.17099800  1
  V  V25  1  0.80182100  0.42533300  0.39943300  1
  V  V26  1  0.19772300  0.77607200  0.19762200  1
  V  V27  1  0.61643000  0.65822300  0.42841000  1
  V  V28  1  0.37831800  0.93902400  0.37049000  1
  V  V29  1  0.80178400  0.82441200  0.60173200  1
  V  V30  1  0.19893400  0.17883100  0.39741900  1
  V  V31  1  0.61619800  0.05820300  0.62846400  1
  V  V32  1  0.37886000  0.33936500  0.57048200  1
  V  V33  1  0.80173700  0.22457300  0.80163600  1
  V  V34  1  0.19859300  0.57878900  0.59734600  1
  V  V35  1  0.61680500  0.45835200  0.82927200  1
  V  V36  1  0.37868900  0.73936800  0.77048100  1
  V  V37  1  0.19882800  0.97885300  0.79756500  1
  V  V38  1  0.37899300  0.13949200  0.97065700  1
  V  V39  1  0.19852900  0.37882500  0.99765800  1
  O  O40  1  0.89801100  0.55380800  0.08505500  1
  O  O41  1  0.64647400  0.71279800  0.03629300  1
  O  O42  1  0.98090500  0.09966600  0.16002900  1
  O  O43  1  0.60534300  0.14540300  0.02379100  1
  O  O44  1  0.64494000  0.91773800  0.13142500  1
  O  O45  1  0.90180700  0.95330100  0.27922900  1
  O  O46  1  0.78424300  0.33494800  0.17939100  1
  O  O47  1  0.35811400  0.48588300  0.06652000  1
  O  O48  1  0.97456800  0.49910700  0.35348600  1
  O  O49  1  0.60990700  0.54148000  0.22157000  1
  O  O50  1  0.22066800  0.06008300  0.02036500  1
  O  O51  1  0.35065600  0.68501100  0.16502900  1
  O  O52  1  0.64888000  0.11464700  0.23573300  1
  O  O53  1  0.78051700  0.72824100  0.37678600  1
  O  O54  1  0.09891600  0.84438700  0.11717900  1
  O  O55  1  0.38928600  0.25816700  0.17791800  1
  O  O56  1  0.02538600  0.31055600  0.04561800  1
  O  O57  1  0.35684200  0.88407300  0.26651600  1
  O  O58  1  0.64243300  0.31638300  0.33193500  1
  O  O59  1  0.98055100  0.89963000  0.56014600  1
  O  O60  1  0.60491400  0.94496400  0.42336200  1
  O  O61  1  0.90563500  0.35610400  0.47759500  1
  O  O62  1  0.21567900  0.46461000  0.22021800  1
  O  O63  1  0.64789100  0.51313300  0.43562200  1
  O  O64  1  0.38719300  0.65646000  0.37813500  1
  O  O65  1  0.02404800  0.70347300  0.24364200  1
  O  O66  1  0.64505100  0.71738400  0.53153700  1
  O  O67  1  0.34512600  0.08418200  0.36449300  1
  O  O68  1  0.90208700  0.75335600  0.67941400  1
  O  O69  1  0.22022100  0.86002100  0.42042900  1
  O  O70  1  0.78039900  0.12821100  0.57685000  1
  O  O71  1  0.09981300  0.24613300  0.31646500  1
  O  O72  1  0.64702000  0.91291300  0.63642500  1
  O  O73  1  0.35994300  0.28572700  0.46632100  1
  O  O74  1  0.98055100  0.29973000  0.76001100  1
  O  O75  1  0.60522400  0.34507600  0.62350600  1
  O  O76  1  0.34556400  0.48447000  0.56465900  1
  O  O77  1  0.78039900  0.52805300  0.77728600  1
  O  O78  1  0.09921900  0.64566600  0.51621200  1
  O  O79  1  0.38712300  0.05654900  0.57804800  1
  O  O80  1  0.02581500  0.11077300  0.44552400  1
  O  O81  1  0.35962300  0.68573300  0.66621800  1
  O  O82  1  0.64480000  0.11756000  0.73147100  1
  O  O83  1  0.98129300  0.69729000  0.96241300  1
  O  O84  1  0.60512400  0.74513800  0.82340900  1
  O  O85  1  0.90209900  0.15338900  0.87926400  1
  O  O86  1  0.22047900  0.26016200  0.62029300  1
  O  O87  1  0.34538100  0.88445800  0.76462800  1
  O  O88  1  0.64711800  0.31302700  0.83642200  1
  O  O89  1  0.78061700  0.92793300  0.97700600  1
  O  O90  1  0.38778500  0.45684300  0.77874000  1
  O  O91  1  0.02584900  0.51068700  0.64558300  1
  O  O92  1  0.64744600  0.51677700  0.93300100  1
  O  O93  1  0.22050000  0.66017600  0.82039600  1
  O  O94  1  0.09959100  0.04619200  0.71670100  1
  O  O95  1  0.36000500  0.08578300  0.86642400  1
  O  O96  1  0.38708200  0.85643100  0.97809500  1
  O  O97  1  0.02591000  0.91053700  0.84566000  1
  O  O98  1  0.34541800  0.28450600  0.96476900  1
  O  O99  1  0.09967600  0.44629500  0.91680100  1
