# generated using pymatgen
data_Li7Fe3O8
_symmetry_space_group_name_H-M   'P 1'
_cell_length_a   10.53956208
_cell_length_b   7.75152219
_cell_length_c   5.55052105
_cell_angle_alpha   109.13975299
_cell_angle_beta   99.93920834
_cell_angle_gamma   67.81386116
_symmetry_Int_Tables_number   1
_chemical_formula_structural   Li7Fe3O8
_chemical_formula_sum   'Li14 Fe6 O16'
_cell_volume   396.06248821
_cell_formula_units_Z   2
loop_
 _symmetry_equiv_pos_site_id
 _symmetry_equiv_pos_as_xyz
  1  'x, y, z'
loop_
 _atom_site_type_symbol
 _atom_site_label
 _atom_site_symmetry_multiplicity
 _atom_site_fract_x
 _atom_site_fract_y
 _atom_site_fract_z
 _atom_site_occupancy
  Li  Li0  1  0.06662704  0.88356536  0.71520078  1
  Li  Li1  1  0.05365247  0.43224794  0.68287874  1
  Li  Li2  1  0.33439505  0.79737816  0.85637267  1
  Li  Li3  1  0.27764458  0.45216136  0.53244911  1
  Li  Li4  1  0.43896118  0.63966238  0.41922007  1
  Li  Li5  1  0.22037340  0.03247778  0.53995050  1
  Li  Li6  1  0.51615554  0.93685793  0.71598394  1
  Li  Li7  1  0.48384446  0.06314207  0.28401606  1
  Li  Li8  1  0.77962660  0.96752222  0.46004950  1
  Li  Li9  1  0.56103882  0.36033762  0.58077993  1
  Li  Li10  1  0.72235542  0.54783864  0.46755089  1
  Li  Li11  1  0.66560495  0.20262184  0.14362733  1
  Li  Li12  1  0.94634753  0.56775206  0.31712126  1
  Li  Li13  1  0.93337296  0.11643464  0.28479922  1
  Fe  Fe14  1  0.14579550  0.72609570  0.19181508  1
  Fe  Fe15  1  0.16193595  0.17111944  0.05238760  1
  Fe  Fe16  1  0.37819985  0.30987803  0.94011322  1
  Fe  Fe17  1  0.62180015  0.69012197  0.05988678  1
  Fe  Fe18  1  0.83806405  0.82888056  0.94761240  1
  Fe  Fe19  1  0.85420450  0.27390430  0.80818492  1
  O  O20  1  0.15459033  0.93651177  0.09033259  1
  O  O21  1  0.23699241  0.74849934  0.51377935  1
  O  O22  1  0.04665972  0.18620351  0.73375060  1
  O  O23  1  0.12415451  0.36399141  0.35067268  1
  O  O24  1  0.20313575  0.51003925  0.89994712  1
  O  O25  1  0.34103739  0.07127582  0.92352593  1
  O  O26  1  0.53984669  0.78569618  0.36760775  1
  O  O27  1  0.51813970  0.63175054  0.76435181  1
  O  O28  1  0.48186030  0.36824946  0.23564819  1
  O  O29  1  0.46015331  0.21430382  0.63239225  1
  O  O30  1  0.65896261  0.92872418  0.07647407  1
  O  O31  1  0.79686425  0.48996075  0.10005288  1
  O  O32  1  0.87584549  0.63600859  0.64932732  1
  O  O33  1  0.95334028  0.81379649  0.26624940  1
  O  O34  1  0.76300759  0.25150066  0.48622065  1
  O  O35  1  0.84540967  0.06348823  0.90966741  1
