# generated using pymatgen
data_Li5Sc2Fe3(SiO3)10
_symmetry_space_group_name_H-M   'P 1'
_cell_length_a   22.80448219
_cell_length_b   22.80448219
_cell_length_c   5.38118351
_cell_angle_alpha   85.63481947
_cell_angle_beta   85.63481947
_cell_angle_gamma   154.99867888
_symmetry_Int_Tables_number   1
_chemical_formula_structural   Li5Sc2Fe3(SiO3)10
_chemical_formula_sum   'Li10 Sc4 Fe6 Si20 O60'
_cell_volume   1107.20068112
_cell_formula_units_Z   2
loop_
 _symmetry_equiv_pos_site_id
 _symmetry_equiv_pos_as_xyz
  1  'x, y, z'
loop_
 _atom_site_type_symbol
 _atom_site_label
 _atom_site_symmetry_multiplicity
 _atom_site_fract_x
 _atom_site_fract_y
 _atom_site_fract_z
 _atom_site_occupancy
  Li  Li0  1  0.35047300  0.64952700  0.00000000  1
  Li  Li1  1  0.45071500  0.54928500  0.50000000  1
  Li  Li2  1  0.25033600  0.74966400  0.50000000  1
  Li  Li3  1  0.05079600  0.94920400  0.50000000  1
  Li  Li4  1  0.14993300  0.85006700  0.00000000  1
  Li  Li5  1  0.85051600  0.14948400  0.50000000  1
  Li  Li6  1  0.75030600  0.24969400  0.00000000  1
  Li  Li7  1  0.55082700  0.44917300  0.00000000  1
  Li  Li8  1  0.95057000  0.04943000  0.00000000  1
  Li  Li9  1  0.64932100  0.35067900  0.50000000  1
  Sc  Sc10  1  0.17907500  0.82092500  0.50000000  1
  Sc  Sc11  1  0.37956200  0.62043800  0.50000000  1
  Sc  Sc12  1  0.77943300  0.22056700  0.50000000  1
  Sc  Sc13  1  0.97981600  0.02018400  0.50000000  1
  Fe  Fe14  1  0.42163400  0.57836600  0.00000000  1
  Fe  Fe15  1  0.22128200  0.77871800  0.00000000  1
  Fe  Fe16  1  0.02150000  0.97850000  0.00000000  1
  Fe  Fe17  1  0.62076300  0.37923700  0.00000000  1
  Fe  Fe18  1  0.82140300  0.17859700  0.00000000  1
  Fe  Fe19  1  0.57919200  0.42080800  0.50000000  1
  Si  Si20  1  0.68463100  0.71920800  0.02327800  1
  Si  Si21  1  0.71455500  0.87930000  0.47938500  1
  Si  Si22  1  0.52064300  0.88567900  0.52075400  1
  Si  Si23  1  0.67982500  0.91536600  0.97532500  1
  Si  Si24  1  0.48446500  0.92022800  0.02482100  1
  Si  Si25  1  0.07977200  0.51553500  0.97517900  1
  Si  Si26  1  0.28079200  0.31536900  0.97672200  1
  Si  Si27  1  0.87758100  0.71378300  0.98134300  1
  Si  Si28  1  0.88426100  0.52042400  0.02406700  1
  Si  Si29  1  0.08463400  0.32017500  0.02467500  1
  Si  Si30  1  0.11432100  0.47935700  0.47924600  1
  Si  Si31  1  0.91145000  0.67751600  0.48161400  1
  Si  Si32  1  0.92061600  0.48599700  0.52006000  1
  Si  Si33  1  0.71997100  0.68339200  0.51918800  1
  Si  Si34  1  0.12070000  0.28544500  0.52061500  1
  Si  Si35  1  0.51400300  0.07938400  0.47994000  1
  Si  Si36  1  0.32248400  0.08855000  0.51838600  1
  Si  Si37  1  0.47957600  0.11573900  0.97593300  1
  Si  Si38  1  0.28621700  0.12241900  0.01865700  1
  Si  Si39  1  0.31660800  0.28002900  0.48081200  1
  O  O40  1  0.75643300  0.95577800  0.69123800  1
  O  O41  1  0.82089900  0.92011500  0.41032600  1
  O  O42  1  0.74979800  0.95144100  0.19669600  1
  O  O43  1  0.86436800  0.89744900  0.91131500  1
  O  O44  1  0.44835200  0.85025000  0.80341700  1
  O  O45  1  0.64887800  0.64886800  0.80327000  1
  O  O46  1  0.48013500  0.77959800  0.58985700  1
  O  O47  1  0.28315700  0.98333900  0.58320800  1
  O  O48  1  0.53559700  0.70000700  0.60399800  1
  O  O49  1  0.33495800  0.90020000  0.60460000  1
  O  O50  1  0.44411100  0.84358800  0.30872000  1
  O  O51  1  0.37732400  0.87901500  0.08940600  1
  O  O52  1  0.57793100  0.67859000  0.08679200  1
  O  O53  1  0.30144000  0.93587800  0.08811500  1
  O  O54  1  0.50205400  0.73548200  0.08815300  1
  O  O55  1  0.35113200  0.35112200  0.19673000  1
  O  O56  1  0.26451800  0.49794600  0.91184700  1
  O  O57  1  0.06412200  0.69856000  0.91188500  1
  O  O58  1  0.91900500  0.82101500  0.91336900  1
  O  O59  1  0.12098500  0.62267600  0.91059400  1
  O  O60  1  0.32141000  0.42206900  0.91320800  1
  O  O61  1  0.95204500  0.75239700  0.69612600  1
  O  O62  1  0.15641200  0.55588900  0.69128000  1
  O  O63  1  0.09980000  0.66504200  0.39540000  1
  O  O64  1  0.89922500  0.86284000  0.39634300  1
  O  O65  1  0.29999300  0.46440300  0.39600200  1
  O  O66  1  0.22040200  0.51986500  0.41014300  1
  O  O67  1  0.01666100  0.71684300  0.41679200  1
  O  O68  1  0.95119800  0.75336900  0.19727000  1
  O  O69  1  0.14975000  0.55164800  0.19658300  1
  O  O70  1  0.04422200  0.24356700  0.30876200  1
  O  O71  1  0.84412300  0.44408600  0.30816100  1
  O  O72  1  0.97762300  0.27911700  0.08910000  1
  O  O73  1  0.77704400  0.47921500  0.08667500  1
  O  O74  1  0.69932100  0.53350200  0.10048900  1
  O  O75  1  0.10255100  0.13563200  0.08868500  1
  O  O76  1  0.90188200  0.33565000  0.08795300  1
  O  O77  1  0.84839700  0.45029500  0.80361100  1
  O  O78  1  0.04855900  0.25020200  0.80330400  1
  O  O79  1  0.07988500  0.17910100  0.58967400  1
  O  O80  1  0.88041200  0.38014200  0.58838600  1
  O  O81  1  0.67824000  0.57608800  0.58763000  1
  O  O82  1  0.73147500  0.49869600  0.60175900  1
  O  O83  1  0.93538700  0.30013500  0.60428900  1
  O  O84  1  0.64380900  0.64255100  0.30824200  1
  O  O85  1  0.50130400  0.26852500  0.39824100  1
  O  O86  1  0.69986500  0.06461300  0.39571100  1
  O  O87  1  0.42391200  0.32176000  0.41237000  1
  O  O88  1  0.61985800  0.11958800  0.41161400  1
  O  O89  1  0.54970500  0.15160300  0.19638900  1
  O  O90  1  0.46649800  0.30067900  0.89951100  1
  O  O91  1  0.66435000  0.09811800  0.91204700  1
  O  O92  1  0.72088300  0.02237700  0.91090000  1
  O  O93  1  0.52078500  0.22295600  0.91332500  1
  O  O94  1  0.35744900  0.35619100  0.69175800  1
  O  O95  1  0.55591400  0.15587700  0.69183900  1
  O  O96  1  0.13716000  0.10077500  0.60365700  1
  O  O97  1  0.24760300  0.04795500  0.30387400  1
  O  O98  1  0.17898500  0.08099500  0.08663100  1
  O  O99  1  0.24663100  0.04880200  0.80273000  1
