# generated using pymatgen
data_Li2MnSi3O8
_symmetry_space_group_name_H-M   'P 1'
_cell_length_a   6.41185960
_cell_length_b   6.30281682
_cell_length_c   10.26784950
_cell_angle_alpha   109.08029284
_cell_angle_beta   97.72674079
_cell_angle_gamma   103.07333553
_symmetry_Int_Tables_number   1
_chemical_formula_structural   Li2MnSi3O8
_chemical_formula_sum   'Li4 Mn2 Si6 O16'
_cell_volume   372.07506282
_cell_formula_units_Z   2
loop_
 _symmetry_equiv_pos_site_id
 _symmetry_equiv_pos_as_xyz
  1  'x, y, z'
loop_
 _atom_site_type_symbol
 _atom_site_label
 _atom_site_symmetry_multiplicity
 _atom_site_fract_x
 _atom_site_fract_y
 _atom_site_fract_z
 _atom_site_occupancy
  Li  Li0  1  0.85456700  0.78516300  0.14119300  1
  Li  Li1  1  0.85458600  0.28516500  0.64117600  1
  Li  Li2  1  0.10885700  0.68937400  0.38869600  1
  Li  Li3  1  0.10888800  0.18939300  0.88870300  1
  Mn  Mn4  1  0.61398300  0.08583300  0.81080500  1
  Mn  Mn5  1  0.61400700  0.58598000  0.31087400  1
  Si  Si6  1  0.82314700  0.25993800  0.14726000  1
  Si  Si7  1  0.82314400  0.75992700  0.64725700  1
  Si  Si8  1  0.40514800  0.93150000  0.16767200  1
  Si  Si9  1  0.40513500  0.43147300  0.66766400  1
  Si  Si10  1  0.19316300  0.25075300  0.36174000  1
  Si  Si11  1  0.19317300  0.75076800  0.86173800  1
  O  O12  1  0.85863700  0.64827400  0.49014800  1
  O  O13  1  0.85863400  0.14827200  0.99015100  1
  O  O14  1  0.18644500  0.79628300  0.03007300  1
  O  O15  1  0.18644000  0.29627900  0.53007400  1
  O  O16  1  0.88755800  0.54343000  0.21097200  1
  O  O17  1  0.88756200  0.04341800  0.71096800  1
  O  O18  1  0.55333500  0.76367600  0.17932500  1
  O  O19  1  0.55333400  0.26367000  0.67932300  1
  O  O20  1  0.31346000  0.49447100  0.35193000  1
  O  O21  1  0.31348300  0.99447400  0.85192400  1
  O  O22  1  0.55736200  0.17467900  0.15647400  1
  O  O23  1  0.55735600  0.67466000  0.65645200  1
  O  O24  1  0.94465600  0.14894500  0.25612400  1
  O  O25  1  0.94465800  0.64894700  0.75612100  1
  O  O26  1  0.29823800  0.02623000  0.30758100  1
  O  O27  1  0.29823900  0.52622800  0.80758000  1
