# generated using pymatgen
data_Na2LiFePCO7
_symmetry_space_group_name_H-M   'P 1'
_cell_length_a   6.73550700
_cell_length_b   8.81609042
_cell_length_c   10.22201832
_cell_angle_alpha   91.77111997
_cell_angle_beta   90.37089989
_cell_angle_gamma   90.37559295
_symmetry_Int_Tables_number   1
_chemical_formula_structural   Na2LiFePCO7
_chemical_formula_sum   'Na8 Li4 Fe4 P4 C4 O28'
_cell_volume   606.67547182
_cell_formula_units_Z   4
loop_
 _symmetry_equiv_pos_site_id
 _symmetry_equiv_pos_as_xyz
  1  'x, y, z'
loop_
 _atom_site_type_symbol
 _atom_site_label
 _atom_site_symmetry_multiplicity
 _atom_site_fract_x
 _atom_site_fract_y
 _atom_site_fract_z
 _atom_site_occupancy
  Na  Na0  1  0.25493700  0.08283900  0.12180300  1
  Na  Na1  1  0.99863400  0.25978800  0.37422200  1
  Na  Na2  1  0.00212700  0.26151000  0.87399500  1
  Na  Na3  1  0.50132500  0.26173800  0.87467100  1
  Na  Na4  1  0.50284600  0.74091800  0.12560700  1
  Na  Na5  1  0.99577400  0.74002300  0.12574400  1
  Na  Na6  1  0.50171600  0.73765200  0.62326600  1
  Na  Na7  1  0.99951900  0.73753500  0.62268100  1
  Li  Li8  1  0.25461200  0.08719600  0.62230600  1
  Li  Li9  1  0.48009000  0.27322300  0.38265900  1
  Li  Li10  1  0.74206200  0.90852200  0.37767000  1
  Li  Li11  1  0.75011600  0.91048300  0.87255700  1
  Fe  Fe12  1  0.74707900  0.35351500  0.11182900  1
  Fe  Fe13  1  0.74744500  0.34712800  0.60567400  1
  Fe  Fe14  1  0.24936900  0.64767600  0.38569200  1
  Fe  Fe15  1  0.25124000  0.64972100  0.89014200  1
  P  P16  1  0.25246700  0.40952900  0.14919100  1
  P  P17  1  0.25019900  0.40626700  0.64300400  1
  P  P18  1  0.74369600  0.59243700  0.35160200  1
  P  P19  1  0.75166300  0.59191400  0.85206100  1
  C  C20  1  0.74859500  0.05295700  0.13818900  1
  C  C21  1  0.74961600  0.05003400  0.63697800  1
  C  C22  1  0.25884900  0.95448700  0.37277600  1
  C  C23  1  0.25056200  0.94272200  0.85855500  1
  O  O24  1  0.27524000  0.09770700  0.35194300  1
  O  O25  1  0.24881300  0.08688300  0.84180500  1
  O  O26  1  0.74989900  0.09012400  0.01580700  1
  O  O27  1  0.75046600  0.09119500  0.51561600  1
  O  O28  1  0.74439600  0.15846700  0.23028500  1
  O  O29  1  0.74638000  0.15363800  0.73112200  1
  O  O30  1  0.06465900  0.31401300  0.11050500  1
  O  O31  1  0.43440800  0.31588000  0.10261400  1
  O  O32  1  0.06254100  0.30816600  0.60631800  1
  O  O33  1  0.42982700  0.30539300  0.59875700  1
  O  O34  1  0.26380500  0.42960300  0.30241400  1
  O  O35  1  0.72946300  0.43395200  0.41388500  1
  O  O36  1  0.25624600  0.43458400  0.79450900  1
  O  O37  1  0.75456500  0.43853700  0.92081600  1
  O  O38  1  0.24813800  0.56830400  0.08869700  1
  O  O39  1  0.74446600  0.56778700  0.19978100  1
  O  O40  1  0.25109100  0.56116500  0.57616400  1
  O  O41  1  0.75099600  0.56143500  0.70120500  1
  O  O42  1  0.56725900  0.69774800  0.39125200  1
  O  O43  1  0.93262300  0.68471300  0.39457200  1
  O  O44  1  0.56764800  0.69061500  0.89110700  1
  O  O45  1  0.93585200  0.69331600  0.89110300  1
  O  O46  1  0.24872700  0.85626200  0.27354100  1
  O  O47  1  0.25144700  0.84914800  0.75800100  1
  O  O48  1  0.25116600  0.90432000  0.49076300  1
  O  O49  1  0.25193900  0.88637400  0.97570600  1
  O  O50  1  0.75175500  0.91204800  0.17147800  1
  O  O51  1  0.75164200  0.90880800  0.66736200  1
