# generated using pymatgen
data_Li2Fe(BO2)5
_symmetry_space_group_name_H-M   'P 1'
_cell_length_a   15.29615600
_cell_length_b   7.25566100
_cell_length_c   7.26866774
_cell_angle_alpha   89.18533263
_cell_angle_beta   90.00000000
_cell_angle_gamma   90.00000000
_symmetry_Int_Tables_number   1
_chemical_formula_structural   Li2Fe(BO2)5
_chemical_formula_sum   'Li8 Fe4 B20 O40'
_cell_volume   806.62225950
_cell_formula_units_Z   4
loop_
 _symmetry_equiv_pos_site_id
 _symmetry_equiv_pos_as_xyz
  1  'x, y, z'
loop_
 _atom_site_type_symbol
 _atom_site_label
 _atom_site_symmetry_multiplicity
 _atom_site_fract_x
 _atom_site_fract_y
 _atom_site_fract_z
 _atom_site_occupancy
  Li  Li0  1  0.82984400  0.89987200  0.99990400  1
  Li  Li1  1  0.67015600  0.89987200  0.49990400  1
  Li  Li2  1  0.07260500  0.69422000  0.58885000  1
  Li  Li3  1  0.42739500  0.69422000  0.08885000  1
  Li  Li4  1  0.57260500  0.30578000  0.91115000  1
  Li  Li5  1  0.92739500  0.30578000  0.41115000  1
  Li  Li6  1  0.32984400  0.10012800  0.50009600  1
  Li  Li7  1  0.17015600  0.10012800  0.00009600  1
  Fe  Fe8  1  0.87627600  0.85007900  0.53571500  1
  Fe  Fe9  1  0.62372400  0.85007900  0.03571500  1
  Fe  Fe10  1  0.37627600  0.14992100  0.96428500  1
  Fe  Fe11  1  0.12372400  0.14992100  0.46428500  1
  B  B12  1  0.97356500  0.79788500  0.90750700  1
  B  B13  1  0.52643500  0.79788500  0.40750700  1
  B  B14  1  0.22287400  0.78411700  0.52136200  1
  B  B15  1  0.27712600  0.78411700  0.02136200  1
  B  B16  1  0.49690500  0.75356200  0.73308300  1
  B  B17  1  0.00309500  0.75356200  0.23308300  1
  B  B18  1  0.37964200  0.68140700  0.50587800  1
  B  B19  1  0.12035800  0.68140700  0.00587800  1
  B  B20  1  0.74327800  0.54213600  0.50050100  1
  B  B21  1  0.75672200  0.54213600  0.00050100  1
  B  B22  1  0.24327800  0.45786400  0.99949900  1
  B  B23  1  0.25672200  0.45786400  0.49949900  1
  B  B24  1  0.87964300  0.31859300  0.99412200  1
  B  B25  1  0.62035800  0.31859300  0.49412200  1
  B  B26  1  0.99690500  0.24643800  0.76691700  1
  B  B27  1  0.50309500  0.24643800  0.26691700  1
  B  B28  1  0.72287400  0.21588300  0.97863800  1
  B  B29  1  0.77712600  0.21588300  0.47863800  1
  B  B30  1  0.47356500  0.20211500  0.59249300  1
  B  B31  1  0.02643500  0.20211500  0.09249300  1
  O  O32  1  0.15692000  0.90975100  0.53729200  1
  O  O33  1  0.34308000  0.90975100  0.03729200  1
  O  O34  1  0.91063500  0.84987600  0.78433000  1
  O  O35  1  0.58936500  0.84987600  0.28433000  1
  O  O36  1  0.19101700  0.82958200  0.99438500  1
  O  O37  1  0.54930100  0.83092900  0.59281000  1
  O  O38  1  0.30898300  0.82958200  0.49438500  1
  O  O39  1  0.95069900  0.83092900  0.09281000  1
  O  O40  1  0.52591700  0.75010000  0.91242900  1
  O  O41  1  0.97408300  0.75010000  0.41242900  1
  O  O42  1  0.76952500  0.72244500  0.51073200  1
  O  O43  1  0.05232200  0.72158200  0.86172500  1
  O  O44  1  0.73047500  0.72244500  0.01073200  1
  O  O45  1  0.44767800  0.72158200  0.36172500  1
  O  O46  1  0.41783200  0.68207800  0.69082000  1
  O  O47  1  0.08216800  0.68207800  0.19082000  1
  O  O48  1  0.19601500  0.59842800  0.53759400  1
  O  O49  1  0.30398500  0.59842800  0.03759400  1
  O  O50  1  0.65806300  0.49869800  0.52862900  1
  O  O51  1  0.15806300  0.50130200  0.97137100  1
  O  O52  1  0.84193700  0.49869800  0.02862900  1
  O  O53  1  0.34193700  0.50130200  0.47137100  1
  O  O54  1  0.69601500  0.40157200  0.96240600  1
  O  O55  1  0.80398500  0.40157200  0.46240600  1
  O  O56  1  0.91783200  0.31792200  0.80918000  1
  O  O57  1  0.58216800  0.31792200  0.30918000  1
  O  O58  1  0.55232200  0.27841800  0.63827500  1
  O  O59  1  0.26952500  0.27755500  0.98926800  1
  O  O60  1  0.94767800  0.27841800  0.13827500  1
  O  O61  1  0.23047500  0.27755500  0.48926800  1
  O  O62  1  0.02591700  0.24990000  0.58757100  1
  O  O63  1  0.47408300  0.24990000  0.08757100  1
  O  O64  1  0.04930100  0.16907100  0.90719000  1
  O  O65  1  0.69101700  0.17041800  0.50561500  1
  O  O66  1  0.45069900  0.16907100  0.40719000  1
  O  O67  1  0.80898300  0.17041800  0.00561500  1
  O  O68  1  0.41063500  0.15012400  0.71567000  1
  O  O69  1  0.08936500  0.15012400  0.21567000  1
  O  O70  1  0.65692000  0.09024900  0.96270800  1
  O  O71  1  0.84308000  0.09024900  0.46270800  1
