# generated using pymatgen
data_Li5Fe8(BO3)8
_symmetry_space_group_name_H-M   'P 1'
_cell_length_a   5.22006900
_cell_length_b   9.12267457
_cell_length_c   10.12646882
_cell_angle_alpha   91.05954123
_cell_angle_beta   90.54026986
_cell_angle_gamma   90.13297905
_symmetry_Int_Tables_number   1
_chemical_formula_structural   Li5Fe8(BO3)8
_chemical_formula_sum   'Li5 Fe8 B8 O24'
_cell_volume   482.12708828
_cell_formula_units_Z   1
loop_
 _symmetry_equiv_pos_site_id
 _symmetry_equiv_pos_as_xyz
  1  'x, y, z'
loop_
 _atom_site_type_symbol
 _atom_site_label
 _atom_site_symmetry_multiplicity
 _atom_site_fract_x
 _atom_site_fract_y
 _atom_site_fract_z
 _atom_site_occupancy
  Li  Li0  1  0.84580200  0.82767100  0.65278900  1
  Li  Li1  1  0.66001800  0.67617100  0.90549100  1
  Li  Li2  1  0.34626100  0.32232000  0.66764400  1
  Li  Li3  1  0.31649000  0.33095400  0.15743800  1
  Li  Li4  1  0.17053600  0.16515600  0.39861100  1
  Fe  Fe5  1  0.84676100  0.16505400  0.63046100  1
  Fe  Fe6  1  0.82770900  0.50408100  0.13548400  1
  Fe  Fe7  1  0.67129700  0.01567400  0.88338300  1
  Fe  Fe8  1  0.65986300  0.34854200  0.38837200  1
  Fe  Fe9  1  0.34773100  0.65604700  0.62571400  1
  Fe  Fe10  1  0.31466700  0.99542200  0.12747800  1
  Fe  Fe11  1  0.16870800  0.82817400  0.37515700  1
  Fe  Fe12  1  0.17137200  0.49468900  0.87781600  1
  B  B13  1  0.83817300  0.49792400  0.63277800  1
  B  B14  1  0.82935500  0.17552900  0.12833400  1
  B  B15  1  0.67382000  0.00256400  0.37942600  1
  B  B16  1  0.67001900  0.33579700  0.87960600  1
  B  B17  1  0.33941500  0.99806000  0.62369400  1
  B  B18  1  0.33510200  0.66124800  0.13121300  1
  B  B19  1  0.15850000  0.50278200  0.37200800  1
  B  B20  1  0.17255900  0.83489600  0.87548700  1
  O  O21  1  0.90436000  0.50916800  0.32794400  1
  O  O22  1  0.90671800  0.84861600  0.86195200  1
  O  O23  1  0.80831200  0.20950800  0.84394000  1
  O  O24  1  0.78459800  0.13690600  0.41593500  1
  O  O25  1  0.81892200  0.87786700  0.37813100  1
  O  O26  1  0.79857200  0.46159400  0.92895700  1
  O  O27  1  0.72232200  0.63241900  0.64220600  1
  O  O28  1  0.68898900  0.05710000  0.07814000  1
  O  O29  1  0.69476400  0.37260700  0.59613100  1
  O  O30  1  0.69022800  0.30436500  0.16177500  1
  O  O31  1  0.59452800  0.66018300  0.10841300  1
  O  O32  1  0.58989800  0.99039800  0.67597700  1
  O  O33  1  0.40851200  0.99661100  0.34897000  1
  O  O34  1  0.41193700  0.33496500  0.86038400  1
  O  O35  1  0.29354900  0.70431500  0.84361600  1
  O  O36  1  0.27660300  0.63005400  0.41827500  1
  O  O37  1  0.28435100  0.37015500  0.36741100  1
  O  O38  1  0.31944000  0.95268700  0.92039300  1
  O  O39  1  0.19536900  0.53243300  0.09959000  1
  O  O40  1  0.22355700  0.13231100  0.60717800  1
  O  O41  1  0.20962000  0.86884600  0.58540800  1
  O  O42  1  0.21022500  0.78467800  0.17824800  1
  O  O43  1  0.08846600  0.17027500  0.14704100  1
  O  O44  1  0.09795200  0.48282600  0.66156200  1
