# generated using pymatgen
data_LiFePO4
_symmetry_space_group_name_H-M   'P 1'
_cell_length_a   10.93028100
_cell_length_b   5.77552100
_cell_length_c   9.94085884
_cell_angle_alpha   88.65623972
_cell_angle_beta   90.00000000
_cell_angle_gamma   90.00000000
_symmetry_Int_Tables_number   1
_chemical_formula_structural   LiFePO4
_chemical_formula_sum   'Li8 Fe8 P8 O32'
_cell_volume   627.37462534
_cell_formula_units_Z   8
loop_
 _symmetry_equiv_pos_site_id
 _symmetry_equiv_pos_as_xyz
  1  'x, y, z'
loop_
 _atom_site_type_symbol
 _atom_site_label
 _atom_site_symmetry_multiplicity
 _atom_site_fract_x
 _atom_site_fract_y
 _atom_site_fract_z
 _atom_site_occupancy
  Li  Li0  1  0.85482800  0.88015300  0.88707400  1
  Li  Li1  1  0.64517200  0.88015300  0.38707400  1
  Li  Li2  1  0.34113000  0.61117300  0.64119000  1
  Li  Li3  1  0.15887000  0.61117300  0.14119000  1
  Li  Li4  1  0.84113000  0.38882700  0.85881000  1
  Li  Li5  1  0.65887000  0.38882700  0.35881000  1
  Li  Li6  1  0.35482800  0.11984700  0.61292600  1
  Li  Li7  1  0.14517200  0.11984700  0.11292600  1
  Fe  Fe8  1  0.09643600  0.88116800  0.73105200  1
  Fe  Fe9  1  0.40356400  0.88116800  0.23105200  1
  Fe  Fe10  1  0.62538300  0.65756000  0.98645100  1
  Fe  Fe11  1  0.87461700  0.65756000  0.48645100  1
  Fe  Fe12  1  0.12538300  0.34244000  0.51354900  1
  Fe  Fe13  1  0.37461700  0.34244000  0.01354900  1
  Fe  Fe14  1  0.59643600  0.11883200  0.76894800  1
  Fe  Fe15  1  0.90356400  0.11883200  0.26894800  1
  P  P16  1  0.35536900  0.86873900  0.90895100  1
  P  P17  1  0.14463100  0.86873900  0.40895100  1
  P  P18  1  0.60605700  0.62547600  0.65859900  1
  P  P19  1  0.89394300  0.62547600  0.15859900  1
  P  P20  1  0.10605700  0.37452400  0.84140100  1
  P  P21  1  0.39394300  0.37452400  0.34140100  1
  P  P22  1  0.85536900  0.13126100  0.59104900  1
  P  P23  1  0.64463100  0.13126100  0.09104900  1
  O  O24  1  0.21242800  0.91327800  0.54411800  1
  O  O25  1  0.93054300  0.90576300  0.62365600  1
  O  O26  1  0.28757200  0.91327800  0.04411800  1
  O  O27  1  0.56945700  0.90576300  0.12365600  1
  O  O28  1  0.27110500  0.82500800  0.79003400  1
  O  O29  1  0.52285800  0.84470500  0.64951900  1
  O  O30  1  0.22889500  0.82500800  0.29003400  1
  O  O31  1  0.97714200  0.84470500  0.14951900  1
  O  O32  1  0.43987300  0.65568900  0.92779700  1
  O  O33  1  0.68994800  0.63747400  0.78739500  1
  O  O34  1  0.06012700  0.65568900  0.42779700  1
  O  O35  1  0.68639000  0.61618200  0.52900500  1
  O  O36  1  0.02283200  0.59342100  0.83149200  1
  O  O37  1  0.81005200  0.63747400  0.28739500  1
  O  O38  1  0.81361000  0.61618200  0.02900500  1
  O  O39  1  0.47716800  0.59342100  0.33149200  1
  O  O40  1  0.52283200  0.40657900  0.66850800  1
  O  O41  1  0.18639000  0.38381800  0.97099500  1
  O  O42  1  0.18994800  0.36252600  0.71260500  1
  O  O43  1  0.97716800  0.40657900  0.16850800  1
  O  O44  1  0.31361000  0.38381800  0.47099500  1
  O  O45  1  0.93987300  0.34431100  0.57220300  1
  O  O46  1  0.31005200  0.36252600  0.21260500  1
  O  O47  1  0.56012700  0.34431100  0.07220300  1
  O  O48  1  0.02285800  0.15529500  0.85048100  1
  O  O49  1  0.77110500  0.17499200  0.70996600  1
  O  O50  1  0.47714200  0.15529500  0.35048100  1
  O  O51  1  0.72889500  0.17499200  0.20996600  1
  O  O52  1  0.43054300  0.09423700  0.87634400  1
  O  O53  1  0.71242800  0.08672200  0.95588200  1
  O  O54  1  0.06945700  0.09423700  0.37634400  1
  O  O55  1  0.78757200  0.08672200  0.45588200  1
