# generated using pymatgen
data_LiBiB2O5
_symmetry_space_group_name_H-M   'P 1'
_cell_length_a   11.38489100
_cell_length_b   5.62857100
_cell_length_c   12.71161947
_cell_angle_alpha   77.99453617
_cell_angle_beta   90.00000000
_cell_angle_gamma   90.00000000
_symmetry_Int_Tables_number   1
_chemical_formula_structural   LiBiB2O5
_chemical_formula_sum   'Li8 Bi8 B16 O40'
_cell_volume   796.75261623
_cell_formula_units_Z   8
loop_
 _symmetry_equiv_pos_site_id
 _symmetry_equiv_pos_as_xyz
  1  'x, y, z'
loop_
 _atom_site_type_symbol
 _atom_site_label
 _atom_site_symmetry_multiplicity
 _atom_site_fract_x
 _atom_site_fract_y
 _atom_site_fract_z
 _atom_site_occupancy
  Li  Li0  1  0.37012100  0.24687700  0.22767300  1
  Li  Li1  1  0.86665800  0.25435600  0.26854800  1
  Li  Li2  1  0.12987900  0.74687700  0.22767300  1
  Li  Li3  1  0.63334200  0.75435600  0.26854800  1
  Li  Li4  1  0.36665800  0.24564400  0.73145200  1
  Li  Li5  1  0.87012100  0.25312300  0.77232700  1
  Li  Li6  1  0.13334200  0.74564400  0.73145200  1
  Li  Li7  1  0.62987900  0.75312300  0.77232700  1
  Bi  Bi8  1  0.61609200  0.38369100  0.11036600  1
  Bi  Bi9  1  0.88390800  0.88369100  0.11036600  1
  Bi  Bi10  1  0.12209500  0.14475300  0.39275600  1
  Bi  Bi11  1  0.37790500  0.64475300  0.39275600  1
  Bi  Bi12  1  0.62209500  0.35524700  0.60724400  1
  Bi  Bi13  1  0.87790500  0.85524700  0.60724400  1
  Bi  Bi14  1  0.11609200  0.11630900  0.88963400  1
  Bi  Bi15  1  0.38390800  0.61630900  0.88963400  1
  B  B16  1  0.37554400  0.12597700  0.01323300  1
  B  B17  1  0.12445600  0.62597700  0.01323300  1
  B  B18  1  0.11612000  0.29164300  0.17254100  1
  B  B19  1  0.38388000  0.79164300  0.17254100  1
  B  B20  1  0.62541100  0.19720100  0.32590400  1
  B  B21  1  0.87458900  0.69720100  0.32590400  1
  B  B22  1  0.37949300  0.14505800  0.51506300  1
  B  B23  1  0.87949300  0.35494200  0.48493700  1
  B  B24  1  0.12050700  0.64505800  0.51506300  1
  B  B25  1  0.62050700  0.85494200  0.48493700  1
  B  B26  1  0.12541100  0.30279900  0.67409600  1
  B  B27  1  0.37458900  0.80279900  0.67409600  1
  B  B28  1  0.61612000  0.20835700  0.82745900  1
  B  B29  1  0.88388000  0.70835700  0.82745900  1
  B  B30  1  0.87554400  0.37402300  0.98676700  1
  B  B31  1  0.62445600  0.87402300  0.98676700  1
  O  O32  1  0.41188600  0.30288200  0.06454400  1
  O  O33  1  0.11237400  0.37700100  0.06009600  1
  O  O34  1  0.82735900  0.31156500  0.08938200  1
  O  O35  1  0.08811400  0.80288200  0.06454400  1
  O  O36  1  0.38762600  0.87700100  0.06009600  1
  O  O37  1  0.67264100  0.81156500  0.08938200  1
  O  O38  1  0.04722100  0.09666000  0.22212600  1
  O  O39  1  0.55444000  0.09048900  0.26178400  1
  O  O40  1  0.18953000  0.39841900  0.23449900  1
  O  O41  1  0.45277900  0.59666000  0.22212600  1
  O  O42  1  0.69085700  0.39791300  0.28069400  1
  O  O43  1  0.94556000  0.59048900  0.26178400  1
  O  O44  1  0.31047000  0.89841900  0.23449900  1
  O  O45  1  0.80914300  0.89791300  0.28069400  1
  O  O46  1  0.33927900  0.22083500  0.41021400  1
  O  O47  1  0.63187600  0.10353100  0.43918300  1
  O  O48  1  0.92323300  0.18605200  0.43194600  1
  O  O49  1  0.16072100  0.72083500  0.41021400  1
  O  O50  1  0.86812400  0.60353100  0.43918300  1
  O  O51  1  0.57676700  0.68605200  0.43194600  1
  O  O52  1  0.42323300  0.31394800  0.56805400  1
  O  O53  1  0.13187600  0.39646900  0.56081700  1
  O  O54  1  0.83927900  0.27916500  0.58978600  1
  O  O55  1  0.07676700  0.81394800  0.56805400  1
  O  O56  1  0.36812400  0.89646900  0.56081700  1
  O  O57  1  0.66072100  0.77916500  0.58978600  1
  O  O58  1  0.19085700  0.10208700  0.71930600  1
  O  O59  1  0.68953000  0.10158100  0.76550100  1
  O  O60  1  0.05444000  0.40951100  0.73821600  1
  O  O61  1  0.30914300  0.60208700  0.71930600  1
  O  O62  1  0.54722100  0.40334000  0.77787400  1
  O  O63  1  0.81047000  0.60158100  0.76550100  1
  O  O64  1  0.44556000  0.90951100  0.73821600  1
  O  O65  1  0.95277900  0.90334000  0.77787400  1
  O  O66  1  0.32735900  0.18843500  0.91061800  1
  O  O67  1  0.61237400  0.12299900  0.93990400  1
  O  O68  1  0.91188600  0.19711800  0.93545600  1
  O  O69  1  0.17264100  0.68843500  0.91061800  1
  O  O70  1  0.88762600  0.62299900  0.93990400  1
  O  O71  1  0.58811400  0.69711800  0.93545600  1
