# generated using pymatgen
data_LiVPO4
_symmetry_space_group_name_H-M   'P 1'
_cell_length_a   5.56350000
_cell_length_b   8.48212400
_cell_length_c   18.91778600
_cell_angle_alpha   90.00000000
_cell_angle_beta   90.00000000
_cell_angle_gamma   90.00000000
_symmetry_Int_Tables_number   1
_chemical_formula_structural   LiVPO4
_chemical_formula_sum   'Li12 V12 P12 O48'
_cell_volume   892.73593754
_cell_formula_units_Z   12
loop_
 _symmetry_equiv_pos_site_id
 _symmetry_equiv_pos_as_xyz
  1  'x, y, z'
loop_
 _atom_site_type_symbol
 _atom_site_label
 _atom_site_symmetry_multiplicity
 _atom_site_fract_x
 _atom_site_fract_y
 _atom_site_fract_z
 _atom_site_occupancy
  Li  Li0  1  0.75392000  0.91934800  0.08036500  1
  Li  Li1  1  0.22013900  0.41750000  0.08650100  1
  Li  Li2  1  0.73107000  0.58222400  0.24683200  1
  Li  Li3  1  0.23107000  0.08222400  0.25316800  1
  Li  Li4  1  0.72013900  0.91750000  0.41349900  1
  Li  Li5  1  0.25392000  0.41934800  0.41963500  1
  Li  Li6  1  0.75392000  0.58065200  0.58036500  1
  Li  Li7  1  0.22013900  0.08250000  0.58650100  1
  Li  Li8  1  0.73107000  0.91777600  0.74683200  1
  Li  Li9  1  0.23107000  0.41777600  0.75316800  1
  Li  Li10  1  0.72013900  0.58250000  0.91349900  1
  Li  Li11  1  0.25392000  0.08065200  0.91963500  1
  V  V12  1  0.73503700  0.25204200  0.00018700  1
  V  V13  1  0.23600000  0.75193400  0.16642800  1
  V  V14  1  0.73748100  0.24868400  0.16683800  1
  V  V15  1  0.23748100  0.74868400  0.33316200  1
  V  V16  1  0.73600000  0.25193400  0.33357200  1
  V  V17  1  0.23503700  0.75204200  0.49981300  1
  V  V18  1  0.73503700  0.24795800  0.50018700  1
  V  V19  1  0.23600000  0.74806600  0.66642800  1
  V  V20  1  0.73748100  0.25131600  0.66683800  1
  V  V21  1  0.23748100  0.75131600  0.83316200  1
  V  V22  1  0.73600000  0.24806600  0.83357200  1
  V  V23  1  0.23503700  0.74795800  0.99981300  1
  P  P24  1  0.73216700  0.60333700  0.08138100  1
  P  P25  1  0.23869900  0.10281100  0.08508600  1
  P  P26  1  0.73729200  0.89754500  0.24828800  1
  P  P27  1  0.23729200  0.39754500  0.25171200  1
  P  P28  1  0.73869900  0.60281100  0.41491400  1
  P  P29  1  0.23216700  0.10333700  0.41861900  1
  P  P30  1  0.73216700  0.89666300  0.58138100  1
  P  P31  1  0.23869900  0.39718900  0.58508600  1
  P  P32  1  0.73729200  0.60245500  0.74828800  1
  P  P33  1  0.23729200  0.10245500  0.75171200  1
  P  P34  1  0.73869900  0.89718900  0.91491400  1
  P  P35  1  0.23216700  0.39666300  0.91861900  1
  O  O36  1  0.73026600  0.50517400  0.01334700  1
  O  O37  1  0.23818100  0.99939500  0.01860000  1
  O  O38  1  0.46144400  0.21831200  0.08409000  1
  O  O39  1  0.01151500  0.21578500  0.08396400  1
  O  O40  1  0.95872500  0.71682200  0.08229300  1
  O  O41  1  0.50882900  0.71821600  0.08273300  1
  O  O42  1  0.73465400  0.49983600  0.14781400  1
  O  O43  1  0.23869600  0.00473500  0.15307800  1
  O  O44  1  0.73964300  0.99601500  0.18039300  1
  O  O45  1  0.23260700  0.50061800  0.18514200  1
  O  O46  1  0.46365700  0.28469100  0.25023300  1
  O  O47  1  0.01382300  0.28190500  0.25121100  1
  O  O48  1  0.51382300  0.78190500  0.24878900  1
  O  O49  1  0.96365700  0.78469100  0.24976700  1
  O  O50  1  0.73260700  0.00061800  0.31485800  1
  O  O51  1  0.23964300  0.49601500  0.31960700  1
  O  O52  1  0.73869600  0.50473500  0.34692200  1
  O  O53  1  0.23465400  0.99983600  0.35218600  1
  O  O54  1  0.00882900  0.21821600  0.41726700  1
  O  O55  1  0.45872500  0.21682200  0.41770700  1
  O  O56  1  0.51151500  0.71578500  0.41603600  1
  O  O57  1  0.96144400  0.71831200  0.41591000  1
  O  O58  1  0.73818100  0.49939500  0.48140000  1
  O  O59  1  0.23026600  0.00517400  0.48665300  1
  O  O60  1  0.73026600  0.99482600  0.51334700  1
  O  O61  1  0.23818100  0.50060500  0.51860000  1
  O  O62  1  0.46144400  0.28168800  0.58409000  1
  O  O63  1  0.01151500  0.28421500  0.58396400  1
  O  O64  1  0.95872500  0.78317800  0.58229300  1
  O  O65  1  0.50882900  0.78178400  0.58273300  1
  O  O66  1  0.73465400  0.00016400  0.64781400  1
  O  O67  1  0.23869600  0.49526500  0.65307800  1
  O  O68  1  0.73964300  0.50398500  0.68039300  1
  O  O69  1  0.23260700  0.99938200  0.68514200  1
  O  O70  1  0.46365700  0.21530900  0.75023300  1
  O  O71  1  0.01382300  0.21809500  0.75121100  1
  O  O72  1  0.51382300  0.71809500  0.74878900  1
  O  O73  1  0.96365700  0.71530900  0.74976700  1
  O  O74  1  0.73260700  0.49938200  0.81485800  1
  O  O75  1  0.23964300  0.00398500  0.81960700  1
  O  O76  1  0.73869600  0.99526500  0.84692200  1
  O  O77  1  0.23465400  0.50016400  0.85218600  1
  O  O78  1  0.00882900  0.28178400  0.91726700  1
  O  O79  1  0.45872500  0.28317800  0.91770700  1
  O  O80  1  0.51151500  0.78421500  0.91603600  1
  O  O81  1  0.96144400  0.78168800  0.91591000  1
  O  O82  1  0.73818100  0.00060500  0.98140000  1
  O  O83  1  0.23026600  0.49482600  0.98665300  1
