# generated using pymatgen
data_LiV2(PO4)3
_symmetry_space_group_name_H-M   'P 1'
_cell_length_a   9.60232732
_cell_length_b   9.60232732
_cell_length_c   8.05362650
_cell_angle_alpha   74.62007375
_cell_angle_beta   74.62007375
_cell_angle_gamma   36.54352596
_symmetry_Int_Tables_number   1
_chemical_formula_structural   LiV2(PO4)3
_chemical_formula_sum   'Li2 V4 P6 O24'
_cell_volume   424.56186211
_cell_formula_units_Z   2
loop_
 _symmetry_equiv_pos_site_id
 _symmetry_equiv_pos_as_xyz
  1  'x, y, z'
loop_
 _atom_site_type_symbol
 _atom_site_label
 _atom_site_symmetry_multiplicity
 _atom_site_fract_x
 _atom_site_fract_y
 _atom_site_fract_z
 _atom_site_occupancy
  Li  Li0  1  0.41075200  0.58924800  0.75000000  1
  Li  Li1  1  0.58924800  0.41075200  0.25000000  1
  V  V2  1  0.03060200  0.70028000  0.59240100  1
  V  V3  1  0.70028000  0.03060200  0.09240100  1
  V  V4  1  0.29972000  0.96939800  0.90759900  1
  V  V5  1  0.96939800  0.29972000  0.40759900  1
  P  P6  1  0.49612700  0.14632100  0.73123300  1
  P  P7  1  0.14632100  0.49612700  0.23123300  1
  P  P8  1  0.85367900  0.50387300  0.76876700  1
  P  P9  1  0.50387300  0.85367900  0.26876700  1
  P  P10  1  0.93807500  0.06192500  0.75000000  1
  P  P11  1  0.06192500  0.93807500  0.25000000  1
  O  O12  1  0.74831900  0.18473800  0.90497600  1
  O  O13  1  0.18473800  0.74831900  0.40497600  1
  O  O14  1  0.04274900  0.83268600  0.72869400  1
  O  O15  1  0.83268600  0.04274900  0.22869400  1
  O  O16  1  0.33494100  0.40789600  0.68668300  1
  O  O17  1  0.70223400  0.01694400  0.58804900  1
  O  O18  1  0.58390500  0.06604700  0.91355800  1
  O  O19  1  0.40789600  0.33494100  0.18668300  1
  O  O20  1  0.01694400  0.70223400  0.08804900  1
  O  O21  1  0.90116100  0.62415500  0.75754400  1
  O  O22  1  0.06604700  0.58390500  0.41355800  1
  O  O23  1  0.62415500  0.90116100  0.25754400  1
  O  O24  1  0.37584500  0.09883900  0.74245600  1
  O  O25  1  0.93395300  0.41609500  0.58644200  1
  O  O26  1  0.09883900  0.37584500  0.24245600  1
  O  O27  1  0.98305600  0.29776600  0.91195100  1
  O  O28  1  0.59210400  0.66505900  0.81331700  1
  O  O29  1  0.41609500  0.93395300  0.08644200  1
  O  O30  1  0.29776600  0.98305600  0.41195100  1
  O  O31  1  0.66505900  0.59210400  0.31331700  1
  O  O32  1  0.16731400  0.95725100  0.77130600  1
  O  O33  1  0.95725100  0.16731400  0.27130600  1
  O  O34  1  0.81526200  0.25168100  0.59502400  1
  O  O35  1  0.25168100  0.81526200  0.09502400  1
