# generated using pymatgen
data_Li2CrCoO4
_symmetry_space_group_name_H-M   'P 1'
_cell_length_a   5.14784448
_cell_length_b   5.14784448
_cell_length_c   5.14784448
_cell_angle_alpha   134.32015813
_cell_angle_beta   134.32015813
_cell_angle_gamma   66.58837544
_symmetry_Int_Tables_number   1
_chemical_formula_structural   Li2CrCoO4
_chemical_formula_sum   'Li2 Cr1 Co1 O4'
_cell_volume   68.72076963
_cell_formula_units_Z   1
loop_
 _symmetry_equiv_pos_site_id
 _symmetry_equiv_pos_as_xyz
  1  'x, y, z'
loop_
 _atom_site_type_symbol
 _atom_site_label
 _atom_site_symmetry_multiplicity
 _atom_site_fract_x
 _atom_site_fract_y
 _atom_site_fract_z
 _atom_site_occupancy
  Li  Li0  1  0.25000000  0.75000000  0.50000000  1
  Li  Li1  1  0.50000000  0.50000000  0.00000000  1
  Cr  Cr2  1  0.75000000  0.25000000  0.50000000  1
  Co  Co3  1  0.00000000  0.00000000  0.00000000  1
  O  O4  1  0.51799000  0.01799000  0.50000000  1
  O  O5  1  0.22469200  0.22469200  0.00000000  1
  O  O6  1  0.98201000  0.48201000  0.50000000  1
  O  O7  1  0.77530800  0.77530800  0.00000000  1
