# generated using pymatgen
data_NaLi3Ti2Fe2(PO4)6
_symmetry_space_group_name_H-M   'P 1'
_cell_length_a   8.50138300
_cell_length_b   8.95553215
_cell_length_c   21.01105135
_cell_angle_alpha   92.42598364
_cell_angle_beta   90.04068315
_cell_angle_gamma   118.32017171
_symmetry_Int_Tables_number   1
_chemical_formula_structural   NaLi3Ti2Fe2(PO4)6
_chemical_formula_sum   'Na3 Li9 Ti6 Fe6 P18 O72'
_cell_volume   1406.54555179
_cell_formula_units_Z   3
loop_
 _symmetry_equiv_pos_site_id
 _symmetry_equiv_pos_as_xyz
  1  'x, y, z'
loop_
 _atom_site_type_symbol
 _atom_site_label
 _atom_site_symmetry_multiplicity
 _atom_site_fract_x
 _atom_site_fract_y
 _atom_site_fract_z
 _atom_site_occupancy
  Na  Na0  1  0.34585700  0.68850400  0.66300000  1
  Na  Na1  1  0.33449600  0.66836000  0.16393700  1
  Na  Na2  1  0.67577100  0.35118100  0.33368100  1
  Li  Li3  1  0.12775600  0.62167000  0.78251600  1
  Li  Li4  1  0.58291000  0.53739700  0.69635000  1
  Li  Li5  1  0.76177200  0.76694400  0.91297900  1
  Li  Li6  1  0.46042700  0.29067000  0.44959600  1
  Li  Li7  1  0.91348100  0.20204700  0.36743300  1
  Li  Li8  1  0.08000000  0.41861700  0.57264200  1
  Li  Li9  1  0.81266300  0.96799000  0.10584700  1
  Li  Li10  1  0.23461200  0.88967500  0.02505900  1
  Li  Li11  1  0.41660100  0.08637100  0.24144200  1
  Ti  Ti12  1  0.18971900  0.38205400  0.95216100  1
  Ti  Ti13  1  0.47386500  0.95388300  0.88140500  1
  Ti  Ti14  1  0.52984300  0.05720800  0.61496400  1
  Ti  Ti15  1  0.86041100  0.72289300  0.28739900  1
  Ti  Ti16  1  0.13181500  0.26839600  0.71644100  1
  Ti  Ti17  1  0.14226700  0.28136500  0.21478100  1
  Fe  Fe18  1  0.81017400  0.61811900  0.54729400  1
  Fe  Fe19  1  0.86631800  0.73437800  0.78360700  1
  Fe  Fe20  1  0.20865000  0.41150500  0.44992100  1
  Fe  Fe21  1  0.47178600  0.94143800  0.38228600  1
  Fe  Fe22  1  0.53647800  0.07572500  0.11408800  1
  Fe  Fe23  1  0.80745700  0.61541500  0.04798900  1
  P  P24  1  0.90422000  0.09489100  0.84771700  1
  P  P25  1  0.28859700  0.99661900  0.74808100  1
  P  P26  1  0.47327200  0.24271000  0.98727700  1
  P  P27  1  0.86391900  0.43139600  0.67617700  1
  P  P28  1  0.05202600  0.67146400  0.91777500  1
  P  P29  1  0.23989600  0.76635800  0.51262100  1
  P  P30  1  0.42658200  0.57590000  0.82132500  1
  P  P31  1  0.62252900  0.66844200  0.41621300  1
  P  P32  1  0.80443000  0.90014000  0.65371600  1
  P  P33  1  0.19651000  0.10013900  0.34433500  1
  P  P34  1  0.38598000  0.34176700  0.58538600  1
  P  P35  1  0.57638500  0.43468100  0.18071300  1
  P  P36  1  0.75929600  0.24500100  0.48521400  1
  P  P37  1  0.95803000  0.33699600  0.08184100  1
  P  P38  1  0.13832000  0.57402400  0.32026600  1
  P  P39  1  0.52250400  0.76231800  0.01016900  1
  P  P40  1  0.71702000  0.00333400  0.24924700  1
  P  P41  1  0.09426600  0.90546300  0.15523400  1
  O  O42  1  0.38468400  0.72850000  0.82446600  1
  O  O43  1  0.57207600  0.84691000  0.94450900  1
  O  O44  1  0.23941400  0.83280500  0.92770800  1
  O  O45  1  0.98719000  0.19020300  0.91089800  1
  O  O46  1  0.70487400  0.05008400  0.84336400  1
  O  O47  1  0.00439100  0.21082300  0.79240900  1
  O  O48  1  0.40974600  0.97585500  0.69863600  1
  O  O49  1  0.37347900  0.02684200  0.81581700  1
  O  O50  1  0.52683500  0.14118100  0.93736900  1
  O  O51  1  0.71920800  0.24544300  0.66473500  1
  O  O52  1  0.03889900  0.44284100  0.70723700  1
  O  O53  1  0.06886100  0.51585800  0.93614800  1
  O  O54  1  0.26270400  0.15246200  0.73360500  1
  O  O55  1  0.30395800  0.24348900  0.96314500  1
  O  O56  1  0.71230100  0.39243400  0.48984600  1
  O  O57  1  0.62808300  0.42075600  0.99762800  1
  O  O58  1  0.92248000  0.51402200  0.61118000  1
  O  O59  1  0.79390200  0.52211400  0.72328900  1
  O  O60  1  0.98039500  0.64537600  0.84826800  1
  O  O61  1  0.56797800  0.50197300  0.59975700  1
  O  O62  1  0.32551100  0.85514300  0.57853200  1
  O  O63  1  0.92462600  0.70338400  0.96234100  1
  O  O64  1  0.04264600  0.71814700  0.50789000  1
  O  O65  1  0.32010700  0.45189600  0.87218800  1
  O  O66  1  0.34189600  0.88520900  0.46007100  1
  O  O67  1  0.62731300  0.62988600  0.82998800  1
  O  O68  1  0.74328000  0.64017700  0.36617600  1
  O  O69  1  0.36228900  0.49108800  0.75236100  1
  O  O70  1  0.10909500  0.82987100  0.74505500  1
  O  O71  1  0.70022200  0.69383300  0.48342600  1
  O  O72  1  0.87715300  0.82173600  0.60461600  1
  O  O73  1  0.74941200  0.79994100  0.71574100  1
  O  O74  1  0.05208200  0.91384600  0.33294000  1
  O  O75  1  0.92204800  0.93112100  0.84402600  1
  O  O76  1  0.37504200  0.11763400  0.37121900  1
  O  O77  1  0.40176200  0.18298500  0.60143900  1
  O  O78  1  0.60507600  0.82278300  0.39776200  1
  O  O79  1  0.63575700  0.90670200  0.63049100  1
  O  O80  1  0.06509700  0.06559100  0.16051800  1
  O  O81  1  0.95265600  0.08773300  0.66987700  1
  O  O82  1  0.24568300  0.18259000  0.27770400  1
  O  O83  1  0.12461800  0.18878800  0.39124900  1
  O  O84  1  0.31459800  0.31736800  0.51599200  1
  O  O85  1  0.90477700  0.16357500  0.25915800  1
  O  O86  1  0.65833800  0.51851100  0.24645200  1
  O  O87  1  0.24846400  0.36430600  0.62981200  1
  O  O88  1  0.37627400  0.39655000  0.17927500  1
  O  O89  1  0.65495400  0.11902200  0.53706900  1
  O  O90  1  0.66838900  0.55095800  0.12689600  1
  O  O91  1  0.95962500  0.29757200  0.49367400  1
  O  O92  1  0.07638500  0.30987800  0.03302300  1
  O  O93  1  0.69757200  0.16184500  0.41660200  1
  O  O94  1  0.44283100  0.49699800  0.40932000  1
  O  O95  1  0.04927600  0.36234700  0.14935200  1
  O  O96  1  0.19445300  0.48117900  0.26721200  1
  O  O97  1  0.08767700  0.46808400  0.38047900  1
  O  O98  1  0.38089700  0.57586700  0.00050900  1
  O  O99  1  0.25987400  0.60061200  0.51177800  1
  O  O100  1  0.69892200  0.77866000  0.03875800  1
  O  O101  1  0.73152600  0.84679700  0.26902300  1
  O  O102  1  0.94119800  0.49550700  0.07114100  1
  O  O103  1  0.96336600  0.56965500  0.29747000  1
  O  O104  1  0.28841100  0.75525100  0.32820000  1
  O  O105  1  0.44723100  0.84935200  0.05843300  1
  O  O106  1  0.64160000  0.96679400  0.17947500  1
  O  O107  1  0.58992500  0.04009300  0.29257600  1
  O  O108  1  0.98897500  0.78476600  0.20727900  1
  O  O109  1  0.29383300  0.94729800  0.16380500  1
  O  O110  1  0.02885400  0.82660600  0.08732900  1
  O  O111  1  0.77806800  0.16912300  0.08040800  1
  O  O112  1  0.41872100  0.13803800  0.04848300  1
  O  O113  1  0.58057900  0.26255000  0.17793500  1
