# generated using pymatgen
data_LiCo2OF3
_symmetry_space_group_name_H-M   'P 1'
_cell_length_a   5.19325700
_cell_length_b   5.99905200
_cell_length_c   10.29134700
_cell_angle_alpha   90.00000000
_cell_angle_beta   90.00000000
_cell_angle_gamma   90.00000000
_symmetry_Int_Tables_number   1
_chemical_formula_structural   LiCo2OF3
_chemical_formula_sum   'Li4 Co8 O4 F12'
_cell_volume   320.62299264
_cell_formula_units_Z   4
loop_
 _symmetry_equiv_pos_site_id
 _symmetry_equiv_pos_as_xyz
  1  'x, y, z'
loop_
 _atom_site_type_symbol
 _atom_site_label
 _atom_site_symmetry_multiplicity
 _atom_site_fract_x
 _atom_site_fract_y
 _atom_site_fract_z
 _atom_site_occupancy
  Li  Li0  1  0.97488000  0.75000000  0.58959600  1
  Li  Li1  1  0.52512000  0.75000000  0.08959600  1
  Li  Li2  1  0.47488000  0.25000000  0.91040400  1
  Li  Li3  1  0.02512000  0.25000000  0.41040400  1
  Co  Co4  1  0.00000000  0.00000000  0.00000000  1
  Co  Co5  1  0.00000000  0.50000000  0.00000000  1
  Co  Co6  1  0.00221900  0.25000000  0.74478800  1
  Co  Co7  1  0.49778100  0.25000000  0.24478800  1
  Co  Co8  1  0.50000000  0.50000000  0.50000000  1
  Co  Co9  1  0.50000000  0.00000000  0.50000000  1
  Co  Co10  1  0.50221900  0.75000000  0.75521200  1
  Co  Co11  1  0.99778100  0.75000000  0.25521200  1
  O  O12  1  0.83164500  0.25000000  0.91554600  1
  O  O13  1  0.66835500  0.25000000  0.41554600  1
  O  O14  1  0.33164500  0.75000000  0.58445400  1
  O  O15  1  0.16835500  0.75000000  0.08445400  1
  F  F16  1  0.79134800  0.75000000  0.42489000  1
  F  F17  1  0.77081200  0.98832900  0.66635600  1
  F  F18  1  0.77081200  0.51167100  0.66635600  1
  F  F19  1  0.72918800  0.98832900  0.16635600  1
  F  F20  1  0.72918800  0.51167100  0.16635600  1
  F  F21  1  0.70865200  0.75000000  0.92489000  1
  F  F22  1  0.29134800  0.25000000  0.07511000  1
  F  F23  1  0.27081200  0.01167100  0.83364400  1
  F  F24  1  0.27081200  0.48832900  0.83364400  1
  F  F25  1  0.22918800  0.48832900  0.33364400  1
  F  F26  1  0.22918800  0.01167100  0.33364400  1
  F  F27  1  0.20865200  0.25000000  0.57511000  1
