# generated using pymatgen
data_Li3Sb(PO4)2
_symmetry_space_group_name_H-M   'P 1'
_cell_length_a   5.24913300
_cell_length_b   12.94690500
_cell_length_c   19.59609196
_cell_angle_alpha   71.15618287
_cell_angle_beta   90.00000000
_cell_angle_gamma   90.00000000
_symmetry_Int_Tables_number   1
_chemical_formula_structural   Li3Sb(PO4)2
_chemical_formula_sum   'Li24 Sb8 P16 O64'
_cell_volume   1260.37244381
_cell_formula_units_Z   8
loop_
 _symmetry_equiv_pos_site_id
 _symmetry_equiv_pos_as_xyz
  1  'x, y, z'
loop_
 _atom_site_type_symbol
 _atom_site_label
 _atom_site_symmetry_multiplicity
 _atom_site_fract_x
 _atom_site_fract_y
 _atom_site_fract_z
 _atom_site_occupancy
  Li  Li0  1  0.76387500  0.68071300  0.96196100  1
  Li  Li1  1  0.29457800  0.79367600  0.87218500  1
  Li  Li2  1  0.70255300  0.94334500  0.80663400  1
  Li  Li3  1  0.73612500  0.18071300  0.96196100  1
  Li  Li4  1  0.20542200  0.29367600  0.87218500  1
  Li  Li5  1  0.79744700  0.44334500  0.80663400  1
  Li  Li6  1  0.21126400  0.75188500  0.69163500  1
  Li  Li7  1  0.79430000  0.67141600  0.62737300  1
  Li  Li8  1  0.28873600  0.25188500  0.69163500  1
  Li  Li9  1  0.26496500  0.64156700  0.54127000  1
  Li  Li10  1  0.70570000  0.17141600  0.62737300  1
  Li  Li11  1  0.76496500  0.85843300  0.45873000  1
  Li  Li12  1  0.23503500  0.14156700  0.54127000  1
  Li  Li13  1  0.29430000  0.82858400  0.37262700  1
  Li  Li14  1  0.73503500  0.35843300  0.45873000  1
  Li  Li15  1  0.71126400  0.74811500  0.30836500  1
  Li  Li16  1  0.20570000  0.32858400  0.37262700  1
  Li  Li17  1  0.78873600  0.24811500  0.30836500  1
  Li  Li18  1  0.20255300  0.55665500  0.19336600  1
  Li  Li19  1  0.79457800  0.70632400  0.12781500  1
  Li  Li20  1  0.26387500  0.81928700  0.03803900  1
  Li  Li21  1  0.29744700  0.05665500  0.19336600  1
  Li  Li22  1  0.70542200  0.20632400  0.12781500  1
  Li  Li23  1  0.23612500  0.31928700  0.03803900  1
  Sb  Sb24  1  0.31497800  0.53891200  0.87487600  1
  Sb  Sb25  1  0.18502200  0.03891200  0.87487600  1
  Sb  Sb26  1  0.68630600  0.91418300  0.62445600  1
  Sb  Sb27  1  0.81369400  0.41418300  0.62445600  1
  Sb  Sb28  1  0.18630600  0.58581700  0.37554400  1
  Sb  Sb29  1  0.31369400  0.08581700  0.37554400  1
  Sb  Sb30  1  0.81497800  0.96108800  0.12512400  1
  Sb  Sb31  1  0.68502200  0.46108800  0.12512400  1
  P  P32  1  0.72571600  0.91463200  0.95959000  1
  P  P33  1  0.77428400  0.41463200  0.95959000  1
  P  P34  1  0.78420800  0.71291200  0.79035300  1
  P  P35  1  0.71579200  0.21291200  0.79035300  1
  P  P36  1  0.28730300  0.50145500  0.70910700  1
  P  P37  1  0.22496600  0.87683200  0.53822200  1
  P  P38  1  0.21269700  0.00145500  0.70910700  1
  P  P39  1  0.27503400  0.37683200  0.53822200  1
  P  P40  1  0.72496600  0.62316800  0.46177800  1
  P  P41  1  0.78730300  0.99854500  0.29089300  1
  P  P42  1  0.77503400  0.12316800  0.46177800  1
  P  P43  1  0.71269700  0.49854500  0.29089300  1
  P  P44  1  0.28420800  0.78708800  0.20964700  1
  P  P45  1  0.21579200  0.28708800  0.20964700  1
  P  P46  1  0.22571600  0.58536800  0.04041000  1
  P  P47  1  0.27428400  0.08536800  0.04041000  1
  O  O48  1  0.47459800  0.90638200  0.91845100  1
  O  O49  1  0.95238500  0.89940300  0.90858100  1
  O  O50  1  0.23440200  0.68469600  0.97170300  1
  O  O51  1  0.74335800  0.52698800  0.96865600  1
  O  O52  1  0.29810900  0.97972500  0.79064400  1
  O  O53  1  0.64748400  0.77619000  0.83341900  1
  O  O54  1  0.02540200  0.40638200  0.91845100  1
  O  O55  1  0.54761500  0.39940300  0.90858100  1
  O  O56  1  0.26559800  0.18469600  0.97170300  1
  O  O57  1  0.07775000  0.71345800  0.79912600  1
  O  O58  1  0.75664200  0.02698800  0.96865600  1
  O  O59  1  0.68072900  0.59362400  0.81234400  1
  O  O60  1  0.91901100  0.99684800  0.70662600  1
  O  O61  1  0.32825200  0.90434600  0.68873800  1
  O  O62  1  0.20189100  0.47972500  0.79064400  1
  O  O63  1  0.85251600  0.27619000  0.83341900  1
  O  O64  1  0.72955600  0.76096300  0.70593600  1
  O  O65  1  0.42225000  0.21345800  0.79912600  1
  O  O66  1  0.81927100  0.09362400  0.81234400  1
  O  O67  1  0.58098900  0.49684800  0.70662600  1
  O  O68  1  0.17098400  0.61001300  0.66119400  1
  O  O69  1  0.17174800  0.40434600  0.68873800  1
  O  O70  1  0.98755700  0.82399400  0.58571900  1
  O  O71  1  0.46169500  0.81344800  0.58379500  1
  O  O72  1  0.77044400  0.26096300  0.70593600  1
  O  O73  1  0.25223900  0.99793700  0.52964800  1
  O  O74  1  0.71510100  0.65331500  0.53121000  1
  O  O75  1  0.32901600  0.11001300  0.66119400  1
  O  O76  1  0.21510100  0.84668500  0.46879000  1
  O  O77  1  0.51244300  0.32399400  0.58571900  1
  O  O78  1  0.03830500  0.31344800  0.58379500  1
  O  O79  1  0.24776100  0.49793700  0.52964800  1
  O  O80  1  0.75223900  0.50206300  0.47035200  1
  O  O81  1  0.96169500  0.68655200  0.41620500  1
  O  O82  1  0.48755700  0.67600600  0.41428100  1
  O  O83  1  0.78489900  0.15331500  0.53121000  1
  O  O84  1  0.67098400  0.88998700  0.33880600  1
  O  O85  1  0.28489900  0.34668500  0.46879000  1
  O  O86  1  0.74776100  0.00206300  0.47035200  1
  O  O87  1  0.22955600  0.73903700  0.29406400  1
  O  O88  1  0.53830500  0.18655200  0.41620500  1
  O  O89  1  0.01244300  0.17600600  0.41428100  1
  O  O90  1  0.82825200  0.59565400  0.31126200  1
  O  O91  1  0.82901600  0.38998700  0.33880600  1
  O  O92  1  0.41901100  0.50315200  0.29337400  1
  O  O93  1  0.18072900  0.90637600  0.18765600  1
  O  O94  1  0.57775000  0.78654200  0.20087400  1
  O  O95  1  0.27044400  0.23903700  0.29406400  1
  O  O96  1  0.14748400  0.72381000  0.16658100  1
  O  O97  1  0.79810900  0.52027500  0.20935600  1
  O  O98  1  0.67174800  0.09565400  0.31126200  1
  O  O99  1  0.08098900  0.00315200  0.29337400  1
  O  O100  1  0.31927100  0.40637600  0.18765600  1
  O  O101  1  0.24335800  0.97301200  0.03134400  1
  O  O102  1  0.92225000  0.28654200  0.20087400  1
  O  O103  1  0.73440200  0.81530400  0.02829700  1
  O  O104  1  0.45238500  0.60059700  0.09141900  1
  O  O105  1  0.97459800  0.59361800  0.08154900  1
  O  O106  1  0.35251600  0.22381000  0.16658100  1
  O  O107  1  0.70189100  0.02027500  0.20935600  1
  O  O108  1  0.25664200  0.47301200  0.03134400  1
  O  O109  1  0.76559800  0.31530400  0.02829700  1
  O  O110  1  0.04761500  0.10059700  0.09141900  1
  O  O111  1  0.52540200  0.09361800  0.08154900  1
