# generated using pymatgen
data_Li2VSi3O8
_symmetry_space_group_name_H-M   'P 1'
_cell_length_a   8.05009600
_cell_length_b   8.05009600
_cell_length_c   8.05009600
_cell_angle_alpha   90.00000000
_cell_angle_beta   90.00000000
_cell_angle_gamma   90.00000000
_symmetry_Int_Tables_number   1
_chemical_formula_structural   Li2VSi3O8
_chemical_formula_sum   'Li8 V4 Si12 O32'
_cell_volume   521.67878834
_cell_formula_units_Z   4
loop_
 _symmetry_equiv_pos_site_id
 _symmetry_equiv_pos_as_xyz
  1  'x, y, z'
loop_
 _atom_site_type_symbol
 _atom_site_label
 _atom_site_symmetry_multiplicity
 _atom_site_fract_x
 _atom_site_fract_y
 _atom_site_fract_z
 _atom_site_occupancy
  Li  Li0  1  0.00879500  0.00879500  0.00879500  1
  Li  Li1  1  0.24120500  0.24120500  0.24120500  1
  Li  Li2  1  0.25879500  0.75879500  0.74120500  1
  Li  Li3  1  0.49120500  0.99120500  0.50879500  1
  Li  Li4  1  0.50879500  0.49120500  0.99120500  1
  Li  Li5  1  0.74120500  0.25879500  0.75879500  1
  Li  Li6  1  0.75879500  0.74120500  0.25879500  1
  Li  Li7  1  0.99120500  0.50879500  0.49120500  1
  V  V8  1  0.12500000  0.87500000  0.37500000  1
  V  V9  1  0.37500000  0.12500000  0.87500000  1
  V  V10  1  0.62500000  0.62500000  0.62500000  1
  V  V11  1  0.87500000  0.37500000  0.12500000  1
  Si  Si12  1  0.11010900  0.13989100  0.62500000  1
  Si  Si13  1  0.12500000  0.38989100  0.86010900  1
  Si  Si14  1  0.13989100  0.62500000  0.11010900  1
  Si  Si15  1  0.36010900  0.37500000  0.61010900  1
  Si  Si16  1  0.37500000  0.61010900  0.36010900  1
  Si  Si17  1  0.38989100  0.86010900  0.12500000  1
  Si  Si18  1  0.61010900  0.36010900  0.37500000  1
  Si  Si19  1  0.62500000  0.11010900  0.13989100  1
  Si  Si20  1  0.63989100  0.87500000  0.88989100  1
  Si  Si21  1  0.86010900  0.12500000  0.38989100  1
  Si  Si22  1  0.87500000  0.88989100  0.63989100  1
  Si  Si23  1  0.88989100  0.63989100  0.87500000  1
  O  O24  1  0.08015700  0.13800600  0.40158700  1
  O  O25  1  0.09841300  0.91984300  0.63800600  1
  O  O26  1  0.12090500  0.62090500  0.87909500  1
  O  O27  1  0.11199400  0.16984300  0.84841300  1
  O  O28  1  0.13800600  0.40158700  0.08015700  1
  O  O29  1  0.12909500  0.37090500  0.62909500  1
  O  O30  1  0.15158700  0.61199400  0.33015700  1
  O  O31  1  0.16984300  0.84841300  0.11199400  1
  O  O32  1  0.33015700  0.15158700  0.61199400  1
  O  O33  1  0.34841300  0.38800600  0.83015700  1
  O  O34  1  0.37090500  0.62909500  0.12909500  1
  O  O35  1  0.36199400  0.59841300  0.58015700  1
  O  O36  1  0.38800600  0.83015700  0.34841300  1
  O  O37  1  0.37909500  0.37909500  0.37909500  1
  O  O38  1  0.40158700  0.08015700  0.13800600  1
  O  O39  1  0.41984300  0.86199400  0.90158700  1
  O  O40  1  0.58015700  0.36199400  0.59841300  1
  O  O41  1  0.59841300  0.58015700  0.36199400  1
  O  O42  1  0.62090500  0.87909500  0.12090500  1
  O  O43  1  0.61199400  0.33015700  0.15158700  1
  O  O44  1  0.63800600  0.09841300  0.91984300  1
  O  O45  1  0.62909500  0.12909500  0.37090500  1
  O  O46  1  0.65158700  0.88800600  0.66984300  1
  O  O47  1  0.66984300  0.65158700  0.88800600  1
  O  O48  1  0.83015700  0.34841300  0.38800600  1
  O  O49  1  0.84841300  0.11199400  0.16984300  1
  O  O50  1  0.87090500  0.87090500  0.87090500  1
  O  O51  1  0.86199400  0.90158700  0.41984300  1
  O  O52  1  0.88800600  0.66984300  0.65158700  1
  O  O53  1  0.87909500  0.12090500  0.62090500  1
  O  O54  1  0.90158700  0.41984300  0.86199400  1
  O  O55  1  0.91984300  0.63800600  0.09841300  1
