# generated using pymatgen
data_LiTiP2O7
_symmetry_space_group_name_H-M   'P 1'
_cell_length_a   6.37747397
_cell_length_b   6.38900146
_cell_length_c   13.21855003
_cell_angle_alpha   78.66479779
_cell_angle_beta   78.28969527
_cell_angle_gamma   100.28073027
_symmetry_Int_Tables_number   1
_chemical_formula_structural   LiTiP2O7
_chemical_formula_sum   'Li4 Ti4 P8 O28'
_cell_volume   503.54919779
_cell_formula_units_Z   4
loop_
 _symmetry_equiv_pos_site_id
 _symmetry_equiv_pos_as_xyz
  1  'x, y, z'
loop_
 _atom_site_type_symbol
 _atom_site_label
 _atom_site_symmetry_multiplicity
 _atom_site_fract_x
 _atom_site_fract_y
 _atom_site_fract_z
 _atom_site_occupancy
  Li  Li0  1  0.38444177  0.97096022  0.37649456  1
  Li  Li1  1  0.15299043  0.22668164  0.87751867  1
  Li  Li2  1  0.85041772  0.76894380  0.12134620  1
  Li  Li3  1  0.60899883  0.03646789  0.62634162  1
  Ti  Ti4  1  0.22994066  0.59148084  0.64503554  1
  Ti  Ti5  1  0.73604074  0.87811332  0.85621335  1
  Ti  Ti6  1  0.26289924  0.12464496  0.14197317  1
  Ti  Ti7  1  0.76914523  0.40505249  0.35647750  1
  P  P8  1  0.22502066  0.75379816  0.86567930  1
  P  P9  1  0.34534085  0.66816771  0.07357656  1
  P  P10  1  0.24326800  0.42200488  0.42590120  1
  P  P11  1  0.87988823  0.90647960  0.36648321  1
  P  P12  1  0.12196813  0.09359314  0.63448201  1
  P  P13  1  0.75821223  0.58119825  0.57391714  1
  P  P14  1  0.65473246  0.33514340  0.92604372  1
  P  P15  1  0.77468343  0.24858894  0.13215643  1
  O  O16  1  0.04652488  0.88365804  0.88691261  1
  O  O17  1  0.20877846  0.81196455  0.12551356  1
  O  O18  1  0.27058030  0.93484564  0.61346078  1
  O  O19  1  0.44987915  0.91114344  0.81367295  1
  O  O20  1  0.08753890  0.46702954  0.35447590  1
  O  O21  1  0.17160062  0.57278819  0.80789774  1
  O  O22  1  0.23145001  0.61408044  0.98009175  1
  O  O23  1  0.30684195  0.61304015  0.47631715  1
  O  O24  1  0.58724065  0.78465959  0.02364991  1
  O  O25  1  0.31917489  0.44147947  0.14496397  1
  O  O26  1  0.09691693  0.21366257  0.51977231  1
  O  O27  1  0.56025296  0.66231530  0.62599908  1
  O  O28  1  0.88094494  0.98562862  0.69291274  1
  O  O29  1  0.22756664  0.26484382  0.68651364  1
  O  O30  1  0.77216784  0.73117993  0.31744284  1
  O  O31  1  0.11925987  0.01601459  0.30600041  1
  O  O32  1  0.43920973  0.33937403  0.37237835  1
  O  O33  1  0.90844510  0.79053659  0.48142377  1
  O  O34  1  0.67776342  0.56148131  0.85450538  1
  O  O35  1  0.41273319  0.21773827  0.97493865  1
  O  O36  1  0.69546940  0.38990384  0.52345028  1
  O  O37  1  0.76716047  0.39516495  0.01914622  1
  O  O38  1  0.82608765  0.42458950  0.19312945  1
  O  O39  1  0.91136959  0.53433601  0.64647556  1
  O  O40  1  0.54994424  0.09039490  0.18178604  1
  O  O41  1  0.73108861  0.06528159  0.38691947  1
  O  O42  1  0.79208803  0.19102115  0.87472741  1
  O  O43  1  0.95514296  0.12244672  0.10785694  1
