# generated using pymatgen
data_Li6Ti2O7
_symmetry_space_group_name_H-M   'P 1'
_cell_length_a   5.81150918
_cell_length_b   5.81150918
_cell_length_c   9.78877338
_cell_angle_alpha   80.24048249
_cell_angle_beta   80.24048249
_cell_angle_gamma   59.84003450
_symmetry_Int_Tables_number   1
_chemical_formula_structural   Li6Ti2O7
_chemical_formula_sum   'Li12 Ti4 O14'
_cell_volume   280.32720344
_cell_formula_units_Z   2
loop_
 _symmetry_equiv_pos_site_id
 _symmetry_equiv_pos_as_xyz
  1  'x, y, z'
loop_
 _atom_site_type_symbol
 _atom_site_label
 _atom_site_symmetry_multiplicity
 _atom_site_fract_x
 _atom_site_fract_y
 _atom_site_fract_z
 _atom_site_occupancy
  Li  Li0  1  0.67009300  0.92171400  0.38677400  1
  Li  Li1  1  0.92171400  0.67009300  0.88677400  1
  Li  Li2  1  0.20706400  0.92152300  0.40334200  1
  Li  Li3  1  0.67084900  0.47095800  0.38956500  1
  Li  Li4  1  0.92152300  0.20706400  0.90334200  1
  Li  Li5  1  0.47095800  0.67084900  0.88956500  1
  Li  Li6  1  0.52904200  0.32915100  0.11043500  1
  Li  Li7  1  0.07847700  0.79293600  0.09665800  1
  Li  Li8  1  0.32915100  0.52904200  0.61043500  1
  Li  Li9  1  0.79293600  0.07847700  0.59665800  1
  Li  Li10  1  0.07828600  0.32990700  0.11322600  1
  Li  Li11  1  0.32990700  0.07828600  0.61322600  1
  Ti  Ti12  1  0.57153500  0.79637000  0.13093200  1
  Ti  Ti13  1  0.79637000  0.57153500  0.63093200  1
  Ti  Ti14  1  0.20363000  0.42846500  0.36906800  1
  Ti  Ti15  1  0.42846500  0.20363000  0.86906800  1
  O  O16  1  0.85851200  0.64490200  0.24954400  1
  O  O17  1  0.00129000  0.27162400  0.49781300  1
  O  O18  1  0.64490200  0.85851200  0.74954400  1
  O  O19  1  0.27162400  0.00129000  0.99781300  1
  O  O20  1  0.73919700  0.50458400  0.02713700  1
  O  O21  1  0.34617900  0.65382100  0.25000000  1
  O  O22  1  0.50458400  0.73919700  0.52713700  1
  O  O23  1  0.49541600  0.26080300  0.47286300  1
  O  O24  1  0.65382100  0.34617900  0.75000000  1
  O  O25  1  0.26080300  0.49541600  0.97286300  1
  O  O26  1  0.72837600  0.99871000  0.00218700  1
  O  O27  1  0.35509800  0.14148800  0.25045600  1
  O  O28  1  0.99871000  0.72837600  0.50218700  1
  O  O29  1  0.14148800  0.35509800  0.75045600  1
