# generated using pymatgen
data_LiSbP2O7
_symmetry_space_group_name_H-M   'P 1'
_cell_length_a   8.30004200
_cell_length_b   8.38308800
_cell_length_c   17.22302200
_cell_angle_alpha   90.00000000
_cell_angle_beta   90.00000000
_cell_angle_gamma   90.00000000
_symmetry_Int_Tables_number   1
_chemical_formula_structural   LiSbP2O7
_chemical_formula_sum   'Li8 Sb8 P16 O56'
_cell_volume   1198.37756918
_cell_formula_units_Z   8
loop_
 _symmetry_equiv_pos_site_id
 _symmetry_equiv_pos_as_xyz
  1  'x, y, z'
loop_
 _atom_site_type_symbol
 _atom_site_label
 _atom_site_symmetry_multiplicity
 _atom_site_fract_x
 _atom_site_fract_y
 _atom_site_fract_z
 _atom_site_occupancy
  Li  Li0  1  0.18283300  0.62970400  0.25613500  1
  Li  Li1  1  0.19995500  0.07446500  0.24688700  1
  Li  Li2  1  0.30004500  0.57446500  0.74688700  1
  Li  Li3  1  0.31716700  0.12970400  0.75613500  1
  Li  Li4  1  0.68283300  0.62970400  0.24386500  1
  Li  Li5  1  0.69995500  0.07446500  0.25311300  1
  Li  Li6  1  0.80004500  0.57446500  0.75311300  1
  Li  Li7  1  0.81716700  0.12970400  0.74386500  1
  Sb  Sb8  1  0.01276000  0.76671200  0.61197700  1
  Sb  Sb9  1  0.01420800  0.26531000  0.88238300  1
  Sb  Sb10  1  0.48579200  0.76531000  0.38238300  1
  Sb  Sb11  1  0.48724000  0.26671200  0.11197700  1
  Sb  Sb12  1  0.51276000  0.76671200  0.88802300  1
  Sb  Sb13  1  0.51420800  0.26531000  0.61761700  1
  Sb  Sb14  1  0.98579200  0.76531000  0.11761700  1
  Sb  Sb15  1  0.98724000  0.26671200  0.38802300  1
  P  P16  1  0.09297300  0.66471900  0.42432900  1
  P  P17  1  0.08381000  0.37133300  0.18130200  1
  P  P18  1  0.09215200  0.35980100  0.69171800  1
  P  P19  1  0.12117700  0.65812300  0.91916400  1
  P  P20  1  0.37882300  0.15812300  0.41916400  1
  P  P21  1  0.40784800  0.85980100  0.19171800  1
  P  P22  1  0.41619000  0.87133300  0.68130200  1
  P  P23  1  0.40702700  0.16471900  0.92432900  1
  P  P24  1  0.59297300  0.66471900  0.07567100  1
  P  P25  1  0.58381000  0.37133300  0.31869800  1
  P  P26  1  0.59215200  0.35980100  0.80828200  1
  P  P27  1  0.62117700  0.65812300  0.58083600  1
  P  P28  1  0.87882300  0.15812300  0.08083600  1
  P  P29  1  0.90784800  0.85980100  0.30828200  1
  P  P30  1  0.91619000  0.87133300  0.81869800  1
  P  P31  1  0.90702700  0.16471900  0.57567100  1
  O  O32  1  0.00349600  0.51668400  0.70079200  1
  O  O33  1  0.99807300  0.64070200  0.98343300  1
  O  O34  1  0.98357700  0.99994100  0.57116000  1
  O  O35  1  0.07679600  0.81115600  0.86225800  1
  O  O36  1  0.04430500  0.27958900  0.61051800  1
  O  O37  1  0.04744600  0.23519500  0.75593800  1
  O  O38  1  0.04920900  0.39488000  0.26811100  1
  O  O39  1  0.13770600  0.73425200  0.50245900  1
  O  O40  1  0.12447200  0.53919800  0.14775900  1
  O  O41  1  0.13306900  0.51242600  0.86343800  1
  O  O42  1  0.21000300  0.20749200  0.44797700  1
  O  O43  1  0.22493400  0.87645700  0.18825900  1
  O  O44  1  0.23844700  0.67006800  0.36711000  1
  O  O45  1  0.28381300  0.74757700  0.66832500  1
  O  O46  1  0.21618700  0.24757700  0.16832500  1
  O  O47  1  0.26155300  0.17006800  0.86711000  1
  O  O48  1  0.27506600  0.37645700  0.68825900  1
  O  O49  1  0.28999700  0.70749200  0.94797700  1
  O  O50  1  0.36693100  0.01242600  0.36343800  1
  O  O51  1  0.37552800  0.03919800  0.64775900  1
  O  O52  1  0.36229400  0.23425200  0.00245900  1
  O  O53  1  0.45079100  0.89488000  0.76811100  1
  O  O54  1  0.45255400  0.73519500  0.25593800  1
  O  O55  1  0.45569500  0.77958900  0.11051800  1
  O  O56  1  0.42320400  0.31115600  0.36225800  1
  O  O57  1  0.51642300  0.49994100  0.07116000  1
  O  O58  1  0.50192700  0.14070200  0.48343300  1
  O  O59  1  0.49650400  0.01668400  0.20079200  1
  O  O60  1  0.50349600  0.51668400  0.79920800  1
  O  O61  1  0.49807300  0.64070200  0.51656700  1
  O  O62  1  0.48357700  0.99994100  0.92884000  1
  O  O63  1  0.57679600  0.81115600  0.63774200  1
  O  O64  1  0.54430500  0.27958900  0.88948200  1
  O  O65  1  0.54744600  0.23519500  0.74406200  1
  O  O66  1  0.54920900  0.39488000  0.23188900  1
  O  O67  1  0.63770600  0.73425200  0.99754100  1
  O  O68  1  0.62447200  0.53919800  0.35224100  1
  O  O69  1  0.63306900  0.51242600  0.63656200  1
  O  O70  1  0.71000300  0.20749200  0.05202300  1
  O  O71  1  0.72493400  0.87645700  0.31174100  1
  O  O72  1  0.73844700  0.67006800  0.13289000  1
  O  O73  1  0.78381300  0.74757700  0.83167500  1
  O  O74  1  0.71618700  0.24757700  0.33167500  1
  O  O75  1  0.76155300  0.17006800  0.63289000  1
  O  O76  1  0.77506600  0.37645700  0.81174100  1
  O  O77  1  0.78999700  0.70749200  0.55202300  1
  O  O78  1  0.86693100  0.01242600  0.13656200  1
  O  O79  1  0.87552800  0.03919800  0.85224100  1
  O  O80  1  0.86229400  0.23425200  0.49754100  1
  O  O81  1  0.95079100  0.89488000  0.73188900  1
  O  O82  1  0.95255400  0.73519500  0.24406200  1
  O  O83  1  0.95569500  0.77958900  0.38948200  1
  O  O84  1  0.92320400  0.31115600  0.13774200  1
  O  O85  1  0.01642300  0.49994100  0.42884000  1
  O  O86  1  0.00192700  0.14070200  0.01656700  1
  O  O87  1  0.99650400  0.01668400  0.29920800  1
