# generated using pymatgen
data_Li2TiMn3O8
_symmetry_space_group_name_H-M   'P 1'
_cell_length_a   6.00954412
_cell_length_b   6.00954412
_cell_length_c   9.53965300
_cell_angle_alpha   90.00000000
_cell_angle_beta   90.00000000
_cell_angle_gamma   122.21883517
_symmetry_Int_Tables_number   1
_chemical_formula_structural   Li2TiMn3O8
_chemical_formula_sum   'Li4 Ti2 Mn6 O16'
_cell_volume   291.47090400
_cell_formula_units_Z   2
loop_
 _symmetry_equiv_pos_site_id
 _symmetry_equiv_pos_as_xyz
  1  'x, y, z'
loop_
 _atom_site_type_symbol
 _atom_site_label
 _atom_site_symmetry_multiplicity
 _atom_site_fract_x
 _atom_site_fract_y
 _atom_site_fract_z
 _atom_site_occupancy
  Li  Li0  1  0.15598800  0.84401200  0.10283000  1
  Li  Li1  1  0.49346000  0.50654000  0.00623700  1
  Li  Li2  1  0.50654000  0.49346000  0.50623700  1
  Li  Li3  1  0.84401200  0.15598800  0.60283000  1
  Ti  Ti4  1  0.18116400  0.81883600  0.50650100  1
  Ti  Ti5  1  0.81883600  0.18116400  0.00650100  1
  Mn  Mn6  1  0.83823400  0.67050100  0.78408800  1
  Mn  Mn7  1  0.32949900  0.16176600  0.78408800  1
  Mn  Mn8  1  0.32722700  0.67277300  0.78575600  1
  Mn  Mn9  1  0.67277300  0.32722700  0.28575600  1
  Mn  Mn10  1  0.67050100  0.83823400  0.28408800  1
  Mn  Mn11  1  0.16176600  0.32949900  0.28408800  1
  O  O12  1  0.84911600  0.64183100  0.41179000  1
  O  O13  1  0.02854900  0.97145100  0.65763100  1
  O  O14  1  0.16797100  0.83202900  0.88709300  1
  O  O15  1  0.49253900  0.50746100  0.69649400  1
  O  O16  1  0.50746100  0.49253900  0.19649400  1
  O  O17  1  0.35816900  0.15088400  0.41179000  1
  O  O18  1  0.04355500  0.52927500  0.65616200  1
  O  O19  1  0.47072500  0.95644500  0.65616200  1
  O  O20  1  0.65525000  0.34475000  0.90085300  1
  O  O21  1  0.34475000  0.65525000  0.40085300  1
  O  O22  1  0.52927500  0.04355500  0.15616200  1
  O  O23  1  0.95644500  0.47072500  0.15616200  1
  O  O24  1  0.83202900  0.16797100  0.38709300  1
  O  O25  1  0.64183100  0.84911600  0.91179000  1
  O  O26  1  0.97145100  0.02854900  0.15763100  1
  O  O27  1  0.15088400  0.35816900  0.91179000  1
