# generated using pymatgen
data_Li2MnSO4F3
_symmetry_space_group_name_H-M   'P 1'
_cell_length_a   7.29394300
_cell_length_b   7.48034200
_cell_length_c   9.54927900
_cell_angle_alpha   90.00000000
_cell_angle_beta   90.00000000
_cell_angle_gamma   90.00000000
_symmetry_Int_Tables_number   1
_chemical_formula_structural   Li2MnSO4F3
_chemical_formula_sum   'Li8 Mn4 S4 O16 F12'
_cell_volume   521.02000839
_cell_formula_units_Z   4
loop_
 _symmetry_equiv_pos_site_id
 _symmetry_equiv_pos_as_xyz
  1  'x, y, z'
loop_
 _atom_site_type_symbol
 _atom_site_label
 _atom_site_symmetry_multiplicity
 _atom_site_fract_x
 _atom_site_fract_y
 _atom_site_fract_z
 _atom_site_occupancy
  Li  Li0  1  0.77403900  0.15805400  0.30143700  1
  Li  Li1  1  0.77403900  0.65805400  0.19856300  1
  Li  Li2  1  0.72596100  0.15805400  0.69856300  1
  Li  Li3  1  0.72596100  0.65805400  0.80143700  1
  Li  Li4  1  0.27403900  0.34194600  0.19856300  1
  Li  Li5  1  0.27403900  0.84194600  0.30143700  1
  Li  Li6  1  0.22596100  0.34194600  0.80143700  1
  Li  Li7  1  0.22596100  0.84194600  0.69856300  1
  Mn  Mn8  1  0.00000000  0.50000000  0.50000000  1
  Mn  Mn9  1  0.00000000  0.00000000  0.00000000  1
  Mn  Mn10  1  0.50000000  0.50000000  0.50000000  1
  Mn  Mn11  1  0.50000000  0.00000000  0.00000000  1
  S  S12  1  0.75000000  0.33333800  0.00000000  1
  S  S13  1  0.75000000  0.83333800  0.50000000  1
  S  S14  1  0.25000000  0.16666200  0.50000000  1
  S  S15  1  0.25000000  0.66666200  0.00000000  1
  O  O16  1  0.87585500  0.21079600  0.08358700  1
  O  O17  1  0.87585500  0.71079600  0.41641300  1
  O  O18  1  0.84564600  0.44160900  0.89754300  1
  O  O19  1  0.84564600  0.94160900  0.60245700  1
  O  O20  1  0.65435400  0.44160900  0.10245700  1
  O  O21  1  0.65435400  0.94160900  0.39754300  1
  O  O22  1  0.62414500  0.21079600  0.91641300  1
  O  O23  1  0.62414500  0.71079600  0.58358700  1
  O  O24  1  0.37585500  0.28920400  0.41641300  1
  O  O25  1  0.37585500  0.78920400  0.08358700  1
  O  O26  1  0.34564600  0.05839100  0.60245700  1
  O  O27  1  0.34564600  0.55839100  0.89754300  1
  O  O28  1  0.15435400  0.05839100  0.39754300  1
  O  O29  1  0.15435400  0.55839100  0.10245700  1
  O  O30  1  0.12414500  0.28920400  0.58358700  1
  O  O31  1  0.12414500  0.78920400  0.91641300  1
  F  F32  1  0.97545300  0.09200600  0.82082200  1
  F  F33  1  0.97545300  0.59200600  0.67917800  1
  F  F34  1  0.75000000  0.33602000  0.50000000  1
  F  F35  1  0.75000000  0.83602000  0.00000000  1
  F  F36  1  0.52454700  0.09200600  0.17917800  1
  F  F37  1  0.52454700  0.59200600  0.32082200  1
  F  F38  1  0.47545300  0.40799400  0.67917800  1
  F  F39  1  0.47545300  0.90799400  0.82082200  1
  F  F40  1  0.25000000  0.16398000  0.00000000  1
  F  F41  1  0.25000000  0.66398000  0.50000000  1
  F  F42  1  0.02454700  0.40799400  0.32082200  1
  F  F43  1  0.02454700  0.90799400  0.17917800  1
