# generated using pymatgen
data_Li7V3P8O29
_symmetry_space_group_name_H-M   'P 1'
_cell_length_a   9.83734100
_cell_length_b   9.88239147
_cell_length_c   13.90502295
_cell_angle_alpha   90.05132314
_cell_angle_beta   90.15795169
_cell_angle_gamma   119.69415643
_symmetry_Int_Tables_number   1
_chemical_formula_structural   Li7V3P8O29
_chemical_formula_sum   'Li14 V6 P16 O58'
_cell_volume   1174.27336759
_cell_formula_units_Z   2
loop_
 _symmetry_equiv_pos_site_id
 _symmetry_equiv_pos_as_xyz
  1  'x, y, z'
loop_
 _atom_site_type_symbol
 _atom_site_label
 _atom_site_symmetry_multiplicity
 _atom_site_fract_x
 _atom_site_fract_y
 _atom_site_fract_z
 _atom_site_occupancy
  Li  Li0  1  0.31073900  0.08827100  0.93999100  1
  Li  Li1  1  0.65835400  0.33266300  0.61190200  1
  Li  Li2  1  0.66189700  0.32668500  0.11710000  1
  Li  Li3  1  0.91180800  0.22615300  0.94042100  1
  Li  Li4  1  0.77275300  0.68422500  0.93746300  1
  Li  Li5  1  0.09886900  0.33056200  0.56044100  1
  Li  Li6  1  0.90637200  0.67357900  0.43741900  1
  Li  Li7  1  0.22782300  0.32137000  0.06207800  1
  Li  Li8  1  0.09278900  0.77598300  0.06048300  1
  Li  Li9  1  0.33762100  0.67253200  0.38336200  1
  Li  Li10  1  0.23302900  0.90541200  0.55949300  1
  Li  Li11  1  0.67418700  0.77240700  0.56147300  1
  Li  Li12  1  0.67897600  0.90660200  0.06431500  1
  Li  Li13  1  0.02051500  0.04184300  0.49065800  1
  V  V14  1  0.00126600  0.43037000  0.75069900  1
  V  V15  1  0.00067700  0.56456800  0.24946000  1
  V  V16  1  0.43539400  0.43152100  0.25329800  1
  V  V17  1  0.56489200  0.56699300  0.74898900  1
  V  V18  1  0.43150700  0.99713900  0.74998200  1
  V  V19  1  0.56852800  0.00144800  0.25391900  1
  P  P20  1  0.32070300  0.08965700  0.15908200  1
  P  P21  1  0.31109300  0.22244100  0.65895400  1
  P  P22  1  0.77629600  0.08880600  0.65841600  1
  P  P23  1  0.66755900  0.33177500  0.87364000  1
  P  P24  1  0.67353100  0.33968600  0.37298900  1
  P  P25  1  0.91016300  0.23107100  0.15817400  1
  P  P26  1  0.09137700  0.31697500  0.34358000  1
  P  P27  1  0.76795400  0.67664000  0.15608100  1
  P  P28  1  0.23531400  0.32213100  0.84427900  1
  P  P29  1  0.91028600  0.68078600  0.65546200  1
  P  P30  1  0.08659600  0.76498100  0.84042500  1
  P  P31  1  0.33050700  0.66638300  0.62449200  1
  P  P32  1  0.33389100  0.66338600  0.12683300  1
  P  P33  1  0.22407800  0.90786400  0.34494700  1
  P  P34  1  0.68241000  0.77074000  0.34276000  1
  P  P35  1  0.68367300  0.91707500  0.84464000  1
  O  O36  1  0.21425600  0.98923200  0.43384200  1
  O  O37  1  0.33517500  0.07661000  0.66154900  1
  O  O38  1  0.24202600  0.24321400  0.93559300  1
  O  O39  1  0.32878700  0.24979400  0.15870100  1
  O  O40  1  0.48716100  0.11596900  0.17318500  1
  O  O41  1  0.51423300  0.18412500  0.83410300  1
  O  O42  1  0.62645300  0.10229300  0.66694800  1
  O  O43  1  0.75055600  0.00612600  0.93652400  1
  O  O44  1  0.75172400  0.08202500  0.15489900  1
  O  O45  1  0.52842300  0.34705200  0.32841400  1
  O  O46  1  0.47377000  0.36745900  0.66366200  1
  O  O47  1  0.67160900  0.19531400  0.33369500  1
  O  O48  1  0.66908300  0.32682400  0.98186900  1
  O  O49  1  0.67713000  0.35683500  0.47997700  1
  O  O50  1  0.81498700  0.32473300  0.83401400  1
  O  O51  1  0.62600400  0.51168500  0.16997000  1
  O  O52  1  0.67303900  0.48317200  0.83637400  1
  O  O53  1  0.91909100  0.25846800  0.65922000  1
  O  O54  1  0.99852300  0.21445100  0.25092100  1
  O  O55  1  0.01167100  0.23195600  0.43385700  1
  O  O56  1  0.00776600  0.25467800  0.06978400  1
  O  O57  1  0.88420300  0.37282200  0.17489700  1
  O  O58  1  0.82263000  0.49093400  0.33193000  1
  O  O59  1  0.08056300  0.32960600  0.83954500  1
  O  O60  1  0.89162000  0.51731700  0.67095900  1
  O  O61  1  0.74910800  0.66834200  0.65480900  1
  O  O62  1  0.21841500  0.20625100  0.75742200  1
  O  O63  1  0.20381200  0.20769500  0.57771600  1
  O  O64  1  0.76855800  0.76250700  0.43129100  1
  O  O65  1  0.25643200  0.34027500  0.33691400  1
  O  O66  1  0.10185000  0.47901000  0.33241800  1
  O  O67  1  0.91917100  0.66544400  0.15435200  1
  O  O68  1  0.18725500  0.51258200  0.66457000  1
  O  O69  1  0.09602200  0.61567100  0.82045200  1
  O  O70  1  0.99830500  0.75229200  0.93094900  1
  O  O71  1  0.00473800  0.76549300  0.56795400  1
  O  O72  1  0.99801700  0.78594000  0.74957700  1
  O  O73  1  0.07499300  0.74521300  0.33809300  1
  O  O74  1  0.33826000  0.51667500  0.16965500  1
  O  O75  1  0.37575500  0.48117900  0.82639300  1
  O  O76  1  0.18125800  0.65878500  0.17324900  1
  O  O77  1  0.31521400  0.65235900  0.02045700  1
  O  O78  1  0.32110600  0.66448900  0.51619300  1
  O  O79  1  0.32219300  0.81145400  0.66422600  1
  O  O80  1  0.51767700  0.62372700  0.33096400  1
  O  O81  1  0.48575200  0.67667700  0.65954500  1
  O  O82  1  0.25058800  0.91200200  0.84132100  1
  O  O83  1  0.21590300  0.99968200  0.25083800  1
  O  O84  1  0.24118200  0.99622200  0.06974700  1
  O  O85  1  0.36866600  0.88767300  0.33523800  1
  O  O86  1  0.48036700  0.81221200  0.16425700  1
  O  O87  1  0.52370300  0.90610100  0.81926400  1
  O  O88  1  0.66919800  0.75670000  0.84354700  1
  O  O89  1  0.75377700  0.75676400  0.06769200  1
  O  O90  1  0.78464200  0.77953200  0.24943000  1
  O  O91  1  0.66709000  0.91522500  0.34119500  1
  O  O92  1  0.78797900  0.99722300  0.57659400  1
  O  O93  1  0.79688000  0.01498600  0.75749600  1
