# generated using pymatgen
data_Li2SiNiO4
_symmetry_space_group_name_H-M   'P 1'
_cell_length_a   5.35928100
_cell_length_b   10.45049100
_cell_length_c   12.78708200
_cell_angle_alpha   90.00000000
_cell_angle_beta   90.00000000
_cell_angle_gamma   90.00000000
_symmetry_Int_Tables_number   1
_chemical_formula_structural   Li2SiNiO4
_chemical_formula_sum   'Li16 Si8 Ni8 O32'
_cell_volume   716.16760862
_cell_formula_units_Z   8
loop_
 _symmetry_equiv_pos_site_id
 _symmetry_equiv_pos_as_xyz
  1  'x, y, z'
loop_
 _atom_site_type_symbol
 _atom_site_label
 _atom_site_symmetry_multiplicity
 _atom_site_fract_x
 _atom_site_fract_y
 _atom_site_fract_z
 _atom_site_occupancy
  Li  Li0  1  0.96233600  0.97016900  0.56005000  1
  Li  Li1  1  0.45747700  0.95715100  0.94147300  1
  Li  Li2  1  0.38760400  0.21754200  0.30260200  1
  Li  Li3  1  0.88049800  0.21192700  0.19461000  1
  Li  Li4  1  0.88049800  0.28807300  0.69461000  1
  Li  Li5  1  0.38760400  0.28245800  0.80260200  1
  Li  Li6  1  0.96233600  0.52983100  0.06005000  1
  Li  Li7  1  0.45747700  0.54284900  0.44147300  1
  Li  Li8  1  0.54252300  0.45715100  0.94147300  1
  Li  Li9  1  0.03766400  0.47016900  0.56005000  1
  Li  Li10  1  0.61239600  0.71754200  0.30260200  1
  Li  Li11  1  0.11950200  0.71192700  0.19461000  1
  Li  Li12  1  0.11950200  0.78807300  0.69461000  1
  Li  Li13  1  0.61239600  0.78245800  0.80260200  1
  Li  Li14  1  0.03766400  0.02983100  0.06005000  1
  Li  Li15  1  0.54252300  0.04284900  0.44147300  1
  Si  Si16  1  0.47286000  0.03111300  0.68971300  1
  Si  Si17  1  0.03257500  0.21137500  0.43843700  1
  Si  Si18  1  0.03257500  0.28862500  0.93843700  1
  Si  Si19  1  0.47286000  0.46888700  0.18971300  1
  Si  Si20  1  0.52714000  0.53111300  0.68971300  1
  Si  Si21  1  0.96742500  0.71137500  0.43843700  1
  Si  Si22  1  0.96742500  0.78862500  0.93843700  1
  Si  Si23  1  0.52714000  0.96888700  0.18971300  1
  Ni  Ni24  1  0.95732100  0.03724600  0.81177400  1
  Ni  Ni25  1  0.53128900  0.21310300  0.05887700  1
  Ni  Ni26  1  0.53128900  0.28689700  0.55887700  1
  Ni  Ni27  1  0.95732100  0.46275400  0.31177400  1
  Ni  Ni28  1  0.04267900  0.53724600  0.81177400  1
  Ni  Ni29  1  0.46871100  0.71310300  0.05887700  1
  Ni  Ni30  1  0.46871100  0.78689700  0.55887700  1
  Ni  Ni31  1  0.04267900  0.96275400  0.31177400  1
  O  O32  1  0.39152800  0.02793800  0.29567100  1
  O  O33  1  0.82695900  0.00706100  0.19126200  1
  O  O34  1  0.90630100  0.06884700  0.42851300  1
  O  O35  1  0.40920100  0.03873200  0.08489600  1
  O  O36  1  0.54191400  0.18613000  0.69012200  1
  O  O37  1  0.03022900  0.22098900  0.82132300  1
  O  O38  1  0.33289900  0.19494400  0.46098000  1
  O  O39  1  0.90024700  0.20222600  0.03042700  1
  O  O40  1  0.90024700  0.29777400  0.53042700  1
  O  O41  1  0.33289900  0.30505600  0.96098000  1
  O  O42  1  0.03022900  0.27901100  0.32132400  1
  O  O43  1  0.54191400  0.31387000  0.19012200  1
  O  O44  1  0.40920100  0.46126800  0.58489600  1
  O  O45  1  0.90630100  0.43115300  0.92851300  1
  O  O46  1  0.82695900  0.49293900  0.69126200  1
  O  O47  1  0.39152800  0.47206200  0.79567100  1
  O  O48  1  0.60847200  0.52793800  0.29567100  1
  O  O49  1  0.17304100  0.50706100  0.19126200  1
  O  O50  1  0.09369900  0.56884700  0.42851300  1
  O  O51  1  0.59079900  0.53873200  0.08489600  1
  O  O52  1  0.45808600  0.68613000  0.69012200  1
  O  O53  1  0.96977100  0.72098900  0.82132300  1
  O  O54  1  0.66710100  0.69494400  0.46098000  1
  O  O55  1  0.09975300  0.70222600  0.03042700  1
  O  O56  1  0.09975300  0.79777400  0.53042700  1
  O  O57  1  0.66710100  0.80505600  0.96098000  1
  O  O58  1  0.96977100  0.77901100  0.32132400  1
  O  O59  1  0.45808600  0.81387000  0.19012200  1
  O  O60  1  0.59079900  0.96126800  0.58489600  1
  O  O61  1  0.09369900  0.93115300  0.92851300  1
  O  O62  1  0.17304100  0.99293900  0.69126200  1
  O  O63  1  0.60847200  0.97206200  0.79567100  1
