# generated using pymatgen
data_Sr3Li2
_symmetry_space_group_name_H-M   'P 1'
_cell_length_a   9.71659400
_cell_length_b   9.71659400
_cell_length_c   8.73377600
_cell_angle_alpha   90.00000000
_cell_angle_beta   90.00000000
_cell_angle_gamma   90.00000000
_symmetry_Int_Tables_number   1
_chemical_formula_structural   Sr3Li2
_chemical_formula_sum   'Sr12 Li8'
_cell_volume   824.57499739
_cell_formula_units_Z   4
loop_
 _symmetry_equiv_pos_site_id
 _symmetry_equiv_pos_as_xyz
  1  'x, y, z'
loop_
 _atom_site_type_symbol
 _atom_site_label
 _atom_site_symmetry_multiplicity
 _atom_site_fract_x
 _atom_site_fract_y
 _atom_site_fract_z
 _atom_site_occupancy
  Sr  Sr0  1  0.85032000  0.14968000  0.00000000  1
  Sr  Sr1  1  0.64968000  0.64968000  0.50000000  1
  Sr  Sr2  1  0.35032000  0.35032000  0.50000000  1
  Sr  Sr3  1  0.14968000  0.85032000  0.00000000  1
  Sr  Sr4  1  0.71154000  0.71154000  0.00000000  1
  Sr  Sr5  1  0.21154000  0.78846000  0.50000000  1
  Sr  Sr6  1  0.78846000  0.21154000  0.50000000  1
  Sr  Sr7  1  0.28846000  0.28846000  0.00000000  1
  Sr  Sr8  1  0.00000000  0.50000000  0.75000000  1
  Sr  Sr9  1  0.00000000  0.50000000  0.25000000  1
  Sr  Sr10  1  0.50000000  0.00000000  0.75000000  1
  Sr  Sr11  1  0.50000000  0.00000000  0.25000000  1
  Li  Li12  1  0.88722300  0.88722300  0.68187600  1
  Li  Li13  1  0.11277700  0.11277700  0.68187600  1
  Li  Li14  1  0.61277700  0.38722300  0.18187600  1
  Li  Li15  1  0.38722300  0.61277700  0.18187600  1
  Li  Li16  1  0.88722300  0.88722300  0.31812400  1
  Li  Li17  1  0.38722300  0.61277700  0.81812400  1
  Li  Li18  1  0.61277700  0.38722300  0.81812400  1
  Li  Li19  1  0.11277700  0.11277700  0.31812400  1
