# generated using pymatgen
data_Li2MnF4
_symmetry_space_group_name_H-M   'P 1'
_cell_length_a   8.72511200
_cell_length_b   7.23947900
_cell_length_c   10.60377162
_cell_angle_alpha   86.74036312
_cell_angle_beta   90.00000000
_cell_angle_gamma   90.00000000
_symmetry_Int_Tables_number   1
_chemical_formula_structural   Li2MnF4
_chemical_formula_sum   'Li16 Mn8 F32'
_cell_volume   668.70640612
_cell_formula_units_Z   8
loop_
 _symmetry_equiv_pos_site_id
 _symmetry_equiv_pos_as_xyz
  1  'x, y, z'
loop_
 _atom_site_type_symbol
 _atom_site_label
 _atom_site_symmetry_multiplicity
 _atom_site_fract_x
 _atom_site_fract_y
 _atom_site_fract_z
 _atom_site_occupancy
  Li  Li0  1  0.55567300  0.82446500  0.64261500  1
  Li  Li1  1  0.06006600  0.74578600  0.86798800  1
  Li  Li2  1  0.94432700  0.82446500  0.14261500  1
  Li  Li3  1  0.43993400  0.74578600  0.36798800  1
  Li  Li4  1  0.41263500  0.71017700  0.88917000  1
  Li  Li5  1  0.88753700  0.72880000  0.62523300  1
  Li  Li6  1  0.08736500  0.71017700  0.38917000  1
  Li  Li7  1  0.61246300  0.72880000  0.12523300  1
  Li  Li8  1  0.38753700  0.27120000  0.87476700  1
  Li  Li9  1  0.91263500  0.28982300  0.61083000  1
  Li  Li10  1  0.11246300  0.27120000  0.37476700  1
  Li  Li11  1  0.58736500  0.28982300  0.11083000  1
  Li  Li12  1  0.56006600  0.25421400  0.63201200  1
  Li  Li13  1  0.05567300  0.17553500  0.85738500  1
  Li  Li14  1  0.93993400  0.25421400  0.13201200  1
  Li  Li15  1  0.44432700  0.17553500  0.35738500  1
  Mn  Mn16  1  0.23200500  0.99572500  0.62450300  1
  Mn  Mn17  1  0.26799500  0.99572500  0.12450300  1
  Mn  Mn18  1  0.24184700  0.53905300  0.63448800  1
  Mn  Mn19  1  0.74184700  0.46094700  0.86551200  1
  Mn  Mn20  1  0.25815300  0.53905300  0.13448800  1
  Mn  Mn21  1  0.75815300  0.46094700  0.36551200  1
  Mn  Mn22  1  0.73200500  0.00427500  0.87549700  1
  Mn  Mn23  1  0.76799500  0.00427500  0.37549700  1
  F  F24  1  0.95176500  0.95902900  0.80867600  1
  F  F25  1  0.54823500  0.95902900  0.30867600  1
  F  F26  1  0.73386700  0.88885600  0.55708500  1
  F  F27  1  0.76613300  0.88885600  0.05708500  1
  F  F28  1  0.24455300  0.75311500  0.76931100  1
  F  F29  1  0.07740600  0.80650900  0.55468700  1
  F  F30  1  0.62320500  0.74671700  0.81386700  1
  F  F31  1  0.25544700  0.75311500  0.26931100  1
  F  F32  1  0.42259400  0.80650900  0.05468700  1
  F  F33  1  0.40084100  0.73156800  0.54160900  1
  F  F34  1  0.87679500  0.74671700  0.31386700  1
  F  F35  1  0.09915900  0.73156800  0.04160900  1
  F  F36  1  0.93371200  0.58314400  0.78080900  1
  F  F37  1  0.56628800  0.58314400  0.28080900  1
  F  F38  1  0.33440500  0.48236100  0.95999200  1
  F  F39  1  0.83440500  0.51763900  0.54000800  1
  F  F40  1  0.16559500  0.48236100  0.45999200  1
  F  F41  1  0.66559500  0.51763900  0.04000800  1
  F  F42  1  0.43371200  0.41685600  0.71919100  1
  F  F43  1  0.06628800  0.41685600  0.21919100  1
  F  F44  1  0.90084100  0.26843200  0.95839100  1
  F  F45  1  0.12320500  0.25328300  0.68613300  1
  F  F46  1  0.59915900  0.26843200  0.45839100  1
  F  F47  1  0.57740600  0.19349100  0.94531300  1
  F  F48  1  0.74455300  0.24688500  0.73068900  1
  F  F49  1  0.37679500  0.25328300  0.18613300  1
  F  F50  1  0.92259400  0.19349100  0.44531300  1
  F  F51  1  0.75544700  0.24688500  0.23068900  1
  F  F52  1  0.23386700  0.11114400  0.94291500  1
  F  F53  1  0.26613300  0.11114400  0.44291500  1
  F  F54  1  0.45176500  0.04097100  0.69132400  1
  F  F55  1  0.04823500  0.04097100  0.19132400  1
