# generated using pymatgen
data_Li6V3P8O29
_symmetry_space_group_name_H-M   'P 1'
_cell_length_a   9.81864000
_cell_length_b   9.82898035
_cell_length_c   13.89698012
_cell_angle_alpha   89.95152074
_cell_angle_beta   90.10219423
_cell_angle_gamma   119.90409386
_symmetry_Int_Tables_number   1
_chemical_formula_structural   Li6V3P8O29
_chemical_formula_sum   'Li12 V6 P16 O58'
_cell_volume   1162.59667815
_cell_formula_units_Z   2
loop_
 _symmetry_equiv_pos_site_id
 _symmetry_equiv_pos_as_xyz
  1  'x, y, z'
loop_
 _atom_site_type_symbol
 _atom_site_label
 _atom_site_symmetry_multiplicity
 _atom_site_fract_x
 _atom_site_fract_y
 _atom_site_fract_z
 _atom_site_occupancy
  Li  Li0  1  0.77645200  0.68444800  0.94010400  1
  Li  Li1  1  0.90615100  0.67655900  0.43871700  1
  Li  Li2  1  0.32166400  0.22820400  0.44011100  1
  Li  Li3  1  0.66708000  0.33555500  0.11721800  1
  Li  Li4  1  0.31297900  0.08562900  0.93879900  1
  Li  Li5  1  0.90786400  0.22726000  0.93794500  1
  Li  Li6  1  0.22732700  0.90461900  0.56049900  1
  Li  Li7  1  0.77163100  0.09343100  0.44000600  1
  Li  Li8  1  0.67787200  0.90457600  0.05936800  1
  Li  Li9  1  0.67893100  0.77289000  0.56019000  1
  Li  Li10  1  0.09462600  0.32346200  0.56127700  1
  Li  Li11  1  0.22785400  0.32051800  0.05958100  1
  V  V12  1  0.43029200  0.99771500  0.75040300  1
  V  V13  1  0.56414700  0.99959700  0.24968800  1
  V  V14  1  0.00390200  0.57038100  0.24683600  1
  V  V15  1  0.00004000  0.43462900  0.75077300  1
  V  V16  1  0.56583300  0.56681700  0.74935400  1
  V  V17  1  0.43377900  0.43558100  0.25038200  1
  P  P18  1  0.77140400  0.68135100  0.15817600  1
  P  P19  1  0.91308100  0.68157900  0.65653100  1
  P  P20  1  0.31955900  0.23134000  0.65841900  1
  P  P21  1  0.66467800  0.33265200  0.87379900  1
  P  P22  1  0.66812900  0.33471500  0.37312400  1
  P  P23  1  0.31711600  0.08925700  0.15568300  1
  P  P24  1  0.23092600  0.91322400  0.34133900  1
  P  P25  1  0.91074100  0.22925500  0.15760100  1
  P  P26  1  0.08527200  0.76835800  0.84272500  1
  P  P27  1  0.76765900  0.08836300  0.65902300  1
  P  P28  1  0.68055400  0.91170000  0.84293000  1
  P  P29  1  0.33336800  0.66608000  0.62642500  1
  P  P30  1  0.33441600  0.66697500  0.12634100  1
  P  P31  1  0.68112800  0.76944800  0.34270600  1
  P  P32  1  0.08669500  0.31888200  0.34328900  1
  P  P33  1  0.23169200  0.31960500  0.84172300  1
  O  O34  1  0.75987200  0.75671900  0.43247500  1
  O  O35  1  0.74901700  0.66604600  0.65749000  1
  O  O36  1  0.99314100  0.76220700  0.92826700  1
  O  O37  1  0.91648100  0.66121800  0.15983900  1
  O  O38  1  0.62499200  0.51495300  0.17321300  1
  O  O39  1  0.67028400  0.48604100  0.83397700  1
  O  O40  1  0.48011400  0.37770500  0.67599500  1
  O  O41  1  0.24122400  0.24015600  0.93215900  1
  O  O42  1  0.33310800  0.25422600  0.15821600  1
  O  O43  1  0.81492200  0.48555000  0.33196700  1
  O  O44  1  0.90108200  0.52133300  0.67502900  1
  O  O45  1  0.51504100  0.33081400  0.33101800  1
  O  O46  1  0.66581500  0.33517200  0.98247000  1
  O  O47  1  0.66435000  0.33184100  0.48036500  1
  O  O48  1  0.51115500  0.18670600  0.83568100  1
  O  O49  1  0.88681200  0.37230500  0.17371300  1
  O  O50  1  0.81202800  0.32635900  0.83554400  1
  O  O51  1  0.33364500  0.08145400  0.65850600  1
  O  O52  1  0.21047600  0.00100400  0.24880400  1
  O  O53  1  0.24272700  0.00318300  0.43175100  1
  O  O54  1  0.24571900  0.00349600  0.06520100  1
  O  O55  1  0.48549000  0.11328800  0.17483200  1
  O  O56  1  0.67031400  0.18473900  0.33152300  1
  O  O57  1  0.25319500  0.91520400  0.84032600  1
  O  O58  1  0.61794400  0.09829400  0.67649400  1
  O  O59  1  0.91587500  0.25351700  0.65932900  1
  O  O60  1  0.00589200  0.79326800  0.74598400  1
  O  O61  1  0.00099600  0.75778400  0.56527200  1
  O  O62  1  0.99636300  0.23892800  0.43319700  1
  O  O63  1  0.08306700  0.74934000  0.34123400  1
  O  O64  1  0.38075300  0.90249000  0.32597200  1
  O  O65  1  0.74751000  0.08012100  0.15617200  1
  O  O66  1  0.32597500  0.81239900  0.66676300  1
  O  O67  1  0.52098000  0.89979700  0.82484700  1
  O  O68  1  0.76003500  0.00262500  0.93304600  1
  O  O69  1  0.75778200  0.99976000  0.56848400  1
  O  O70  1  0.79115500  0.00123200  0.75068200  1
  O  O71  1  0.66798800  0.91897500  0.34216500  1
  O  O72  1  0.18936800  0.66721100  0.17175700  1
  O  O73  1  0.09800600  0.61955400  0.82494200  1
  O  O74  1  0.48686900  0.81808100  0.16710200  1
  O  O75  1  0.33700600  0.66179100  0.01958000  1
  O  O76  1  0.33777200  0.66755300  0.51899200  1
  O  O77  1  0.48855900  0.67267700  0.66830500  1
  O  O78  1  0.09373100  0.47653200  0.32583900  1
  O  O79  1  0.18795900  0.51252400  0.66674500  1
  O  O80  1  0.66708600  0.74930700  0.84232500  1
  O  O81  1  0.78955400  0.78925700  0.24985100  1
  O  O82  1  0.75518100  0.75793900  0.06872200  1
  O  O83  1  0.52086900  0.62139700  0.32608500  1
  O  O84  1  0.33408300  0.51542400  0.16913300  1
  O  O85  1  0.37982800  0.47909100  0.82581500  1
  O  O86  1  0.08205800  0.33478000  0.84092500  1
  O  O87  1  0.00310100  0.24462700  0.06801900  1
  O  O88  1  0.99882400  0.21018300  0.25005500  1
  O  O89  1  0.25024600  0.33401800  0.34321500  1
  O  O90  1  0.24072800  0.24234300  0.56779400  1
  O  O91  1  0.20857400  0.20856600  0.74998200  1
