# generated using pymatgen
data_Li3V3P8O29
_symmetry_space_group_name_H-M   'P 1'
_cell_length_a   9.75596400
_cell_length_b   9.76774861
_cell_length_c   14.22140761
_cell_angle_alpha   90.03959092
_cell_angle_beta   90.05065864
_cell_angle_gamma   119.77640667
_symmetry_Int_Tables_number   1
_chemical_formula_structural   Li3V3P8O29
_chemical_formula_sum   'Li6 V6 P16 O58'
_cell_volume   1176.28195928
_cell_formula_units_Z   2
loop_
 _symmetry_equiv_pos_site_id
 _symmetry_equiv_pos_as_xyz
  1  'x, y, z'
loop_
 _atom_site_type_symbol
 _atom_site_label
 _atom_site_symmetry_multiplicity
 _atom_site_fract_x
 _atom_site_fract_y
 _atom_site_fract_z
 _atom_site_occupancy
  Li  Li0  1  0.68102900  0.90765100  0.55898000  1
  Li  Li1  1  0.09265700  0.32317600  0.05156100  1
  Li  Li2  1  0.91783400  0.22151700  0.44345600  1
  Li  Li3  1  0.08715100  0.77445500  0.56225300  1
  Li  Li4  1  0.31470300  0.09140400  0.44472900  1
  Li  Li5  1  0.98634600  0.94680100  0.99333900  1
  V  V6  1  0.00069400  0.43955000  0.24849500  1
  V  V7  1  0.99564300  0.56339700  0.75431000  1
  V  V8  1  0.56535200  0.00192600  0.76053000  1
  V  V9  1  0.43472500  0.99863400  0.23868200  1
  V  V10  1  0.56455500  0.56595400  0.24998000  1
  V  V11  1  0.43648400  0.43678000  0.74899200  1
  P  P12  1  0.69483200  0.77398600  0.84379300  1
  P  P13  1  0.68033900  0.91253300  0.33944200  1
  P  P14  1  0.22890400  0.31513200  0.34327500  1
  P  P15  1  0.33183600  0.66186700  0.13042600  1
  P  P16  1  0.33452900  0.67277100  0.63309000  1
  P  P17  1  0.08958000  0.31341600  0.83858800  1
  P  P18  1  0.90747700  0.22709300  0.65952300  1
  P  P19  1  0.21861500  0.91540000  0.84207100  1
  P  P20  1  0.78150200  0.08661700  0.15739500  1
  P  P21  1  0.09299900  0.77502500  0.34209100  1
  P  P22  1  0.91331800  0.69441200  0.16124000  1
  P  P23  1  0.66374200  0.32852400  0.36544500  1
  P  P24  1  0.66536500  0.33533300  0.87035400  1
  P  P25  1  0.77253800  0.68725400  0.65841100  1
  P  P26  1  0.32032500  0.08936100  0.66061700  1
  P  P27  1  0.30698800  0.22811900  0.15827200  1
  O  O28  1  0.76631400  0.77293500  0.57396600  1
  O  O29  1  0.65646800  0.74447400  0.33297900  1
  O  O30  1  0.79660900  0.00624400  0.07386500  1
  O  O31  1  0.65202700  0.90839400  0.83151300  1
  O  O32  1  0.53923800  0.61504800  0.83102000  1
  O  O33  1  0.47922800  0.66711000  0.17722500  1
  O  O34  1  0.38203300  0.47420100  0.32460300  1
  O  O35  1  0.21060100  0.21681100  0.07492300  1
  O  O36  1  0.26086300  0.34622100  0.82898700  1
  O  O37  1  0.48099500  0.82208300  0.67645500  1
  O  O38  1  0.52174700  0.90594500  0.31713200  1
  O  O39  1  0.34244100  0.52914600  0.67965200  1
  O  O40  1  0.32490100  0.65273300  0.02649300  1
  O  O41  1  0.34015100  0.67437000  0.52853200  1
  O  O42  1  0.18315900  0.50931600  0.17297000  1
  O  O43  1  0.38057300  0.91913200  0.83292100  1
  O  O44  1  0.32807600  0.81132000  0.17179700  1
  O  O45  1  0.08368300  0.34139800  0.34018900  1
  O  O46  1  0.99910500  0.20639700  0.74872000  1
  O  O47  1  0.98637300  0.23398500  0.56905600  1
  O  O48  1  0.01445600  0.23572500  0.92852500  1
  O  O49  1  0.09092500  0.47303700  0.82378200  1
  O  O50  1  0.18063700  0.66761400  0.67153300  1
  O  O51  1  0.91833300  0.26211900  0.16388700  1
  O  O52  1  0.10069100  0.62186300  0.31856300  1
  O  O53  1  0.26041200  0.92133700  0.33348700  1
  O  O54  1  0.79887800  0.01082700  0.25520300  1
  O  O55  1  0.75120100  0.99645100  0.43014700  1
  O  O56  1  0.24675100  0.00395500  0.57051900  1
  O  O57  1  0.73929900  0.08086100  0.66564500  1
  O  O58  1  0.90198700  0.38049200  0.68038400  1
  O  O59  1  0.08621600  0.74014200  0.83020100  1
  O  O60  1  0.81786500  0.33326200  0.32323400  1
  O  O61  1  0.91594100  0.53544300  0.17463900  1
  O  O62  1  0.99486700  0.78621000  0.07705600  1
  O  O63  1  0.01844900  0.76272800  0.43469200  1
  O  O64  1  0.99417200  0.79170800  0.25698000  1
  O  O65  1  0.91634800  0.65932500  0.65988800  1
  O  O66  1  0.67005100  0.18688800  0.82714400  1
  O  O67  1  0.61982700  0.08507300  0.16919600  1
  O  O68  1  0.81476900  0.48387400  0.82520100  1
  O  O69  1  0.67104600  0.33530700  0.97412900  1
  O  O70  1  0.66596900  0.32493500  0.46976100  1
  O  O71  1  0.65963900  0.47357400  0.32103900  1
  O  O72  1  0.47789900  0.09445600  0.68162900  1
  O  O73  1  0.51751700  0.17914100  0.32256000  1
  O  O74  1  0.73893000  0.65359900  0.17003200  1
  O  O75  1  0.79826000  0.79192000  0.75147200  1
  O  O76  1  0.79036000  0.79741200  0.92877700  1
  O  O77  1  0.61926800  0.52731100  0.67552200  1
  O  O78  1  0.51959400  0.33297600  0.82375900  1
  O  O79  1  0.46431500  0.38546300  0.17088300  1
  O  O80  1  0.34561600  0.09108400  0.16513300  1
  O  O81  1  0.19529100  0.99114500  0.92553300  1
  O  O82  1  0.20259200  0.99482900  0.74561000  1
  O  O83  1  0.34618900  0.25841300  0.66577600  1
  O  O84  1  0.23474500  0.23071300  0.42837800  1
  O  O85  1  0.20496700  0.20725100  0.25165900  1
