# generated using pymatgen
data_Li2V3SbO8
_symmetry_space_group_name_H-M   'P 1'
_cell_length_a   6.03905252
_cell_length_b   10.71300590
_cell_length_c   6.03898962
_cell_angle_alpha   73.66477487
_cell_angle_beta   60.02281139
_cell_angle_gamma   73.66541874
_symmetry_Int_Tables_number   1
_chemical_formula_structural   Li2V3SbO8
_chemical_formula_sum   'Li4 V6 Sb2 O16'
_cell_volume   320.08584849
_cell_formula_units_Z   2
loop_
 _symmetry_equiv_pos_site_id
 _symmetry_equiv_pos_as_xyz
  1  'x, y, z'
loop_
 _atom_site_type_symbol
 _atom_site_label
 _atom_site_symmetry_multiplicity
 _atom_site_fract_x
 _atom_site_fract_y
 _atom_site_fract_z
 _atom_site_occupancy
  Li  Li0  1  0.43459300  0.69626800  0.43459200  1
  Li  Li1  1  0.93457500  0.19628800  0.93457600  1
  Li  Li2  1  0.06542400  0.80371200  0.06542400  1
  Li  Li3  1  0.56540700  0.30373200  0.56540800  1
  V  V4  1  0.49999900  0.00000000  0.50000000  1
  V  V5  1  0.49999900  0.99999900  0.00000100  1
  V  V6  1  0.00000000  0.99999900  0.50000100  1
  V  V7  1  0.00000400  0.49999900  0.00000500  1
  V  V8  1  0.99999900  0.50000000  0.50000000  1
  V  V9  1  0.50000200  0.50000000  0.99999800  1
  Sb  Sb10  1  0.25005200  0.25006400  0.25005900  1
  Sb  Sb11  1  0.74994800  0.74993600  0.74994100  1
  O  O12  1  0.36707800  0.89875100  0.36707800  1
  O  O13  1  0.86709700  0.39871900  0.86709700  1
  O  O14  1  0.13290200  0.60128100  0.13290300  1
  O  O15  1  0.63292200  0.10124900  0.63292100  1
  O  O16  1  0.59386500  0.12375600  0.14117800  1
  O  O17  1  0.09383000  0.62375300  0.64111700  1
  O  O18  1  0.14116400  0.12376100  0.59386600  1
  O  O19  1  0.64110100  0.62375300  0.09382800  1
  O  O20  1  0.14118900  0.12377300  0.14118900  1
  O  O21  1  0.64110300  0.62393600  0.64108700  1
  O  O22  1  0.35889700  0.37606500  0.35891300  1
  O  O23  1  0.85881100  0.87622700  0.85881000  1
  O  O24  1  0.35889900  0.37624700  0.90617100  1
  O  O25  1  0.85883500  0.87623900  0.40613400  1
  O  O26  1  0.90617100  0.37624700  0.35888300  1
  O  O27  1  0.40613500  0.87624400  0.85882100  1
