# generated using pymatgen
data_LiFeP2O7
_symmetry_space_group_name_H-M   'P 1'
_cell_length_a   8.06464900
_cell_length_b   4.94889600
_cell_length_c   14.20387287
_cell_angle_alpha   79.33603324
_cell_angle_beta   90.00000000
_cell_angle_gamma   90.00000000
_symmetry_Int_Tables_number   1
_chemical_formula_structural   LiFeP2O7
_chemical_formula_sum   'Li4 Fe4 P8 O28'
_cell_volume   557.10173185
_cell_formula_units_Z   4
loop_
 _symmetry_equiv_pos_site_id
 _symmetry_equiv_pos_as_xyz
  1  'x, y, z'
loop_
 _atom_site_type_symbol
 _atom_site_label
 _atom_site_symmetry_multiplicity
 _atom_site_fract_x
 _atom_site_fract_y
 _atom_site_fract_z
 _atom_site_occupancy
  Li  Li0  1  0.85835200  0.95297100  0.37907800  1
  Li  Li1  1  0.35835200  0.04702900  0.12092200  1
  Li  Li2  1  0.64164800  0.95297100  0.87907800  1
  Li  Li3  1  0.14164800  0.04702900  0.62092200  1
  Fe  Fe4  1  0.76395200  0.67095300  0.68901900  1
  Fe  Fe5  1  0.26395200  0.32904700  0.81098100  1
  Fe  Fe6  1  0.73604800  0.67095300  0.18901900  1
  Fe  Fe7  1  0.23604800  0.32904700  0.31098100  1
  P  P8  1  0.71841000  0.26248100  0.04427600  1
  P  P9  1  0.47123500  0.84310100  0.32249400  1
  P  P10  1  0.97123500  0.15689900  0.17750600  1
  P  P11  1  0.21841000  0.73751900  0.45572400  1
  P  P12  1  0.78159000  0.26248100  0.54427600  1
  P  P13  1  0.02876500  0.84310100  0.82249400  1
  P  P14  1  0.52876500  0.15689900  0.67750600  1
  P  P15  1  0.28159000  0.73751900  0.95572400  1
  O  O16  1  0.55070700  0.84292200  0.70770000  1
  O  O17  1  0.85427700  0.30951900  0.23587500  1
  O  O18  1  0.32143400  0.45237300  0.93038800  1
  O  O19  1  0.13259700  0.96687400  0.38151600  1
  O  O20  1  0.15271000  0.24452000  0.18620000  1
  O  O21  1  0.19531800  0.75660000  0.55780600  1
  O  O22  1  0.92044200  0.22886800  0.06693000  1
  O  O23  1  0.42044200  0.77113200  0.43307000  1
  O  O24  1  0.69531800  0.24340000  0.94219400  1
  O  O25  1  0.65271000  0.75548000  0.31380000  1
  O  O26  1  0.63259700  0.03312600  0.11848400  1
  O  O27  1  0.82143400  0.54762700  0.56961200  1
  O  O28  1  0.35427700  0.69048100  0.26412500  1
  O  O29  1  0.05070700  0.15707800  0.79230000  1
  O  O30  1  0.94929300  0.84292200  0.20770000  1
  O  O31  1  0.64572300  0.30951900  0.73587500  1
  O  O32  1  0.17856600  0.45237300  0.43038800  1
  O  O33  1  0.36740300  0.96687400  0.88151600  1
  O  O34  1  0.34729000  0.24452000  0.68620000  1
  O  O35  1  0.30468200  0.75660000  0.05780600  1
  O  O36  1  0.57955800  0.22886800  0.56693000  1
  O  O37  1  0.07955800  0.77113200  0.93307000  1
  O  O38  1  0.80468200  0.24340000  0.44219400  1
  O  O39  1  0.84729000  0.75548000  0.81380000  1
  O  O40  1  0.86740300  0.03312600  0.61848400  1
  O  O41  1  0.67856600  0.54762700  0.06961200  1
  O  O42  1  0.14572300  0.69048100  0.76412500  1
  O  O43  1  0.44929300  0.15707800  0.29230000  1
