# generated using pymatgen
data_Li2MnPO4F
_symmetry_space_group_name_H-M   'P 1'
_cell_length_a   7.40265900
_cell_length_b   7.68079152
_cell_length_c   7.99345226
_cell_angle_alpha   89.76532238
_cell_angle_beta   91.67690447
_cell_angle_gamma   117.29163415
_symmetry_Int_Tables_number   1
_chemical_formula_structural   Li2MnPO4F
_chemical_formula_sum   'Li8 Mn4 P4 O16 F4'
_cell_volume   403.70638198
_cell_formula_units_Z   4
loop_
 _symmetry_equiv_pos_site_id
 _symmetry_equiv_pos_as_xyz
  1  'x, y, z'
loop_
 _atom_site_type_symbol
 _atom_site_label
 _atom_site_symmetry_multiplicity
 _atom_site_fract_x
 _atom_site_fract_y
 _atom_site_fract_z
 _atom_site_occupancy
  Li  Li0  1  0.71879600  0.16629500  0.84824700  1
  Li  Li1  1  0.67561400  0.58400500  0.94200800  1
  Li  Li2  1  0.06429600  0.83777400  0.67004700  1
  Li  Li3  1  0.38798900  0.17479000  0.82037900  1
  Li  Li4  1  0.58361000  0.85598500  0.17479500  1
  Li  Li5  1  0.24974400  0.49605000  0.25389400  1
  Li  Li6  1  0.82570200  0.40480700  0.55326500  1
  Li  Li7  1  0.91477200  0.13855900  0.32530700  1
  Mn  Mn8  1  0.48160600  0.98402800  0.49275500  1
  Mn  Mn9  1  0.50696300  0.50749200  0.50832000  1
  Mn  Mn10  1  0.01855400  0.51675500  0.99688100  1
  Mn  Mn11  1  0.01582700  0.00754600  0.00958000  1
  P  P12  1  0.47625200  0.76794300  0.85563700  1
  P  P13  1  0.02786100  0.23076300  0.64323800  1
  P  P14  1  0.98188000  0.76022900  0.34874900  1
  P  P15  1  0.51923500  0.23650300  0.15061200  1
  O  O16  1  0.68530000  0.92143200  0.93878800  1
  O  O17  1  0.34240200  0.66617000  0.00777100  1
  O  O18  1  0.51310800  0.61515700  0.75725700  1
  O  O19  1  0.11546600  0.11945700  0.75466400  1
  O  O20  1  0.38918600  0.88063200  0.74529600  1
  O  O21  1  0.97682300  0.36864800  0.75618900  1
  O  O22  1  0.16952800  0.34677100  0.50086400  1
  O  O23  1  0.81931800  0.08920200  0.55810900  1
  O  O24  1  0.17656200  0.91613400  0.43916900  1
  O  O25  1  0.83742600  0.64803700  0.49531500  1
  O  O26  1  0.02344400  0.61397400  0.24500400  1
  O  O27  1  0.61653000  0.13147200  0.26235200  1
  O  O28  1  0.88072400  0.86332100  0.23776500  1
  O  O29  1  0.48646100  0.39055300  0.24907600  1
  O  O30  1  0.66613900  0.33778400  0.99882700  1
  O  O31  1  0.32217600  0.08414300  0.05932900  1
  F  F32  1  0.94682400  0.72926000  0.88101800  1
  F  F33  1  0.45796300  0.72504700  0.37224000  1
  F  F34  1  0.55578800  0.26875600  0.62805800  1
  F  F35  1  0.03861600  0.27210500  0.12581000  1
