# generated using pymatgen
data_Li3Mn2(PO4)3
_symmetry_space_group_name_H-M   'P 1'
_cell_length_a   8.78739900
_cell_length_b   8.55590300
_cell_length_c   14.88030915
_cell_angle_alpha   56.84911757
_cell_angle_beta   90.00000000
_cell_angle_gamma   90.00000000
_symmetry_Int_Tables_number   1
_chemical_formula_structural   Li3Mn2(PO4)3
_chemical_formula_sum   'Li12 Mn8 P12 O48'
_cell_volume   936.66588849
_cell_formula_units_Z   4
loop_
 _symmetry_equiv_pos_site_id
 _symmetry_equiv_pos_as_xyz
  1  'x, y, z'
loop_
 _atom_site_type_symbol
 _atom_site_label
 _atom_site_symmetry_multiplicity
 _atom_site_fract_x
 _atom_site_fract_y
 _atom_site_fract_z
 _atom_site_occupancy
  Li  Li0  1  0.93427500  0.35782800  0.70554200  1
  Li  Li1  1  0.22284500  0.04436500  0.17643700  1
  Li  Li2  1  0.26550600  0.39012100  0.81326400  1
  Li  Li3  1  0.76550600  0.60987900  0.68673600  1
  Li  Li4  1  0.72284500  0.95563500  0.32356300  1
  Li  Li5  1  0.43427500  0.64217200  0.79445800  1
  Li  Li6  1  0.56572500  0.35782800  0.20554200  1
  Li  Li7  1  0.27715500  0.04436500  0.67643700  1
  Li  Li8  1  0.23449400  0.39012100  0.31326400  1
  Li  Li9  1  0.73449400  0.60987900  0.18673600  1
  Li  Li10  1  0.77715500  0.95563500  0.82356300  1
  Li  Li11  1  0.06572500  0.64217200  0.29445800  1
  Mn  Mn12  1  0.45758200  0.64742900  0.60129700  1
  Mn  Mn13  1  0.95758200  0.35257100  0.89870300  1
  Mn  Mn14  1  0.54287900  0.13311100  0.11104700  1
  Mn  Mn15  1  0.04287900  0.86688900  0.38895300  1
  Mn  Mn16  1  0.95712100  0.13311100  0.61104700  1
  Mn  Mn17  1  0.45712100  0.86688900  0.88895300  1
  Mn  Mn18  1  0.04241800  0.64742900  0.10129700  1
  Mn  Mn19  1  0.54241800  0.35257100  0.39870300  1
  P  P20  1  0.75029400  0.53538900  0.50390900  1
  P  P21  1  0.60733900  0.24730900  0.85890600  1
  P  P22  1  0.90374100  0.95277400  0.15329300  1
  P  P23  1  0.40374100  0.04722600  0.34670700  1
  P  P24  1  0.10733900  0.75269100  0.64109400  1
  P  P25  1  0.25029400  0.46461100  0.99609100  1
  P  P26  1  0.74970600  0.53538900  0.00390900  1
  P  P27  1  0.89266100  0.24730900  0.35890600  1
  P  P28  1  0.59625900  0.95277400  0.65329300  1
  P  P29  1  0.09625900  0.04722600  0.84670700  1
  P  P30  1  0.39266100  0.75269100  0.14109400  1
  P  P31  1  0.24970600  0.46461100  0.49609100  1
  O  O32  1  0.13144700  0.62190000  0.42869100  1
  O  O33  1  0.33840900  0.49148200  0.57623300  1
  O  O34  1  0.09272500  0.23129000  0.84731300  1
  O  O35  1  0.40958400  0.90825000  0.16460700  1
  O  O36  1  0.65057400  0.53344200  0.59109900  1
  O  O37  1  0.59955300  0.15692500  0.98075500  1
  O  O38  1  0.77203400  0.33086800  0.81752100  1
  O  O39  1  0.02597000  0.90957300  0.24198000  1
  O  O40  1  0.82661300  0.72668700  0.43435800  1
  O  O41  1  0.74528200  0.96763200  0.18899200  1
  O  O42  1  0.95897900  0.12093700  0.04873900  1
  O  O43  1  0.48675500  0.40270000  0.79949700  1
  O  O44  1  0.98675500  0.59730000  0.70050300  1
  O  O45  1  0.45897900  0.87906300  0.45126100  1
  O  O46  1  0.24528200  0.03236800  0.31100800  1
  O  O47  1  0.32661300  0.27331300  0.06564200  1
  O  O48  1  0.52597000  0.09042700  0.25802000  1
  O  O49  1  0.27203400  0.66913200  0.68247900  1
  O  O50  1  0.09955300  0.84307500  0.51924500  1
  O  O51  1  0.15057400  0.46655800  0.90890100  1
  O  O52  1  0.59272500  0.76871000  0.65268700  1
  O  O53  1  0.90958400  0.09175000  0.33539300  1
  O  O54  1  0.83840900  0.50851800  0.92376700  1
  O  O55  1  0.63144700  0.37810000  0.07130900  1
  O  O56  1  0.36855300  0.62190000  0.92869100  1
  O  O57  1  0.16159100  0.49148200  0.07623300  1
  O  O58  1  0.09041600  0.90825000  0.66460700  1
  O  O59  1  0.40727500  0.23129000  0.34731300  1
  O  O60  1  0.84942600  0.53344200  0.09109900  1
  O  O61  1  0.90044700  0.15692500  0.48075500  1
  O  O62  1  0.72796600  0.33086800  0.31752100  1
  O  O63  1  0.47403000  0.90957300  0.74198000  1
  O  O64  1  0.67338700  0.72668700  0.93435800  1
  O  O65  1  0.75471800  0.96763200  0.68899200  1
  O  O66  1  0.54102100  0.12093700  0.54873900  1
  O  O67  1  0.01324500  0.40270000  0.29949700  1
  O  O68  1  0.51324500  0.59730000  0.20050300  1
  O  O69  1  0.04102100  0.87906300  0.95126100  1
  O  O70  1  0.25471800  0.03236800  0.81100800  1
  O  O71  1  0.17338700  0.27331300  0.56564200  1
  O  O72  1  0.97403000  0.09042700  0.75802000  1
  O  O73  1  0.22796600  0.66913200  0.18247900  1
  O  O74  1  0.40044700  0.84307500  0.01924500  1
  O  O75  1  0.34942600  0.46655800  0.40890100  1
  O  O76  1  0.59041600  0.09175000  0.83539300  1
  O  O77  1  0.90727500  0.76871000  0.15268700  1
  O  O78  1  0.66159100  0.50851800  0.42376700  1
  O  O79  1  0.86855300  0.37810000  0.57130900  1
