# generated using pymatgen
data_LiV2O4
_symmetry_space_group_name_H-M   'P 1'
_cell_length_a   5.95392600
_cell_length_b   5.19468400
_cell_length_c   5.31283279
_cell_angle_alpha   89.29973989
_cell_angle_beta   90.00000000
_cell_angle_gamma   90.00000000
_symmetry_Int_Tables_number   1
_chemical_formula_structural   LiV2O4
_chemical_formula_sum   'Li2 V4 O8'
_cell_volume   164.30708000
_cell_formula_units_Z   2
loop_
 _symmetry_equiv_pos_site_id
 _symmetry_equiv_pos_as_xyz
  1  'x, y, z'
loop_
 _atom_site_type_symbol
 _atom_site_label
 _atom_site_symmetry_multiplicity
 _atom_site_fract_x
 _atom_site_fract_y
 _atom_site_fract_z
 _atom_site_occupancy
  Li  Li0  1  0.75000000  0.19001100  0.93899500  1
  Li  Li1  1  0.25000000  0.80998900  0.06100500  1
  V  V2  1  0.00000000  0.00000000  0.50000000  1
  V  V3  1  0.75000000  0.51171700  0.48050600  1
  V  V4  1  0.50000000  0.00000000  0.50000000  1
  V  V5  1  0.25000000  0.48828300  0.51949400  1
  O  O6  1  0.01374800  0.67927100  0.30742100  1
  O  O7  1  0.98625200  0.32072900  0.69257900  1
  O  O8  1  0.75000000  0.16293500  0.29860400  1
  O  O9  1  0.75000000  0.85872300  0.69536800  1
  O  O10  1  0.48625200  0.67927100  0.30742100  1
  O  O11  1  0.51374800  0.32072900  0.69257900  1
  O  O12  1  0.25000000  0.14127700  0.30463200  1
  O  O13  1  0.25000000  0.83706500  0.70139600  1
