# generated using pymatgen
data_Li2TiFeO4
_symmetry_space_group_name_H-M   'P 1'
_cell_length_a   5.84935322
_cell_length_b   8.93895557
_cell_length_c   5.87377256
_cell_angle_alpha   89.93072665
_cell_angle_beta   90.01695373
_cell_angle_gamma   89.94112833
_symmetry_Int_Tables_number   1
_chemical_formula_structural   Li2TiFeO4
_chemical_formula_sum   'Li8 Ti4 Fe4 O16'
_cell_volume   307.12218334
_cell_formula_units_Z   4
loop_
 _symmetry_equiv_pos_site_id
 _symmetry_equiv_pos_as_xyz
  1  'x, y, z'
loop_
 _atom_site_type_symbol
 _atom_site_label
 _atom_site_symmetry_multiplicity
 _atom_site_fract_x
 _atom_site_fract_y
 _atom_site_fract_z
 _atom_site_occupancy
  Li  Li0  1  0.24652100  0.24984900  0.74654400  1
  Li  Li1  1  0.74653500  0.24987300  0.24648600  1
  Li  Li2  1  0.75270400  0.74886100  0.24769000  1
  Li  Li3  1  0.25262300  0.74889700  0.74772300  1
  Li  Li4  1  0.50307200  0.03229100  0.50605800  1
  Li  Li5  1  0.00311400  0.03225600  0.00598200  1
  Li  Li6  1  0.99808600  0.53219900  0.50839300  1
  Li  Li7  1  0.49804900  0.53224300  0.00841800  1
  Ti  Ti8  1  0.01184800  0.99207400  0.53063100  1
  Ti  Ti9  1  0.51194400  0.99219100  0.03067100  1
  Ti  Ti10  1  0.99014600  0.49224100  0.03320300  1
  Ti  Ti11  1  0.49014100  0.49226200  0.53320600  1
  Fe  Fe12  1  0.74645200  0.25255800  0.74409700  1
  Fe  Fe13  1  0.25300600  0.75265200  0.24531400  1
  Fe  Fe14  1  0.24616400  0.25256600  0.24424400  1
  Fe  Fe15  1  0.75325100  0.75241300  0.74555500  1
  O  O16  1  0.24141800  0.99381900  0.74069600  1
  O  O17  1  0.74147900  0.99383300  0.24072200  1
  O  O18  1  0.75907200  0.49395200  0.24265600  1
  O  O19  1  0.25909500  0.49393300  0.74270900  1
  O  O20  1  0.99706900  0.20833700  0.49002000  1
  O  O21  1  0.49704800  0.20832800  0.99009800  1
  O  O22  1  0.00192500  0.70826700  0.99089700  1
  O  O23  1  0.50193100  0.70819700  0.49084800  1
  O  O24  1  0.99891700  0.27449700  0.99021500  1
  O  O25  1  0.49896200  0.27446200  0.49018700  1
  O  O26  1  0.99992000  0.77410900  0.49093100  1
  O  O27  1  0.49998200  0.77404500  0.99098400  1
  O  O28  1  0.25465600  0.99724300  0.24549000  1
  O  O29  1  0.75465300  0.99723300  0.74550200  1
  O  O30  1  0.24510100  0.49718600  0.24691500  1
  O  O31  1  0.74511800  0.49712400  0.74691700  1
