# generated using pymatgen
data_Li24Mn7Cr5O36
_symmetry_space_group_name_H-M   'P 1'
_cell_length_a   5.00553700
_cell_length_b   9.73957954
_cell_length_c   13.29154245
_cell_angle_alpha   97.05708173
_cell_angle_beta   100.34136116
_cell_angle_gamma   94.65673142
_symmetry_Int_Tables_number   1
_chemical_formula_structural   Li24Mn7Cr5O36
_chemical_formula_sum   'Li24 Mn7 Cr5 O36'
_cell_volume   629.08454929
_cell_formula_units_Z   1
loop_
 _symmetry_equiv_pos_site_id
 _symmetry_equiv_pos_as_xyz
  1  'x, y, z'
loop_
 _atom_site_type_symbol
 _atom_site_label
 _atom_site_symmetry_multiplicity
 _atom_site_fract_x
 _atom_site_fract_y
 _atom_site_fract_z
 _atom_site_occupancy
  Li  Li0  1  0.16464400  0.99994600  0.83350400  1
  Li  Li1  1  0.05094400  0.00021100  0.61290400  1
  Li  Li2  1  0.99972800  0.74953900  0.25049100  1
  Li  Li3  1  0.33083100  0.75035900  0.91738800  1
  Li  Li4  1  0.05099300  0.49990700  0.11328800  1
  Li  Li5  1  0.38267000  0.49968500  0.77858700  1
  Li  Li6  1  0.16404600  0.50053400  0.33341700  1
  Li  Li7  1  0.49946600  0.49985900  0.00034700  1
  Li  Li8  1  0.28742500  0.50056900  0.55401800  1
  Li  Li9  1  0.33015600  0.25003100  0.41766600  1
  Li  Li10  1  0.49821200  0.99967600  0.50015700  1
  Li  Li11  1  0.28373700  0.99869800  0.05366900  1
  Li  Li12  1  0.61881600  0.99930500  0.71954100  1
  Li  Li13  1  0.38226700  0.99961800  0.27893100  1
  Li  Li14  1  0.71775400  0.00099900  0.94601600  1
  Li  Li15  1  0.66348700  0.75012200  0.58413100  1
  Li  Li16  1  0.71587500  0.49978200  0.44523800  1
  Li  Li17  1  0.83136800  0.50021800  0.66690500  1
  Li  Li18  1  0.61935000  0.50164300  0.22110300  1
  Li  Li19  1  0.95251600  0.49957800  0.88640300  1
  Li  Li20  1  0.66344800  0.25006700  0.08432900  1
  Li  Li21  1  0.83225500  0.99991200  0.16704400  1
  Li  Li22  1  0.99661400  0.24998100  0.75094000  1
  Li  Li23  1  0.95419400  0.00004000  0.38703300  1
  Mn  Mn24  1  0.22371800  0.75006300  0.69403400  1
  Mn  Mn25  1  0.22373700  0.24992300  0.19406900  1
  Mn  Mn26  1  0.55720900  0.25024300  0.86068300  1
  Mn  Mn27  1  0.44436800  0.74981400  0.13900500  1
  Mn  Mn28  1  0.55388700  0.74859400  0.35958700  1
  Mn  Mn29  1  0.89051700  0.24996900  0.52737300  1
  Mn  Mn30  1  0.89247000  0.75132400  0.02882300  1
  Cr  Cr31  1  0.10637500  0.24993500  0.97357200  1
  Cr  Cr32  1  0.10434000  0.75037100  0.47340900  1
  Cr  Cr33  1  0.43950900  0.24992300  0.64021400  1
  Cr  Cr34  1  0.77266000  0.74981900  0.80743500  1
  Cr  Cr35  1  0.77248000  0.25006300  0.30676300  1
  O  O36  1  0.00362000  0.86357300  0.93153300  1
  O  O37  1  0.06949300  0.63635500  0.78456200  1
  O  O38  1  0.00359200  0.36343900  0.43109800  1
  O  O39  1  0.14615200  0.36108600  0.64190900  1
  O  O40  1  0.26489900  0.36407800  0.88201000  1
  O  O41  1  0.33684800  0.86348600  0.59777500  1
  O  O42  1  0.06944100  0.13615500  0.28431800  1
  O  O43  1  0.18503900  0.13628800  0.52183000  1
  O  O44  1  0.40257800  0.13637300  0.95083000  1
  O  O45  1  0.14269100  0.86129400  0.14336500  1
  O  O46  1  0.26492100  0.86395200  0.38226000  1
  O  O47  1  0.47947300  0.86108400  0.80864700  1
  O  O48  1  0.33695000  0.13900200  0.73743600  1
  O  O49  1  0.19156700  0.63831100  0.02399900  1
  O  O50  1  0.40255100  0.63640500  0.45065700  1
  O  O51  1  0.51837700  0.63635700  0.68850200  1
  O  O52  1  0.33198100  0.63860300  0.23769900  1
  O  O53  1  0.67190900  0.63899100  0.90485700  1
  O  O54  1  0.33665100  0.36324400  0.09752500  1
  O  O55  1  0.67055100  0.36358100  0.76447500  1
  O  O56  1  0.47921500  0.36102600  0.30847500  1
  O  O57  1  0.59823100  0.36364100  0.54866000  1
  O  O58  1  0.81313400  0.36156900  0.97531700  1
  O  O59  1  0.66610100  0.86145000  0.26129900  1
  O  O60  1  0.51860000  0.13648600  0.18848600  1
  O  O61  1  0.73615000  0.13628200  0.61761100  1
  O  O62  1  0.85180700  0.13650800  0.85515600  1
  O  O63  1  0.59692900  0.86360500  0.04819400  1
  O  O64  1  0.81168900  0.86120400  0.47423700  1
  O  O65  1  0.93137600  0.86366100  0.71532900  1
  O  O66  1  0.67034100  0.13862200  0.40388700  1
  O  O67  1  0.73650600  0.63611400  0.11818200  1
  O  O68  1  0.85063700  0.63640200  0.35516500  1
  O  O69  1  0.00345400  0.63903400  0.57067700  1
  O  O70  1  0.93163700  0.36355400  0.21537300  1
  O  O71  1  0.00284300  0.13886600  0.07065200  1
