# generated using pymatgen
data_Li4Mn8O13F3
_symmetry_space_group_name_H-M   'P 1'
_cell_length_a   5.99201100
_cell_length_b   6.08147820
_cell_length_c   10.33563587
_cell_angle_alpha   74.03737761
_cell_angle_beta   76.12369595
_cell_angle_gamma   60.50778426
_symmetry_Int_Tables_number   1
_chemical_formula_structural   Li4Mn8O13F3
_chemical_formula_sum   'Li4 Mn8 O13 F3'
_cell_volume   312.72555002
_cell_formula_units_Z   1
loop_
 _symmetry_equiv_pos_site_id
 _symmetry_equiv_pos_as_xyz
  1  'x, y, z'
loop_
 _atom_site_type_symbol
 _atom_site_label
 _atom_site_symmetry_multiplicity
 _atom_site_fract_x
 _atom_site_fract_y
 _atom_site_fract_z
 _atom_site_occupancy
  Li  Li0  1  0.78322200  0.83635800  0.06095400  1
  Li  Li1  1  0.72980600  0.65774500  0.44322200  1
  Li  Li2  1  0.26482600  0.34120300  0.55747800  1
  Li  Li3  1  0.23118700  0.15907100  0.94423300  1
  Mn  Mn4  1  0.24342700  0.26000300  0.24695500  1
  Mn  Mn5  1  0.99991300  0.99402000  0.50056300  1
  Mn  Mn6  1  0.24386200  0.74562400  0.24592300  1
  Mn  Mn7  1  0.48511700  0.51109100  0.00275200  1
  Mn  Mn8  1  0.24779700  0.75150500  0.75039400  1
  Mn  Mn9  1  0.74854800  0.24888000  0.25002100  1
  Mn  Mn10  1  0.74794400  0.25142600  0.75146300  1
  Mn  Mn11  1  0.74798500  0.75026700  0.75123200  1
  O  O12  1  0.11997700  0.65029700  0.13407400  1
  O  O13  1  0.58631200  0.17794300  0.13434700  1
  O  O14  1  0.14157800  0.09819100  0.14886700  1
  O  O15  1  0.08711900  0.10456600  0.63452700  1
  O  O16  1  0.57941500  0.61953400  0.13564100  1
  O  O17  1  0.08648200  0.67316600  0.63492900  1
  O  O18  1  0.35622400  0.40107700  0.35333700  1
  O  O19  1  0.65411900  0.59579700  0.64620800  1
  O  O20  1  0.91205500  0.31797000  0.36788300  1
  O  O21  1  0.91917700  0.87854600  0.36666900  1
  O  O22  1  0.40703700  0.39861900  0.86582300  1
  O  O23  1  0.84214700  0.90631000  0.85471300  1
  O  O24  1  0.40953000  0.83008700  0.86468100  1
  F  F25  1  0.39224000  0.84460500  0.37259800  1
  F  F26  1  0.60292400  0.13660900  0.61338900  1
  F  F27  1  0.89338100  0.36651500  0.88683800  1
