# generated using pymatgen
data_LiMnV(P2O7)2
_symmetry_space_group_name_H-M   'P 1'
_cell_length_a   7.15199900
_cell_length_b   8.16326341
_cell_length_c   13.66383705
_cell_angle_alpha   88.35625137
_cell_angle_beta   82.12164017
_cell_angle_gamma   88.64864898
_symmetry_Int_Tables_number   1
_chemical_formula_structural   LiMnV(P2O7)2
_chemical_formula_sum   'Li3 Mn3 V3 P12 O42'
_cell_volume   789.73428024
_cell_formula_units_Z   3
loop_
 _symmetry_equiv_pos_site_id
 _symmetry_equiv_pos_as_xyz
  1  'x, y, z'
loop_
 _atom_site_type_symbol
 _atom_site_label
 _atom_site_symmetry_multiplicity
 _atom_site_fract_x
 _atom_site_fract_y
 _atom_site_fract_z
 _atom_site_occupancy
  Li  Li0  1  0.16226600  0.86358800  0.16550400  1
  Li  Li1  1  0.82811800  0.86345900  0.49968800  1
  Li  Li2  1  0.84048400  0.35796400  0.83220900  1
  Mn  Mn3  1  0.56026500  0.00714500  0.17174700  1
  Mn  Mn4  1  0.22844600  0.00732600  0.50654800  1
  Mn  Mn5  1  0.88457000  0.99250300  0.83741700  1
  V  V6  1  0.11956000  0.49478200  0.16326800  1
  V  V7  1  0.78426000  0.49495400  0.49508900  1
  V  V8  1  0.44537600  0.50586700  0.82910300  1
  P  P9  1  0.86561500  0.78004000  0.04302800  1
  P  P10  1  0.47533400  0.67822800  0.03957800  1
  P  P11  1  0.79526100  0.28718000  0.29017100  1
  P  P12  1  0.18462900  0.17605400  0.29501300  1
  P  P13  1  0.53263200  0.78200200  0.37532300  1
  P  P14  1  0.14281100  0.67942500  0.37346400  1
  P  P15  1  0.84950500  0.17769800  0.62759600  1
  P  P16  1  0.46085200  0.28870200  0.62521000  1
  P  P17  1  0.81170800  0.68268700  0.70493700  1
  P  P18  1  0.20014000  0.78205600  0.70925900  1
  P  P19  1  0.52143000  0.17460700  0.96038700  1
  P  P20  1  0.13290000  0.28795900  0.95781900  1
  O  O21  1  0.69510400  0.65159500  0.05255200  1
  O  O22  1  0.81016700  0.93242800  0.10386100  1
  O  O23  1  0.53798800  0.17469500  0.07026700  1
  O  O24  1  0.40924300  0.84361800  0.07919600  1
  O  O25  1  0.37384700  0.53526600  0.09833500  1
  O  O26  1  0.87104300  0.43938300  0.22814600  1
  O  O27  1  0.09045100  0.33285800  0.06753900  1
  O  O28  1  0.96475300  0.14991000  0.28472100  1
  O  O29  1  0.02603600  0.68575200  0.08579200  1
  O  O30  1  0.63313400  0.20262300  0.25744800  1
  O  O31  1  0.58939100  0.82612300  0.26612600  1
  O  O32  1  0.28441500  0.03832700  0.23286100  1
  O  O33  1  0.23421500  0.34757300  0.25052500  1
  O  O34  1  0.13378900  0.67253600  0.26081900  1
  O  O35  1  0.75528000  0.33665200  0.39977600  1
  O  O36  1  0.69459200  0.68734200  0.41662800  1
  O  O37  1  0.36299900  0.65291600  0.38584900  1
  O  O38  1  0.47763200  0.93289000  0.43757000  1
  O  O39  1  0.20794900  0.17217000  0.40383500  1
  O  O40  1  0.95080500  0.03898100  0.56765600  1
  O  O41  1  0.90083800  0.34825900  0.58244200  1
  O  O42  1  0.07684900  0.84457200  0.41443100  1
  O  O43  1  0.04153700  0.53545100  0.43027000  1
  O  O44  1  0.79917700  0.67010700  0.59291300  1
  O  O45  1  0.53630000  0.43937500  0.56174500  1
  O  O46  1  0.63040900  0.15097800  0.61862500  1
  O  O47  1  0.29830000  0.20346600  0.59311300  1
  O  O48  1  0.87299300  0.17730800  0.73730800  1
  O  O49  1  0.25740900  0.82853400  0.60022200  1
  O  O50  1  0.74970300  0.84838300  0.74235000  1
  O  O51  1  0.71555300  0.53748800  0.76543400  1
  O  O52  1  0.42355700  0.34181400  0.73436700  1
  O  O53  1  0.36090700  0.68256100  0.74654400  1
  O  O54  1  0.96771000  0.21058700  0.92093400  1
  O  O55  1  0.03176700  0.64989900  0.71717600  1
  O  O56  1  0.92598900  0.81958800  0.93388100  1
  O  O57  1  0.13401100  0.93100300  0.77092600  1
  O  O58  1  0.62784400  0.03760100  0.90237800  1
  O  O59  1  0.57405200  0.34444700  0.91206800  1
  O  O60  1  0.46614600  0.66214900  0.92789000  1
  O  O61  1  0.19759000  0.44194200  0.89449700  1
  O  O62  1  0.30086500  0.15145600  0.94919300  1
