# generated using pymatgen
data_Li4Ti4Cr(Fe2O9)2
_symmetry_space_group_name_H-M   'P 1'
_cell_length_a   2.94463000
_cell_length_b   9.25280600
_cell_length_c   25.24874200
_cell_angle_alpha   90.00000000
_cell_angle_beta   90.00000000
_cell_angle_gamma   90.00000000
_symmetry_Int_Tables_number   1
_chemical_formula_structural   Li4Ti4Cr(Fe2O9)2
_chemical_formula_sum   'Li8 Ti8 Cr2 Fe8 O36'
_cell_volume   687.92950025
_cell_formula_units_Z   2
loop_
 _symmetry_equiv_pos_site_id
 _symmetry_equiv_pos_as_xyz
  1  'x, y, z'
loop_
 _atom_site_type_symbol
 _atom_site_label
 _atom_site_symmetry_multiplicity
 _atom_site_fract_x
 _atom_site_fract_y
 _atom_site_fract_z
 _atom_site_occupancy
  Li  Li0  1  0.00000000  0.19623700  0.98991600  1
  Li  Li1  1  0.00000000  0.19874300  0.18444100  1
  Li  Li2  1  0.00000000  0.30125700  0.68444100  1
  Li  Li3  1  0.00000000  0.30376300  0.48991600  1
  Li  Li4  1  0.00000000  0.69623700  0.51008400  1
  Li  Li5  1  0.00000000  0.69874300  0.31555900  1
  Li  Li6  1  0.00000000  0.80125700  0.81555900  1
  Li  Li7  1  0.00000000  0.80376300  0.01008400  1
  Ti  Ti8  1  0.00000000  0.99830300  0.09955500  1
  Ti  Ti9  1  0.50000000  0.15757600  0.80905700  1
  Ti  Ti10  1  0.50000000  0.34242400  0.30905700  1
  Ti  Ti11  1  0.00000000  0.50169700  0.59955500  1
  Ti  Ti12  1  0.00000000  0.49830300  0.40044500  1
  Ti  Ti13  1  0.50000000  0.65757600  0.69094300  1
  Ti  Ti14  1  0.50000000  0.84242400  0.19094300  1
  Ti  Ti15  1  0.00000000  0.00169700  0.90044500  1
  Cr  Cr16  1  0.00000000  0.00000000  0.50000000  1
  Cr  Cr17  1  0.00000000  0.50000000  0.00000000  1
  Fe  Fe18  1  0.00000000  0.99901900  0.30767200  1
  Fe  Fe19  1  0.50000000  0.15071400  0.58651100  1
  Fe  Fe20  1  0.50000000  0.34928600  0.08651100  1
  Fe  Fe21  1  0.00000000  0.50098100  0.80767200  1
  Fe  Fe22  1  0.00000000  0.49901900  0.19232800  1
  Fe  Fe23  1  0.50000000  0.65071400  0.91348900  1
  Fe  Fe24  1  0.50000000  0.84928600  0.41348900  1
  Fe  Fe25  1  0.00000000  0.00098100  0.69232800  1
  O  O26  1  0.00000000  0.99262500  0.42419400  1
  O  O27  1  0.00000000  0.00737500  0.57580600  1
  O  O28  1  0.50000000  0.06138100  0.94387400  1
  O  O29  1  0.50000000  0.04232800  0.15662300  1
  O  O30  1  0.50000000  0.13279700  0.66564100  1
  O  O31  1  0.00000000  0.10566000  0.75981200  1
  O  O32  1  0.50000000  0.14353500  0.50317200  1
  O  O33  1  0.50000000  0.13769100  0.29390700  1
  O  O34  1  0.00000000  0.18555800  0.85842400  1
  O  O35  1  0.00000000  0.19911500  0.08223500  1
  O  O36  1  0.00000000  0.30088500  0.58223500  1
  O  O37  1  0.00000000  0.31444200  0.35842400  1
  O  O38  1  0.50000000  0.36230900  0.79390700  1
  O  O39  1  0.50000000  0.35646500  0.00317200  1
  O  O40  1  0.00000000  0.39434000  0.25981200  1
  O  O41  1  0.50000000  0.36720300  0.16564100  1
  O  O42  1  0.50000000  0.45767200  0.65662300  1
  O  O43  1  0.50000000  0.43861900  0.44387400  1
  O  O44  1  0.00000000  0.49262500  0.07580600  1
  O  O45  1  0.00000000  0.50737500  0.92419400  1
  O  O46  1  0.50000000  0.56138100  0.55612600  1
  O  O47  1  0.50000000  0.54232800  0.34337700  1
  O  O48  1  0.50000000  0.63279700  0.83435900  1
  O  O49  1  0.00000000  0.60566000  0.74018800  1
  O  O50  1  0.50000000  0.64353500  0.99682800  1
  O  O51  1  0.50000000  0.63769100  0.20609300  1
  O  O52  1  0.00000000  0.68555800  0.64157600  1
  O  O53  1  0.00000000  0.69911500  0.41776500  1
  O  O54  1  0.00000000  0.80088500  0.91776500  1
  O  O55  1  0.00000000  0.81444200  0.14157600  1
  O  O56  1  0.50000000  0.86230900  0.70609300  1
  O  O57  1  0.50000000  0.85646500  0.49682800  1
  O  O58  1  0.00000000  0.89434000  0.24018800  1
  O  O59  1  0.50000000  0.86720300  0.33435900  1
  O  O60  1  0.50000000  0.95767200  0.84337700  1
  O  O61  1  0.50000000  0.93861900  0.05612600  1
