# generated using pymatgen
data_Li2MnF4
_symmetry_space_group_name_H-M   'P 1'
_cell_length_a   7.41473400
_cell_length_b   8.93550800
_cell_length_c   9.95782700
_cell_angle_alpha   90.00000000
_cell_angle_beta   90.00000000
_cell_angle_gamma   90.00000000
_symmetry_Int_Tables_number   1
_chemical_formula_structural   Li2MnF4
_chemical_formula_sum   'Li16 Mn8 F32'
_cell_volume   659.75000231
_cell_formula_units_Z   8
loop_
 _symmetry_equiv_pos_site_id
 _symmetry_equiv_pos_as_xyz
  1  'x, y, z'
loop_
 _atom_site_type_symbol
 _atom_site_label
 _atom_site_symmetry_multiplicity
 _atom_site_fract_x
 _atom_site_fract_y
 _atom_site_fract_z
 _atom_site_occupancy
  Li  Li0  1  0.81133100  0.25479200  0.09168000  1
  Li  Li1  1  0.21478700  0.25054300  0.10687300  1
  Li  Li2  1  0.78849200  0.92274700  0.13458400  1
  Li  Li3  1  0.26448400  0.92438000  0.15643100  1
  Li  Li4  1  0.76448400  0.42438000  0.34356900  1
  Li  Li5  1  0.28849200  0.42274700  0.36541600  1
  Li  Li6  1  0.71478700  0.75054300  0.39312700  1
  Li  Li7  1  0.31133100  0.75479200  0.40832000  1
  Li  Li8  1  0.68866900  0.25479200  0.59168000  1
  Li  Li9  1  0.28521300  0.25054300  0.60687300  1
  Li  Li10  1  0.71150800  0.92274700  0.63458400  1
  Li  Li11  1  0.23551600  0.92438000  0.65643100  1
  Li  Li12  1  0.73551600  0.42438000  0.84356900  1
  Li  Li13  1  0.21150800  0.42274700  0.86541600  1
  Li  Li14  1  0.78521300  0.75054300  0.89312700  1
  Li  Li15  1  0.18866900  0.75479200  0.90832000  1
  Mn  Mn16  1  0.48512500  0.57961400  0.11318600  1
  Mn  Mn17  1  0.99136200  0.64172400  0.19266000  1
  Mn  Mn18  1  0.49136200  0.14172400  0.30734000  1
  Mn  Mn19  1  0.98512500  0.07961400  0.38681400  1
  Mn  Mn20  1  0.01487500  0.57961400  0.61318600  1
  Mn  Mn21  1  0.50863800  0.64172400  0.69266000  1
  Mn  Mn22  1  0.00863800  0.14172400  0.80734000  1
  Mn  Mn23  1  0.51487500  0.07961400  0.88681400  1
  F  F24  1  0.01944700  0.18297000  0.01103200  1
  F  F25  1  0.28354300  0.43693000  0.04290100  1
  F  F26  1  0.34419000  0.76974200  0.05152800  1
  F  F27  1  0.39096600  0.09557300  0.08773700  1
  F  F28  1  0.86557500  0.43675200  0.17013300  1
  F  F29  1  0.02085700  0.89178400  0.22354700  1
  F  F30  1  0.74771000  0.10827000  0.22199800  1
  F  F31  1  0.69416700  0.72438200  0.20014400  1
  F  F32  1  0.19416700  0.22438200  0.29985600  1
  F  F33  1  0.24771000  0.60827000  0.27800200  1
  F  F34  1  0.52085700  0.39178400  0.27645300  1
  F  F35  1  0.36557500  0.93675200  0.32986700  1
  F  F36  1  0.89096600  0.59557300  0.41226300  1
  F  F37  1  0.84419000  0.26974200  0.44847200  1
  F  F38  1  0.78354300  0.93693000  0.45709900  1
  F  F39  1  0.51944700  0.68297000  0.48896800  1
  F  F40  1  0.48055300  0.18297000  0.51103200  1
  F  F41  1  0.21645700  0.43693000  0.54290100  1
  F  F42  1  0.15581000  0.76974200  0.55152800  1
  F  F43  1  0.10903400  0.09557300  0.58773700  1
  F  F44  1  0.63442500  0.43675200  0.67013300  1
  F  F45  1  0.47914300  0.89178400  0.72354700  1
  F  F46  1  0.75229000  0.10827000  0.72199800  1
  F  F47  1  0.80583300  0.72438200  0.70014400  1
  F  F48  1  0.30583300  0.22438200  0.79985600  1
  F  F49  1  0.25229000  0.60827000  0.77800200  1
  F  F50  1  0.97914300  0.39178400  0.77645300  1
  F  F51  1  0.13442500  0.93675200  0.82986700  1
  F  F52  1  0.60903400  0.59557300  0.91226300  1
  F  F53  1  0.65581000  0.26974200  0.94847200  1
  F  F54  1  0.71645700  0.93693000  0.95709900  1
  F  F55  1  0.98055300  0.68297000  0.98896800  1
