# generated using pymatgen
data_Li8Mn15CrO32
_symmetry_space_group_name_H-M   'P 1'
_cell_length_a   8.48051426
_cell_length_b   10.34473740
_cell_length_c   8.28059572
_cell_angle_alpha   66.83675145
_cell_angle_beta   89.46207780
_cell_angle_gamma   114.05516389
_symmetry_Int_Tables_number   1
_chemical_formula_structural   Li8Mn15CrO32
_chemical_formula_sum   'Li8 Mn15 Cr1 O32'
_cell_volume   597.28889464
_cell_formula_units_Z   1
loop_
 _symmetry_equiv_pos_site_id
 _symmetry_equiv_pos_as_xyz
  1  'x, y, z'
loop_
 _atom_site_type_symbol
 _atom_site_label
 _atom_site_symmetry_multiplicity
 _atom_site_fract_x
 _atom_site_fract_y
 _atom_site_fract_z
 _atom_site_occupancy
  Li  Li0  1  0.94099117  0.12274917  0.81529492  1
  Li  Li1  1  0.44303055  0.12253245  0.31518655  1
  Li  Li2  1  0.30921740  0.37734363  0.43577960  1
  Li  Li3  1  0.81071062  0.38129998  0.93552134  1
  Li  Li4  1  0.18794110  0.61373863  0.06646769  1
  Li  Li5  1  0.69002715  0.61979513  0.56348584  1
  Li  Li6  1  0.55873830  0.87730349  0.68586134  1
  Li  Li7  1  0.06188750  0.88330015  0.18112029  1
  Mn  Mn8  1  0.24990667  0.99945577  0.75356311  1
  Mn  Mn9  1  0.49618943  0.99805640  0.00086724  1
  Mn  Mn10  1  0.74986635  0.00293759  0.24814461  1
  Mn  Mn11  1  0.38813513  0.25940379  0.86873462  1
  Mn  Mn12  1  0.87861509  0.25243247  0.37460651  1
  Mn  Mn13  1  0.62744184  0.25529643  0.62464790  1
  Mn  Mn14  1  0.12514286  0.25056363  0.12613212  1
  Mn  Mn15  1  0.24936609  0.49724658  0.75102334  1
  Mn  Mn16  1  0.00134077  0.50211517  0.49567398  1
  Mn  Mn17  1  0.75590343  0.50292353  0.24776559  1
  Mn  Mn18  1  0.50191407  0.49742632  0.00043141  1
  Mn  Mn19  1  0.87257652  0.74738530  0.87476042  1
  Mn  Mn20  1  0.37245738  0.74259177  0.37602099  1
  Mn  Mn21  1  0.11768542  0.74514320  0.62664951  1
  Mn  Mn22  1  0.61596708  0.74261730  0.12879191  1
  Cr  Cr23  1  0.99818848  0.99935579  0.50171651  1
  O  O24  1  0.99287028  0.02162319  0.24749797  1
  O  O25  1  0.76864260  0.02037695  0.47813716  1
  O  O26  1  0.47972613  0.99895915  0.76917104  1
  O  O27  1  0.27303549  0.02753654  0.97744904  1
  O  O28  1  0.09888347  0.23502656  0.37780597  1
  O  O29  1  0.87877368  0.25516795  0.14625274  1
  O  O30  1  0.60990029  0.25071759  0.86037724  1
  O  O31  1  0.39525312  0.25684960  0.63828084  1
  O  O32  1  0.15874052  0.26761611  0.87303090  1
  O  O33  1  0.39168634  0.27168504  0.09893522  1
  O  O34  1  0.65340740  0.26594866  0.38241084  1
  O  O35  1  0.87465845  0.27204870  0.60564825  1
  O  O36  1  0.49915324  0.48653361  0.77498203  1
  O  O37  1  0.99749487  0.48009216  0.27643310  1
  O  O38  1  0.26510153  0.48303164  0.99564307  1
  O  O39  1  0.78243012  0.51097957  0.47275214  1
  O  O40  1  0.23797955  0.51323867  0.50580925  1
  O  O41  1  0.74059929  0.51696981  0.00469706  1
  O  O42  1  0.00458878  0.51984235  0.71884375  1
  O  O43  1  0.50749959  0.51643137  0.22289194  1
  O  O44  1  0.84912577  0.73966114  0.11326751  1
  O  O45  1  0.34528100  0.73248933  0.61979386  1
  O  O46  1  0.63055630  0.73371542  0.89450857  1
  O  O47  1  0.13552020  0.73629584  0.39119766  1
  O  O48  1  0.09535793  0.73824488  0.86210475  1
  O  O49  1  0.89464175  0.76036153  0.63261976  1
  O  O50  1  0.38949716  0.74472524  0.14382677  1
  O  O51  1  0.59841770  0.74013483  0.36222509  1
  O  O52  1  0.72479976  0.97362307  0.02538808  1
  O  O53  1  0.00278998  0.97526091  0.75566954  1
  O  O54  1  0.22702447  0.97510063  0.52592816  1
  O  O55  1  0.49922484  0.97293131  0.25092335  1
