# generated using pymatgen
data_Li2Cr3SbO8
_symmetry_space_group_name_H-M   'P 1'
_cell_length_a   5.96407400
_cell_length_b   9.66574152
_cell_length_c   5.95483993
_cell_angle_alpha   89.93543071
_cell_angle_beta   60.05108843
_cell_angle_gamma   89.96854043
_symmetry_Int_Tables_number   1
_chemical_formula_structural   Li2Cr3SbO8
_chemical_formula_sum   'Li4 Cr6 Sb2 O16'
_cell_volume   297.44179499
_cell_formula_units_Z   2
loop_
 _symmetry_equiv_pos_site_id
 _symmetry_equiv_pos_as_xyz
  1  'x, y, z'
loop_
 _atom_site_type_symbol
 _atom_site_label
 _atom_site_symmetry_multiplicity
 _atom_site_fract_x
 _atom_site_fract_y
 _atom_site_fract_z
 _atom_site_occupancy
  Li  Li0  1  0.33335700  0.90397400  0.33339500  1
  Li  Li1  1  0.66665700  0.40398700  0.66674700  1
  Li  Li2  1  0.00006900  0.99072200  0.99997300  1
  Li  Li3  1  0.99992800  0.49073600  0.00005200  1
  Cr  Cr4  1  0.17103600  0.21383500  0.65798500  1
  Cr  Cr5  1  0.83019200  0.71397400  0.34080200  1
  Cr  Cr6  1  0.34063000  0.71398500  0.83021300  1
  Cr  Cr7  1  0.65936600  0.21395500  0.17093200  1
  Cr  Cr8  1  0.16994300  0.21399800  0.17083200  1
  Cr  Cr9  1  0.82913400  0.71389300  0.82906700  1
  Sb  Sb10  1  0.33344400  0.48782400  0.33344200  1
  Sb  Sb11  1  0.66655000  0.98783500  0.66689300  1
  O  O12  1  0.33407000  0.10711000  0.33230400  1
  O  O13  1  0.66593300  0.60715400  0.66639700  1
  O  O14  1  0.99987800  0.30580500  0.99991400  1
  O  O15  1  0.00013400  0.80583000  0.99980800  1
  O  O16  1  0.66893200  0.59514000  0.16532800  1
  O  O17  1  0.16543700  0.59513200  0.16548600  1
  O  O18  1  0.83455500  0.09510800  0.33089700  1
  O  O19  1  0.16530100  0.59526000  0.66903600  1
  O  O20  1  0.83472500  0.09524200  0.83433600  1
  O  O21  1  0.33103800  0.09511400  0.83426700  1
  O  O22  1  0.48107500  0.34306900  0.03753900  1
  O  O23  1  0.48147600  0.34392400  0.48202800  1
  O  O24  1  0.03666500  0.34406100  0.48177100  1
  O  O25  1  0.96332700  0.84410400  0.51843100  1
  O  O26  1  0.51890400  0.84310800  0.51861800  1
  O  O27  1  0.51854000  0.84396000  0.96350400  1
