# generated using pymatgen
data_Li2Cu3F8
_symmetry_space_group_name_H-M   'P 1'
_cell_length_a   8.53190300
_cell_length_b   8.53190300
_cell_length_c   8.53190300
_cell_angle_alpha   90.00000000
_cell_angle_beta   90.00000000
_cell_angle_gamma   90.00000000
_symmetry_Int_Tables_number   1
_chemical_formula_structural   Li2Cu3F8
_chemical_formula_sum   'Li8 Cu12 F32'
_cell_volume   621.06596166
_cell_formula_units_Z   4
loop_
 _symmetry_equiv_pos_site_id
 _symmetry_equiv_pos_as_xyz
  1  'x, y, z'
loop_
 _atom_site_type_symbol
 _atom_site_label
 _atom_site_symmetry_multiplicity
 _atom_site_fract_x
 _atom_site_fract_y
 _atom_site_fract_z
 _atom_site_occupancy
  Li  Li0  1  0.00710100  0.49289900  0.50710100  1
  Li  Li1  1  0.24289900  0.74289900  0.75710100  1
  Li  Li2  1  0.25710100  0.25710100  0.25710100  1
  Li  Li3  1  0.49289900  0.50710100  0.00710100  1
  Li  Li4  1  0.50710100  0.00710100  0.49289900  1
  Li  Li5  1  0.74289900  0.75710100  0.24289900  1
  Li  Li6  1  0.75710100  0.24289900  0.74289900  1
  Li  Li7  1  0.99289900  0.99289900  0.99289900  1
  Cu  Cu8  1  0.10959100  0.62500000  0.14040900  1
  Cu  Cu9  1  0.12500000  0.35959100  0.89040900  1
  Cu  Cu10  1  0.14040900  0.10959100  0.62500000  1
  Cu  Cu11  1  0.35959100  0.89040900  0.12500000  1
  Cu  Cu12  1  0.37500000  0.64040900  0.39040900  1
  Cu  Cu13  1  0.39040900  0.37500000  0.64040900  1
  Cu  Cu14  1  0.60959100  0.87500000  0.85959100  1
  Cu  Cu15  1  0.62500000  0.14040900  0.10959100  1
  Cu  Cu16  1  0.64040900  0.39040900  0.37500000  1
  Cu  Cu17  1  0.85959100  0.60959100  0.87500000  1
  Cu  Cu18  1  0.87500000  0.85959100  0.60959100  1
  Cu  Cu19  1  0.89040900  0.12500000  0.35959100  1
  F  F20  1  0.10553800  0.87376900  0.63145600  1
  F  F21  1  0.11198800  0.61198800  0.88801200  1
  F  F22  1  0.11854400  0.12376900  0.85553800  1
  F  F23  1  0.12623100  0.13145600  0.39446200  1
  F  F24  1  0.12376900  0.85553800  0.11854400  1
  F  F25  1  0.13145600  0.39446200  0.12623100  1
  F  F26  1  0.13801200  0.36198800  0.63801200  1
  F  F27  1  0.14446200  0.61854400  0.37623100  1
  F  F28  1  0.35553800  0.38145600  0.87623100  1
  F  F29  1  0.36198800  0.63801200  0.13801200  1
  F  F30  1  0.36854400  0.60553800  0.62623100  1
  F  F31  1  0.37623100  0.14446200  0.61854400  1
  F  F32  1  0.37376900  0.86854400  0.89446200  1
  F  F33  1  0.38145600  0.87623100  0.35553800  1
  F  F34  1  0.38801200  0.38801200  0.38801200  1
  F  F35  1  0.39446200  0.12623100  0.13145600  1
  F  F36  1  0.60553800  0.62623100  0.36854400  1
  F  F37  1  0.61198800  0.88801200  0.11198800  1
  F  F38  1  0.61854400  0.37623100  0.14446200  1
  F  F39  1  0.62623100  0.36854400  0.60553800  1
  F  F40  1  0.62376900  0.64446200  0.88145600  1
  F  F41  1  0.63145600  0.10553800  0.87376900  1
  F  F42  1  0.63801200  0.13801200  0.36198800  1
  F  F43  1  0.64446200  0.88145600  0.62376900  1
  F  F44  1  0.85553800  0.11854400  0.12376900  1
  F  F45  1  0.86198800  0.86198800  0.86198800  1
  F  F46  1  0.86854400  0.89446200  0.37376900  1
  F  F47  1  0.87623100  0.35553800  0.38145600  1
  F  F48  1  0.87376900  0.63145600  0.10553800  1
  F  F49  1  0.88145600  0.62376900  0.64446200  1
  F  F50  1  0.88801200  0.11198800  0.61198800  1
  F  F51  1  0.89446200  0.37376900  0.86854400  1
