# generated using pymatgen
data_Li3Mn4(BO3)4
_symmetry_space_group_name_H-M   'P 1'
_cell_length_a   7.86344700
_cell_length_b   7.93174003
_cell_length_c   9.11004420
_cell_angle_alpha   110.33460653
_cell_angle_beta   109.26600667
_cell_angle_gamma   83.47645417
_symmetry_Int_Tables_number   1
_chemical_formula_structural   Li3Mn4(BO3)4
_chemical_formula_sum   'Li6 Mn8 B8 O24'
_cell_volume   502.95191043
_cell_formula_units_Z   2
loop_
 _symmetry_equiv_pos_site_id
 _symmetry_equiv_pos_as_xyz
  1  'x, y, z'
loop_
 _atom_site_type_symbol
 _atom_site_label
 _atom_site_symmetry_multiplicity
 _atom_site_fract_x
 _atom_site_fract_y
 _atom_site_fract_z
 _atom_site_occupancy
  Li  Li0  1  0.07666100  0.23325300  0.77519300  1
  Li  Li1  1  0.65799800  0.00105800  0.72133300  1
  Li  Li2  1  0.17383100  0.50976600  0.72369500  1
  Li  Li3  1  0.42139300  0.25755400  0.21844900  1
  Li  Li4  1  0.32711100  0.98827500  0.27648300  1
  Li  Li5  1  0.90925600  0.74966900  0.22529100  1
  Mn  Mn6  1  0.02450100  0.22199600  0.41233000  1
  Mn  Mn7  1  0.46173900  0.29415300  0.57777000  1
  Mn  Mn8  1  0.77276900  0.46646000  0.92259700  1
  Mn  Mn9  1  0.28961500  0.95584100  0.91184300  1
  Mn  Mn10  1  0.72147300  0.02686200  0.07553300  1
  Mn  Mn11  1  0.21359500  0.53972900  0.07985800  1
  Mn  Mn12  1  0.53770700  0.70295500  0.42607400  1
  Mn  Mn13  1  0.96835200  0.77947800  0.57432500  1
  B  B14  1  0.46007300  0.28398000  0.90770000  1
  B  B15  1  0.03733500  0.20235700  0.08092000  1
  B  B16  1  0.70152900  0.03161600  0.40326300  1
  B  B17  1  0.21077600  0.53982400  0.40698000  1
  B  B18  1  0.80651800  0.46964900  0.60723800  1
  B  B19  1  0.28272900  0.96680100  0.58372800  1
  B  B20  1  0.95484100  0.78418800  0.90491500  1
  B  B21  1  0.54807800  0.72879800  0.10660400  1
  O  O22  1  0.00929700  0.30839500  0.98186800  1
  O  O23  1  0.25349800  0.06902700  0.48018100  1
  O  O24  1  0.30963900  0.39070600  0.88126600  1
  O  O25  1  0.19269400  0.10336400  0.11260800  1
  O  O26  1  0.57763100  0.25876400  0.81507200  1
  O  O27  1  0.07559200  0.75240600  0.81356400  1
  O  O28  1  0.22848200  0.44614000  0.51506500  1
  O  O29  1  0.55508700  0.14214100  0.37963100  1
  O  O30  1  0.07788400  0.66490300  0.38729700  1
  O  O31  1  0.81658200  0.00360700  0.30629500  1
  O  O32  1  0.32912900  0.49880400  0.31250000  1
  O  O33  1  0.49121300  0.18747600  0.01567000  1
  O  O34  1  0.53282800  0.84747100  0.01749800  1
  O  O35  1  0.68302500  0.47595000  0.68683300  1
  O  O36  1  0.16088100  0.98649900  0.67575100  1
  O  O37  1  0.95242700  0.35641900  0.62269800  1
  O  O38  1  0.43153400  0.86266800  0.61062800  1
  O  O39  1  0.78242400  0.58491800  0.51569100  1
  O  O40  1  0.91136100  0.20820300  0.16357800  1
  O  O41  1  0.42114500  0.74677800  0.18847000  1
  O  O42  1  0.82189400  0.91031600  0.88894700  1
  O  O43  1  0.68437100  0.60813500  0.11768400  1
  O  O44  1  0.73762100  0.93853300  0.51462700  1
  O  O45  1  0.97302300  0.68400000  0.00918800  1
