# generated using pymatgen
data_Li8Ti7Nb6O30
_symmetry_space_group_name_H-M   'P 1'
_cell_length_a   5.19581184
_cell_length_b   5.19581184
_cell_length_c   24.34257300
_cell_angle_alpha   90.00000000
_cell_angle_beta   90.00000000
_cell_angle_gamma   119.99999796
_symmetry_Int_Tables_number   1
_chemical_formula_structural   Li8Ti7Nb6O30
_chemical_formula_sum   'Li8 Ti7 Nb6 O30'
_cell_volume   569.12013664
_cell_formula_units_Z   1
loop_
 _symmetry_equiv_pos_site_id
 _symmetry_equiv_pos_as_xyz
  1  'x, y, z'
loop_
 _atom_site_type_symbol
 _atom_site_label
 _atom_site_symmetry_multiplicity
 _atom_site_fract_x
 _atom_site_fract_y
 _atom_site_fract_z
 _atom_site_occupancy
  Li  Li0  1  0.66666700  0.33333300  0.07751000  1
  Li  Li1  1  0.66666700  0.33333300  0.37126600  1
  Li  Li2  1  0.66666700  0.33333300  0.63088300  1
  Li  Li3  1  0.66666700  0.33333300  0.92169900  1
  Li  Li4  1  0.00000000  0.00000000  0.79440700  1
  Li  Li5  1  0.00000000  0.00000000  0.52783200  1
  Li  Li6  1  0.33333300  0.66666700  0.20752500  1
  Li  Li7  1  0.33333300  0.66666700  0.47245800  1
  Ti  Ti8  1  0.00000000  0.00000000  0.29057100  1
  Ti  Ti9  1  0.00000000  0.00000000  0.89425200  1
  Ti  Ti10  1  0.00000000  0.00000000  0.01100400  1
  Ti  Ti11  1  0.00000000  0.00000000  0.69039500  1
  Ti  Ti12  1  0.33333300  0.66666700  0.98308800  1
  Ti  Ti13  1  0.33333300  0.66666700  0.71207800  1
  Ti  Ti14  1  0.33333300  0.66666700  0.31048700  1
  Nb  Nb15  1  0.00000000  0.00000000  0.40462200  1
  Nb  Nb16  1  0.66666700  0.33333300  0.20377000  1
  Nb  Nb17  1  0.66666700  0.33333300  0.50017300  1
  Nb  Nb18  1  0.66666700  0.33333300  0.80133100  1
  Nb  Nb19  1  0.33333300  0.66666700  0.10506500  1
  Nb  Nb20  1  0.33333300  0.66666700  0.59566400  1
  O  O21  1  0.58814400  0.00378900  0.15188100  1
  O  O22  1  0.67515900  0.96757700  0.34780200  1
  O  O23  1  0.67698300  0.00051900  0.74601600  1
  O  O24  1  0.95977000  0.29268200  0.45084700  1
  O  O25  1  0.64883100  0.69606200  0.04551600  1
  O  O26  1  0.04723000  0.35116900  0.04551600  1
  O  O27  1  0.70731800  0.66708700  0.45084700  1
  O  O28  1  0.99948100  0.67646400  0.74601600  1
  O  O29  1  0.29241800  0.32484100  0.34780200  1
  O  O30  1  0.99621100  0.58435500  0.15188100  1
  O  O31  1  0.32353600  0.32301700  0.74601600  1
  O  O32  1  0.03242300  0.70758200  0.34780200  1
  O  O33  1  0.00149900  0.62663900  0.54929500  1
  O  O34  1  0.41564500  0.41185600  0.15188100  1
  O  O35  1  0.03110300  0.71671500  0.95131400  1
  O  O36  1  0.30393800  0.95277000  0.04551600  1
  O  O37  1  0.91640200  0.24893200  0.84831500  1
  O  O38  1  0.33291300  0.04023000  0.45084700  1
  O  O39  1  0.29762700  0.95529600  0.65266200  1
  O  O40  1  0.01017300  0.34592500  0.25432400  1
  O  O41  1  0.33253000  0.08359800  0.84831500  1
  O  O42  1  0.04470400  0.34233200  0.65266200  1
  O  O43  1  0.33575200  0.98982700  0.25432400  1
  O  O44  1  0.62514000  0.99850100  0.54929500  1
  O  O45  1  0.28328500  0.31438800  0.95131400  1
  O  O46  1  0.68561200  0.96889700  0.95131400  1
  O  O47  1  0.37336100  0.37486000  0.54929500  1
  O  O48  1  0.65407500  0.66424800  0.25432400  1
  O  O49  1  0.65766800  0.70237300  0.65266200  1
  O  O50  1  0.75106800  0.66747000  0.84831500  1
