# generated using pymatgen
data_LiV(PO3)4
_symmetry_space_group_name_H-M   'P 1'
_cell_length_a   8.58601700
_cell_length_b   7.50825300
_cell_length_c   15.59486348
_cell_angle_alpha   67.20241780
_cell_angle_beta   90.00000000
_cell_angle_gamma   90.00000000
_symmetry_Int_Tables_number   1
_chemical_formula_structural   LiV(PO3)4
_chemical_formula_sum   'Li4 V4 P16 O48'
_cell_volume   926.80075463
_cell_formula_units_Z   4
loop_
 _symmetry_equiv_pos_site_id
 _symmetry_equiv_pos_as_xyz
  1  'x, y, z'
loop_
 _atom_site_type_symbol
 _atom_site_label
 _atom_site_symmetry_multiplicity
 _atom_site_fract_x
 _atom_site_fract_y
 _atom_site_fract_z
 _atom_site_occupancy
  Li  Li0  1  0.58536700  0.86469700  0.07437200  1
  Li  Li1  1  0.08536700  0.13530300  0.42562800  1
  Li  Li2  1  0.91463300  0.86469700  0.57437200  1
  Li  Li3  1  0.41463300  0.13530300  0.92562800  1
  V  V4  1  0.65884500  0.31193800  0.64798500  1
  V  V5  1  0.84115500  0.31193800  0.14798500  1
  V  V6  1  0.15884500  0.68806200  0.85201500  1
  V  V7  1  0.34115500  0.68806200  0.35201500  1
  P  P8  1  0.27762700  0.36531500  0.56887800  1
  P  P9  1  0.04751100  0.64560000  0.21668200  1
  P  P10  1  0.23240200  0.76717900  0.04436300  1
  P  P11  1  0.03259400  0.10337700  0.69075300  1
  P  P12  1  0.73240200  0.23282100  0.45563700  1
  P  P13  1  0.54751100  0.35440000  0.28331800  1
  P  P14  1  0.53259400  0.89662300  0.80924700  1
  P  P15  1  0.22237300  0.36531500  0.06887800  1
  P  P16  1  0.77762700  0.63468500  0.93112200  1
  P  P17  1  0.46740600  0.10337700  0.19075300  1
  P  P18  1  0.45248900  0.64560000  0.71668200  1
  P  P19  1  0.26759800  0.76717900  0.54436300  1
  P  P20  1  0.96740600  0.89662300  0.30924700  1
  P  P21  1  0.76759800  0.23282100  0.95563700  1
  P  P22  1  0.95248900  0.35440000  0.78331800  1
  P  P23  1  0.72237300  0.63468500  0.43112200  1
  O  O24  1  0.37322600  0.89279500  0.03331800  1
  O  O25  1  0.12290500  0.79692700  0.12135000  1
  O  O26  1  0.06955800  0.20742800  0.76196100  1
  O  O27  1  0.29025700  0.43033000  0.46473700  1
  O  O28  1  0.16459100  0.57187500  0.29460200  1
  O  O29  1  0.78500300  0.45554300  0.40567000  1
  O  O30  1  0.41157400  0.26767700  0.62988300  1
  O  O31  1  0.45605900  0.50381700  0.30143300  1
  O  O32  1  0.12395000  0.23436600  0.59645400  1
  O  O33  1  0.60888400  0.09140000  0.77273100  1
  O  O34  1  0.95605900  0.49618300  0.19856700  1
  O  O35  1  0.86379300  0.11385100  0.66405500  1
  O  O36  1  0.63879700  0.20448100  0.54130900  1
  O  O37  1  0.28500300  0.54445700  0.09433000  1
  O  O38  1  0.66459100  0.42812500  0.20539800  1
  O  O39  1  0.79025700  0.56967000  0.03526300  1
  O  O40  1  0.13879700  0.79551900  0.95869100  1
  O  O41  1  0.36379300  0.88614900  0.83594500  1
  O  O42  1  0.62290500  0.20307300  0.37865000  1
  O  O43  1  0.10888400  0.90860000  0.72726900  1
  O  O44  1  0.87322600  0.10720500  0.46668200  1
  O  O45  1  0.62395000  0.76563400  0.90354600  1
  O  O46  1  0.43044200  0.20742800  0.26196100  1
  O  O47  1  0.91157400  0.73232300  0.87011700  1
  O  O48  1  0.08842600  0.26767700  0.12988300  1
  O  O49  1  0.56955800  0.79257200  0.73803900  1
  O  O50  1  0.37605000  0.23436600  0.09645400  1
  O  O51  1  0.12677400  0.89279500  0.53331800  1
  O  O52  1  0.89111600  0.09140000  0.27273100  1
  O  O53  1  0.37709500  0.79692700  0.62135000  1
  O  O54  1  0.63620700  0.11385100  0.16405500  1
  O  O55  1  0.86120300  0.20448100  0.04130900  1
  O  O56  1  0.20974300  0.43033000  0.96473700  1
  O  O57  1  0.33540900  0.57187500  0.79460200  1
  O  O58  1  0.71499700  0.45554300  0.90567000  1
  O  O59  1  0.36120300  0.79551900  0.45869100  1
  O  O60  1  0.13620700  0.88614900  0.33594500  1
  O  O61  1  0.04394100  0.50381700  0.80143300  1
  O  O62  1  0.39111600  0.90860000  0.22726900  1
  O  O63  1  0.87605000  0.76563400  0.40354600  1
  O  O64  1  0.54394100  0.49618300  0.69856700  1
  O  O65  1  0.58842600  0.73232300  0.37011700  1
  O  O66  1  0.21499700  0.54445700  0.59433000  1
  O  O67  1  0.83540900  0.42812500  0.70539800  1
  O  O68  1  0.70974300  0.56967000  0.53526300  1
  O  O69  1  0.93044200  0.79257200  0.23803900  1
  O  O70  1  0.87709500  0.20307300  0.87865000  1
  O  O71  1  0.62677400  0.10720500  0.96668200  1
