# generated using pymatgen
data_Li3VCr4O8
_symmetry_space_group_name_H-M   'P 1'
_cell_length_a   6.02354314
_cell_length_b   6.02354314
_cell_length_c   5.97762795
_cell_angle_alpha   61.74635251
_cell_angle_beta   61.74635251
_cell_angle_gamma   59.15412125
_symmetry_Int_Tables_number   1
_chemical_formula_structural   Li3VCr4O8
_chemical_formula_sum   'Li3 V1 Cr4 O8'
_cell_volume   156.20786028
_cell_formula_units_Z   1
loop_
 _symmetry_equiv_pos_site_id
 _symmetry_equiv_pos_as_xyz
  1  'x, y, z'
loop_
 _atom_site_type_symbol
 _atom_site_label
 _atom_site_symmetry_multiplicity
 _atom_site_fract_x
 _atom_site_fract_y
 _atom_site_fract_z
 _atom_site_occupancy
  Li  Li0  1  0.00000000  0.50000000  0.00000000  1
  Li  Li1  1  0.00000000  0.00000000  0.50000000  1
  Li  Li2  1  0.50000000  0.00000000  0.00000000  1
  V  V3  1  0.50000000  0.50000000  0.00000000  1
  Cr  Cr4  1  0.50000000  0.50000000  0.50000000  1
  Cr  Cr5  1  0.00000000  0.00000000  0.00000000  1
  Cr  Cr6  1  0.00000000  0.50000000  0.50000000  1
  Cr  Cr7  1  0.50000000  0.00000000  0.50000000  1
  O  O8  1  0.25456000  0.25456000  0.26554600  1
  O  O9  1  0.26864700  0.76299300  0.73086700  1
  O  O10  1  0.76299300  0.26864700  0.73086700  1
  O  O11  1  0.73537900  0.73537900  0.27969300  1
  O  O12  1  0.26462100  0.26462100  0.72030700  1
  O  O13  1  0.23700700  0.73135300  0.26913300  1
  O  O14  1  0.73135300  0.23700700  0.26913300  1
  O  O15  1  0.74544000  0.74544000  0.73445400  1
