# generated using pymatgen
data_LiVF4
_symmetry_space_group_name_H-M   'P 1'
_cell_length_a   7.87771100
_cell_length_b   7.98148487
_cell_length_c   7.98276922
_cell_angle_alpha   97.00011571
_cell_angle_beta   97.95846584
_cell_angle_gamma   97.84519494
_symmetry_Int_Tables_number   1
_chemical_formula_structural   LiVF4
_chemical_formula_sum   'Li6 V6 F24'
_cell_volume   487.34128339
_cell_formula_units_Z   6
loop_
 _symmetry_equiv_pos_site_id
 _symmetry_equiv_pos_as_xyz
  1  'x, y, z'
loop_
 _atom_site_type_symbol
 _atom_site_label
 _atom_site_symmetry_multiplicity
 _atom_site_fract_x
 _atom_site_fract_y
 _atom_site_fract_z
 _atom_site_occupancy
  Li  Li0  1  0.49056200  0.23597900  0.57255600  1
  Li  Li1  1  0.76231500  0.44160600  0.52397700  1
  Li  Li2  1  0.40267000  0.51848400  0.73450300  1
  Li  Li3  1  0.56462700  0.47843700  0.23641000  1
  Li  Li4  1  0.50108900  0.74930200  0.43503200  1
  Li  Li5  1  0.10422500  0.82865200  0.26987600  1
  V  V6  1  0.45154500  0.08292400  0.17341000  1
  V  V7  1  0.08147400  0.18332400  0.44672400  1
  V  V8  1  0.82190000  0.55115800  0.91308700  1
  V  V9  1  0.17605500  0.44358200  0.08512100  1
  V  V10  1  0.91871900  0.83050200  0.56201600  1
  V  V11  1  0.55919800  0.91838600  0.83062400  1
  F  F12  1  0.45878800  0.07607200  0.70897700  1
  F  F13  1  0.08531300  0.03771200  0.64622700  1
  F  F14  1  0.24722500  0.05149600  0.31701300  1
  F  F15  1  0.65088000  0.08825700  0.03411700  1
  F  F16  1  0.96507400  0.36402400  0.90962000  1
  F  F17  1  0.91168100  0.29268000  0.53807600  1
  F  F18  1  0.56483500  0.27921100  0.35731000  1
  F  F19  1  0.33699200  0.26024100  0.07102600  1
  F  F20  1  0.63545600  0.43587900  0.71572000  1
  F  F21  1  0.28609700  0.33514900  0.56412600  1
  F  F22  1  0.06309500  0.32221500  0.25251200  1
  F  F23  1  0.70848800  0.46442700  0.08341300  1
  F  F24  1  0.29541900  0.53878600  0.92207400  1
  F  F25  1  0.93282600  0.67126700  0.74487500  1
  F  F26  1  0.71977300  0.64794300  0.43896300  1
  F  F27  1  0.36066100  0.56619000  0.26817700  1
  F  F28  1  0.68214300  0.74297800  0.93713400  1
  F  F29  1  0.44541800  0.72953400  0.65500300  1
  F  F30  1  0.08182400  0.71790100  0.45974700  1
  F  F31  1  0.03672400  0.64775200  0.09544900  1
  F  F32  1  0.35729700  0.91185600  0.97618000  1
  F  F33  1  0.74434800  0.93791900  0.67236200  1
  F  F34  1  0.92544400  0.96355300  0.35009200  1
  F  F35  1  0.54035900  0.92396900  0.30458900  1
