# generated using pymatgen
data_Li3V3P8O29
_symmetry_space_group_name_H-M   'P 1'
_cell_length_a   9.77326866
_cell_length_b   9.77326866
_cell_length_c   13.89416506
_cell_angle_alpha   89.99537616
_cell_angle_beta   89.99537616
_cell_angle_gamma   59.88680230
_symmetry_Int_Tables_number   1
_chemical_formula_structural   Li3V3P8O29
_chemical_formula_sum   'Li6 V6 P16 O58'
_cell_volume   1148.01152267
_cell_formula_units_Z   2
loop_
 _symmetry_equiv_pos_site_id
 _symmetry_equiv_pos_as_xyz
  1  'x, y, z'
loop_
 _atom_site_type_symbol
 _atom_site_label
 _atom_site_symmetry_multiplicity
 _atom_site_fract_x
 _atom_site_fract_y
 _atom_site_fract_z
 _atom_site_occupancy
  Li  Li0  1  0.32198700  0.90987500  0.56060500  1
  Li  Li1  1  0.31638900  0.77519300  0.05737100  1
  Li  Li2  1  0.90987500  0.32198700  0.06060500  1
  Li  Li3  1  0.22441500  0.67837200  0.44204400  1
  Li  Li4  1  0.77519300  0.31638900  0.55737100  1
  Li  Li5  1  0.67837200  0.22441500  0.94204400  1
  V  V6  1  0.43440900  0.56649700  0.24859100  1
  V  V7  1  0.56649700  0.43440900  0.74859100  1
  V  V8  1  0.99737100  0.56892100  0.75020300  1
  V  V9  1  0.00614200  0.43362000  0.25456000  1
  V  V10  1  0.56892100  0.99737100  0.25020300  1
  V  V11  1  0.43362000  0.00614200  0.75456000  1
  P  P12  1  0.77305800  0.91421300  0.84294200  1
  P  P13  1  0.91421300  0.77305800  0.34294200  1
  P  P14  1  0.31586200  0.91410500  0.34405300  1
  P  P15  1  0.66858000  0.66534000  0.12726800  1
  P  P16  1  0.66534000  0.66858000  0.62726800  1
  P  P17  1  0.31658600  0.77254300  0.84225300  1
  P  P18  1  0.22672800  0.68362900  0.65936400  1
  P  P19  1  0.91410500  0.31586200  0.84405300  1
  P  P20  1  0.08247600  0.68749800  0.15408300  1
  P  P21  1  0.77254300  0.31658600  0.34225300  1
  P  P22  1  0.68362900  0.22672800  0.15936400  1
  P  P23  1  0.33706100  0.33213800  0.37325400  1
  P  P24  1  0.33213800  0.33706100  0.87325400  1
  P  P25  1  0.68749800  0.08247600  0.65408300  1
  P  P26  1  0.08605700  0.22972600  0.65760300  1
  P  P27  1  0.22972600  0.08605700  0.15760300  1
  O  O28  1  0.76433000  0.00010100  0.56445800  1
  O  O29  1  0.74355800  0.91389300  0.33583600  1
  O  O30  1  0.00010100  0.76433000  0.06445800  1
  O  O31  1  0.91389300  0.74355800  0.83583600  1
  O  O32  1  0.61792300  0.90621500  0.82418800  1
  O  O33  1  0.66560500  0.81375100  0.17363100  1
  O  O34  1  0.47696300  0.90479200  0.32359000  1
  O  O35  1  0.23899400  0.99364800  0.07092000  1
  O  O36  1  0.34316300  0.91486000  0.83356900  1
  O  O37  1  0.81375100  0.66560500  0.67363100  1
  O  O38  1  0.90621500  0.61792300  0.32418800  1
  O  O39  1  0.51338300  0.81649400  0.66787100  1
  O  O40  1  0.65913600  0.66582200  0.02046700  1
  O  O41  1  0.66582200  0.65913600  0.52046700  1
  O  O42  1  0.51259500  0.66931400  0.17016400  1
  O  O43  1  0.90479200  0.47696300  0.82359000  1
  O  O44  1  0.81649400  0.51338300  0.16787100  1
  O  O45  1  0.33896100  0.74353900  0.33845400  1
  O  O46  1  0.20547400  0.79437100  0.75038100  1
  O  O47  1  0.24392900  0.75629700  0.56862300  1
  O  O48  1  0.24712100  0.75887500  0.93372900  1
  O  O49  1  0.47718900  0.61759500  0.82068300  1
  O  O50  1  0.66931400  0.51259500  0.67016400  1
  O  O51  1  0.25582700  0.65952700  0.16217800  1
  O  O52  1  0.61759500  0.47718900  0.32068300  1
  O  O53  1  0.91486000  0.34316300  0.33356900  1
  O  O54  1  0.00062500  0.79292900  0.24955800  1
  O  O55  1  0.00490300  0.75936700  0.43110000  1
  O  O56  1  0.99364800  0.23899400  0.57092000  1
  O  O57  1  0.08400200  0.65880700  0.66324400  1
  O  O58  1  0.38123600  0.52214400  0.67755200  1
  O  O59  1  0.74353900  0.33896100  0.83845400  1
  O  O60  1  0.33157500  0.48655400  0.33089500  1
  O  O61  1  0.52214400  0.38123600  0.17755200  1
  O  O62  1  0.75629700  0.24392900  0.06862300  1
  O  O63  1  0.75887500  0.24712100  0.43372900  1
  O  O64  1  0.79437100  0.20547400  0.25038100  1
  O  O65  1  0.65952700  0.25582700  0.66217800  1
  O  O66  1  0.18470100  0.48131500  0.82695900  1
  O  O67  1  0.09256900  0.52512500  0.17755500  1
  O  O68  1  0.48655400  0.33157500  0.83089500  1
  O  O69  1  0.33897200  0.33070700  0.97976300  1
  O  O70  1  0.33070700  0.33897200  0.47976300  1
  O  O71  1  0.48131500  0.18470100  0.32695900  1
  O  O72  1  0.09348600  0.38277600  0.67675100  1
  O  O73  1  0.18600700  0.33344300  0.32765400  1
  O  O74  1  0.65880700  0.08400200  0.16324400  1
  O  O75  1  0.79292900  0.00062500  0.74955800  1
  O  O76  1  0.75936700  0.00490300  0.93110000  1
  O  O77  1  0.52512500  0.09256900  0.67755500  1
  O  O78  1  0.33344300  0.18600700  0.82765400  1
  O  O79  1  0.38277600  0.09348600  0.17675100  1
  O  O80  1  0.08397900  0.25578200  0.16021900  1
  O  O81  1  0.99245600  0.24495500  0.93661700  1
  O  O82  1  0.00423400  0.20514500  0.75350100  1
  O  O83  1  0.25578200  0.08397900  0.66021900  1
  O  O84  1  0.24495500  0.99245600  0.43661700  1
  O  O85  1  0.20514500  0.00423400  0.25350100  1
