# generated using pymatgen
data_Li3Fe(PO4)2
_symmetry_space_group_name_H-M   'P 1'
_cell_length_a   9.92432700
_cell_length_b   8.58348800
_cell_length_c   16.48282546
_cell_angle_alpha   64.46916774
_cell_angle_beta   90.00000000
_cell_angle_gamma   90.00000000
_symmetry_Int_Tables_number   1
_chemical_formula_structural   Li3Fe(PO4)2
_chemical_formula_sum   'Li24 Fe8 P16 O64'
_cell_volume   1266.99012438
_cell_formula_units_Z   8
loop_
 _symmetry_equiv_pos_site_id
 _symmetry_equiv_pos_as_xyz
  1  'x, y, z'
loop_
 _atom_site_type_symbol
 _atom_site_label
 _atom_site_symmetry_multiplicity
 _atom_site_fract_x
 _atom_site_fract_y
 _atom_site_fract_z
 _atom_site_occupancy
  Li  Li0  1  0.40522500  0.97719900  0.44968300  1
  Li  Li1  1  0.88908400  0.62172600  0.79203400  1
  Li  Li2  1  0.61709600  0.60477100  0.72191700  1
  Li  Li3  1  0.08395700  0.28042600  0.01024800  1
  Li  Li4  1  0.12476800  0.02922000  0.24870400  1
  Li  Li5  1  0.58149700  0.24838000  0.99982300  1
  Li  Li6  1  0.08149700  0.75162000  0.50017700  1
  Li  Li7  1  0.62476800  0.97078000  0.25129600  1
  Li  Li8  1  0.58395700  0.71957400  0.48975200  1
  Li  Li9  1  0.11709600  0.39522900  0.77808300  1
  Li  Li10  1  0.38908400  0.37827400  0.70796600  1
  Li  Li11  1  0.90522500  0.02280100  0.05031700  1
  Li  Li12  1  0.09477500  0.97719900  0.94968300  1
  Li  Li13  1  0.61091600  0.62172600  0.29203400  1
  Li  Li14  1  0.88290400  0.60477100  0.22191700  1
  Li  Li15  1  0.41604300  0.28042600  0.51024800  1
  Li  Li16  1  0.37523200  0.02922000  0.74870400  1
  Li  Li17  1  0.91850300  0.24838000  0.49982300  1
  Li  Li18  1  0.41850300  0.75162000  0.00017700  1
  Li  Li19  1  0.87523200  0.97078000  0.75129600  1
  Li  Li20  1  0.91604300  0.71957400  0.98975200  1
  Li  Li21  1  0.38290400  0.39522900  0.27808300  1
  Li  Li22  1  0.11091600  0.37827400  0.20796600  1
  Li  Li23  1  0.59477500  0.02280100  0.55031700  1
  Fe  Fe24  1  0.86749600  0.03304100  0.37896300  1
  Fe  Fe25  1  0.37860500  0.56592200  0.86176000  1
  Fe  Fe26  1  0.87860500  0.43407800  0.63824000  1
  Fe  Fe27  1  0.36749600  0.96695900  0.12103700  1
  Fe  Fe28  1  0.63250400  0.03304100  0.87896300  1
  Fe  Fe29  1  0.12139500  0.56592200  0.36176000  1
  Fe  Fe30  1  0.62139500  0.43407800  0.13824000  1
  Fe  Fe31  1  0.13250400  0.96695900  0.62103700  1
  P  P32  1  0.85486500  0.25347600  0.15798400  1
  P  P33  1  0.35304100  0.77887300  0.63885700  1
  P  P34  1  0.83774300  0.82921500  0.60031000  1
  P  P35  1  0.33582500  0.37137200  0.08543800  1
  P  P36  1  0.83582500  0.62862800  0.41456200  1
  P  P37  1  0.33774300  0.17078500  0.89969000  1
  P  P38  1  0.85304100  0.22112700  0.86114300  1
  P  P39  1  0.35486500  0.74652400  0.34201600  1
  P  P40  1  0.64513500  0.25347600  0.65798400  1
  P  P41  1  0.14695900  0.77887300  0.13885700  1
  P  P42  1  0.66225700  0.82921500  0.10031000  1
  P  P43  1  0.16417500  0.37137200  0.58543800  1
  P  P44  1  0.66417500  0.62862800  0.91456200  1
  P  P45  1  0.16225700  0.17078500  0.39969000  1
  P  P46  1  0.64695900  0.22112700  0.36114300  1
  P  P47  1  0.14513500  0.74652400  0.84201600  1
  O  O48  1  0.05830600  0.02283600  0.41744200  1
  O  O49  1  0.57943800  0.59941000  0.84227500  1
  O  O50  1  0.76907900  0.77691900  0.69234200  1
  O  O51  1  0.18664000  0.34177700  0.10936300  1
  O  O52  1  0.35880600  0.52911800  0.99272800  1
  O  O53  1  0.93428500  0.15004900  0.24932700  1
  O  O54  1  0.73697800  0.89173500  0.52195200  1
  O  O55  1  0.66867400  0.06161400  0.33965000  1
  O  O56  1  0.15180600  0.55181900  0.85819800  1
  O  O57  1  0.38658400  0.60759700  0.72429800  1
  O  O58  1  0.92250900  0.21666200  0.08538400  1
  O  O59  1  0.70214400  0.20011800  0.16631400  1
  O  O60  1  0.47012600  0.81633100  0.57271700  1
  O  O61  1  0.21007700  0.76309100  0.60218600  1
  O  O62  1  0.92155200  0.67400200  0.60294100  1
  O  O63  1  0.40156300  0.20810100  0.08388600  1
  O  O64  1  0.90156300  0.79189900  0.41611400  1
  O  O65  1  0.42155200  0.32599800  0.89705900  1
  O  O66  1  0.71007700  0.23690900  0.89781400  1
  O  O67  1  0.20214400  0.79988200  0.33368600  1
  O  O68  1  0.97012600  0.18366900  0.92728300  1
  O  O69  1  0.42250900  0.78333800  0.41461600  1
  O  O70  1  0.88658400  0.39240300  0.77570200  1
  O  O71  1  0.65180600  0.44818100  0.64180200  1
  O  O72  1  0.16867400  0.93838600  0.16035000  1
  O  O73  1  0.23697800  0.10826500  0.97804800  1
  O  O74  1  0.43428500  0.84995100  0.25067300  1
  O  O75  1  0.68664000  0.65822300  0.39063700  1
  O  O76  1  0.85880600  0.47088200  0.50727200  1
  O  O77  1  0.26907900  0.22308100  0.80765800  1
  O  O78  1  0.55830600  0.97716400  0.08255800  1
  O  O79  1  0.07943800  0.40059000  0.65772500  1
  O  O80  1  0.92056200  0.59941000  0.34227500  1
  O  O81  1  0.44169400  0.02283600  0.91744200  1
  O  O82  1  0.73092100  0.77691900  0.19234200  1
  O  O83  1  0.14119400  0.52911800  0.49272800  1
  O  O84  1  0.31336000  0.34177700  0.60936300  1
  O  O85  1  0.56571500  0.15004900  0.74932700  1
  O  O86  1  0.76302200  0.89173500  0.02195200  1
  O  O87  1  0.83132600  0.06161400  0.83965000  1
  O  O88  1  0.34819400  0.55181900  0.35819800  1
  O  O89  1  0.11341600  0.60759700  0.22429800  1
  O  O90  1  0.57749100  0.21666200  0.58538400  1
  O  O91  1  0.02987400  0.81633100  0.07271700  1
  O  O92  1  0.79785600  0.20011800  0.66631400  1
  O  O93  1  0.28992300  0.76309100  0.10218600  1
  O  O94  1  0.57844800  0.67400200  0.10294100  1
  O  O95  1  0.09843700  0.20810100  0.58388600  1
  O  O96  1  0.59843700  0.79189900  0.91611400  1
  O  O97  1  0.07844800  0.32599800  0.39705900  1
  O  O98  1  0.78992300  0.23690900  0.39781400  1
  O  O99  1  0.52987400  0.18366900  0.42728300  1
  O  O100  1  0.29785600  0.79988200  0.83368600  1
  O  O101  1  0.07749100  0.78333800  0.91461600  1
  O  O102  1  0.61341600  0.39240300  0.27570200  1
  O  O103  1  0.84819400  0.44818100  0.14180200  1
  O  O104  1  0.33132600  0.93838600  0.66035000  1
  O  O105  1  0.26302200  0.10826500  0.47804800  1
  O  O106  1  0.06571500  0.84995100  0.75067300  1
  O  O107  1  0.64119400  0.47088200  0.00727200  1
  O  O108  1  0.81336000  0.65822300  0.89063700  1
  O  O109  1  0.23092100  0.22308100  0.30765800  1
  O  O110  1  0.42056200  0.40059000  0.15772500  1
  O  O111  1  0.94169400  0.97716400  0.58255800  1
