# generated using pymatgen
data_Li8Mn7Fe(BO3)8
_symmetry_space_group_name_H-M   'P 1'
_cell_length_a   5.24491500
_cell_length_b   5.25063184
_cell_length_c   21.00507898
_cell_angle_alpha   91.04202702
_cell_angle_beta   90.95477841
_cell_angle_gamma   119.80225972
_symmetry_Int_Tables_number   1
_chemical_formula_structural   Li8Mn7Fe(BO3)8
_chemical_formula_sum   'Li8 Mn7 Fe1 B8 O24'
_cell_volume   501.65415457
_cell_formula_units_Z   1
loop_
 _symmetry_equiv_pos_site_id
 _symmetry_equiv_pos_as_xyz
  1  'x, y, z'
loop_
 _atom_site_type_symbol
 _atom_site_label
 _atom_site_symmetry_multiplicity
 _atom_site_fract_x
 _atom_site_fract_y
 _atom_site_fract_z
 _atom_site_occupancy
  Li  Li0  1  0.34835300  0.32197200  0.66591100  1
  Li  Li1  1  0.32091100  0.34869300  0.91589000  1
  Li  Li2  1  0.34910600  0.32101600  0.16607600  1
  Li  Li3  1  0.32111500  0.34912500  0.41609300  1
  Li  Li4  1  0.66176300  0.65311200  0.79154300  1
  Li  Li5  1  0.65084700  0.66196600  0.54133400  1
  Li  Li6  1  0.66180900  0.65146900  0.29116200  1
  Li  Li7  1  0.65137600  0.66180400  0.04117200  1
  Mn  Mn8  1  0.99329200  0.32617700  0.55913800  1
  Mn  Mn9  1  0.99626400  0.32942600  0.05845300  1
  Mn  Mn10  1  0.99748900  0.67683800  0.93336600  1
  Mn  Mn11  1  0.99756400  0.67666300  0.43370900  1
  Mn  Mn12  1  0.67703500  0.99726000  0.18347500  1
  Mn  Mn13  1  0.33058600  0.99582100  0.80756000  1
  Mn  Mn14  1  0.32903000  0.99621100  0.30847700  1
  Fe  Fe15  1  0.68183300  0.99446800  0.68380200  1
  B  B16  1  0.65839700  0.00283000  0.93700700  1
  B  B17  1  0.65852400  0.00290700  0.43712200  1
  B  B18  1  0.99627400  0.33430800  0.81143600  1
  B  B19  1  0.99562500  0.33442100  0.31209700  1
  B  B20  1  0.00364900  0.66140900  0.68685200  1
  B  B21  1  0.00259100  0.65852100  0.18710000  1
  B  B22  1  0.33374900  0.99417900  0.56290600  1
  B  B23  1  0.33439400  0.99542800  0.06208500  1
  O  O24  1  0.75351800  0.07065600  0.79028700  1
  O  O25  1  0.75267000  0.06998000  0.29097500  1
  O  O26  1  0.92996300  0.25368600  0.95209400  1
  O  O27  1  0.42079600  0.03313300  0.91628400  1
  O  O28  1  0.92989500  0.25352900  0.45226700  1
  O  O29  1  0.42076400  0.03328300  0.41644300  1
  O  O30  1  0.96313600  0.57790600  0.82679500  1
  O  O31  1  0.35768800  0.26797100  0.56986200  1
  O  O32  1  0.96217400  0.57775100  0.32736100  1
  O  O33  1  0.35886200  0.26906100  0.06941800  1
  O  O34  1  0.26955400  0.35809500  0.81906400  1
  O  O35  1  0.26917400  0.35882900  0.31946700  1
  O  O36  1  0.73030100  0.64065200  0.69373200  1
  O  O37  1  0.72775300  0.62914800  0.19435700  1
  O  O38  1  0.62929100  0.72797600  0.94422300  1
  O  O39  1  0.02192300  0.41481900  0.66797500  1
  O  O40  1  0.62920200  0.72803800  0.44446700  1
  O  O41  1  0.03350000  0.42097200  0.16643300  1
  O  O42  1  0.57721700  0.96181100  0.57837900  1
  O  O43  1  0.57788700  0.96233600  0.07735600  1
  O  O44  1  0.06988200  0.75122600  0.54145200  1
  O  O45  1  0.06991800  0.75259700  0.04095400  1
  O  O46  1  0.25866600  0.92929100  0.70065800  1
  O  O47  1  0.25349400  0.93002500  0.20213400  1
