# generated using pymatgen
data_Li6MnV3(PO4)6
_symmetry_space_group_name_H-M   'P 1'
_cell_length_a   8.80396391
_cell_length_b   8.80396391
_cell_length_c   14.51863950
_cell_angle_alpha   73.62933086
_cell_angle_beta   73.62933086
_cell_angle_gamma   60.53597092
_symmetry_Int_Tables_number   1
_chemical_formula_structural   Li6MnV3(PO4)6
_chemical_formula_sum   'Li12 Mn2 V6 P12 O48'
_cell_volume   926.15048353
_cell_formula_units_Z   2
loop_
 _symmetry_equiv_pos_site_id
 _symmetry_equiv_pos_as_xyz
  1  'x, y, z'
loop_
 _atom_site_type_symbol
 _atom_site_label
 _atom_site_symmetry_multiplicity
 _atom_site_fract_x
 _atom_site_fract_y
 _atom_site_fract_z
 _atom_site_occupancy
  Li  Li0  1  0.85458000  0.73628800  0.51284100  1
  Li  Li1  1  0.50029400  0.74977800  0.62523300  1
  Li  Li2  1  0.76457900  0.64510000  0.98693800  1
  Li  Li3  1  0.25022200  0.49970600  0.37476700  1
  Li  Li4  1  0.64501600  0.26352700  0.23688100  1
  Li  Li5  1  0.73647300  0.35498400  0.76311900  1
  Li  Li6  1  0.26371200  0.14542000  0.48715900  1
  Li  Li7  1  0.35490000  0.23542100  0.01306200  1
  Li  Li8  1  0.75033100  0.99874600  0.87649000  1
  Li  Li9  1  0.00125400  0.24966900  0.12351000  1
  Li  Li10  1  0.23681300  0.85450600  0.26225700  1
  Li  Li11  1  0.14549400  0.76318700  0.73774300  1
  Mn  Mn12  1  0.07730700  0.31962800  0.91004200  1
  Mn  Mn13  1  0.68037200  0.92269300  0.08995800  1
  V  V14  1  0.42355500  0.68263600  0.83826800  1
  V  V15  1  0.31736400  0.57644500  0.16173200  1
  V  V16  1  0.92300200  0.18265000  0.33795400  1
  V  V17  1  0.18222700  0.42304600  0.58825100  1
  V  V18  1  0.81735000  0.07699800  0.66204600  1
  V  V19  1  0.57695400  0.81777300  0.41174900  1
  P  P20  1  0.86966300  0.41762100  0.50637300  1
  P  P21  1  0.63050300  0.58215600  0.24360200  1
  P  P22  1  0.82441400  0.67562300  0.74962100  1
  P  P23  1  0.08345100  0.62993600  0.99227900  1
  P  P24  1  0.67378200  0.32621800  0.00000000  1
  P  P25  1  0.58237900  0.13033700  0.49362700  1
  P  P26  1  0.41784400  0.36949700  0.75639800  1
  P  P27  1  0.32437700  0.17558600  0.25037900  1
  P  P28  1  0.91710500  0.86967900  0.25606100  1
  P  P29  1  0.17337200  0.82662800  0.50000000  1
  P  P30  1  0.37006400  0.91654900  0.00772100  1
  P  P31  1  0.13032100  0.08289500  0.74393900  1
  O  O32  1  0.71923700  0.60846600  0.51117800  1
  O  O33  1  0.61388800  0.66075200  0.32886900  1
  O  O34  1  0.66800400  0.69252600  0.14461700  1
  O  O35  1  0.83406000  0.30510800  0.60465300  1
  O  O36  1  0.88612100  0.33950200  0.42093200  1
  O  O37  1  0.19003900  0.64309200  0.49675800  1
  O  O38  1  0.89211500  0.55774200  0.84375700  1
  O  O39  1  0.45107000  0.57221100  0.25971300  1
  O  O40  1  0.94681500  0.60281900  0.65627400  1
  O  O41  1  0.10845400  0.71912900  0.26077500  1
  O  O42  1  0.78053900  0.39082900  0.23931900  1
  O  O43  1  0.64142200  0.69157600  0.74548300  1
  O  O44  1  0.85573800  0.31217700  0.00440300  1
  O  O45  1  0.16000200  0.61330800  0.07851600  1
  O  O46  1  0.66049800  0.11387900  0.57906800  1
  O  O47  1  0.55174900  0.39767900  0.09368300  1
  O  O48  1  0.19934000  0.66364400  0.89487700  1
  O  O49  1  0.39153400  0.28076300  0.48882200  1
  O  O50  1  0.60232100  0.44825100  0.90631700  1
  O  O51  1  0.69489200  0.16594000  0.39534700  1
  O  O52  1  0.04890700  0.42792700  0.49039300  1
  O  O53  1  0.42778900  0.54893000  0.74028700  1
  O  O54  1  0.30842400  0.35857800  0.25451700  1
  O  O55  1  0.92785100  0.04867100  0.24080300  1
  O  O56  1  0.07523000  0.44772900  0.00926700  1
  O  O57  1  0.68782300  0.14426200  0.99559700  1
  O  O58  1  0.57207300  0.95109300  0.50960700  1
  O  O59  1  0.95132900  0.07214900  0.75919700  1
  O  O60  1  0.30747400  0.33199600  0.85538300  1
  O  O61  1  0.39718100  0.05318500  0.34372600  1
  O  O62  1  0.60917100  0.21946100  0.76068100  1
  O  O63  1  0.80532200  0.83378100  0.35480300  1
  O  O64  1  0.44225800  0.10788500  0.15624300  1
  O  O65  1  0.33924800  0.38611200  0.67113100  1
  O  O66  1  0.83952300  0.88573900  0.17049000  1
  O  O67  1  0.14061000  0.19123700  0.24809300  1
  O  O68  1  0.35690800  0.80996100  0.50324200  1
  O  O69  1  0.22148100  0.10505800  0.01535600  1
  O  O70  1  0.89494200  0.77851900  0.98464400  1
  O  O71  1  0.05229600  0.89818200  0.59361500  1
  O  O72  1  0.55227100  0.92477000  0.99073300  1
  O  O73  1  0.10181800  0.94770400  0.40638500  1
  O  O74  1  0.80876300  0.85939000  0.75190700  1
  O  O75  1  0.11426100  0.16047700  0.82951000  1
  O  O76  1  0.16621900  0.19467800  0.64519700  1
  O  O77  1  0.33635600  0.80066000  0.10512300  1
  O  O78  1  0.38669200  0.83999800  0.92148400  1
  O  O79  1  0.28087100  0.89154600  0.73922500  1
