# generated using pymatgen
data_Li3MnV(PO4)3
_symmetry_space_group_name_H-M   'P 1'
_cell_length_a   8.73991867
_cell_length_b   8.73991867
_cell_length_c   8.65260382
_cell_angle_alpha   60.81299796
_cell_angle_beta   60.81299796
_cell_angle_gamma   60.55840467
_symmetry_Int_Tables_number   1
_chemical_formula_structural   Li3MnV(PO4)3
_chemical_formula_sum   'Li6 Mn2 V2 P6 O24'
_cell_volume   475.02770165
_cell_formula_units_Z   2
loop_
 _symmetry_equiv_pos_site_id
 _symmetry_equiv_pos_as_xyz
  1  'x, y, z'
loop_
 _atom_site_type_symbol
 _atom_site_label
 _atom_site_symmetry_multiplicity
 _atom_site_fract_x
 _atom_site_fract_y
 _atom_site_fract_z
 _atom_site_occupancy
  Li  Li0  1  0.89171600  0.73748900  0.71018900  1
  Li  Li1  1  0.34866100  0.04064600  0.67527500  1
  Li  Li2  1  0.73748900  0.89171600  0.21018900  1
  Li  Li3  1  0.36019600  0.61876400  0.75279000  1
  Li  Li4  1  0.61876400  0.36019600  0.25279000  1
  Li  Li5  1  0.04064600  0.34866100  0.17527500  1
  Mn  Mn6  1  0.64997300  0.15290800  0.63869700  1
  Mn  Mn7  1  0.15290800  0.64997300  0.13869700  1
  V  V8  1  0.85246900  0.35680400  0.85995600  1
  V  V9  1  0.35680400  0.85246900  0.35995600  1
  P  P10  1  0.52960800  0.75234300  0.95432100  1
  P  P11  1  0.75234300  0.52960800  0.45432100  1
  P  P12  1  0.94989500  0.04929100  0.25669100  1
  P  P13  1  0.24614300  0.47462200  0.53748100  1
  P  P14  1  0.04929100  0.94989500  0.75669100  1
  P  P15  1  0.47462200  0.24614300  0.03748100  1
  O  O16  1  0.72289400  0.59851300  0.91931700  1
  O  O17  1  0.38086300  0.71448800  0.93972100  1
  O  O18  1  0.75445300  0.47818400  0.64862400  1
  O  O19  1  0.71448800  0.38086300  0.43972100  1
  O  O20  1  0.54809100  0.93543200  0.79195900  1
  O  O21  1  0.92709400  0.24481700  0.10107500  1
  O  O22  1  0.93543200  0.54809100  0.29195900  1
  O  O23  1  0.01051400  0.11420100  0.80769700  1
  O  O24  1  0.89802700  0.96836500  0.70078500  1
  O  O25  1  0.59851300  0.72289400  0.41931700  1
  O  O26  1  0.24481700  0.92709400  0.60107500  1
  O  O27  1  0.52730600  0.25780000  0.83425900  1
  O  O28  1  0.47818400  0.75445300  0.14862400  1
  O  O29  1  0.76174000  0.06472100  0.42514400  1
  O  O30  1  0.38856400  0.27796800  0.57871100  1
  O  O31  1  0.11420100  0.01051400  0.30769700  1
  O  O32  1  0.96836500  0.89802700  0.20078500  1
  O  O33  1  0.05008300  0.48302800  0.68253900  1
  O  O34  1  0.06472100  0.76174000  0.92514400  1
  O  O35  1  0.48302800  0.05008300  0.18253900  1
  O  O36  1  0.29345200  0.61887600  0.54922800  1
  O  O37  1  0.25780000  0.52730600  0.33425900  1
  O  O38  1  0.61887600  0.29345200  0.04922800  1
  O  O39  1  0.27796800  0.38856400  0.07871100  1
