# generated using pymatgen
data_Li4(NiO2)5
_symmetry_space_group_name_H-M   'P 1'
_cell_length_a   6.52003300
_cell_length_b   7.46153704
_cell_length_c   7.62680585
_cell_angle_alpha   94.99529769
_cell_angle_beta   89.83814467
_cell_angle_gamma   115.19351688
_symmetry_Int_Tables_number   1
_chemical_formula_structural   Li4(NiO2)5
_chemical_formula_sum   'Li8 Ni10 O20'
_cell_volume   334.22835898
_cell_formula_units_Z   2
loop_
 _symmetry_equiv_pos_site_id
 _symmetry_equiv_pos_as_xyz
  1  'x, y, z'
loop_
 _atom_site_type_symbol
 _atom_site_label
 _atom_site_symmetry_multiplicity
 _atom_site_fract_x
 _atom_site_fract_y
 _atom_site_fract_z
 _atom_site_occupancy
  Li  Li0  1  0.69498600  0.79204000  0.19993700  1
  Li  Li1  1  0.60546900  0.40408900  0.10294300  1
  Li  Li2  1  0.24092100  0.49355700  0.24920000  1
  Li  Li3  1  0.75907900  0.50644300  0.75080000  1
  Li  Li4  1  0.39453100  0.59591100  0.89705700  1
  Li  Li5  1  0.30501400  0.20796000  0.80006300  1
  Li  Li6  1  0.09676900  0.41871900  0.59563300  1
  Li  Li7  1  0.90323100  0.58128100  0.40436700  1
  Ni  Ni8  1  0.14473800  0.10105100  0.15414700  1
  Ni  Ni9  1  0.85526200  0.89894900  0.84585300  1
  Ni  Ni10  1  0.95226800  0.30032900  0.95223600  1
  Ni  Ni11  1  0.04773200  0.69967100  0.04776400  1
  Ni  Ni12  1  0.50000000  0.00000000  0.00000000  1
  Ni  Ni13  1  0.45501800  0.30188500  0.45095200  1
  Ni  Ni14  1  0.54498200  0.69811500  0.54904800  1
  Ni  Ni15  1  0.00000000  0.00000000  0.50000000  1
  Ni  Ni16  1  0.64768700  0.10050500  0.64957800  1
  Ni  Ni17  1  0.35231300  0.89949500  0.35042200  1
  O  O18  1  0.17176700  0.95099100  0.95085900  1
  O  O19  1  0.75560900  0.66748500  0.97082200  1
  O  O20  1  0.24439100  0.33251500  0.02917800  1
  O  O21  1  0.35337500  0.75879600  0.12811900  1
  O  O22  1  0.82823300  0.04900900  0.04914100  1
  O  O23  1  0.92991200  0.46160300  0.14887200  1
  O  O24  1  0.84842000  0.75954800  0.62413500  1
  O  O25  1  0.45912500  0.14362300  0.24195900  1
  O  O26  1  0.54087500  0.85637700  0.75804100  1
  O  O27  1  0.42582800  0.45446600  0.65035100  1
  O  O28  1  0.07008800  0.53839700  0.85112800  1
  O  O29  1  0.97160000  0.14703300  0.73977500  1
  O  O30  1  0.02840000  0.85296700  0.26022500  1
  O  O31  1  0.64662500  0.24120400  0.87188100  1
  O  O32  1  0.57417200  0.54553400  0.34964900  1
  O  O33  1  0.66758600  0.93885400  0.44574700  1
  O  O34  1  0.15158000  0.24045200  0.37586500  1
  O  O35  1  0.25840600  0.66557800  0.46423300  1
  O  O36  1  0.74159400  0.33442200  0.53576700  1
  O  O37  1  0.33241400  0.06114600  0.55425300  1
