# generated using pymatgen
data_Li5Mn3Cu2(PO4)6
_symmetry_space_group_name_H-M   'P 1'
_cell_length_a   8.22794383
_cell_length_b   9.16489348
_cell_length_c   8.39505354
_cell_angle_alpha   60.30391188
_cell_angle_beta   63.16341234
_cell_angle_gamma   61.09175302
_symmetry_Int_Tables_number   1
_chemical_formula_structural   Li5Mn3Cu2(PO4)6
_chemical_formula_sum   'Li5 Mn3 Cu2 P6 O24'
_cell_volume   462.31151097
_cell_formula_units_Z   1
loop_
 _symmetry_equiv_pos_site_id
 _symmetry_equiv_pos_as_xyz
  1  'x, y, z'
loop_
 _atom_site_type_symbol
 _atom_site_label
 _atom_site_symmetry_multiplicity
 _atom_site_fract_x
 _atom_site_fract_y
 _atom_site_fract_z
 _atom_site_occupancy
  Li  Li0  1  0.76877900  0.13108100  0.35247600  1
  Li  Li1  1  0.18929000  0.85828200  0.66943500  1
  Li  Li2  1  0.67558600  0.16335100  0.84495400  1
  Li  Li3  1  0.86163200  0.67438000  0.19888300  1
  Li  Li4  1  0.84574100  0.82208900  0.85126600  1
  Mn  Mn5  1  0.14530700  0.16106800  0.13470100  1
  Mn  Mn6  1  0.35434400  0.35346900  0.35715400  1
  Mn  Mn7  1  0.63957200  0.66129500  0.64958800  1
  Cu  Cu8  1  0.01639300  0.98359000  0.99976800  1
  Cu  Cu9  1  0.49227200  0.50274700  0.50175500  1
  P  P10  1  0.74892100  0.46435800  0.06438800  1
  P  P11  1  0.05188600  0.74942400  0.45399400  1
  P  P12  1  0.43268900  0.04442900  0.75930300  1
  P  P13  1  0.25668800  0.54031200  0.94784000  1
  P  P14  1  0.56511600  0.97048400  0.25402600  1
  P  P15  1  0.95046200  0.24952700  0.53601800  1
  O  O16  1  0.09501900  0.34541200  0.45077600  1
  O  O17  1  0.35390300  0.47909200  0.09921000  1
  O  O18  1  0.03244000  0.91686100  0.26248700  1
  O  O19  1  0.55532400  0.10076800  0.32317400  1
  O  O20  1  0.02205200  0.81162200  0.60474000  1
  O  O21  1  0.25472200  0.60176400  0.42413100  1
  O  O22  1  0.23718900  0.06251800  0.92637900  1
  O  O23  1  0.40669500  0.23487800  0.59876400  1
  O  O24  1  0.20852900  0.39156000  0.96599500  1
  O  O25  1  0.59691900  0.41366900  0.26957500  1
  O  O26  1  0.09009800  0.71767600  0.95375600  1
  O  O27  1  0.38157300  0.02427800  0.20421100  1
  O  O28  1  0.60221300  0.00979700  0.81654400  1
  O  O29  1  0.90613400  0.27480100  0.07174800  1
  O  O30  1  0.40251900  0.59222400  0.73740400  1
  O  O31  1  0.80328800  0.60295100  0.05598200  1
  O  O32  1  0.58795700  0.77354300  0.40175800  1
  O  O33  1  0.75093800  0.95322500  0.08145100  1
  O  O34  1  0.73766600  0.38142900  0.58335800  1
  O  O35  1  0.96957100  0.18021000  0.39198400  1
  O  O36  1  0.45257100  0.90032200  0.70265100  1
  O  O37  1  0.97551900  0.08967400  0.72683100  1
  O  O38  1  0.68544100  0.51583600  0.89302600  1
  O  O39  1  0.89704000  0.67300100  0.50151400  1
