# generated using pymatgen
data_Li3P3(WO6)2
_symmetry_space_group_name_H-M   'P 1'
_cell_length_a   8.99862800
_cell_length_b   8.93194100
_cell_length_c   15.38031224
_cell_angle_alpha   54.66448806
_cell_angle_beta   90.00000000
_cell_angle_gamma   90.00000000
_symmetry_Int_Tables_number   1
_chemical_formula_structural   Li3P3(WO6)2
_chemical_formula_sum   'Li12 P12 W8 O48'
_cell_volume   1008.46299227
_cell_formula_units_Z   4
loop_
 _symmetry_equiv_pos_site_id
 _symmetry_equiv_pos_as_xyz
  1  'x, y, z'
loop_
 _atom_site_type_symbol
 _atom_site_label
 _atom_site_symmetry_multiplicity
 _atom_site_fract_x
 _atom_site_fract_y
 _atom_site_fract_z
 _atom_site_occupancy
  Li  Li0  1  0.90950500  0.38306200  0.69426500  1
  Li  Li1  1  0.29774100  0.32015100  0.75897300  1
  Li  Li2  1  0.22382200  0.02749300  0.17777000  1
  Li  Li3  1  0.72382200  0.97250700  0.32223000  1
  Li  Li4  1  0.79774100  0.67984900  0.74102700  1
  Li  Li5  1  0.40950500  0.61693800  0.80573500  1
  Li  Li6  1  0.59049500  0.38306200  0.19426500  1
  Li  Li7  1  0.20225900  0.32015100  0.25897300  1
  Li  Li8  1  0.27617800  0.02749300  0.67777000  1
  Li  Li9  1  0.77617800  0.97250700  0.82223000  1
  Li  Li10  1  0.70225900  0.67984900  0.24102700  1
  Li  Li11  1  0.09049500  0.61693800  0.30573500  1
  P  P12  1  0.75138800  0.54868900  0.49112500  1
  P  P13  1  0.61439700  0.25362300  0.84811500  1
  P  P14  1  0.89756700  0.95174100  0.15055800  1
  P  P15  1  0.11439700  0.74637700  0.65188500  1
  P  P16  1  0.39756700  0.04825900  0.34944200  1
  P  P17  1  0.25138800  0.45131100  0.00887500  1
  P  P18  1  0.74861200  0.54868900  0.99112500  1
  P  P19  1  0.60243300  0.95174100  0.65055800  1
  P  P20  1  0.88560300  0.25362300  0.34811500  1
  P  P21  1  0.10243300  0.04825900  0.84944200  1
  P  P22  1  0.38560300  0.74637700  0.15188500  1
  P  P23  1  0.24861200  0.45131100  0.50887500  1
  W  W24  1  0.46385500  0.63621300  0.61189800  1
  W  W25  1  0.96385500  0.36378700  0.88810200  1
  W  W26  1  0.03614500  0.63621300  0.11189800  1
  W  W27  1  0.53614500  0.36378700  0.38810200  1
  W  W28  1  0.54253400  0.13671200  0.11111200  1
  W  W29  1  0.04253400  0.86328800  0.38888800  1
  W  W30  1  0.95746600  0.13671200  0.61111200  1
  W  W31  1  0.45746600  0.86328800  0.88888800  1
  O  O32  1  0.13326000  0.60330700  0.43526700  1
  O  O33  1  0.12010000  0.22173700  0.85010300  1
  O  O34  1  0.30480100  0.46896200  0.59830900  1
  O  O35  1  0.40438800  0.89551400  0.17322300  1
  O  O36  1  0.62911200  0.53228600  0.56433000  1
  O  O37  1  0.77378400  0.33443000  0.80805800  1
  O  O38  1  0.59492200  0.17489400  0.96511400  1
  O  O39  1  0.02260600  0.90239400  0.23463600  1
  O  O40  1  0.74395100  0.96881100  0.19197600  1
  O  O41  1  0.82539900  0.74116100  0.43386200  1
  O  O42  1  0.94263900  0.12325500  0.04525800  1
  O  O43  1  0.49257900  0.40666800  0.78175400  1
  O  O44  1  0.99257900  0.59333200  0.71824600  1
  O  O45  1  0.44263900  0.87674500  0.45474200  1
  O  O46  1  0.32539900  0.25883900  0.06613800  1
  O  O47  1  0.24395100  0.03118900  0.30802400  1
  O  O48  1  0.09492200  0.82510600  0.53488600  1
  O  O49  1  0.52260600  0.09760600  0.26536400  1
  O  O50  1  0.27378400  0.66557000  0.69194200  1
  O  O51  1  0.12911200  0.46771400  0.93567000  1
  O  O52  1  0.80480100  0.53103800  0.90169100  1
  O  O53  1  0.62010000  0.77826300  0.64989700  1
  O  O54  1  0.90438800  0.10448600  0.32677700  1
  O  O55  1  0.63326000  0.39669300  0.06473300  1
  O  O56  1  0.36674000  0.60330700  0.93526700  1
  O  O57  1  0.09561200  0.89551400  0.67322300  1
  O  O58  1  0.37990000  0.22173700  0.35010300  1
  O  O59  1  0.19519900  0.46896200  0.09830900  1
  O  O60  1  0.87088800  0.53228600  0.06433000  1
  O  O61  1  0.72621600  0.33443000  0.30805800  1
  O  O62  1  0.47739400  0.90239400  0.73463600  1
  O  O63  1  0.90507800  0.17489400  0.46511400  1
  O  O64  1  0.75604900  0.96881100  0.69197600  1
  O  O65  1  0.67460100  0.74116100  0.93386200  1
  O  O66  1  0.55736100  0.12325500  0.54525800  1
  O  O67  1  0.00742100  0.40666800  0.28175400  1
  O  O68  1  0.50742100  0.59333200  0.21824600  1
  O  O69  1  0.05736100  0.87674500  0.95474200  1
  O  O70  1  0.17460100  0.25883900  0.56613800  1
  O  O71  1  0.25604900  0.03118900  0.80802400  1
  O  O72  1  0.97739400  0.09760600  0.76536400  1
  O  O73  1  0.40507800  0.82510600  0.03488600  1
  O  O74  1  0.22621600  0.66557000  0.19194200  1
  O  O75  1  0.37088800  0.46771400  0.43567000  1
  O  O76  1  0.59561200  0.10448600  0.82677700  1
  O  O77  1  0.69519900  0.53103800  0.40169100  1
  O  O78  1  0.87990000  0.77826300  0.14989700  1
  O  O79  1  0.86674000  0.39669300  0.56473300  1
