# generated using pymatgen
data_LiMn7O7F
_symmetry_space_group_name_H-M   'P 1'
_cell_length_a   3.48212637
_cell_length_b   3.48212637
_cell_length_c   21.50007400
_cell_angle_alpha   90.00000000
_cell_angle_beta   90.00000000
_cell_angle_gamma   120.00000699
_symmetry_Int_Tables_number   1
_chemical_formula_structural   LiMn7O7F
_chemical_formula_sum   'Li1 Mn7 O7 F1'
_cell_volume   225.76655777
_cell_formula_units_Z   1
loop_
 _symmetry_equiv_pos_site_id
 _symmetry_equiv_pos_as_xyz
  1  'x, y, z'
loop_
 _atom_site_type_symbol
 _atom_site_label
 _atom_site_symmetry_multiplicity
 _atom_site_fract_x
 _atom_site_fract_y
 _atom_site_fract_z
 _atom_site_occupancy
  Li  Li0  1  0.66666700  0.33333300  0.96423400  1
  Mn  Mn1  1  0.33333300  0.66666700  0.34707900  1
  Mn  Mn2  1  0.33333300  0.66666700  0.09661100  1
  Mn  Mn3  1  0.33333300  0.66666700  0.59775600  1
  Mn  Mn4  1  0.33333300  0.66666700  0.84993300  1
  Mn  Mn5  1  0.66666700  0.33333300  0.22178800  1
  Mn  Mn6  1  0.66666700  0.33333300  0.72398500  1
  Mn  Mn7  1  0.66666700  0.33333300  0.47229800  1
  O  O8  1  0.33333300  0.66666700  0.24732600  1
  O  O9  1  0.33333300  0.66666700  0.75020200  1
  O  O10  1  0.33333300  0.66666700  0.49830700  1
  O  O11  1  0.66666700  0.33333300  0.37287200  1
  O  O12  1  0.66666700  0.33333300  0.12130900  1
  O  O13  1  0.66666700  0.33333300  0.87569500  1
  O  O14  1  0.66666700  0.33333300  0.62419800  1
  F  F15  1  0.33333300  0.66666700  0.99726500  1
