# generated using pymatgen
data_Li4V3Cr3(WO8)2
_symmetry_space_group_name_H-M   'P 1'
_cell_length_a   5.98771957
_cell_length_b   5.98771957
_cell_length_c   9.71618482
_cell_angle_alpha   89.92258938
_cell_angle_beta   89.92258938
_cell_angle_gamma   59.94713033
_symmetry_Int_Tables_number   1
_chemical_formula_structural   Li4V3Cr3(WO8)2
_chemical_formula_sum   'Li4 V3 Cr3 W2 O16'
_cell_volume   301.52071805
_cell_formula_units_Z   1
loop_
 _symmetry_equiv_pos_site_id
 _symmetry_equiv_pos_as_xyz
  1  'x, y, z'
loop_
 _atom_site_type_symbol
 _atom_site_label
 _atom_site_symmetry_multiplicity
 _atom_site_fract_x
 _atom_site_fract_y
 _atom_site_fract_z
 _atom_site_occupancy
  Li  Li0  1  0.66567700  0.66567700  0.09706900  1
  Li  Li1  1  0.00038400  0.00038400  0.00688100  1
  Li  Li2  1  0.00175900  0.00175900  0.50802000  1
  Li  Li3  1  0.33293600  0.33293600  0.60003600  1
  V  V4  1  0.83067900  0.83067900  0.78705300  1
  V  V5  1  0.16707800  0.66107400  0.28718500  1
  V  V6  1  0.66107400  0.16707800  0.28718500  1
  Cr  Cr7  1  0.33892600  0.82776300  0.78637600  1
  Cr  Cr8  1  0.82776300  0.33892600  0.78637600  1
  Cr  Cr9  1  0.16936800  0.16936800  0.28522900  1
  W  W10  1  0.66629400  0.66629400  0.51359400  1
  W  W11  1  0.33239200  0.33239200  0.01304600  1
  O  O12  1  0.33878300  0.83222400  0.40475600  1
  O  O13  1  0.51907300  0.51907300  0.65949300  1
  O  O14  1  0.66697300  0.66697300  0.89169000  1
  O  O15  1  0.99977200  0.99977200  0.69383200  1
  O  O16  1  0.99977000  0.99977000  0.19155000  1
  O  O17  1  0.83222400  0.33878300  0.40475600  1
  O  O18  1  0.51805800  0.95865100  0.65468100  1
  O  O19  1  0.95865100  0.51805800  0.65468100  1
  O  O20  1  0.17073400  0.17073400  0.90508300  1
  O  O21  1  0.83360600  0.83360600  0.40704600  1
  O  O22  1  0.03688600  0.47824200  0.15692500  1
  O  O23  1  0.47824200  0.03688600  0.15692500  1
  O  O24  1  0.33375000  0.33375000  0.39276900  1
  O  O25  1  0.17015600  0.66660300  0.90463000  1
  O  O26  1  0.47755800  0.47755800  0.15094300  1
  O  O27  1  0.66660300  0.17015600  0.90463000  1
