# generated using pymatgen
data_LiMnVO4
_symmetry_space_group_name_H-M   'P 1'
_cell_length_a   6.08560000
_cell_length_b   6.08587900
_cell_length_c   8.35907300
_cell_angle_alpha   90.00106442
_cell_angle_beta   89.99945278
_cell_angle_gamma   90.00308804
_symmetry_Int_Tables_number   1
_chemical_formula_structural   LiMnVO4
_chemical_formula_sum   'Li4 Mn4 V4 O16'
_cell_volume   309.58851019
_cell_formula_units_Z   4
loop_
 _symmetry_equiv_pos_site_id
 _symmetry_equiv_pos_as_xyz
  1  'x, y, z'
loop_
 _atom_site_type_symbol
 _atom_site_label
 _atom_site_symmetry_multiplicity
 _atom_site_fract_x
 _atom_site_fract_y
 _atom_site_fract_z
 _atom_site_occupancy
  Li  Li0  1  0.00001800  0.25018000  0.00002200  1
  Li  Li1  1  0.00001300  0.74988900  0.50000200  1
  Li  Li2  1  0.25017200  0.00003200  0.24998700  1
  Li  Li3  1  0.74987700  0.00001500  0.74999900  1
  Mn  Mn4  1  0.25378200  0.25376400  0.62499000  1
  Mn  Mn5  1  0.25382200  0.74615500  0.87499100  1
  Mn  Mn6  1  0.74610600  0.25375600  0.37502600  1
  Mn  Mn7  1  0.74620200  0.74621300  0.12498900  1
  V  V8  1  0.50003400  0.77373500  0.49999300  1
  V  V9  1  0.77374500  0.50001400  0.75000300  1
  V  V10  1  0.22622900  0.50000900  0.25000400  1
  V  V11  1  0.49999400  0.22625500  0.99999300  1
  O  O12  1  0.04161800  0.27333500  0.25812200  1
  O  O13  1  0.04162100  0.72668500  0.24188500  1
  O  O14  1  0.27330800  0.04164400  0.99186900  1
  O  O15  1  0.27338100  0.95834900  0.50810800  1
  O  O16  1  0.72666800  0.04163100  0.00812100  1
  O  O17  1  0.72672800  0.95833700  0.49188400  1
  O  O18  1  0.95836500  0.27333400  0.74188100  1
  O  O19  1  0.95836600  0.72667600  0.75813200  1
  O  O20  1  0.27182800  0.48463900  0.02550500  1
  O  O21  1  0.27183600  0.51536200  0.47450600  1
  O  O22  1  0.48460900  0.27183300  0.22449600  1
  O  O23  1  0.48464000  0.72816300  0.27550100  1
  O  O24  1  0.51535800  0.27183800  0.77549500  1
  O  O25  1  0.51537800  0.72816000  0.72449500  1
  O  O26  1  0.72815400  0.51535800  0.52550300  1
  O  O27  1  0.72815000  0.48463800  0.97450200  1
