# generated using pymatgen
data_Li2MnCr(PO4)2
_symmetry_space_group_name_H-M   'P 1'
_cell_length_a   4.78364040
_cell_length_b   10.42248987
_cell_length_c   6.25838500
_cell_angle_alpha   89.99979976
_cell_angle_beta   89.99990503
_cell_angle_gamma   88.53149448
_symmetry_Int_Tables_number   1
_chemical_formula_structural   Li2MnCr(PO4)2
_chemical_formula_sum   'Li4 Mn2 Cr2 P4 O16'
_cell_volume   311.92459592
_cell_formula_units_Z   2
loop_
 _symmetry_equiv_pos_site_id
 _symmetry_equiv_pos_as_xyz
  1  'x, y, z'
loop_
 _atom_site_type_symbol
 _atom_site_label
 _atom_site_symmetry_multiplicity
 _atom_site_fract_x
 _atom_site_fract_y
 _atom_site_fract_z
 _atom_site_occupancy
  Li  Li0  1  0.99998900  0.99998100  0.99999000  1
  Li  Li1  1  0.99998800  0.99998000  0.50000800  1
  Li  Li2  1  0.49995600  0.50002000  0.99998600  1
  Li  Li3  1  0.49995500  0.50002000  0.50001200  1
  Mn  Mn4  1  0.02711300  0.71834500  0.75000600  1
  Mn  Mn5  1  0.97286300  0.28160300  0.24999900  1
  Cr  Cr6  1  0.45239100  0.21641500  0.75000000  1
  Cr  Cr7  1  0.54758000  0.78367800  0.24999600  1
  P  P8  1  0.41857000  0.08947400  0.25000000  1
  P  P9  1  0.58141900  0.91050100  0.75000600  1
  P  P10  1  0.90823600  0.40421500  0.74999800  1
  P  P11  1  0.09184600  0.59582800  0.25000000  1
  O  O12  1  0.69639700  0.04958000  0.75000100  1
  O  O13  1  0.30359200  0.95037000  0.25000100  1
  O  O14  1  0.73999300  0.09223000  0.24999900  1
  O  O15  1  0.26001500  0.90778100  0.75000100  1
  O  O16  1  0.23268500  0.39606200  0.74999800  1
  O  O17  1  0.76734300  0.60397000  0.24999900  1
  O  O18  1  0.21012200  0.45525400  0.24999900  1
  O  O19  1  0.78985000  0.54473400  0.74999900  1
  O  O20  1  0.28194900  0.15955400  0.05325100  1
  O  O21  1  0.28195000  0.15955400  0.44674600  1
  O  O22  1  0.71801200  0.84041900  0.55321200  1
  O  O23  1  0.71800900  0.84042200  0.94679000  1
  O  O24  1  0.78100900  0.33776100  0.54927400  1
  O  O25  1  0.78100900  0.33776100  0.95072400  1
  O  O26  1  0.21907900  0.66224400  0.04929200  1
  O  O27  1  0.21908000  0.66224400  0.45071100  1
