# generated using pymatgen
data_Li2AlCoO4
_symmetry_space_group_name_H-M   'P 1'
_cell_length_a   5.18502300
_cell_length_b   6.19974300
_cell_length_c   11.03989400
_cell_angle_alpha   90.00000000
_cell_angle_beta   90.00000000
_cell_angle_gamma   90.00000000
_symmetry_Int_Tables_number   1
_chemical_formula_structural   Li2AlCoO4
_chemical_formula_sum   'Li8 Al4 Co4 O16'
_cell_volume   354.88633549
_cell_formula_units_Z   4
loop_
 _symmetry_equiv_pos_site_id
 _symmetry_equiv_pos_as_xyz
  1  'x, y, z'
loop_
 _atom_site_type_symbol
 _atom_site_label
 _atom_site_symmetry_multiplicity
 _atom_site_fract_x
 _atom_site_fract_y
 _atom_site_fract_z
 _atom_site_occupancy
  Li  Li0  1  0.19498900  0.98982200  0.16909900  1
  Li  Li1  1  0.30501100  0.98982200  0.66909900  1
  Li  Li2  1  0.19498900  0.51017800  0.16909900  1
  Li  Li3  1  0.30501100  0.51017800  0.66909900  1
  Li  Li4  1  0.69498900  0.48982200  0.33090100  1
  Li  Li5  1  0.80501100  0.48982200  0.83090100  1
  Li  Li6  1  0.80501100  0.01017800  0.83090100  1
  Li  Li7  1  0.69498900  0.01017800  0.33090100  1
  Al  Al8  1  0.18215200  0.25000000  0.42102800  1
  Al  Al9  1  0.31784800  0.25000000  0.92102800  1
  Al  Al10  1  0.68215200  0.75000000  0.07897200  1
  Al  Al11  1  0.81784800  0.75000000  0.57897200  1
  Co  Co12  1  0.82080200  0.25000000  0.08136000  1
  Co  Co13  1  0.67919800  0.25000000  0.58136000  1
  Co  Co14  1  0.32080200  0.75000000  0.41864000  1
  Co  Co15  1  0.17919800  0.75000000  0.91864000  1
  O  O16  1  0.28392500  0.01457100  0.34111200  1
  O  O17  1  0.21607500  0.01457100  0.84111200  1
  O  O18  1  0.83909000  0.25000000  0.42820600  1
  O  O19  1  0.18639800  0.25000000  0.06876300  1
  O  O20  1  0.31360200  0.25000000  0.56876300  1
  O  O21  1  0.66091000  0.25000000  0.92820600  1
  O  O22  1  0.28392500  0.48542900  0.34111200  1
  O  O23  1  0.21607500  0.48542900  0.84111200  1
  O  O24  1  0.71607500  0.51457100  0.65888800  1
  O  O25  1  0.78392500  0.51457100  0.15888800  1
  O  O26  1  0.68639800  0.75000000  0.43123700  1
  O  O27  1  0.33909000  0.75000000  0.07179400  1
  O  O28  1  0.81360200  0.75000000  0.93123700  1
  O  O29  1  0.16091000  0.75000000  0.57179400  1
  O  O30  1  0.78392500  0.98542900  0.15888800  1
  O  O31  1  0.71607500  0.98542900  0.65888800  1
