# generated using pymatgen
data_Li3Ti(BO3)2
_symmetry_space_group_name_H-M   'P 1'
_cell_length_a   8.94081300
_cell_length_b   5.19133400
_cell_length_c   11.18332185
_cell_angle_alpha   63.05189292
_cell_angle_beta   90.00000000
_cell_angle_gamma   90.00000000
_symmetry_Int_Tables_number   1
_chemical_formula_structural   Li3Ti(BO3)2
_chemical_formula_sum   'Li12 Ti4 B8 O24'
_cell_volume   462.70893291
_cell_formula_units_Z   4
loop_
 _symmetry_equiv_pos_site_id
 _symmetry_equiv_pos_as_xyz
  1  'x, y, z'
loop_
 _atom_site_type_symbol
 _atom_site_label
 _atom_site_symmetry_multiplicity
 _atom_site_fract_x
 _atom_site_fract_y
 _atom_site_fract_z
 _atom_site_occupancy
  Li  Li0  1  0.97499200  0.51190700  0.32997900  1
  Li  Li1  1  0.65688700  0.44801100  0.38145100  1
  Li  Li2  1  0.98582100  0.92251400  0.90122200  1
  Li  Li3  1  0.15688700  0.55198900  0.11854900  1
  Li  Li4  1  0.48582100  0.07748600  0.59877800  1
  Li  Li5  1  0.47499200  0.48809300  0.17002100  1
  Li  Li6  1  0.52500800  0.51190700  0.82997900  1
  Li  Li7  1  0.51417900  0.92251400  0.40122200  1
  Li  Li8  1  0.84311300  0.44801100  0.88145100  1
  Li  Li9  1  0.01417900  0.07748600  0.09877800  1
  Li  Li10  1  0.34311300  0.55198900  0.61854900  1
  Li  Li11  1  0.02500800  0.48809300  0.67002100  1
  Ti  Ti12  1  0.33221100  0.97020600  0.87706900  1
  Ti  Ti13  1  0.83221100  0.02979400  0.62293100  1
  Ti  Ti14  1  0.16778900  0.97020600  0.37706900  1
  Ti  Ti15  1  0.66778900  0.02979400  0.12293100  1
  B  B16  1  0.32463700  0.45661000  0.37914300  1
  B  B17  1  0.66744500  0.96491200  0.87035800  1
  B  B18  1  0.82463700  0.54339000  0.12085700  1
  B  B19  1  0.16744500  0.03508800  0.62964200  1
  B  B20  1  0.83255500  0.96491200  0.37035800  1
  B  B21  1  0.17536300  0.45661000  0.87914300  1
  B  B22  1  0.33255500  0.03508800  0.12964200  1
  B  B23  1  0.67536300  0.54339000  0.62085700  1
  O  O24  1  0.32736400  0.82486900  0.08527100  1
  O  O25  1  0.66214400  0.30682100  0.59389100  1
  O  O26  1  0.94884500  0.70206400  0.12036600  1
  O  O27  1  0.02844900  0.15439900  0.63605300  1
  O  O28  1  0.29329700  0.13227100  0.66861000  1
  O  O29  1  0.68340500  0.62039900  0.14857300  1
  O  O30  1  0.18340500  0.37960100  0.35142700  1
  O  O31  1  0.79329700  0.86772900  0.83139000  1
  O  O32  1  0.52844900  0.84560100  0.86394700  1
  O  O33  1  0.44884500  0.29793600  0.37963400  1
  O  O34  1  0.82736400  0.17513100  0.41472900  1
  O  O35  1  0.16214400  0.69317900  0.90610900  1
  O  O36  1  0.83785600  0.30682100  0.09389100  1
  O  O37  1  0.17263600  0.82486900  0.58527100  1
  O  O38  1  0.55115500  0.70206400  0.62036600  1
  O  O39  1  0.47155100  0.15439900  0.13605300  1
  O  O40  1  0.20670300  0.13227100  0.16861000  1
  O  O41  1  0.81659500  0.62039900  0.64857300  1
  O  O42  1  0.31659500  0.37960100  0.85142700  1
  O  O43  1  0.70670300  0.86772900  0.33139000  1
  O  O44  1  0.97155100  0.84560100  0.36394700  1
  O  O45  1  0.05115500  0.29793600  0.87963400  1
  O  O46  1  0.33785600  0.69317900  0.40610900  1
  O  O47  1  0.67263600  0.17513100  0.91472900  1
