# generated using pymatgen
data_Li2FeP2O7
_symmetry_space_group_name_H-M   'P 1'
_cell_length_a   5.10870475
_cell_length_b   11.01560850
_cell_length_c   11.01865864
_cell_angle_alpha   80.74518310
_cell_angle_beta   102.54087484
_cell_angle_gamma   77.47357775
_symmetry_Int_Tables_number   1
_chemical_formula_structural   Li2FeP2O7
_chemical_formula_sum   'Li8 Fe4 P8 O28'
_cell_volume   576.64074837
_cell_formula_units_Z   4
loop_
 _symmetry_equiv_pos_site_id
 _symmetry_equiv_pos_as_xyz
  1  'x, y, z'
loop_
 _atom_site_type_symbol
 _atom_site_label
 _atom_site_symmetry_multiplicity
 _atom_site_fract_x
 _atom_site_fract_y
 _atom_site_fract_z
 _atom_site_occupancy
  Li  Li0  1  0.17212100  0.24947400  0.89934900  1
  Li  Li1  1  0.17173200  0.74911700  0.39957500  1
  Li  Li2  1  0.82805500  0.64950500  0.99916600  1
  Li  Li3  1  0.82809300  0.14947600  0.49941100  1
  Li  Li4  1  0.28233700  0.86669100  0.96420500  1
  Li  Li5  1  0.28308400  0.36645200  0.46433400  1
  Li  Li6  1  0.71724800  0.21442900  0.11647600  1
  Li  Li7  1  0.71734500  0.71411000  0.61659400  1
  Fe  Fe8  1  0.20475000  0.89098200  0.61355600  1
  Fe  Fe9  1  0.79514500  0.86347800  0.14092200  1
  Fe  Fe10  1  0.20518500  0.39070800  0.11365400  1
  Fe  Fe11  1  0.79495600  0.36364700  0.64084800  1
  P  P12  1  0.39164000  0.64650000  0.16807800  1
  P  P13  1  0.39183100  0.14661900  0.66801500  1
  P  P14  1  0.60845300  0.41805900  0.89646300  1
  P  P15  1  0.60803400  0.91799300  0.39666300  1
  P  P16  1  0.20692400  0.56173400  0.64494700  1
  P  P17  1  0.20701500  0.06182800  0.14504700  1
  P  P18  1  0.79310600  0.39494700  0.31188400  1
  P  P19  1  0.79300100  0.89495700  0.81169700  1
  O  O20  1  0.07025900  0.39811500  0.28066200  1
  O  O21  1  0.07024200  0.89818200  0.78034600  1
  O  O22  1  0.92969400  0.53048400  0.64809700  1
  O  O23  1  0.92979500  0.03045400  0.14811800  1
  O  O24  1  0.14392200  0.20670500  0.09467700  1
  O  O25  1  0.14375800  0.70648900  0.59431400  1
  O  O26  1  0.85660400  0.84419900  0.95647000  1
  O  O27  1  0.85564600  0.34452900  0.45664700  1
  O  O28  1  0.20773300  0.73295200  0.22904200  1
  O  O29  1  0.20863100  0.23307900  0.72913300  1
  O  O30  1  0.79191400  0.47917200  0.98293300  1
  O  O31  1  0.79176500  0.97905300  0.48306100  1
  O  O32  1  0.22979100  0.57779600  0.08092400  1
  O  O33  1  0.22929600  0.07829200  0.58070300  1
  O  O34  1  0.77066400  0.33087200  0.82797900  1
  O  O35  1  0.77017000  0.83072600  0.32816600  1
  O  O36  1  0.43850600  0.34601000  0.96738800  1
  O  O37  1  0.43717900  0.84627300  0.46759700  1
  O  O38  1  0.56163100  0.71761500  0.09610900  1
  O  O39  1  0.56245200  0.21741500  0.59618900  1
  O  O40  1  0.62812600  0.31924100  0.23573200  1
  O  O41  1  0.62808400  0.81915000  0.73571100  1
  O  O42  1  0.37186400  0.48571800  0.56921200  1
  O  O43  1  0.37195600  0.98591000  0.06919500  1
  O  O44  1  0.60752800  0.54015300  0.28778200  1
  O  O45  1  0.60719700  0.03998300  0.78796100  1
  O  O46  1  0.39276500  0.53790700  0.78998800  1
  O  O47  1  0.39277600  0.03791300  0.29008000  1
