# generated using pymatgen
data_Li4V2Si(PO6)2
_symmetry_space_group_name_H-M   'P 1'
_cell_length_a   8.99139100
_cell_length_b   9.01214109
_cell_length_c   14.36990593
_cell_angle_alpha   72.15145144
_cell_angle_beta   71.79362183
_cell_angle_gamma   60.13476217
_symmetry_Int_Tables_number   1
_chemical_formula_structural   Li4V2Si(PO6)2
_chemical_formula_sum   'Li16 V8 Si4 P8 O48'
_cell_volume   942.99488324
_cell_formula_units_Z   4
loop_
 _symmetry_equiv_pos_site_id
 _symmetry_equiv_pos_as_xyz
  1  'x, y, z'
loop_
 _atom_site_type_symbol
 _atom_site_label
 _atom_site_symmetry_multiplicity
 _atom_site_fract_x
 _atom_site_fract_y
 _atom_site_fract_z
 _atom_site_occupancy
  Li  Li0  1  0.45233400  0.28292200  0.88635100  1
  Li  Li1  1  0.28858000  0.86741700  0.87378300  1
  Li  Li2  1  0.48994300  0.49073600  0.99924600  1
  Li  Li3  1  0.37109200  0.97284600  0.36450200  1
  Li  Li4  1  0.20313500  0.63003500  0.63409300  1
  Li  Li5  1  0.04486700  0.22145200  0.61300900  1
  Li  Li6  1  0.12891700  0.53569900  0.12365400  1
  Li  Li7  1  0.00530800  0.99619200  0.50005100  1
  Li  Li8  1  0.88260900  0.46858100  0.86195800  1
  Li  Li9  1  0.95742500  0.77782300  0.38581600  1
  Li  Li10  1  0.78950500  0.37459400  0.37382500  1
  Li  Li11  1  0.75304100  0.75134000  0.24987700  1
  Li  Li12  1  0.63372200  0.02502700  0.62643100  1
  Li  Li13  1  0.71023300  0.12353600  0.12764000  1
  Li  Li14  1  0.53618200  0.72212300  0.12459300  1
  Li  Li15  1  0.24191600  0.26729800  0.74873400  1
  V  V16  1  0.67974900  0.67983700  0.46253200  1
  V  V17  1  0.57430300  0.56509800  0.78745900  1
  V  V18  1  0.17928000  0.18202200  0.96285900  1
  V  V19  1  0.07334400  0.07045000  0.28746000  1
  V  V20  1  0.93283900  0.92539600  0.71304400  1
  V  V21  1  0.82495500  0.81991700  0.03763900  1
  V  V22  1  0.42428400  0.43287600  0.21233500  1
  V  V23  1  0.32025200  0.31972200  0.53706600  1
  Si  Si24  1  0.42265500  0.12564500  0.12515300  1
  Si  Si25  1  0.17114700  0.57776100  0.87370400  1
  Si  Si26  1  0.07531700  0.37601000  0.37452700  1
  Si  Si27  1  0.92260800  0.62647500  0.62334300  1
  P  P28  1  0.87470400  0.16951000  0.87717300  1
  P  P29  1  0.33058400  0.92119300  0.62817900  1
  P  P30  1  0.37006700  0.67203700  0.37849300  1
  P  P31  1  0.82671700  0.42499900  0.12683200  1
  P  P32  1  0.57750700  0.87162500  0.87563700  1
  P  P33  1  0.62889800  0.32581700  0.62347400  1
  P  P34  1  0.67036000  0.07869400  0.37086800  1
  P  P35  1  0.12675600  0.83080600  0.12396800  1
  O  O36  1  0.84294500  0.04502200  0.97281400  1
  O  O37  1  0.71399400  0.35072500  0.88695000  1
  O  O38  1  0.69107500  0.90042100  0.36180500  1
  O  O39  1  0.59113500  0.39218700  0.71885800  1
  O  O40  1  0.52760400  0.70919300  0.36885400  1
  O  O41  1  0.38771100  0.79572100  0.72418400  1
  O  O42  1  0.61501300  0.95410200  0.13416700  1
  O  O43  1  0.36586400  0.54044200  0.88448400  1
  O  O44  1  0.45975000  0.85306500  0.53447100  1
  O  O45  1  0.45693000  0.29582800  0.11312800  1
  O  O46  1  0.19680200  0.38847900  0.86184500  1
  O  O47  1  0.34295900  0.54463200  0.47261500  1
  O  O48  1  0.29442900  0.08161800  0.22697600  1
  O  O49  1  0.04227900  0.65057000  0.97450000  1
  O  O50  1  0.14746300  0.95959500  0.61507000  1
  O  O51  1  0.34995400  0.16642500  0.02466000  1
  O  O52  1  0.10434800  0.70959200  0.77249700  1
  O  O53  1  0.20363700  0.85009200  0.38879200  1
  O  O54  1  0.03828100  0.19772200  0.86632800  1
  O  O55  1  0.14810400  0.33404000  0.47561900  1
  O  O56  1  0.11676100  0.45911100  0.63570000  1
  O  O57  1  0.20605000  0.41882400  0.27369000  1
  O  O58  1  0.90719900  0.10277700  0.78309000  1
  O  O59  1  0.04280300  0.20428500  0.38663100  1
  O  O60  1  0.94685800  0.80270700  0.61275600  1
  O  O61  1  0.09829900  0.89425700  0.21833900  1
  O  O62  1  0.79266100  0.58118200  0.72341200  1
  O  O63  1  0.88193800  0.54545200  0.36314500  1
  O  O64  1  0.85441900  0.66626800  0.52141500  1
  O  O65  1  0.96561300  0.79810400  0.13694800  1
  O  O66  1  0.79396800  0.14578400  0.61644700  1
  O  O67  1  0.89039900  0.29991400  0.22143700  1
  O  O68  1  0.64098000  0.83996000  0.97064700  1
  O  O69  1  0.85512500  0.04185800  0.38068100  1
  O  O70  1  0.95007200  0.36075500  0.03105800  1
  O  O71  1  0.70187100  0.90610700  0.77998700  1
  O  O72  1  0.66209800  0.44966800  0.52865900  1
  O  O73  1  0.80054800  0.60607100  0.13645400  1
  O  O74  1  0.55097100  0.70739600  0.88516600  1
  O  O75  1  0.54573000  0.14505000  0.46628100  1
  O  O76  1  0.64134900  0.46053900  0.11905900  1
  O  O77  1  0.39365100  0.03005300  0.86651500  1
  O  O78  1  0.61040400  0.20402900  0.27587700  1
  O  O79  1  0.47177100  0.28892100  0.63204500  1
  O  O80  1  0.40628900  0.60741300  0.28254300  1
  O  O81  1  0.30979000  0.09968100  0.63738500  1
  O  O82  1  0.29216700  0.65251500  0.11182500  1
  O  O83  1  0.15480000  0.95833500  0.02888500  1
