# generated using pymatgen
data_Sr3Li4Nb6O20
_symmetry_space_group_name_H-M   'P 1'
_cell_length_a   5.66539100
_cell_length_b   5.66543492
_cell_length_c   13.58513594
_cell_angle_alpha   90.07991250
_cell_angle_beta   101.93497108
_cell_angle_gamma   90.07550531
_symmetry_Int_Tables_number   1
_chemical_formula_structural   Sr3Li4Nb6O20
_chemical_formula_sum   'Sr3 Li4 Nb6 O20'
_cell_volume   426.61389589
_cell_formula_units_Z   1
loop_
 _symmetry_equiv_pos_site_id
 _symmetry_equiv_pos_as_xyz
  1  'x, y, z'
loop_
 _atom_site_type_symbol
 _atom_site_label
 _atom_site_symmetry_multiplicity
 _atom_site_fract_x
 _atom_site_fract_y
 _atom_site_fract_z
 _atom_site_occupancy
  Sr  Sr0  1  0.57704900  0.00077800  0.15564200  1
  Sr  Sr1  1  0.41291500  0.00195500  0.83047600  1
  Sr  Sr2  1  0.07903900  0.49901900  0.15597500  1
  Li  Li3  1  0.50122900  0.75057600  0.50398700  1
  Li  Li4  1  0.00288000  0.75043300  0.50443600  1
  Li  Li5  1  0.50163000  0.24926300  0.50440200  1
  Li  Li6  1  0.00250700  0.24943300  0.50397800  1
  Nb  Nb7  1  0.84128400  0.00044100  0.68428300  1
  Nb  Nb8  1  0.50129900  0.49745900  0.99371700  1
  Nb  Nb9  1  0.65661500  0.50064600  0.31427900  1
  Nb  Nb10  1  0.99931900  0.99551100  0.99366700  1
  Nb  Nb11  1  0.15638400  0.00053200  0.31407400  1
  Nb  Nb12  1  0.34154800  0.50067600  0.68430100  1
  O  O13  1  0.92744700  0.99712800  0.85107600  1
  O  O14  1  0.78188400  0.72281300  0.00880600  1
  O  O15  1  0.89938500  0.74975100  0.29807400  1
  O  O16  1  0.77116000  0.99971400  0.54167700  1
  O  O17  1  0.28445300  0.76688100  0.00599600  1
  O  O18  1  0.90068300  0.24993100  0.29829000  1
  O  O19  1  0.57875600  0.49638200  0.15262100  1
  O  O20  1  0.72881400  0.49987800  0.45700400  1
  O  O21  1  0.59150200  0.75700200  0.69743100  1
  O  O22  1  0.39926600  0.74847500  0.29826900  1
  O  O23  1  0.08027000  0.99795100  0.15262300  1
  O  O24  1  0.22863500  0.99972000  0.45683200  1
  O  O25  1  0.73652400  0.21890400  0.00601600  1
  O  O26  1  0.25420300  0.24969400  0.00728800  1
  O  O27  1  0.40015900  0.24922800  0.29848300  1
  O  O28  1  0.10530000  0.75625900  0.69703600  1
  O  O29  1  0.42835400  0.49806700  0.85109200  1
  O  O30  1  0.59194400  0.24289600  0.69699400  1
  O  O31  1  0.27104100  0.49961500  0.54169000  1
  O  O32  1  0.10569400  0.24288900  0.69762700  1
