# generated using pymatgen
data_Li5V6O5F19
_symmetry_space_group_name_H-M   'P 1'
_cell_length_a   5.21695400
_cell_length_b   5.40783046
_cell_length_c   16.13730996
_cell_angle_alpha   80.90703700
_cell_angle_beta   89.71063881
_cell_angle_gamma   89.40513495
_symmetry_Int_Tables_number   1
_chemical_formula_structural   Li5V6O5F19
_chemical_formula_sum   'Li5 V6 O5 F19'
_cell_volume   449.52407401
_cell_formula_units_Z   1
loop_
 _symmetry_equiv_pos_site_id
 _symmetry_equiv_pos_as_xyz
  1  'x, y, z'
loop_
 _atom_site_type_symbol
 _atom_site_label
 _atom_site_symmetry_multiplicity
 _atom_site_fract_x
 _atom_site_fract_y
 _atom_site_fract_z
 _atom_site_occupancy
  Li  Li0  1  0.96514200  0.04384000  0.77294600  1
  Li  Li1  1  0.17264400  0.69612100  0.15213000  1
  Li  Li2  1  0.54247100  0.50563400  0.78666700  1
  Li  Li3  1  0.02253700  0.62897400  0.90049900  1
  Li  Li4  1  0.26262500  0.99216300  0.48348200  1
  V  V5  1  0.47659200  0.13293800  0.66624900  1
  V  V6  1  0.02462700  0.30277800  0.33422000  1
  V  V7  1  0.96921600  0.04416700  0.99614800  1
  V  V8  1  0.47141800  0.51775300  0.00661500  1
  V  V9  1  0.02296000  0.63494300  0.66494100  1
  V  V10  1  0.50708500  0.83011400  0.33051200  1
  O  O11  1  0.21733900  0.03702700  0.35243100  1
  O  O12  1  0.19722700  0.36269600  0.69457800  1
  O  O13  1  0.21082100  0.70200400  0.01863200  1
  O  O14  1  0.80213400  0.31601700  0.96868500  1
  O  O15  1  0.29890200  0.86609500  0.69463100  1
  F  F16  1  0.29201400  0.19496100  0.02648500  1
  F  F17  1  0.71240400  0.12778000  0.30771600  1
  F  F18  1  0.08180900  0.00893500  0.88154400  1
  F  F19  1  0.41725400  0.20297000  0.55218400  1
  F  F20  1  0.59581300  0.46386900  0.11318300  1
  F  F21  1  0.92605100  0.28159200  0.44547800  1
  F  F22  1  0.08546500  0.39879000  0.21853400  1
  F  F23  1  0.61691200  0.15996800  0.77618100  1
  F  F24  1  0.30292100  0.53117200  0.35631700  1
  F  F25  1  0.69244100  0.47844100  0.64742900  1
  F  F26  1  0.80273900  0.62659900  0.31477700  1
  F  F27  1  0.37451400  0.53021900  0.88473600  1
  F  F28  1  0.91624400  0.94163500  0.11025700  1
  F  F29  1  0.41292100  0.85508100  0.22156100  1
  F  F30  1  0.88871600  0.65070400  0.78073300  1
  F  F31  1  0.08879000  0.72658700  0.55235900  1
  F  F32  1  0.56745300  0.80522900  0.44211600  1
  F  F33  1  0.71351000  0.79880600  0.96897100  1
  F  F34  1  0.81295500  0.97311600  0.65043400  1
