# generated using pymatgen
data_LiFe3O4
_symmetry_space_group_name_H-M   'P 1'
_cell_length_a   3.06192900
_cell_length_b   5.17628647
_cell_length_c   5.21061180
_cell_angle_alpha   107.15180967
_cell_angle_beta   90.61705131
_cell_angle_gamma   89.97559308
_symmetry_Int_Tables_number   1
_chemical_formula_structural   LiFe3O4
_chemical_formula_sum   'Li1 Fe3 O4'
_cell_volume   78.90744800
_cell_formula_units_Z   1
loop_
 _symmetry_equiv_pos_site_id
 _symmetry_equiv_pos_as_xyz
  1  'x, y, z'
loop_
 _atom_site_type_symbol
 _atom_site_label
 _atom_site_symmetry_multiplicity
 _atom_site_fract_x
 _atom_site_fract_y
 _atom_site_fract_z
 _atom_site_occupancy
  Li  Li0  1  0.50000000  0.50000000  0.00000000  1
  Fe  Fe1  1  0.00000000  0.00000000  0.00000000  1
  Fe  Fe2  1  0.50000000  0.00000000  0.50000000  1
  Fe  Fe3  1  0.00000000  0.50000000  0.50000000  1
  O  O4  1  0.00598500  0.75789300  0.25349600  1
  O  O5  1  0.48931300  0.76365900  0.77613000  1
  O  O6  1  0.51068700  0.23634100  0.22387000  1
  O  O7  1  0.99401500  0.24210700  0.74650400  1
