# generated using pymatgen
data_Li4Cr3CoO8
_symmetry_space_group_name_H-M   'P 1'
_cell_length_a   5.08422505
_cell_length_b   10.24775626
_cell_length_c   5.87238314
_cell_angle_alpha   73.37294484
_cell_angle_beta   90.01373118
_cell_angle_gamma   80.49168511
_symmetry_Int_Tables_number   1
_chemical_formula_structural   Li4Cr3CoO8
_chemical_formula_sum   'Li8 Cr6 Co2 O16'
_cell_volume   288.77602921
_cell_formula_units_Z   2
loop_
 _symmetry_equiv_pos_site_id
 _symmetry_equiv_pos_as_xyz
  1  'x, y, z'
loop_
 _atom_site_type_symbol
 _atom_site_label
 _atom_site_symmetry_multiplicity
 _atom_site_fract_x
 _atom_site_fract_y
 _atom_site_fract_z
 _atom_site_occupancy
  Li  Li0  1  0.00866900  0.49876900  0.99784000  1
  Li  Li1  1  0.00866500  0.99868200  0.99784200  1
  Li  Li2  1  0.49135100  0.00123600  0.75215000  1
  Li  Li3  1  0.49135500  0.50132400  0.75214600  1
  Li  Li4  1  0.50033400  0.00359500  0.24534300  1
  Li  Li5  1  0.50028500  0.50363300  0.24528600  1
  Li  Li6  1  0.99968600  0.49640500  0.50467500  1
  Li  Li7  1  0.99973700  0.99636600  0.50473200  1
  Cr  Cr8  1  0.24998800  0.74999900  0.37499800  1
  Cr  Cr9  1  0.75050600  0.74981500  0.12224400  1
  Cr  Cr10  1  0.74948200  0.75019100  0.62775900  1
  Cr  Cr11  1  0.24999100  0.24999500  0.37499900  1
  Cr  Cr12  1  0.75053600  0.24980300  0.12231000  1
  Cr  Cr13  1  0.74949200  0.25019800  0.62768700  1
  Co  Co14  1  0.25000100  0.24999900  0.87499900  1
  Co  Co15  1  0.25000100  0.74999900  0.87499900  1
  O  O16  1  0.12493500  0.13820300  0.17464900  1
  O  O17  1  0.12493400  0.63833900  0.17448500  1
  O  O18  1  0.37505600  0.36179500  0.57535200  1
  O  O19  1  0.37505500  0.86166000  0.57551200  1
  O  O20  1  0.37637200  0.36103800  0.06337700  1
  O  O21  1  0.37634000  0.86092700  0.06333500  1
  O  O22  1  0.12361400  0.13895900  0.68662200  1
  O  O23  1  0.12365100  0.63906900  0.68666500  1
  O  O24  1  0.62231700  0.13622800  0.43203100  1
  O  O25  1  0.62230500  0.63630500  0.43199000  1
  O  O26  1  0.87766700  0.36377400  0.31796700  1
  O  O27  1  0.87767800  0.86369900  0.31800800  1
  O  O28  1  0.61174800  0.13829200  0.93054800  1
  O  O29  1  0.61158400  0.63842900  0.93048700  1
  O  O30  1  0.88825200  0.36170400  0.81945100  1
  O  O31  1  0.88841300  0.86157100  0.81951100  1
