# generated using pymatgen
data_Li3Mn2P2(CO7)2
_symmetry_space_group_name_H-M   'P 1'
_cell_length_a   9.40746031
_cell_length_b   8.20153527
_cell_length_c   8.27185531
_cell_angle_alpha   75.86405588
_cell_angle_beta   73.82845007
_cell_angle_gamma   107.60811864
_symmetry_Int_Tables_number   1
_chemical_formula_structural   Li3Mn2P2(CO7)2
_chemical_formula_sum   'Li6 Mn4 P4 C4 O28'
_cell_volume   545.34140047
_cell_formula_units_Z   2
loop_
 _symmetry_equiv_pos_site_id
 _symmetry_equiv_pos_as_xyz
  1  'x, y, z'
loop_
 _atom_site_type_symbol
 _atom_site_label
 _atom_site_symmetry_multiplicity
 _atom_site_fract_x
 _atom_site_fract_y
 _atom_site_fract_z
 _atom_site_occupancy
  Li  Li0  1  0.75155600  0.99339300  0.49679400  1
  Li  Li1  1  0.74594000  0.76404900  0.25575100  1
  Li  Li2  1  0.73011900  0.47415500  0.97720000  1
  Li  Li3  1  0.26988100  0.52584500  0.02280000  1
  Li  Li4  1  0.25406000  0.23595100  0.74424900  1
  Li  Li5  1  0.24844400  0.00660700  0.50320600  1
  Mn  Mn6  1  0.66720100  0.31170400  0.44079300  1
  Mn  Mn7  1  0.66712600  0.81998800  0.93347400  1
  Mn  Mn8  1  0.33287400  0.18001200  0.06652600  1
  Mn  Mn9  1  0.33279900  0.68829600  0.55920700  1
  P  P10  1  0.58024200  0.05713000  0.20950800  1
  P  P11  1  0.57706800  0.54562600  0.69539800  1
  P  P12  1  0.41975800  0.94287000  0.79049200  1
  P  P13  1  0.42293200  0.45437400  0.30460200  1
  C  C14  1  0.95048200  0.49207500  0.24981500  1
  C  C15  1  0.95234300  0.99197300  0.75136000  1
  C  C16  1  0.04765700  0.00802700  0.24864000  1
  C  C17  1  0.04951800  0.50792500  0.75018500  1
  O  O18  1  0.89274300  0.85815600  0.90811000  1
  O  O19  1  0.89671900  0.35102900  0.39971600  1
  O  O20  1  0.89902000  0.91699400  0.33771000  1
  O  O21  1  0.82717500  0.52965000  0.22571700  1
  O  O22  1  0.90864800  0.42222900  0.85616900  1
  O  O23  1  0.83911900  0.02003400  0.70047500  1
  O  O24  1  0.67184200  0.95999900  0.11795400  1
  O  O25  1  0.67488600  0.46391600  0.58099400  1
  O  O26  1  0.67836100  0.63171700  0.79114100  1
  O  O27  1  0.69009600  0.16237700  0.29333600  1
  O  O28  1  0.59041200  0.59994100  0.16625600  1
  O  O29  1  0.54584000  0.69540800  0.56392300  1
  O  O30  1  0.54396400  0.19815800  0.08060200  1
  O  O31  1  0.58625000  0.08042500  0.64072400  1
  O  O32  1  0.41375000  0.91957500  0.35927600  1
  O  O33  1  0.45603600  0.80184100  0.91939800  1
  O  O34  1  0.45416000  0.30459200  0.43607700  1
  O  O35  1  0.40958800  0.40005900  0.83374400  1
  O  O36  1  0.30990400  0.83762300  0.70666400  1
  O  O37  1  0.32511400  0.53608400  0.41900600  1
  O  O38  1  0.32163900  0.36828300  0.20885900  1
  O  O39  1  0.32815800  0.04000100  0.88204600  1
  O  O40  1  0.16088100  0.97996600  0.29952500  1
  O  O41  1  0.09135200  0.57777100  0.14383100  1
  O  O42  1  0.17282500  0.47035000  0.77428300  1
  O  O43  1  0.10098000  0.08300600  0.66229000  1
  O  O44  1  0.10725700  0.14184400  0.09189000  1
  O  O45  1  0.10328100  0.64897100  0.60028400  1
