# generated using pymatgen
data_Li6V3P8O29
_symmetry_space_group_name_H-M   'P 1'
_cell_length_a   9.80002800
_cell_length_b   9.80540025
_cell_length_c   13.99803428
_cell_angle_alpha   90.58506335
_cell_angle_beta   90.07799462
_cell_angle_gamma   119.89437992
_symmetry_Int_Tables_number   1
_chemical_formula_structural   Li6V3P8O29
_chemical_formula_sum   'Li12 V6 P16 O58'
_cell_volume   1166.04925783
_cell_formula_units_Z   2
loop_
 _symmetry_equiv_pos_site_id
 _symmetry_equiv_pos_as_xyz
  1  'x, y, z'
loop_
 _atom_site_type_symbol
 _atom_site_label
 _atom_site_symmetry_multiplicity
 _atom_site_fract_x
 _atom_site_fract_y
 _atom_site_fract_z
 _atom_site_occupancy
  Li  Li0  1  0.33792400  0.68295000  0.39233400  1
  Li  Li1  1  0.66864000  0.76505600  0.05816200  1
  Li  Li2  1  0.09701800  0.33183200  0.05835800  1
  Li  Li3  1  0.76285900  0.66386000  0.44351100  1
  Li  Li4  1  0.23019700  0.32561200  0.56572000  1
  Li  Li5  1  0.90374900  0.66165000  0.93449700  1
  Li  Li6  1  0.34093800  0.23718300  0.93796300  1
  Li  Li7  1  0.33037500  0.09605400  0.44135500  1
  Li  Li8  1  0.89871700  0.23005400  0.44660900  1
  Li  Li9  1  0.76281300  0.09982800  0.93594600  1
  Li  Li10  1  0.03214100  0.98217900  0.99828300  1
  Li  Li11  1  0.97513400  0.95788200  0.51333500  1
  V  V12  1  0.56594000  0.56464500  0.25071800  1
  V  V13  1  0.43595700  0.43503100  0.75243200  1
  V  V14  1  0.00200300  0.56702600  0.74852300  1
  V  V15  1  0.99709100  0.43595900  0.24913400  1
  V  V16  1  0.43525400  0.99915700  0.24733000  1
  V  V17  1  0.55979700  0.99728700  0.74562500  1
  P  P18  1  0.22202900  0.91800300  0.83875300  1
  P  P19  1  0.08619200  0.78178900  0.34003700  1
  P  P20  1  0.69333300  0.91385700  0.34140200  1
  P  P21  1  0.33573900  0.66472600  0.12991300  1
  P  P22  1  0.33024400  0.66291100  0.63172800  1
  P  P23  1  0.68869200  0.77704200  0.84127300  1
  P  P24  1  0.77404200  0.68409800  0.65855100  1
  P  P25  1  0.08753900  0.31527600  0.84243200  1
  P  P26  1  0.91505200  0.68890500  0.15315300  1
  P  P27  1  0.22589500  0.32046000  0.34240000  1
  P  P28  1  0.31100600  0.22542200  0.15857600  1
  P  P29  1  0.66531800  0.33099500  0.37154700  1
  P  P30  1  0.66872600  0.33344400  0.86936700  1
  P  P31  1  0.30981500  0.08584200  0.65477100  1
  P  P32  1  0.91073000  0.22236400  0.65905300  1
  P  P33  1  0.77097300  0.08394700  0.15540800  1
  O  O34  1  0.22477200  0.01608600  0.56207000  1
  O  O35  1  0.25543800  0.92281200  0.34337000  1
  O  O36  1  0.98655000  0.76756300  0.06110200  1
  O  O37  1  0.08390900  0.74724800  0.84117100  1
  O  O38  1  0.38207300  0.92627000  0.83258200  1
  O  O39  1  0.33377800  0.80991200  0.17926800  1
  O  O40  1  0.53028900  0.90367200  0.33444100  1
  O  O41  1  0.76963700  0.99989400  0.06427400  1
  O  O42  1  0.66279100  0.91850400  0.84235600  1
  O  O43  1  0.18998000  0.67152100  0.67527400  1
  O  O44  1  0.09943600  0.63008600  0.32969800  1
  O  O45  1  0.48040500  0.81052900  0.67594300  1
  O  O46  1  0.33830200  0.66525100  0.02396700  1
  O  O47  1  0.33084700  0.66073000  0.52429600  1
  O  O48  1  0.49158700  0.67482300  0.17070200  1
  O  O49  1  0.08691700  0.46998400  0.82979400  1
  O  O50  1  0.18860700  0.51179000  0.16993000  1
  O  O51  1  0.66386500  0.74230500  0.34224300  1
  O  O52  1  0.79402000  0.79682500  0.74910600  1
  O  O53  1  0.78826100  0.77114000  0.56806700  1
  O  O54  1  0.77702800  0.77516000  0.92996200  1
  O  O55  1  0.53127300  0.62062800  0.82821700  1
  O  O56  1  0.32490600  0.51084600  0.66951400  1
  O  O57  1  0.74617100  0.66182500  0.16160300  1
  O  O58  1  0.37210200  0.48545500  0.32813900  1
  O  O59  1  0.07859600  0.34081600  0.34278700  1
  O  O60  1  0.01379100  0.80217300  0.24038000  1
  O  O61  1  0.98665200  0.78523100  0.41959000  1
  O  O62  1  0.99846100  0.21763400  0.57052200  1
  O  O63  1  0.91321700  0.65384300  0.66799000  1
  O  O64  1  0.61691100  0.53153300  0.66960000  1
  O  O65  1  0.25747100  0.34243200  0.84438500  1
  O  O66  1  0.66939200  0.48282600  0.33147000  1
  O  O67  1  0.46585100  0.38409200  0.17198800  1
  O  O68  1  0.22303300  0.22310200  0.06925200  1
  O  O69  1  0.23487800  0.23877900  0.43059200  1
  O  O70  1  0.20362700  0.21185100  0.25029800  1
  O  O71  1  0.33586300  0.25620300  0.66536100  1
  O  O72  1  0.81279400  0.48779000  0.83147900  1
  O  O73  1  0.91643600  0.53254200  0.17006600  1
  O  O74  1  0.51223600  0.32389000  0.83041100  1
  O  O75  1  0.66715500  0.33272100  0.97630300  1
  O  O76  1  0.66087000  0.32871800  0.47773300  1
  O  O77  1  0.51477900  0.18343100  0.32781500  1
  O  O78  1  0.91367400  0.37878100  0.67043200  1
  O  O79  1  0.81286200  0.32671500  0.33071900  1
  O  O80  1  0.33939700  0.08691200  0.16241300  1
  O  O81  1  0.19579800  0.98926600  0.74052400  1
  O  O82  1  0.20720900  0.01301900  0.91927800  1
  O  O83  1  0.46807400  0.09129500  0.66728700  1
  O  O84  1  0.67543300  0.18775300  0.82680900  1
  O  O85  1  0.62065500  0.09306600  0.17025100  1
  O  O86  1  0.91982600  0.24984200  0.16058900  1
  O  O87  1  0.00048900  0.22777800  0.93131900  1
  O  O88  1  0.00414800  0.20514900  0.75055500  1
  O  O89  1  0.74418800  0.08276400  0.66193000  1
  O  O90  1  0.79848300  0.00822700  0.42230300  1
  O  O91  1  0.78623600  0.98598300  0.24243500  1
