# generated using pymatgen
data_Li6V(SiO4)2
_symmetry_space_group_name_H-M   'P 1'
_cell_length_a   11.05407900
_cell_length_b   5.12876800
_cell_length_c   7.94498175
_cell_angle_alpha   51.47277831
_cell_angle_beta   90.00000000
_cell_angle_gamma   90.00000000
_symmetry_Int_Tables_number   1
_chemical_formula_structural   Li6V(SiO4)2
_chemical_formula_sum   'Li12 V2 Si4 O16'
_cell_volume   352.37791737
_cell_formula_units_Z   2
loop_
 _symmetry_equiv_pos_site_id
 _symmetry_equiv_pos_as_xyz
  1  'x, y, z'
loop_
 _atom_site_type_symbol
 _atom_site_label
 _atom_site_symmetry_multiplicity
 _atom_site_fract_x
 _atom_site_fract_y
 _atom_site_fract_z
 _atom_site_occupancy
  Li  Li0  1  0.59285300  0.12630500  0.01891100  1
  Li  Li1  1  0.81339300  0.94889400  0.24942900  1
  Li  Li2  1  0.32355200  0.10713200  0.23884400  1
  Li  Li3  1  0.44382700  0.67334000  0.30354500  1
  Li  Li4  1  0.09659300  0.80517700  0.50518200  1
  Li  Li5  1  0.59744400  0.68973200  0.49106400  1
  Li  Li6  1  0.40714700  0.12630500  0.51891100  1
  Li  Li7  1  0.67644800  0.10713200  0.73884400  1
  Li  Li8  1  0.18660700  0.94889400  0.74942900  1
  Li  Li9  1  0.55617300  0.67334000  0.80354500  1
  Li  Li10  1  0.90340700  0.80517700  0.00518200  1
  Li  Li11  1  0.40255600  0.68973200  0.99106400  1
  V  V12  1  0.07740600  0.30509500  0.99623300  1
  V  V13  1  0.92259400  0.30509500  0.49623300  1
  Si  Si14  1  0.65325000  0.42199000  0.24815400  1
  Si  Si15  1  0.17357900  0.57726700  0.24966300  1
  Si  Si16  1  0.82642100  0.57726700  0.74966300  1
  Si  Si17  1  0.34675000  0.42199000  0.74815400  1
  O  O18  1  0.58177000  0.74156100  0.02678300  1
  O  O19  1  0.09308000  0.68999900  0.03512700  1
  O  O20  1  0.31449300  0.47130000  0.25158000  1
  O  O21  1  0.65754000  0.10167600  0.24977500  1
  O  O22  1  0.79107300  0.54423300  0.25462700  1
  O  O23  1  0.17497200  0.89822100  0.25155300  1
  O  O24  1  0.57525400  0.32832800  0.45988800  1
  O  O25  1  0.10394900  0.25469600  0.46647400  1
  O  O26  1  0.90692000  0.68999900  0.53512700  1
  O  O27  1  0.41823000  0.74156100  0.52678300  1
  O  O28  1  0.82502800  0.89822100  0.75155300  1
  O  O29  1  0.34246000  0.10167600  0.74977500  1
  O  O30  1  0.68550700  0.47130000  0.75158000  1
  O  O31  1  0.20892700  0.54423300  0.75462700  1
  O  O32  1  0.89605100  0.25469600  0.96647400  1
  O  O33  1  0.42474600  0.32832800  0.95988800  1
