# generated using pymatgen
data_Li3Co4(BO3)4
_symmetry_space_group_name_H-M   'P 1'
_cell_length_a   8.92680300
_cell_length_b   5.21697100
_cell_length_c   11.25478916
_cell_angle_alpha   64.10455576
_cell_angle_beta   90.00000000
_cell_angle_gamma   90.00000000
_symmetry_Int_Tables_number   1
_chemical_formula_structural   Li3Co4(BO3)4
_chemical_formula_sum   'Li6 Co8 B8 O24'
_cell_volume   471.51722922
_cell_formula_units_Z   2
loop_
 _symmetry_equiv_pos_site_id
 _symmetry_equiv_pos_as_xyz
  1  'x, y, z'
loop_
 _atom_site_type_symbol
 _atom_site_label
 _atom_site_symmetry_multiplicity
 _atom_site_fract_x
 _atom_site_fract_y
 _atom_site_fract_z
 _atom_site_occupancy
  Li  Li0  1  0.25457200  0.98914500  0.84886900  1
  Li  Li1  1  0.24544100  0.56060700  0.58957300  1
  Li  Li2  1  0.75455900  0.56060700  0.08957300  1
  Li  Li3  1  0.75310400  0.07304500  0.59308400  1
  Li  Li4  1  0.74542800  0.98914500  0.34886900  1
  Li  Li5  1  0.24689600  0.07304500  0.09308400  1
  Co  Co6  1  0.41303200  0.54218800  0.13244500  1
  Co  Co7  1  0.40652900  0.96865100  0.37188400  1
  Co  Co8  1  0.59347100  0.96865100  0.87188400  1
  Co  Co9  1  0.58696800  0.54218800  0.63244500  1
  Co  Co10  1  0.92349400  0.47770200  0.35904300  1
  Co  Co11  1  0.91638200  0.04760700  0.11226000  1
  Co  Co12  1  0.08361800  0.04760700  0.61226000  1
  Co  Co13  1  0.07650600  0.47770200  0.85904300  1
  B  B14  1  0.41957200  0.04293500  0.62703300  1
  B  B15  1  0.58275000  0.45669100  0.37444700  1
  B  B16  1  0.41725000  0.45669100  0.87444700  1
  B  B17  1  0.58042800  0.04293500  0.12703300  1
  B  B18  1  0.91943900  0.96577800  0.87490200  1
  B  B19  1  0.08343800  0.54646600  0.12020200  1
  B  B20  1  0.91656200  0.54646600  0.62020200  1
  B  B21  1  0.08056100  0.96577800  0.37490200  1
  O  O22  1  0.28921600  0.15713000  0.64714500  1
  O  O23  1  0.45736900  0.35551100  0.33283700  1
  O  O24  1  0.43032500  0.69457900  0.90067900  1
  O  O25  1  0.28269000  0.31983600  0.88885000  1
  O  O26  1  0.41882000  0.83726000  0.57667100  1
  O  O27  1  0.58118000  0.83726000  0.07667100  1
  O  O28  1  0.55765300  0.12376900  0.65973000  1
  O  O29  1  0.44234700  0.12376900  0.15973000  1
  O  O30  1  0.71731000  0.31983600  0.38885000  1
  O  O31  1  0.54263100  0.35551100  0.83283700  1
  O  O32  1  0.56967500  0.69457900  0.40067900  1
  O  O33  1  0.78179200  0.82848000  0.88198100  1
  O  O34  1  0.71078400  0.15713000  0.14714500  1
  O  O35  1  0.91616700  0.31101100  0.59447400  1
  O  O36  1  0.94519100  0.63097600  0.15507300  1
  O  O37  1  0.78884400  0.69885300  0.60948700  1
  O  O38  1  0.04700900  0.87235800  0.83780000  1
  O  O39  1  0.95299100  0.87235800  0.33780000  1
  O  O40  1  0.92237700  0.18188300  0.91313300  1
  O  O41  1  0.07762300  0.18188300  0.41313300  1
  O  O42  1  0.21115600  0.69885300  0.10948700  1
  O  O43  1  0.08383300  0.31101100  0.09447400  1
  O  O44  1  0.05480900  0.63097600  0.65507300  1
  O  O45  1  0.21820800  0.82848000  0.38198100  1
