# generated using pymatgen
data_Li5SbS4
_symmetry_space_group_name_H-M   'P 1'
_cell_length_a   10.65643600
_cell_length_b   12.30870000
_cell_length_c   12.61042100
_cell_angle_alpha   90.00000000
_cell_angle_beta   90.00000000
_cell_angle_gamma   90.00000000
_symmetry_Int_Tables_number   1
_chemical_formula_structural   Li5SbS4
_chemical_formula_sum   'Li40 Sb8 S32'
_cell_volume   1654.06949979
_cell_formula_units_Z   8
loop_
 _symmetry_equiv_pos_site_id
 _symmetry_equiv_pos_as_xyz
  1  'x, y, z'
loop_
 _atom_site_type_symbol
 _atom_site_label
 _atom_site_symmetry_multiplicity
 _atom_site_fract_x
 _atom_site_fract_y
 _atom_site_fract_z
 _atom_site_occupancy
  Li  Li0  1  0.38004400  0.11864500  0.13029900  1
  Li  Li1  1  0.88004400  0.11864500  0.36970100  1
  Li  Li2  1  0.59471100  0.14611000  0.66129700  1
  Li  Li3  1  0.09471100  0.14611000  0.83870300  1
  Li  Li4  1  0.38702200  0.14097700  0.90175200  1
  Li  Li5  1  0.88702200  0.14097700  0.59824800  1
  Li  Li6  1  0.15768100  0.09731300  0.36182300  1
  Li  Li7  1  0.65768100  0.09731300  0.13817700  1
  Li  Li8  1  0.16107500  0.11682600  0.60463500  1
  Li  Li9  1  0.66107500  0.11682600  0.89536500  1
  Li  Li10  1  0.16107500  0.38317400  0.10463500  1
  Li  Li11  1  0.66107500  0.38317400  0.39536500  1
  Li  Li12  1  0.15768100  0.40268700  0.86182300  1
  Li  Li13  1  0.65768100  0.40268700  0.63817700  1
  Li  Li14  1  0.38702200  0.35902300  0.40175200  1
  Li  Li15  1  0.88702200  0.35902300  0.09824800  1
  Li  Li16  1  0.09471100  0.35389000  0.33870300  1
  Li  Li17  1  0.59471100  0.35389000  0.16129700  1
  Li  Li18  1  0.88004400  0.38135500  0.86970100  1
  Li  Li19  1  0.38004400  0.38135500  0.63029900  1
  Li  Li20  1  0.11995600  0.61864500  0.13029900  1
  Li  Li21  1  0.61995600  0.61864500  0.36970100  1
  Li  Li22  1  0.90528900  0.64611000  0.66129700  1
  Li  Li23  1  0.40528900  0.64611000  0.83870300  1
  Li  Li24  1  0.61297800  0.64097700  0.59824800  1
  Li  Li25  1  0.11297800  0.64097700  0.90175200  1
  Li  Li26  1  0.34231900  0.59731300  0.36182300  1
  Li  Li27  1  0.84231900  0.59731300  0.13817700  1
  Li  Li28  1  0.33892500  0.61682600  0.60463500  1
  Li  Li29  1  0.83892500  0.61682600  0.89536500  1
  Li  Li30  1  0.33892500  0.88317400  0.10463500  1
  Li  Li31  1  0.83892500  0.88317400  0.39536500  1
  Li  Li32  1  0.34231900  0.90268700  0.86182300  1
  Li  Li33  1  0.84231900  0.90268700  0.63817700  1
  Li  Li34  1  0.61297800  0.85902300  0.09824800  1
  Li  Li35  1  0.11297800  0.85902300  0.40175200  1
  Li  Li36  1  0.90528900  0.85389000  0.16129700  1
  Li  Li37  1  0.40528900  0.85389000  0.33870300  1
  Li  Li38  1  0.11995600  0.88135500  0.63029900  1
  Li  Li39  1  0.61995600  0.88135500  0.86970100  1
  Sb  Sb40  1  0.06899100  0.12052500  0.10842500  1
  Sb  Sb41  1  0.56899100  0.12052500  0.39157500  1
  Sb  Sb42  1  0.06899100  0.37947500  0.60842500  1
  Sb  Sb43  1  0.56899100  0.37947500  0.89157500  1
  Sb  Sb44  1  0.43100900  0.62052500  0.10842500  1
  Sb  Sb45  1  0.93100900  0.62052500  0.39157500  1
  Sb  Sb46  1  0.43100900  0.87947500  0.60842500  1
  Sb  Sb47  1  0.93100900  0.87947500  0.89157500  1
  S  S48  1  0.00339700  0.97503100  0.28601100  1
  S  S49  1  0.50339700  0.97503100  0.21398900  1
  S  S50  1  0.23153000  0.03027800  0.99443600  1
  S  S51  1  0.73153000  0.03027800  0.50556400  1
  S  S52  1  0.22088200  0.22453500  0.22123700  1
  S  S53  1  0.72088200  0.22453500  0.27876300  1
  S  S54  1  0.53429800  0.21991600  0.02467500  1
  S  S55  1  0.03429800  0.21991600  0.47532500  1
  S  S56  1  0.03429800  0.28008400  0.97532500  1
  S  S57  1  0.53429800  0.28008400  0.52467500  1
  S  S58  1  0.22088200  0.27546500  0.72123700  1
  S  S59  1  0.72088200  0.27546500  0.77876300  1
  S  S60  1  0.23153000  0.46972200  0.49443600  1
  S  S61  1  0.73153000  0.46972200  0.00556400  1
  S  S62  1  0.50339700  0.52496900  0.71398900  1
  S  S63  1  0.00339700  0.52496900  0.78601100  1
  S  S64  1  0.49660300  0.47503100  0.28601100  1
  S  S65  1  0.99660300  0.47503100  0.21398900  1
  S  S66  1  0.26847000  0.53027800  0.99443600  1
  S  S67  1  0.76847000  0.53027800  0.50556400  1
  S  S68  1  0.27911800  0.72453500  0.22123700  1
  S  S69  1  0.77911800  0.72453500  0.27876300  1
  S  S70  1  0.46570200  0.71991600  0.47532500  1
  S  S71  1  0.96570200  0.71991600  0.02467500  1
  S  S72  1  0.96570200  0.78008400  0.52467500  1
  S  S73  1  0.46570200  0.78008400  0.97532500  1
  S  S74  1  0.27911800  0.77546500  0.72123700  1
  S  S75  1  0.77911800  0.77546500  0.77876300  1
  S  S76  1  0.26847000  0.96972200  0.49443600  1
  S  S77  1  0.76847000  0.96972200  0.00556400  1
  S  S78  1  0.49660300  0.02496900  0.78601100  1
  S  S79  1  0.99660300  0.02496900  0.71398900  1
