# generated using pymatgen
data_Li4V3P8O29
_symmetry_space_group_name_H-M   'P 1'
_cell_length_a   9.74385700
_cell_length_b   9.75629082
_cell_length_c   14.19676576
_cell_angle_alpha   89.57502506
_cell_angle_beta   89.54128229
_cell_angle_gamma   60.07907414
_symmetry_Int_Tables_number   1
_chemical_formula_structural   Li4V3P8O29
_chemical_formula_sum   'Li8 V6 P16 O58'
_cell_volume   1169.67141458
_cell_formula_units_Z   2
loop_
 _symmetry_equiv_pos_site_id
 _symmetry_equiv_pos_as_xyz
  1  'x, y, z'
loop_
 _atom_site_type_symbol
 _atom_site_label
 _atom_site_symmetry_multiplicity
 _atom_site_fract_x
 _atom_site_fract_y
 _atom_site_fract_z
 _atom_site_occupancy
  Li  Li0  1  0.76200800  0.33688700  0.44697600  1
  Li  Li1  1  0.76666200  0.89914300  0.94518000  1
  Li  Li2  1  0.33013700  0.76587300  0.94131800  1
  Li  Li3  1  0.32639800  0.90990800  0.43749200  1
  Li  Li4  1  0.67519000  0.23197300  0.05683200  1
  Li  Li5  1  0.23014500  0.67093700  0.55712300  1
  Li  Li6  1  0.02501200  0.02309700  0.99963500  1
  Li  Li7  1  0.94488800  0.01373600  0.50735300  1
  V  V8  1  0.56556000  0.99857700  0.74379200  1
  V  V9  1  0.43401200  0.00348900  0.25392600  1
  V  V10  1  0.56504700  0.43513600  0.24863500  1
  V  V11  1  0.43396000  0.56419200  0.75273000  1
  V  V12  1  0.00086800  0.43452800  0.75317700  1
  V  V13  1  0.99929400  0.56352500  0.24666800  1
  P  P14  1  0.91863800  0.30293500  0.15454700  1
  P  P15  1  0.77670700  0.31331700  0.66137100  1
  P  P16  1  0.91934900  0.77598500  0.65880600  1
  P  P17  1  0.66626100  0.67153300  0.86818700  1
  P  P18  1  0.66755800  0.66170400  0.36791900  1
  P  P19  1  0.77424200  0.91399800  0.16003200  1
  P  P20  1  0.69537800  0.08524900  0.34217100  1
  P  P21  1  0.31403200  0.77858800  0.15889500  1
  P  P22  1  0.68652300  0.22068900  0.84152700  1
  P  P23  1  0.31228100  0.91179900  0.65370700  1
  P  P24  1  0.22100300  0.08414900  0.83574100  1
  P  P25  1  0.32946200  0.33628700  0.63257100  1
  P  P26  1  0.33519900  0.33330400  0.13308800  1
  P  P27  1  0.07894200  0.22486600  0.34112300  1
  P  P28  1  0.22188300  0.68547700  0.33787700  1
  P  P29  1  0.08195400  0.69427500  0.84454100  1
  O  O30  1  0.98602500  0.21865300  0.42301100  1
  O  O31  1  0.91664400  0.34527700  0.67161100  1
  O  O32  1  0.77064700  0.20879500  0.93114100  1
  O  O33  1  0.74116200  0.34194700  0.16201500  1
  O  O34  1  0.92464900  0.45819600  0.16595600  1
  O  O35  1  0.81107400  0.52489300  0.82107900  1
  O  O36  1  0.92519400  0.61622400  0.66972200  1
  O  O37  1  0.99269200  0.79322400  0.92677400  1
  O  O38  1  0.91706200  0.74281000  0.16742300  1
  O  O39  1  0.67006000  0.51071400  0.32233800  1
  O  O40  1  0.61961100  0.46797400  0.67489500  1
  O  O41  1  0.80963900  0.66422200  0.31695500  1
  O  O42  1  0.67360100  0.67833300  0.97267200  1
  O  O43  1  0.67937400  0.63690200  0.47176500  1
  O  O44  1  0.67139400  0.81795400  0.82322200  1
  O  O45  1  0.47051300  0.61902800  0.17397300  1
  O  O46  1  0.51245000  0.67525100  0.83276900  1
  O  O47  1  0.74377700  0.91318400  0.66472900  1
  O  O48  1  0.79498200  0.00863900  0.24610500  1
  O  O49  1  0.79587000  0.00797200  0.42471200  1
  O  O50  1  0.77889800  0.99473600  0.07037800  1
  O  O51  1  0.62025800  0.91121200  0.17464500  1
  O  O52  1  0.51173600  0.81142600  0.33640400  1
  O  O53  1  0.65649500  0.07858000  0.83462000  1
  O  O54  1  0.47199700  0.90795200  0.67181600  1
  O  O55  1  0.33843600  0.74142900  0.66363200  1
  O  O56  1  0.79541600  0.20152900  0.75112200  1
  O  O57  1  0.78909900  0.22832200  0.57194300  1
  O  O58  1  0.22629300  0.76761700  0.42654500  1
  O  O59  1  0.65522300  0.26234500  0.33663100  1
  O  O60  1  0.54122800  0.07719500  0.33264700  1
  O  O61  1  0.34708800  0.91583500  0.17249000  1
  O  O62  1  0.47863600  0.18623700  0.67823800  1
  O  O63  1  0.38294200  0.07592100  0.82615900  1
  O  O64  1  0.20614500  0.99285300  0.91652000  1
  O  O65  1  0.23849600  0.98288200  0.56153000  1
  O  O66  1  0.19741700  0.01013500  0.73907800  1
  O  O67  1  0.25225500  0.08579400  0.34197500  1
  O  O68  1  0.48977200  0.32920600  0.17546300  1
  O  O69  1  0.52887700  0.37871200  0.82774400  1
  O  O70  1  0.33212500  0.19137600  0.17914000  1
  O  O71  1  0.34668000  0.33821200  0.02921400  1
  O  O72  1  0.32934800  0.33065000  0.52828200  1
  O  O73  1  0.18608300  0.33375600  0.68236600  1
  O  O74  1  0.38061600  0.52848900  0.32319500  1
  O  O75  1  0.32639100  0.48743300  0.67024900  1
  O  O76  1  0.08534600  0.25830600  0.83557500  1
  O  O77  1  0.00276700  0.19931000  0.24674400  1
  O  O78  1  0.99203700  0.20512500  0.06988500  1
  O  O79  1  0.07822100  0.38303100  0.32591700  1
  O  O80  1  0.18845100  0.48247100  0.17839100  1
  O  O81  1  0.07980300  0.53780400  0.83111800  1
  O  O82  1  0.25557600  0.66054800  0.84177700  1
  O  O83  1  0.23502600  0.78794100  0.06795200  1
  O  O84  1  0.20114700  0.79439400  0.24739500  1
  O  O85  1  0.08249100  0.65423000  0.33466100  1
  O  O86  1  0.00197600  0.79613900  0.57479000  1
  O  O87  1  0.00311700  0.79745300  0.75016200  1
