# generated using pymatgen
data_Li4V3Fe3(SnO8)2
_symmetry_space_group_name_H-M   'P 1'
_cell_length_a   5.98730900
_cell_length_b   5.99181560
_cell_length_c   9.80311435
_cell_angle_alpha   90.07024058
_cell_angle_beta   90.15948319
_cell_angle_gamma   119.82374616
_symmetry_Int_Tables_number   1
_chemical_formula_structural   Li4V3Fe3(SnO8)2
_chemical_formula_sum   'Li4 V3 Fe3 Sn2 O16'
_cell_volume   305.10530299
_cell_formula_units_Z   1
loop_
 _symmetry_equiv_pos_site_id
 _symmetry_equiv_pos_as_xyz
  1  'x, y, z'
loop_
 _atom_site_type_symbol
 _atom_site_label
 _atom_site_symmetry_multiplicity
 _atom_site_fract_x
 _atom_site_fract_y
 _atom_site_fract_z
 _atom_site_occupancy
  Li  Li0  1  0.65878800  0.33095300  0.10428100  1
  Li  Li1  1  0.00742700  0.00297200  0.00689400  1
  Li  Li2  1  0.00591300  0.00207000  0.50583600  1
  Li  Li3  1  0.32479800  0.66326200  0.60656100  1
  V  V4  1  0.17360300  0.82443600  0.28279500  1
  V  V5  1  0.34298000  0.17099100  0.78010200  1
  V  V6  1  0.17151000  0.34277500  0.28638600  1
  Fe  Fe7  1  0.83305400  0.66226600  0.78710100  1
  Fe  Fe8  1  0.83234300  0.17043000  0.78714100  1
  Fe  Fe9  1  0.66877200  0.83216500  0.28564300  1
  Sn  Sn10  1  0.66577900  0.33174900  0.50829400  1
  Sn  Sn11  1  0.33643100  0.66792100  0.00798700  1
  O  O12  1  0.84208600  0.67733400  0.40052400  1
  O  O13  1  0.95938200  0.47900800  0.66096500  1
  O  O14  1  0.64157600  0.32110400  0.89268100  1
  O  O15  1  0.01566000  0.00764500  0.69327800  1
  O  O16  1  0.01165200  0.99420200  0.19411300  1
  O  O17  1  0.84280700  0.16147800  0.39982900  1
  O  O18  1  0.50834300  0.47513900  0.66094500  1
  O  O19  1  0.50964300  0.03339600  0.66150500  1
  O  O20  1  0.68218500  0.84141400  0.90133200  1
  O  O21  1  0.32401200  0.15735100  0.40094200  1
  O  O22  1  0.47667900  0.96422600  0.16271300  1
  O  O23  1  0.47921200  0.51652700  0.16243200  1
  O  O24  1  0.32639500  0.67901700  0.39394500  1
  O  O25  1  0.16428400  0.84036500  0.89911900  1
  O  O26  1  0.03155500  0.52660400  0.15849400  1
  O  O27  1  0.16313000  0.32350400  0.90032200  1
