# generated using pymatgen
data_Li2V3(P2O7)2
_symmetry_space_group_name_H-M   'P 1'
_cell_length_a   5.33850700
_cell_length_b   6.62527347
_cell_length_c   16.03223444
_cell_angle_alpha   81.67600264
_cell_angle_beta   83.46847737
_cell_angle_gamma   72.26610188
_symmetry_Int_Tables_number   1
_chemical_formula_structural   Li2V3(P2O7)2
_chemical_formula_sum   'Li4 V6 P8 O28'
_cell_volume   532.94867932
_cell_formula_units_Z   2
loop_
 _symmetry_equiv_pos_site_id
 _symmetry_equiv_pos_as_xyz
  1  'x, y, z'
loop_
 _atom_site_type_symbol
 _atom_site_label
 _atom_site_symmetry_multiplicity
 _atom_site_fract_x
 _atom_site_fract_y
 _atom_site_fract_z
 _atom_site_occupancy
  Li  Li0  1  0.07285300  0.21531800  0.99288100  1
  Li  Li1  1  0.36161400  0.68321300  0.11993300  1
  Li  Li2  1  0.63838600  0.31678700  0.88006700  1
  Li  Li3  1  0.92714700  0.78468200  0.00711900  1
  V  V4  1  0.16058900  0.28608800  0.57841200  1
  V  V5  1  0.03527700  0.62186900  0.81517400  1
  V  V6  1  0.25125500  0.97011800  0.33237200  1
  V  V7  1  0.74874500  0.02988200  0.66762800  1
  V  V8  1  0.96472300  0.37813100  0.18482600  1
  V  V9  1  0.83941100  0.71391200  0.42158800  1
  P  P10  1  0.16715300  0.09543200  0.78988400  1
  P  P11  1  0.37408300  0.44457200  0.31763100  1
  P  P12  1  0.56133400  0.24278700  0.07340700  1
  P  P13  1  0.27757400  0.78434400  0.53894400  1
  P  P14  1  0.72242600  0.21565600  0.46105600  1
  P  P15  1  0.43866600  0.75721300  0.92659300  1
  P  P16  1  0.62591700  0.55542800  0.68236900  1
  P  P17  1  0.83284700  0.90456800  0.21011600  1
  O  O18  1  0.02339600  0.03479000  0.21691800  1
  O  O19  1  0.25994500  0.32097300  0.07199600  1
  O  O20  1  0.21777200  0.30681000  0.29063000  1
  O  O21  1  0.02438100  0.28807500  0.83951100  1
  O  O22  1  0.18951000  0.66192100  0.33911800  1
  O  O23  1  0.12398100  0.62540900  0.53368500  1
  O  O24  1  0.32435600  0.14386800  0.70757000  1
  O  O25  1  0.60316800  0.05161100  0.15096500  1
  O  O26  1  0.10983100  0.97376200  0.58503100  1
  O  O27  1  0.71271100  0.14214700  0.99460000  1
  O  O28  1  0.47012100  0.32762600  0.40807000  1
  O  O29  1  0.32502300  0.58317000  0.90743400  1
  O  O30  1  0.58303200  0.15026000  0.54534600  1
  O  O31  1  0.60055300  0.47056800  0.25714400  1
  O  O32  1  0.39944700  0.52943200  0.74285600  1
  O  O33  1  0.41696800  0.84974000  0.45465400  1
  O  O34  1  0.67497700  0.41683000  0.09256600  1
  O  O35  1  0.52987900  0.67237400  0.59193000  1
  O  O36  1  0.28728900  0.85785300  0.00540000  1
  O  O37  1  0.89016900  0.02623800  0.41496900  1
  O  O38  1  0.39683200  0.94838900  0.84903500  1
  O  O39  1  0.67564400  0.85613200  0.29243000  1
  O  O40  1  0.87601900  0.37459100  0.46631500  1
  O  O41  1  0.81049000  0.33807900  0.66088200  1
  O  O42  1  0.97561900  0.71192500  0.16048900  1
  O  O43  1  0.78222800  0.69319000  0.70937000  1
  O  O44  1  0.74005500  0.67902700  0.92800400  1
  O  O45  1  0.97660400  0.96521000  0.78308200  1
