# generated using pymatgen
data_Li3Fe5O9
_symmetry_space_group_name_H-M   'P 1'
_cell_length_a   8.82577879
_cell_length_b   8.82577879
_cell_length_c   5.36159264
_cell_angle_alpha   89.44186888
_cell_angle_beta   90.55813112
_cell_angle_gamma   99.24915923
_symmetry_Int_Tables_number   1
_chemical_formula_structural   Li3Fe5O9
_chemical_formula_sum   'Li6 Fe10 O18'
_cell_volume   412.17436345
_cell_formula_units_Z   2
loop_
 _symmetry_equiv_pos_site_id
 _symmetry_equiv_pos_as_xyz
  1  'x, y, z'
loop_
 _atom_site_type_symbol
 _atom_site_label
 _atom_site_symmetry_multiplicity
 _atom_site_fract_x
 _atom_site_fract_y
 _atom_site_fract_z
 _atom_site_occupancy
  Li  Li0  1  0.32713300  0.82307800  0.21647900  1
  Li  Li1  1  0.17692200  0.67286700  0.71647900  1
  Li  Li2  1  0.59524400  0.59524400  0.25000000  1
  Li  Li3  1  0.40475600  0.40475600  0.75000000  1
  Li  Li4  1  0.82307800  0.32713300  0.28352100  1
  Li  Li5  1  0.67286700  0.17692200  0.78352100  1
  Fe  Fe6  1  0.69221600  0.97666100  0.21104500  1
  Fe  Fe7  1  0.02333900  0.30778400  0.71104500  1
  Fe  Fe8  1  0.21806300  0.45533400  0.20666500  1
  Fe  Fe9  1  0.54466600  0.78193700  0.70666600  1
  Fe  Fe10  1  0.06795800  0.06795800  0.25000000  1
  Fe  Fe11  1  0.93204200  0.93204200  0.75000000  1
  Fe  Fe12  1  0.45533400  0.21806300  0.29333500  1
  Fe  Fe13  1  0.78193700  0.54466600  0.79333400  1
  Fe  Fe14  1  0.97666100  0.69221600  0.28895500  1
  Fe  Fe15  1  0.30778400  0.02333900  0.78895500  1
  O  O16  1  0.01811100  0.86231900  0.07774800  1
  O  O17  1  0.13768100  0.98188900  0.57774800  1
  O  O18  1  0.17967900  0.64283200  0.34461500  1
  O  O19  1  0.35716800  0.82032100  0.84461500  1
  O  O20  1  0.54343600  0.81540900  0.34995900  1
  O  O21  1  0.18459100  0.45656400  0.84995900  1
  O  O22  1  0.08497200  0.28859100  0.36702400  1
  O  O23  1  0.71140900  0.91502800  0.86702400  1
  O  O24  1  0.42508600  0.42508600  0.25000000  1
  O  O25  1  0.57491400  0.57491400  0.75000000  1
  O  O26  1  0.28859100  0.08497200  0.13297600  1
  O  O27  1  0.91502800  0.71140900  0.63297600  1
  O  O28  1  0.81540900  0.54343600  0.15004100  1
  O  O29  1  0.45656400  0.18459100  0.65004100  1
  O  O30  1  0.64283200  0.17967900  0.15538500  1
  O  O31  1  0.82032100  0.35716800  0.65538500  1
  O  O32  1  0.86231900  0.01811100  0.42225200  1
  O  O33  1  0.98188900  0.13768100  0.92225200  1
