# generated using pymatgen
data_LiFeSiO4
_symmetry_space_group_name_H-M   'P 1'
_cell_length_a   5.08175900
_cell_length_b   6.73408500
_cell_length_c   10.36789400
_cell_angle_alpha   90.00000000
_cell_angle_beta   90.00000000
_cell_angle_gamma   90.00000000
_symmetry_Int_Tables_number   1
_chemical_formula_structural   LiFeSiO4
_chemical_formula_sum   'Li4 Fe4 Si4 O16'
_cell_volume   354.79967005
_cell_formula_units_Z   4
loop_
 _symmetry_equiv_pos_site_id
 _symmetry_equiv_pos_as_xyz
  1  'x, y, z'
loop_
 _atom_site_type_symbol
 _atom_site_label
 _atom_site_symmetry_multiplicity
 _atom_site_fract_x
 _atom_site_fract_y
 _atom_site_fract_z
 _atom_site_occupancy
  Li  Li0  1  0.18380300  0.78719800  0.15678000  1
  Li  Li1  1  0.68380300  0.28719800  0.34322000  1
  Li  Li2  1  0.31619700  0.78719800  0.65678000  1
  Li  Li3  1  0.81619700  0.28719800  0.84322000  1
  Fe  Fe4  1  0.18298500  0.28590500  0.15950900  1
  Fe  Fe5  1  0.68298500  0.78590500  0.34049100  1
  Fe  Fe6  1  0.31701500  0.28590500  0.65950900  1
  Fe  Fe7  1  0.81701500  0.78590500  0.84049100  1
  Si  Si8  1  0.68249600  0.53699000  0.09187300  1
  Si  Si9  1  0.18249600  0.03699000  0.40812700  1
  Si  Si10  1  0.81750400  0.53699000  0.59187300  1
  Si  Si11  1  0.31750400  0.03699000  0.90812700  1
  O  O12  1  0.24265200  0.04972100  0.06187600  1
  O  O13  1  0.36126300  0.52406700  0.11373000  1
  O  O14  1  0.81572600  0.33950600  0.15969400  1
  O  O15  1  0.79480500  0.73479000  0.16798400  1
  O  O16  1  0.29480500  0.23479000  0.33201600  1
  O  O17  1  0.31572600  0.83950600  0.34030600  1
  O  O18  1  0.86126300  0.02406700  0.38627000  1
  O  O19  1  0.74265200  0.54972100  0.43812400  1
  O  O20  1  0.25734800  0.04972100  0.56187600  1
  O  O21  1  0.13873700  0.52406700  0.61373000  1
  O  O22  1  0.68427400  0.33950600  0.65969400  1
  O  O23  1  0.70519500  0.73479000  0.66798400  1
  O  O24  1  0.20519500  0.23479000  0.83201600  1
  O  O25  1  0.18427400  0.83950600  0.84030600  1
  O  O26  1  0.63873700  0.02406700  0.88627000  1
  O  O27  1  0.75734800  0.54972100  0.93812400  1
