# generated using pymatgen
data_Li5VP3O11
_symmetry_space_group_name_H-M   'P 1'
_cell_length_a   5.37486700
_cell_length_b   8.52924315
_cell_length_c   9.64476359
_cell_angle_alpha   84.75141499
_cell_angle_beta   88.35088471
_cell_angle_gamma   85.09856193
_symmetry_Int_Tables_number   1
_chemical_formula_structural   Li5VP3O11
_chemical_formula_sum   'Li10 V2 P6 O22'
_cell_volume   438.58830363
_cell_formula_units_Z   2
loop_
 _symmetry_equiv_pos_site_id
 _symmetry_equiv_pos_as_xyz
  1  'x, y, z'
loop_
 _atom_site_type_symbol
 _atom_site_label
 _atom_site_symmetry_multiplicity
 _atom_site_fract_x
 _atom_site_fract_y
 _atom_site_fract_z
 _atom_site_occupancy
  Li  Li0  1  0.78030100  0.67100700  0.65757800  1
  Li  Li1  1  0.70648100  0.37880700  0.16669500  1
  Li  Li2  1  0.67289100  0.61680600  0.32142200  1
  Li  Li3  1  0.83150900  0.38065500  0.84115500  1
  Li  Li4  1  0.48871400  0.99619600  0.16170100  1
  Li  Li5  1  0.51128600  0.00380400  0.83829900  1
  Li  Li6  1  0.16849100  0.61934500  0.15884500  1
  Li  Li7  1  0.32710900  0.38319400  0.67857800  1
  Li  Li8  1  0.29351900  0.62119300  0.83330500  1
  Li  Li9  1  0.21969900  0.32899300  0.34242200  1
  V  V10  1  0.00000000  0.00000000  0.00000000  1
  V  V11  1  0.50000000  0.00000000  0.50000000  1
  P  P12  1  0.96421100  0.05000400  0.68594200  1
  P  P13  1  0.78663600  0.70628200  0.98459500  1
  P  P14  1  0.72984500  0.32842900  0.51954400  1
  P  P15  1  0.27015500  0.67157100  0.48045600  1
  P  P16  1  0.21336400  0.29371800  0.01540500  1
  P  P17  1  0.03578900  0.94999600  0.31405800  1
  O  O18  1  0.06080700  0.74392100  0.94300100  1
  O  O19  1  0.94833300  0.18829600  0.55775900  1
  O  O20  1  0.87415200  0.13363300  0.81471300  1
  O  O21  1  0.78868000  0.60351600  0.12677800  1
  O  O22  1  0.81938800  0.40049800  0.37825100  1
  O  O23  1  0.75980000  0.01100100  0.31353100  1
  O  O24  1  0.77510000  0.93087900  0.66083800  1
  O  O25  1  0.71015600  0.43482100  0.63974300  1
  O  O26  1  0.66638900  0.62325900  0.86977100  1
  O  O27  1  0.65178800  0.87299900  0.00486000  1
  O  O28  1  0.52058700  0.74766700  0.48507400  1
  O  O29  1  0.47941300  0.25233300  0.51492600  1
  O  O30  1  0.34821200  0.12700100  0.99514000  1
  O  O31  1  0.33361100  0.37674100  0.13022900  1
  O  O32  1  0.28984400  0.56517900  0.36025700  1
  O  O33  1  0.22490000  0.06912100  0.33916200  1
  O  O34  1  0.24020000  0.98899900  0.68646900  1
  O  O35  1  0.18061200  0.59950200  0.62174900  1
  O  O36  1  0.21132000  0.39648400  0.87322200  1
  O  O37  1  0.12584800  0.86636700  0.18528700  1
  O  O38  1  0.05166700  0.81170400  0.44224100  1
  O  O39  1  0.93919300  0.25607900  0.05699900  1
