# generated using pymatgen
data_LiMn2P2H5O11
_symmetry_space_group_name_H-M   'P 1'
_cell_length_a   9.80316600
_cell_length_b   9.13933300
_cell_length_c   11.83845412
_cell_angle_alpha   53.97755556
_cell_angle_beta   90.00000000
_cell_angle_gamma   90.00000000
_symmetry_Int_Tables_number   1
_chemical_formula_structural   LiMn2P2H5O11
_chemical_formula_sum   'Li4 Mn8 P8 H20 O44'
_cell_volume   857.84701352
_cell_formula_units_Z   4
loop_
 _symmetry_equiv_pos_site_id
 _symmetry_equiv_pos_as_xyz
  1  'x, y, z'
loop_
 _atom_site_type_symbol
 _atom_site_label
 _atom_site_symmetry_multiplicity
 _atom_site_fract_x
 _atom_site_fract_y
 _atom_site_fract_z
 _atom_site_occupancy
  Li  Li0  1  0.69657100  0.44248400  0.01356600  1
  Li  Li1  1  0.80342900  0.44248400  0.51356600  1
  Li  Li2  1  0.19657100  0.55751600  0.48643400  1
  Li  Li3  1  0.30342900  0.55751600  0.98643400  1
  Mn  Mn4  1  0.72058200  0.70917100  0.08764600  1
  Mn  Mn5  1  0.92092400  0.03899900  0.09404800  1
  Mn  Mn6  1  0.22058200  0.29082900  0.41235400  1
  Mn  Mn7  1  0.42092400  0.96100100  0.40595200  1
  Mn  Mn8  1  0.57907600  0.03899900  0.59404800  1
  Mn  Mn9  1  0.77941800  0.70917100  0.58764600  1
  Mn  Mn10  1  0.07907600  0.96100100  0.90595200  1
  Mn  Mn11  1  0.27941800  0.29082900  0.91235400  1
  P  P12  1  0.02487100  0.64542800  0.21909200  1
  P  P13  1  0.15783600  0.17860700  0.20409400  1
  P  P14  1  0.52487100  0.35457200  0.28090800  1
  P  P15  1  0.65783600  0.82139300  0.29590600  1
  P  P16  1  0.34216400  0.17860700  0.70409400  1
  P  P17  1  0.47512900  0.64542800  0.71909200  1
  P  P18  1  0.84216400  0.82139300  0.79590600  1
  P  P19  1  0.97512900  0.35457200  0.78090800  1
  H  H20  1  0.45403500  0.84220200  0.03744800  1
  H  H21  1  0.34607100  0.66964600  0.20870500  1
  H  H22  1  0.22362500  0.95421100  0.07617900  1
  H  H23  1  0.49781800  0.08315700  0.11810400  1
  H  H24  1  0.84607100  0.33035400  0.29129500  1
  H  H25  1  0.89469000  0.18121900  0.27146200  1
  H  H26  1  0.39469000  0.81878100  0.22853800  1
  H  H27  1  0.99781800  0.91684300  0.38189600  1
  H  H28  1  0.72362500  0.04578900  0.42382100  1
  H  H29  1  0.95403500  0.15779800  0.46255200  1
  H  H30  1  0.04596500  0.84220200  0.53744800  1
  H  H31  1  0.27637500  0.95421100  0.57617900  1
  H  H32  1  0.00218200  0.08315700  0.61810400  1
  H  H33  1  0.60531000  0.18121900  0.77146200  1
  H  H34  1  0.10531000  0.81878100  0.72853800  1
  H  H35  1  0.15392900  0.66964600  0.70870500  1
  H  H36  1  0.50218200  0.91684300  0.88189600  1
  H  H37  1  0.77637500  0.04578900  0.92382100  1
  H  H38  1  0.65392900  0.33035400  0.79129500  1
  H  H39  1  0.54596500  0.15779800  0.96255200  1
  O  O40  1  0.09836100  0.71664000  0.07809800  1
  O  O41  1  0.47997700  0.17397400  0.01847800  1
  O  O42  1  0.34147600  0.80096900  0.16640000  1
  O  O43  1  0.22003000  0.31988100  0.05611100  1
  O  O44  1  0.16636400  0.06002700  0.99995700  1
  O  O45  1  0.64127300  0.71726600  0.23075600  1
  O  O46  1  0.62516100  0.47545100  0.15697800  1
  O  O47  1  0.89116600  0.54733900  0.23395000  1
  O  O48  1  0.39116600  0.45266100  0.26605000  1
  O  O49  1  0.12516100  0.52454900  0.34302200  1
  O  O50  1  0.00806300  0.13243600  0.18903800  1
  O  O51  1  0.14127300  0.28273400  0.26924400  1
  O  O52  1  0.74090000  0.99513500  0.20788500  1
  O  O53  1  0.49365300  0.19776000  0.26789900  1
  O  O54  1  0.84147600  0.19903100  0.33360000  1
  O  O55  1  0.99365300  0.80224000  0.23210100  1
  O  O56  1  0.24090000  0.00486500  0.29211500  1
  O  O57  1  0.50806300  0.86756400  0.31096200  1
  O  O58  1  0.59836100  0.28336000  0.42190200  1
  O  O59  1  0.02002300  0.17397400  0.51847800  1
  O  O60  1  0.27997000  0.31988100  0.55611100  1
  O  O61  1  0.33363600  0.06002700  0.49995700  1
  O  O62  1  0.66636400  0.93997300  0.50004300  1
  O  O63  1  0.72003000  0.68011900  0.44388900  1
  O  O64  1  0.97997700  0.82602600  0.48152200  1
  O  O65  1  0.40163900  0.71664000  0.57809800  1
  O  O66  1  0.49193700  0.13243600  0.68903800  1
  O  O67  1  0.75910000  0.99513500  0.70788500  1
  O  O68  1  0.00634700  0.19776000  0.76789900  1
  O  O69  1  0.15852400  0.80096900  0.66640000  1
  O  O70  1  0.50634700  0.80224000  0.73210100  1
  O  O71  1  0.25910000  0.00486500  0.79211500  1
  O  O72  1  0.85872700  0.71726600  0.73075600  1
  O  O73  1  0.99193700  0.86756400  0.81096200  1
  O  O74  1  0.87483900  0.47545100  0.65697800  1
  O  O75  1  0.60883400  0.54733900  0.73395000  1
  O  O76  1  0.10883400  0.45266100  0.76605000  1
  O  O77  1  0.37483900  0.52454900  0.84302200  1
  O  O78  1  0.35872700  0.28273400  0.76924400  1
  O  O79  1  0.83363600  0.93997300  0.00004300  1
  O  O80  1  0.77997000  0.68011900  0.94388900  1
  O  O81  1  0.65852400  0.19903100  0.83360000  1
  O  O82  1  0.52002300  0.82602600  0.98152200  1
  O  O83  1  0.90163900  0.28336000  0.92190200  1
