# generated using pymatgen
data_Li2V(OF)2
_symmetry_space_group_name_H-M   'P 1'
_cell_length_a   5.08035788
_cell_length_b   5.90054800
_cell_length_c   9.79360326
_cell_angle_alpha   90.00080231
_cell_angle_beta   80.44345863
_cell_angle_gamma   90.00069705
_symmetry_Int_Tables_number   1
_chemical_formula_structural   Li2V(OF)2
_chemical_formula_sum   'Li8 V4 O8 F8'
_cell_volume   289.50756564
_cell_formula_units_Z   4
loop_
 _symmetry_equiv_pos_site_id
 _symmetry_equiv_pos_as_xyz
  1  'x, y, z'
loop_
 _atom_site_type_symbol
 _atom_site_label
 _atom_site_symmetry_multiplicity
 _atom_site_fract_x
 _atom_site_fract_y
 _atom_site_fract_z
 _atom_site_occupancy
  Li  Li0  1  0.99980700  0.13385700  0.25004600  1
  Li  Li1  1  0.50019500  0.13385600  0.74995600  1
  Li  Li2  1  0.50017500  0.86606100  0.24996300  1
  Li  Li3  1  0.99982200  0.86606000  0.75003500  1
  Li  Li4  1  0.00003800  0.60800400  0.25005700  1
  Li  Li5  1  0.49996600  0.60800400  0.74994200  1
  Li  Li6  1  0.49997800  0.39194400  0.24992400  1
  Li  Li7  1  0.00001700  0.39194500  0.75007600  1
  V  V8  1  0.75000500  0.88274100  0.49999400  1
  V  V9  1  0.75000200  0.11730900  0.00000100  1
  V  V10  1  0.24999500  0.88290300  0.00000300  1
  V  V11  1  0.24998700  0.11762900  0.50000800  1
  O  O12  1  0.91429100  0.89611200  0.11116000  1
  O  O13  1  0.41462400  0.89595300  0.61107300  1
  O  O14  1  0.08536900  0.89594900  0.38892900  1
  O  O15  1  0.58571000  0.89610600  0.88883500  1
  O  O16  1  0.41465500  0.10406200  0.11110300  1
  O  O17  1  0.91435200  0.10384500  0.61117000  1
  O  O18  1  0.58566000  0.10384300  0.38882700  1
  O  O19  1  0.08535200  0.10405900  0.88889800  1
  F  F20  1  0.65482400  0.64768300  0.36320000  1
  F  F21  1  0.15485800  0.64788900  0.86316600  1
  F  F22  1  0.15485500  0.35209400  0.36315500  1
  F  F23  1  0.65484900  0.35220400  0.86321600  1
  F  F24  1  0.34513700  0.64789300  0.13683000  1
  F  F25  1  0.84517100  0.64768700  0.63679400  1
  F  F26  1  0.84515200  0.35220900  0.13678800  1
  F  F27  1  0.34515100  0.35210000  0.63685000  1
