# generated using pymatgen
data_KLiSb3O8
_symmetry_space_group_name_H-M   'P 1'
_cell_length_a   8.96856292
_cell_length_b   8.96492184
_cell_length_c   8.80678366
_cell_angle_alpha   108.19695359
_cell_angle_beta   107.50424682
_cell_angle_gamma   113.46641473
_symmetry_Int_Tables_number   1
_chemical_formula_structural   KLiSb3O8
_chemical_formula_sum   'K3 Li3 Sb9 O24'
_cell_volume   538.62737524
_cell_formula_units_Z   3
loop_
 _symmetry_equiv_pos_site_id
 _symmetry_equiv_pos_as_xyz
  1  'x, y, z'
loop_
 _atom_site_type_symbol
 _atom_site_label
 _atom_site_symmetry_multiplicity
 _atom_site_fract_x
 _atom_site_fract_y
 _atom_site_fract_z
 _atom_site_occupancy
  K  K0  1  0.19061259  0.11968123  0.96111367  1
  K  K1  1  0.48774035  0.50471702  0.99513148  1
  K  K2  1  0.83194346  0.87049873  0.99041649  1
  Li  Li3  1  0.10233883  0.64499892  0.79542102  1
  Li  Li4  1  0.48915979  0.03080548  0.79555161  1
  Li  Li5  1  0.05445517  0.80168157  0.51896289  1
  Sb  Sb6  1  0.99665597  0.16300338  0.48265314  1
  Sb  Sb7  1  0.48818215  0.96595697  0.11720212  1
  Sb  Sb8  1  0.83662356  0.35384634  0.18807147  1
  Sb  Sb9  1  0.83054716  0.32227937  0.81507667  1
  Sb  Sb10  1  0.35195204  0.17575011  0.50823799  1
  Sb  Sb11  1  0.67062502  0.49455366  0.50841113  1
  Sb  Sb12  1  0.32953472  0.64721456  0.63926170  1
  Sb  Sb13  1  0.65723292  0.82372117  0.48188147  1
  Sb  Sb14  1  0.17155371  0.68957500  0.18788060  1
  O  O15  1  0.82153975  0.16818603  0.27787853  1
  O  O16  1  0.55725723  0.19275509  0.05005555  1
  O  O17  1  0.86934297  0.52660735  0.05877907  1
  O  O18  1  0.83495796  0.12514093  0.62220776  1
  O  O19  1  0.49004713  0.21186035  0.36374236  1
  O  O20  1  0.83849539  0.52721076  0.39426131  1
  O  O21  1  0.82524199  0.18977051  0.96175437  1
  O  O22  1  0.55556507  0.19553865  0.70418619  1
  O  O23  1  0.84628990  0.48614284  0.70377377  1
  O  O24  1  0.81533724  0.88235157  0.35958518  1
  O  O25  1  0.51903069  0.54353834  0.33408068  1
  O  O26  1  0.12921492  0.15431777  0.33520913  1
  O  O27  1  0.82980815  0.78310575  0.65329648  1
  O  O28  1  0.20960698  0.16336661  0.65429430  1
  O  O29  1  0.50472436  0.46501579  0.63138080  1
  O  O30  1  0.12324895  0.53515806  0.32016634  1
  O  O31  1  0.44753580  0.79536821  0.27852989  1
  O  O32  1  0.19608469  0.83143834  0.05026127  1
  O  O33  1  0.12320126  0.43229187  0.63706250  1
  O  O34  1  0.54426690  0.85117263  0.63823828  1
  O  O35  1  0.20477431  0.89367909  0.39427456  1
  O  O36  1  0.48892427  0.76558605  0.91666455  1
  O  O37  1  0.10967657  0.47445474  0.96181032  1
  O  O38  1  0.24046909  0.81145716  0.71323337  1
