# generated using pymatgen
data_Li24Mn5Cr7O36
_symmetry_space_group_name_H-M   'P 1'
_cell_length_a   5.00204900
_cell_length_b   9.73985956
_cell_length_c   13.29953389
_cell_angle_alpha   97.06280891
_cell_angle_beta   100.40374721
_cell_angle_gamma   94.47932051
_symmetry_Int_Tables_number   1
_chemical_formula_structural   Li24Mn5Cr7O36
_chemical_formula_sum   'Li24 Mn5 Cr7 O36'
_cell_volume   629.10709919
_cell_formula_units_Z   1
loop_
 _symmetry_equiv_pos_site_id
 _symmetry_equiv_pos_as_xyz
  1  'x, y, z'
loop_
 _atom_site_type_symbol
 _atom_site_label
 _atom_site_symmetry_multiplicity
 _atom_site_fract_x
 _atom_site_fract_y
 _atom_site_fract_z
 _atom_site_occupancy
  Li  Li0  1  0.16594100  0.99911100  0.83372500  1
  Li  Li1  1  0.04715300  0.00134100  0.61438200  1
  Li  Li2  1  0.99989500  0.75000300  0.24962300  1
  Li  Li3  1  0.33417100  0.75011100  0.91622900  1
  Li  Li4  1  0.04655700  0.49958600  0.11194600  1
  Li  Li5  1  0.37964800  0.49887700  0.77959400  1
  Li  Li6  1  0.16429000  0.50036600  0.33283900  1
  Li  Li7  1  0.50025900  0.50036600  0.99973100  1
  Li  Li8  1  0.28496100  0.49948700  0.55467300  1
  Li  Li9  1  0.33623600  0.24969400  0.41588500  1
  Li  Li10  1  0.49817100  0.00037600  0.50014400  1
  Li  Li11  1  0.28744400  0.99965900  0.05373500  1
  Li  Li12  1  0.61870400  0.00090200  0.72165100  1
  Li  Li13  1  0.38463900  0.00170900  0.28048100  1
  Li  Li14  1  0.70991300  0.99832300  0.94471400  1
  Li  Li15  1  0.66982400  0.74974900  0.58351600  1
  Li  Li16  1  0.71626300  0.50144600  0.44724600  1
  Li  Li17  1  0.83504100  0.49895300  0.66722900  1
  Li  Li18  1  0.61589600  0.49853700  0.21934000  1
  Li  Li19  1  0.95473900  0.50141600  0.88763400  1
  Li  Li20  1  0.66612300  0.25014600  0.08326800  1
  Li  Li21  1  0.83570200  0.00044500  0.16600600  1
  Li  Li22  1  0.00193000  0.25039300  0.74967300  1
  Li  Li23  1  0.94873700  0.99836600  0.38569300  1
  Mn  Mn24  1  0.10915500  0.74889400  0.47236400  1
  Mn  Mn25  1  0.22406300  0.25109800  0.19533100  1
  Mn  Mn26  1  0.44410000  0.25067100  0.63905600  1
  Mn  Mn27  1  0.77802000  0.75107500  0.80583900  1
  Mn  Mn28  1  0.77451400  0.24848100  0.30448800  1
  Cr  Cr29  1  0.10892300  0.25081600  0.97524100  1
  Cr  Cr30  1  0.22839500  0.74991800  0.69307500  1
  Cr  Cr31  1  0.55880400  0.24939900  0.85870800  1
  Cr  Cr32  1  0.44202900  0.74963600  0.14141100  1
  Cr  Cr33  1  0.56020000  0.75088100  0.36303300  1
  Cr  Cr34  1  0.89452100  0.24968600  0.52563300  1
  Cr  Cr35  1  0.88954500  0.74951700  0.02519800  1
  O  O36  1  0.99893300  0.86177000  0.92769500  1
  O  O37  1  0.06914200  0.63654700  0.78458400  1
  O  O38  1  0.99340200  0.36070100  0.42831900  1
  O  O39  1  0.14803900  0.36330000  0.64441600  1
  O  O40  1  0.26849800  0.36458800  0.88304600  1
  O  O41  1  0.32834800  0.86104500  0.59551300  1
  O  O42  1  0.07026900  0.13659000  0.28535700  1
  O  O43  1  0.18773900  0.13873400  0.52501900  1
  O  O44  1  0.39882900  0.13569800  0.95091500  1
  O  O45  1  0.15017300  0.86274300  0.14227300  1
  O  O46  1  0.25833200  0.86415000  0.38215200  1
  O  O47  1  0.48088800  0.86316300  0.81115900  1
  O  O48  1  0.33053800  0.13761900  0.73557800  1
  O  O49  1  0.18222000  0.63744500  0.02407700  1
  O  O50  1  0.40201100  0.63599000  0.45123600  1
  O  O51  1  0.52135400  0.63892300  0.69176400  1
  O  O52  1  0.33754500  0.63783400  0.23854400  1
  O  O53  1  0.66484100  0.63795700  0.90251800  1
  O  O54  1  0.33583300  0.36253300  0.09805500  1
  O  O55  1  0.66516000  0.36122600  0.76155100  1
  O  O56  1  0.47521100  0.36137100  0.30984500  1
  O  O57  1  0.59677800  0.36358000  0.54857300  1
  O  O58  1  0.81903500  0.36286900  0.97611200  1
  O  O59  1  0.66381400  0.86222000  0.26426900  1
  O  O60  1  0.52428900  0.13896500  0.18987600  1
  O  O61  1  0.73564700  0.13617200  0.61752200  1
  O  O62  1  0.84880800  0.13759200  0.85797800  1
  O  O63  1  0.60246200  0.86477100  0.04923400  1
  O  O64  1  0.81078200  0.86189500  0.47659800  1
  O  O65  1  0.93032500  0.86361400  0.71519500  1
  O  O66  1  0.66389900  0.13664500  0.40187300  1
  O  O67  1  0.73139100  0.63523600  0.11723400  1
  O  O68  1  0.86133900  0.63817300  0.35732500  1
  O  O69  1  0.99668200  0.63656600  0.56908200  1
  O  O70  1  0.92886100  0.36348100  0.21461400  1
  O  O71  1  0.00407300  0.13886200  0.07256300  1
