# generated using pymatgen
data_Li7Mn(O2F)2
_symmetry_space_group_name_H-M   'P 1'
_cell_length_a   5.51436800
_cell_length_b   5.67678725
_cell_length_c   10.25371920
_cell_angle_alpha   75.39727406
_cell_angle_beta   76.64598314
_cell_angle_gamma   61.23096771
_symmetry_Int_Tables_number   1
_chemical_formula_structural   Li7Mn(O2F)2
_chemical_formula_sum   'Li14 Mn2 O8 F4'
_cell_volume   269.98935132
_cell_formula_units_Z   2
loop_
 _symmetry_equiv_pos_site_id
 _symmetry_equiv_pos_as_xyz
  1  'x, y, z'
loop_
 _atom_site_type_symbol
 _atom_site_label
 _atom_site_symmetry_multiplicity
 _atom_site_fract_x
 _atom_site_fract_y
 _atom_site_fract_z
 _atom_site_occupancy
  Li  Li0  1  0.02192000  0.71968400  0.83652200  1
  Li  Li1  1  0.21997200  0.89463600  0.32211000  1
  Li  Li2  1  0.37013200  0.85008700  0.67047900  1
  Li  Li3  1  0.62383900  0.87235000  0.17387400  1
  Li  Li4  1  0.09138800  0.42038400  0.64718400  1
  Li  Li5  1  0.35831800  0.58629700  0.15488600  1
  Li  Li6  1  0.75644500  0.84687600  0.52375500  1
  Li  Li7  1  0.39488400  0.25569100  0.01775200  1
  Li  Li8  1  0.65892000  0.46399200  0.83215700  1
  Li  Li9  1  0.96275800  0.52216900  0.34719400  1
  Li  Li10  1  0.43001900  0.05341700  0.83064900  1
  Li  Li11  1  0.54671700  0.17002600  0.33008200  1
  Li  Li12  1  0.78513700  0.13778400  0.68208700  1
  Li  Li13  1  0.92886400  0.28399000  0.17353500  1
  Mn  Mn14  1  0.99731400  0.00964200  0.99729100  1
  Mn  Mn15  1  0.51242800  0.49696800  0.49605700  1
  O  O16  1  0.25530200  0.98065900  0.11348800  1
  O  O17  1  0.30663700  0.77258900  0.87877000  1
  O  O18  1  0.57680700  0.80228700  0.37818400  1
  O  O19  1  0.27997700  0.52866100  0.37227700  1
  O  O20  1  0.71559400  0.51155100  0.62617000  1
  O  O21  1  0.47635900  0.16782700  0.61302100  1
  O  O22  1  0.66590400  0.21563600  0.12396700  1
  O  O23  1  0.73093100  0.07136400  0.88103700  1
  F  F24  1  0.06965300  0.79165600  0.63503500  1
  F  F25  1  0.05300200  0.37696200  0.85330900  1
  F  F26  1  0.00411000  0.58015200  0.14227100  1
  F  F27  1  0.89109800  0.19873800  0.36693500  1
