# generated using pymatgen
data_Li2VSiO4
_symmetry_space_group_name_H-M   'P 1'
_cell_length_a   5.26255000
_cell_length_b   8.29910365
_cell_length_c   8.29882914
_cell_angle_alpha   109.17678234
_cell_angle_beta   90.00069218
_cell_angle_gamma   90.00068527
_symmetry_Int_Tables_number   1
_chemical_formula_structural   Li2VSiO4
_chemical_formula_sum   'Li8 V4 Si4 O16'
_cell_volume   342.33444880
_cell_formula_units_Z   4
loop_
 _symmetry_equiv_pos_site_id
 _symmetry_equiv_pos_as_xyz
  1  'x, y, z'
loop_
 _atom_site_type_symbol
 _atom_site_label
 _atom_site_symmetry_multiplicity
 _atom_site_fract_x
 _atom_site_fract_y
 _atom_site_fract_z
 _atom_site_occupancy
  Li  Li0  1  0.32427500  0.36825800  0.61816700  1
  Li  Li1  1  0.32419600  0.86816600  0.11796900  1
  Li  Li2  1  0.67576000  0.11804000  0.36821700  1
  Li  Li3  1  0.67567500  0.61808400  0.86819200  1
  Li  Li4  1  0.32430500  0.11809800  0.86819200  1
  Li  Li5  1  0.32425800  0.61803900  0.36823100  1
  Li  Li6  1  0.67573200  0.86825100  0.61815300  1
  Li  Li7  1  0.67579700  0.36816000  0.11796800  1
  V  V8  1  0.80427400  0.98319700  0.98317700  1
  V  V9  1  0.19571600  0.48320400  0.98318100  1
  V  V10  1  0.80425100  0.48306900  0.48305500  1
  V  V11  1  0.19577500  0.98305400  0.48304500  1
  Si  Si12  1  0.17444900  0.25207500  0.25209400  1
  Si  Si13  1  0.17429700  0.75210700  0.75208300  1
  Si  Si14  1  0.82555900  0.75208200  0.25210100  1
  Si  Si15  1  0.82568800  0.25209700  0.75207300  1
  O  O16  1  0.18995700  0.42412700  0.42421900  1
  O  O17  1  0.18974000  0.92423700  0.92415600  1
  O  O18  1  0.81004600  0.92413800  0.42422000  1
  O  O19  1  0.81025600  0.42422500  0.92415100  1
  O  O20  1  0.86532400  0.21186400  0.21188600  1
  O  O21  1  0.86523700  0.71179600  0.71178700  1
  O  O22  1  0.13474500  0.21179700  0.71178600  1
  O  O23  1  0.13469200  0.71188500  0.21191000  1
  O  O24  1  0.68762900  0.29792600  0.59448800  1
  O  O25  1  0.68763000  0.79800600  0.09451300  1
  O  O26  1  0.31240100  0.09447200  0.29794600  1
  O  O27  1  0.31227400  0.59456900  0.79804200  1
  O  O28  1  0.31237600  0.79792400  0.59450100  1
  O  O29  1  0.31236500  0.29801400  0.09451100  1
  O  O30  1  0.68770100  0.09455500  0.79802000  1
  O  O31  1  0.68762000  0.59447800  0.29796100  1
