# generated using pymatgen
data_Li2MgCo13O28
_symmetry_space_group_name_H-M   'P 1'
_cell_length_a   7.55206000
_cell_length_b   8.23274278
_cell_length_c   8.70470532
_cell_angle_alpha   100.21294604
_cell_angle_beta   104.41000898
_cell_angle_gamma   105.29158759
_symmetry_Int_Tables_number   1
_chemical_formula_structural   Li2MgCo13O28
_chemical_formula_sum   'Li2 Mg1 Co13 O28'
_cell_volume   488.22915353
_cell_formula_units_Z   1
loop_
 _symmetry_equiv_pos_site_id
 _symmetry_equiv_pos_as_xyz
  1  'x, y, z'
loop_
 _atom_site_type_symbol
 _atom_site_label
 _atom_site_symmetry_multiplicity
 _atom_site_fract_x
 _atom_site_fract_y
 _atom_site_fract_z
 _atom_site_occupancy
  Li  Li0  1  0.50361400  0.00072200  0.49999800  1
  Li  Li1  1  0.35183500  0.56755900  0.92456300  1
  Mg  Mg2  1  0.50206400  0.50444600  0.50476100  1
  Co  Co3  1  0.71695300  0.14959600  0.86308400  1
  Co  Co4  1  0.35586900  0.06834100  0.92799100  1
  Co  Co5  1  0.00057500  0.00067300  0.00121700  1
  Co  Co6  1  0.06714500  0.20492600  0.77929800  1
  Co  Co7  1  0.42743200  0.28325800  0.71492200  1
  Co  Co8  1  0.78995600  0.36195100  0.64788000  1
  Co  Co9  1  0.13675900  0.42088100  0.56483200  1
  Co  Co10  1  0.86009800  0.57376700  0.42896400  1
  Co  Co11  1  0.20981300  0.63557100  0.35008600  1
  Co  Co12  1  0.57358700  0.71486100  0.28500600  1
  Co  Co13  1  0.92986500  0.78947600  0.21555600  1
  Co  Co14  1  0.64659900  0.93709300  0.07768100  1
  Co  Co15  1  0.28511200  0.85574700  0.14146900  1
  O  O16  1  0.91400300  0.00930600  0.18779600  1
  O  O17  1  0.98577200  0.21834000  0.97016700  1
  O  O18  1  0.44936300  0.06571300  0.74311800  1
  O  O19  1  0.79490000  0.13539400  0.67235300  1
  O  O20  1  0.62332300  0.15119800  0.04629000  1
  O  O21  1  0.26939700  0.07447900  0.11333400  1
  O  O22  1  0.33393100  0.28705200  0.89848300  1
  O  O23  1  0.69876100  0.36404900  0.83504100  1
  O  O24  1  0.52341800  0.26608700  0.53896100  1
  O  O25  1  0.15525700  0.20013500  0.59746700  1
  O  O26  1  0.87239000  0.35214500  0.45649900  1
  O  O27  1  0.06003600  0.42760500  0.75929000  1
  O  O28  1  0.78986900  0.57580300  0.62032900  1
  O  O29  1  0.39765700  0.49621800  0.69945700  1
  O  O30  1  0.60001800  0.50671600  0.30634600  1
  O  O31  1  0.21276700  0.42222900  0.37842400  1
  O  O32  1  0.94380600  0.57141200  0.23993600  1
  O  O33  1  0.12715900  0.64317200  0.53916700  1
  O  O34  1  0.84419000  0.79581400  0.39952500  1
  O  O35  1  0.47591100  0.73659900  0.46105600  1
  O  O36  1  0.30319200  0.63643000  0.15908300  1
  O  O37  1  0.65924000  0.71588600  0.09804300  1
  O  O38  1  0.73145700  0.92891300  0.89117200  1
  O  O39  1  0.37681400  0.84919900  0.95746700  1
  O  O40  1  0.20147200  0.86253400  0.32690800  1
  O  O41  1  0.55177700  0.93734000  0.26096000  1
  O  O42  1  0.01625400  0.78245900  0.02876900  1
  O  O43  1  0.08843800  0.98990400  0.81432500  1
