# generated using pymatgen
data_Li4V3Sn3(TeO8)2
_symmetry_space_group_name_H-M   'P 1'
_cell_length_a   6.24183913
_cell_length_b   20.30707129
_cell_length_c   6.28671253
_cell_angle_alpha   89.93808323
_cell_angle_beta   60.27243794
_cell_angle_gamma   89.98513073
_symmetry_Int_Tables_number   1
_chemical_formula_structural   Li4V3Sn3(TeO8)2
_chemical_formula_sum   'Li8 V6 Sn6 Te4 O32'
_cell_volume   691.98956077
_cell_formula_units_Z   2
loop_
 _symmetry_equiv_pos_site_id
 _symmetry_equiv_pos_as_xyz
  1  'x, y, z'
loop_
 _atom_site_type_symbol
 _atom_site_label
 _atom_site_symmetry_multiplicity
 _atom_site_fract_x
 _atom_site_fract_y
 _atom_site_fract_z
 _atom_site_occupancy
  Li  Li0  1  0.33148430  0.45197062  0.33737348  1
  Li  Li1  1  0.33145882  0.95197263  0.33737851  1
  Li  Li2  1  0.00685356  0.49343784  0.98618568  1
  Li  Li3  1  0.00683904  0.99343400  0.98619149  1
  Li  Li4  1  0.00398379  0.24928153  0.99184438  1
  Li  Li5  1  0.00399445  0.74927616  0.99183717  1
  Li  Li6  1  0.66710099  0.19900422  0.66585877  1
  Li  Li7  1  0.66710922  0.69900258  0.66584187  1
  V  V8  1  0.16775739  0.60642139  0.66477333  1
  V  V9  1  0.16780036  0.10642780  0.66477483  1
  V  V10  1  0.81647273  0.35681662  0.83540387  1
  V  V11  1  0.81647242  0.85680238  0.83538818  1
  V  V12  1  0.34778501  0.35672252  0.83534077  1
  V  V13  1  0.34782267  0.85672702  0.83536159  1
  Sn  Sn14  1  0.83272749  0.35745131  0.33414249  1
  Sn  Sn15  1  0.83273739  0.85744933  0.33411225  1
  Sn  Sn16  1  0.66527801  0.10715137  0.16588546  1
  Sn  Sn17  1  0.66529333  0.60715154  0.16587350  1
  Sn  Sn18  1  0.16897939  0.10711035  0.16579997  1
  Sn  Sn19  1  0.16897155  0.60711938  0.16578573  1
  Te  Te20  1  0.32111282  0.24938728  0.35662743  1
  Te  Te21  1  0.32117124  0.74938341  0.35666820  1
  Te  Te22  1  0.66231111  0.49030305  0.67540497  1
  Te  Te23  1  0.66230352  0.99029875  0.67540752  1
  O  O24  1  0.48887784  0.16545023  0.02201106  1
  O  O25  1  0.48891299  0.66544294  0.02198306  1
  O  O26  1  0.33489065  0.05217068  0.33036218  1
  O  O27  1  0.33489812  0.55216735  0.33034907  1
  O  O28  1  0.00003290  0.15903496  0.00000994  1
  O  O29  1  0.00002544  0.65902985  0.99998454  1
  O  O30  1  0.00067684  0.40230764  0.99674285  1
  O  O31  1  0.00081813  0.90230239  0.99670229  1
  O  O32  1  0.85173741  0.04865863  0.29682399  1
  O  O33  1  0.85174808  0.54866569  0.29680864  1
  O  O34  1  0.15955964  0.29922473  0.67894896  1
  O  O35  1  0.15969221  0.79921928  0.67894482  1
  O  O36  1  0.67376412  0.30279549  0.65504532  1
  O  O37  1  0.67356682  0.80278475  0.65502403  1
  O  O38  1  0.51971798  0.42441942  0.96288386  1
  O  O39  1  0.51955749  0.92441324  0.96288457  1
  O  O40  1  0.67348036  0.29971380  0.16775363  1
  O  O41  1  0.67344170  0.79969328  0.16778701  1
  O  O42  1  0.15824781  0.29953681  0.16861418  1
  O  O43  1  0.15827467  0.79953974  0.16854576  1
  O  O44  1  0.47912228  0.16480336  0.48991690  1
  O  O45  1  0.47910967  0.66481831  0.48987397  1
  O  O46  1  0.03142365  0.16499120  0.48956828  1
  O  O47  1  0.03139201  0.66497982  0.48958824  1
  O  O48  1  0.95866395  0.42200306  0.52068775  1
  O  O49  1  0.95863031  0.92201129  0.52066365  1
  O  O50  1  0.52104476  0.42210653  0.52039138  1
  O  O51  1  0.52100157  0.92209339  0.52041549  1
  O  O52  1  0.85527357  0.05090285  0.84276617  1
  O  O53  1  0.85528971  0.55089581  0.84277759  1
  O  O54  1  0.30193423  0.05078030  0.84295178  1
  O  O55  1  0.30197847  0.55078209  0.84292362  1
