# generated using pymatgen
data_Li2Fe3NiO8
_symmetry_space_group_name_H-M   'P 1'
_cell_length_a   8.36042800
_cell_length_b   8.36042800
_cell_length_c   8.36042800
_cell_angle_alpha   90.00000000
_cell_angle_beta   90.00000000
_cell_angle_gamma   90.00000000
_symmetry_Int_Tables_number   1
_chemical_formula_structural   Li2Fe3NiO8
_chemical_formula_sum   'Li8 Fe12 Ni4 O32'
_cell_volume   584.36679884
_cell_formula_units_Z   4
loop_
 _symmetry_equiv_pos_site_id
 _symmetry_equiv_pos_as_xyz
  1  'x, y, z'
loop_
 _atom_site_type_symbol
 _atom_site_label
 _atom_site_symmetry_multiplicity
 _atom_site_fract_x
 _atom_site_fract_y
 _atom_site_fract_z
 _atom_site_occupancy
  Li  Li0  1  0.50135300  0.50135300  0.50135300  1
  Li  Li1  1  0.74864700  0.74864700  0.74864700  1
  Li  Li2  1  0.75135300  0.25135300  0.24864700  1
  Li  Li3  1  0.99864700  0.49864700  0.00135300  1
  Li  Li4  1  0.00135300  0.99864700  0.49864700  1
  Li  Li5  1  0.24864700  0.75135300  0.25135300  1
  Li  Li6  1  0.25135300  0.24864700  0.75135300  1
  Li  Li7  1  0.49864700  0.00135300  0.99864700  1
  Fe  Fe8  1  0.62786700  0.62213300  0.12500000  1
  Fe  Fe9  1  0.62500000  0.87213300  0.37786700  1
  Fe  Fe10  1  0.62213300  0.12500000  0.62786700  1
  Fe  Fe11  1  0.87786700  0.87500000  0.12786700  1
  Fe  Fe12  1  0.87500000  0.12786700  0.87786700  1
  Fe  Fe13  1  0.87213300  0.37786700  0.62500000  1
  Fe  Fe14  1  0.12786700  0.87786700  0.87500000  1
  Fe  Fe15  1  0.12500000  0.62786700  0.62213300  1
  Fe  Fe16  1  0.12213300  0.37500000  0.37213300  1
  Fe  Fe17  1  0.37786700  0.62500000  0.87213300  1
  Fe  Fe18  1  0.37500000  0.37213300  0.12213300  1
  Fe  Fe19  1  0.37213300  0.12213300  0.37500000  1
  Ni  Ni20  1  0.62500000  0.37500000  0.87500000  1
  Ni  Ni21  1  0.87500000  0.62500000  0.37500000  1
  Ni  Ni22  1  0.12500000  0.12500000  0.12500000  1
  Ni  Ni23  1  0.37500000  0.87500000  0.62500000  1
  O  O24  1  0.61889900  0.60167700  0.88357300  1
  O  O25  1  0.61642700  0.38110100  0.10167700  1
  O  O26  1  0.61308400  0.11308400  0.38691600  1
  O  O27  1  0.64832300  0.63110100  0.36642700  1
  O  O28  1  0.60167700  0.88357300  0.61889900  1
  O  O29  1  0.63691600  0.86308400  0.13691600  1
  O  O30  1  0.63357300  0.14832300  0.86889900  1
  O  O31  1  0.63110100  0.36642700  0.64832300  1
  O  O32  1  0.86889900  0.63357300  0.14832300  1
  O  O33  1  0.86642700  0.85167700  0.36889900  1
  O  O34  1  0.86308400  0.13691600  0.63691600  1
  O  O35  1  0.89832300  0.11642700  0.11889900  1
  O  O36  1  0.85167700  0.36889900  0.86642700  1
  O  O37  1  0.88691600  0.88691600  0.88691600  1
  O  O38  1  0.88357300  0.61889900  0.60167700  1
  O  O39  1  0.88110100  0.39832300  0.38357300  1
  O  O40  1  0.11889900  0.89832300  0.11642700  1
  O  O41  1  0.11642700  0.11889900  0.89832300  1
  O  O42  1  0.11308400  0.38691600  0.61308400  1
  O  O43  1  0.14832300  0.86889900  0.63357300  1
  O  O44  1  0.10167700  0.61642700  0.38110100  1
  O  O45  1  0.13691600  0.63691600  0.86308400  1
  O  O46  1  0.13357300  0.35167700  0.13110100  1
  O  O47  1  0.13110100  0.13357300  0.35167700  1
  O  O48  1  0.36889900  0.86642700  0.85167700  1
  O  O49  1  0.36642700  0.64832300  0.63110100  1
  O  O50  1  0.36308400  0.36308400  0.36308400  1
  O  O51  1  0.39832300  0.38357300  0.88110100  1
  O  O52  1  0.35167700  0.13110100  0.13357300  1
  O  O53  1  0.38691600  0.61308400  0.11308400  1
  O  O54  1  0.38357300  0.88110100  0.39832300  1
  O  O55  1  0.38110100  0.10167700  0.61642700  1
