# generated using pymatgen
data_Li8Fe7Sb(PO4)12
_symmetry_space_group_name_H-M   'P 1'
_cell_length_a   8.66837000
_cell_length_b   8.79565305
_cell_length_c   12.23361381
_cell_angle_alpha   90.22298481
_cell_angle_beta   90.00900632
_cell_angle_gamma   90.09081313
_symmetry_Int_Tables_number   1
_chemical_formula_structural   Li8Fe7Sb(PO4)12
_chemical_formula_sum   'Li8 Fe7 Sb1 P12 O48'
_cell_volume   932.73109785
_cell_formula_units_Z   1
loop_
 _symmetry_equiv_pos_site_id
 _symmetry_equiv_pos_as_xyz
  1  'x, y, z'
loop_
 _atom_site_type_symbol
 _atom_site_label
 _atom_site_symmetry_multiplicity
 _atom_site_fract_x
 _atom_site_fract_y
 _atom_site_fract_z
 _atom_site_occupancy
  Li  Li0  1  0.21711000  0.72294300  0.18240600  1
  Li  Li1  1  0.21888200  0.77739200  0.81781900  1
  Li  Li2  1  0.28250700  0.22245000  0.31778600  1
  Li  Li3  1  0.28050100  0.27667200  0.68268000  1
  Li  Li4  1  0.71597900  0.72404300  0.31581200  1
  Li  Li5  1  0.71719100  0.78886200  0.68260600  1
  Li  Li6  1  0.78389700  0.22214200  0.18196700  1
  Li  Li7  1  0.78637500  0.27427900  0.82565500  1
  Fe  Fe8  1  0.24748100  0.95997700  0.61256000  1
  Fe  Fe9  1  0.24884900  0.54026200  0.38663100  1
  Fe  Fe10  1  0.25104800  0.04081900  0.11264200  1
  Fe  Fe11  1  0.25147800  0.45846300  0.88754100  1
  Fe  Fe12  1  0.74868500  0.54065100  0.11145600  1
  Fe  Fe13  1  0.74801400  0.96038100  0.88936000  1
  Fe  Fe14  1  0.75091900  0.03795600  0.38596500  1
  Sb  Sb15  1  0.75219400  0.46164200  0.61301600  1
  P  P16  1  0.04186500  0.24761300  0.49844900  1
  P  P17  1  0.46113900  0.74963800  0.00005800  1
  P  P18  1  0.53900400  0.25022600  0.00094600  1
  P  P19  1  0.96162400  0.75051400  0.49789900  1
  P  P20  1  0.10520300  0.39254900  0.14656600  1
  P  P21  1  0.10611900  0.10620700  0.85321400  1
  P  P22  1  0.39206300  0.60419500  0.64620800  1
  P  P23  1  0.39374600  0.89293700  0.35372600  1
  P  P24  1  0.60298500  0.10615300  0.64511200  1
  P  P25  1  0.60408900  0.39220700  0.34993200  1
  P  P26  1  0.89616400  0.60935000  0.85207900  1
  P  P27  1  0.89515300  0.89209400  0.14652200  1
  O  O28  1  0.05373000  0.63705500  0.43079500  1
  O  O29  1  0.05460100  0.85511100  0.57197200  1
  O  O30  1  0.07370400  0.89536900  0.15559300  1
  O  O31  1  0.07282900  0.60435500  0.84063300  1
  O  O32  1  0.14549200  0.16306100  0.58052000  1
  O  O33  1  0.14657000  0.33796200  0.42061700  1
  O  O34  1  0.15452000  0.43442800  0.03030600  1
  O  O35  1  0.15607200  0.06582600  0.96925300  1
  O  O36  1  0.16182700  0.23248100  0.17927200  1
  O  O37  1  0.16176500  0.26729900  0.82074800  1
  O  O38  1  0.17316000  0.51430600  0.22543900  1
  O  O39  1  0.17438800  0.98535100  0.77385600  1
  O  O40  1  0.32601300  0.01353000  0.27456200  1
  O  O41  1  0.32898700  0.48350500  0.72515000  1
  O  O42  1  0.34460200  0.76639700  0.68015500  1
  O  O43  1  0.33636100  0.73221800  0.32067800  1
  O  O44  1  0.34869800  0.56541800  0.52915500  1
  O  O45  1  0.34405900  0.93448200  0.47006000  1
  O  O46  1  0.35240400  0.83710200  0.07948300  1
  O  O47  1  0.35223400  0.66184900  0.92089400  1
  O  O48  1  0.42663400  0.10968500  0.65636500  1
  O  O49  1  0.42695400  0.39404000  0.34411600  1
  O  O50  1  0.44334400  0.14254800  0.07122400  1
  O  O51  1  0.44408000  0.35765900  0.92960800  1
  O  O52  1  0.55676300  0.64282300  0.07109700  1
  O  O53  1  0.55653300  0.85696000  0.92892100  1
  O  O54  1  0.57779600  0.60398800  0.65674200  1
  O  O55  1  0.57247300  0.89556200  0.34405400  1
  O  O56  1  0.64708500  0.33805400  0.08052000  1
  O  O57  1  0.64744200  0.16266000  0.92137400  1
  O  O58  1  0.65557700  0.07251200  0.52943000  1
  O  O59  1  0.65259900  0.43448200  0.47071200  1
  O  O60  1  0.66432200  0.23292100  0.32052000  1
  O  O61  1  0.66413600  0.27215900  0.68154700  1
  O  O62  1  0.67558300  0.51472900  0.27583800  1
  O  O63  1  0.67518400  0.99286700  0.72580200  1
  O  O64  1  0.82656500  0.01302000  0.22572800  1
  O  O65  1  0.82526400  0.48217000  0.77062200  1
  O  O66  1  0.83839100  0.73132500  0.17834900  1
  O  O67  1  0.83493700  0.76625700  0.81793300  1
  O  O68  1  0.84128900  0.56033500  0.96462400  1
  O  O69  1  0.84525200  0.93255000  0.03035000  1
  O  O70  1  0.85000300  0.66269500  0.58246400  1
  O  O71  1  0.84907300  0.83502300  0.42185600  1
  O  O72  1  0.92717200  0.10335200  0.84485900  1
  O  O73  1  0.92632700  0.39560900  0.15497900  1
  O  O74  1  0.93987300  0.14339400  0.43092100  1
  O  O75  1  0.94707000  0.36089600  0.57369300  1
