# generated using pymatgen
data_Li2Fe(Si2O5)2
_symmetry_space_group_name_H-M   'P 1'
_cell_length_a   7.75540900
_cell_length_b   11.15924700
_cell_length_c   11.20958933
_cell_angle_alpha   68.47034399
_cell_angle_beta   90.00000000
_cell_angle_gamma   90.00000000
_symmetry_Int_Tables_number   1
_chemical_formula_structural   Li2Fe(Si2O5)2
_chemical_formula_sum   'Li8 Fe4 Si16 O40'
_cell_volume   902.44052065
_cell_formula_units_Z   4
loop_
 _symmetry_equiv_pos_site_id
 _symmetry_equiv_pos_as_xyz
  1  'x, y, z'
loop_
 _atom_site_type_symbol
 _atom_site_label
 _atom_site_symmetry_multiplicity
 _atom_site_fract_x
 _atom_site_fract_y
 _atom_site_fract_z
 _atom_site_occupancy
  Li  Li0  1  0.75000000  0.90991300  0.38846900  1
  Li  Li1  1  0.75000000  0.97275600  0.10482400  1
  Li  Li2  1  0.75000000  0.62779000  0.87740100  1
  Li  Li3  1  0.75000000  0.62569300  0.45747800  1
  Li  Li4  1  0.25000000  0.37430700  0.54252200  1
  Li  Li5  1  0.25000000  0.37221000  0.12259900  1
  Li  Li6  1  0.25000000  0.02724400  0.89517600  1
  Li  Li7  1  0.25000000  0.09008700  0.61153100  1
  Fe  Fe8  1  0.98845700  0.78853100  0.27775400  1
  Fe  Fe9  1  0.51154300  0.78853100  0.27775400  1
  Fe  Fe10  1  0.48845700  0.21146900  0.72224600  1
  Fe  Fe11  1  0.01154300  0.21146900  0.72224600  1
  Si  Si12  1  0.95004000  0.91081800  0.74007800  1
  Si  Si13  1  0.54996000  0.91081800  0.74007800  1
  Si  Si14  1  0.04681500  0.74080300  0.58837800  1
  Si  Si15  1  0.45318500  0.74080300  0.58837800  1
  Si  Si16  1  0.44859500  0.75753300  0.00787700  1
  Si  Si17  1  0.05140500  0.75753300  0.00787700  1
  Si  Si18  1  0.44697100  0.47019200  0.77616100  1
  Si  Si19  1  0.05302900  0.47019200  0.77616100  1
  Si  Si20  1  0.94697100  0.52980800  0.22383900  1
  Si  Si21  1  0.55302900  0.52980800  0.22383900  1
  Si  Si22  1  0.94859500  0.24246700  0.99212300  1
  Si  Si23  1  0.55140500  0.24246700  0.99212300  1
  Si  Si24  1  0.95318500  0.25919700  0.41162200  1
  Si  Si25  1  0.54681500  0.25919700  0.41162200  1
  Si  Si26  1  0.45004000  0.08918200  0.25992200  1
  Si  Si27  1  0.04996000  0.08918200  0.25992200  1
  O  O28  1  0.75000000  0.95470500  0.69751800  1
  O  O29  1  0.94007000  0.77929800  0.87431100  1
  O  O30  1  0.55993000  0.77929800  0.87431100  1
  O  O31  1  0.25000000  0.80745500  0.96142400  1
  O  O32  1  0.46319900  0.86910000  0.62733100  1
  O  O33  1  0.03680100  0.86910000  0.62733100  1
  O  O34  1  0.93649200  0.97619600  0.24295200  1
  O  O35  1  0.56350800  0.97619600  0.24295200  1
  O  O36  1  0.25000000  0.71393300  0.56392700  1
  O  O37  1  0.93067600  0.75869400  0.46417000  1
  O  O38  1  0.56932400  0.75869400  0.46417000  1
  O  O39  1  0.96890900  0.83505400  0.08933600  1
  O  O40  1  0.53109100  0.83505400  0.08933600  1
  O  O41  1  0.52668000  0.61839100  0.71517200  1
  O  O42  1  0.97332000  0.61839100  0.71517200  1
  O  O43  1  0.25000000  0.47806500  0.82765400  1
  O  O44  1  0.94209200  0.40034400  0.91100500  1
  O  O45  1  0.55790800  0.40034400  0.91100500  1
  O  O46  1  0.95906600  0.60046500  0.32545600  1
  O  O47  1  0.54093400  0.60046500  0.32545600  1
  O  O48  1  0.45906600  0.39953500  0.67454400  1
  O  O49  1  0.04093400  0.39953500  0.67454400  1
  O  O50  1  0.44209200  0.59965600  0.08899500  1
  O  O51  1  0.05790800  0.59965600  0.08899500  1
  O  O52  1  0.75000000  0.52193500  0.17234600  1
  O  O53  1  0.47332000  0.38160900  0.28482800  1
  O  O54  1  0.02668000  0.38160900  0.28482800  1
  O  O55  1  0.03109100  0.16494600  0.91066400  1
  O  O56  1  0.46890900  0.16494600  0.91066400  1
  O  O57  1  0.43067600  0.24130600  0.53583000  1
  O  O58  1  0.06932400  0.24130600  0.53583000  1
  O  O59  1  0.75000000  0.28606700  0.43607300  1
  O  O60  1  0.43649200  0.02380400  0.75704800  1
  O  O61  1  0.06350800  0.02380400  0.75704800  1
  O  O62  1  0.96319900  0.13090000  0.37266900  1
  O  O63  1  0.53680100  0.13090000  0.37266900  1
  O  O64  1  0.75000000  0.19254500  0.03857600  1
  O  O65  1  0.44007000  0.22070200  0.12568900  1
  O  O66  1  0.05993000  0.22070200  0.12568900  1
  O  O67  1  0.25000000  0.04529500  0.30248200  1
