# generated using pymatgen
data_Li3(NiO2)4
_symmetry_space_group_name_H-M   'P 1'
_cell_length_a   5.61196941
_cell_length_b   5.81709764
_cell_length_c   5.80219194
_cell_angle_alpha   119.62333297
_cell_angle_beta   89.99830636
_cell_angle_gamma   118.83684008
_symmetry_Int_Tables_number   1
_chemical_formula_structural   Li3(NiO2)4
_chemical_formula_sum   'Li3 Ni4 O8'
_cell_volume   136.98966553
_cell_formula_units_Z   1
loop_
 _symmetry_equiv_pos_site_id
 _symmetry_equiv_pos_as_xyz
  1  'x, y, z'
loop_
 _atom_site_type_symbol
 _atom_site_label
 _atom_site_symmetry_multiplicity
 _atom_site_fract_x
 _atom_site_fract_y
 _atom_site_fract_z
 _atom_site_occupancy
  Li  Li0  1  0.00000000  0.50000000  0.50000000  1
  Li  Li1  1  0.00000000  0.00000000  0.50000000  1
  Li  Li2  1  0.50000000  0.00000000  0.50000000  1
  Ni  Ni3  1  0.00000000  0.00000100  0.99999900  1
  Ni  Ni4  1  0.50000000  0.00000100  0.99999900  1
  Ni  Ni5  1  0.99999900  0.49999800  0.00000000  1
  Ni  Ni6  1  0.50000100  0.50000000  0.00000100  1
  O  O7  1  0.24744900  0.99488900  0.77860300  1
  O  O8  1  0.75255100  0.00511100  0.22139700  1
  O  O9  1  0.77669900  0.05344600  0.79426200  1
  O  O10  1  0.22330200  0.94655400  0.20573800  1
  O  O11  1  0.24466700  0.49834300  0.78027900  1
  O  O12  1  0.24630900  0.50162400  0.21970400  1
  O  O13  1  0.75369000  0.49837600  0.78029600  1
  O  O14  1  0.75533300  0.50165700  0.21972000  1
