# generated using pymatgen
data_Li2CrCo(PO4)2
_symmetry_space_group_name_H-M   'P 1'
_cell_length_a   4.77221666
_cell_length_b   10.30849506
_cell_length_c   6.14365600
_cell_angle_alpha   89.99904306
_cell_angle_beta   90.00056133
_cell_angle_gamma   88.37649458
_symmetry_Int_Tables_number   1
_chemical_formula_structural   Li2CrCo(PO4)2
_chemical_formula_sum   'Li4 Cr2 Co2 P4 O16'
_cell_volume   302.11197388
_cell_formula_units_Z   2
loop_
 _symmetry_equiv_pos_site_id
 _symmetry_equiv_pos_as_xyz
  1  'x, y, z'
loop_
 _atom_site_type_symbol
 _atom_site_label
 _atom_site_symmetry_multiplicity
 _atom_site_fract_x
 _atom_site_fract_y
 _atom_site_fract_z
 _atom_site_occupancy
  Li  Li0  1  0.00059500  0.00031300  0.99968800  1
  Li  Li1  1  0.00059500  0.00031500  0.50031100  1
  Li  Li2  1  0.50064300  0.49962800  0.99886200  1
  Li  Li3  1  0.50065100  0.49962900  0.50113900  1
  Cr  Cr4  1  0.54129400  0.78152400  0.24999800  1
  Cr  Cr5  1  0.45842500  0.21825600  0.74999900  1
  Co  Co6  1  0.98098400  0.28296500  0.24999300  1
  Co  Co7  1  0.02170200  0.71915200  0.75000100  1
  P  P8  1  0.41813300  0.09300200  0.24999800  1
  P  P9  1  0.58289900  0.90693000  0.75000200  1
  P  P10  1  0.91603000  0.40496700  0.75000300  1
  P  P11  1  0.08194200  0.59508100  0.24999900  1
  O  O12  1  0.69648800  0.04755300  0.74999600  1
  O  O13  1  0.30579600  0.95197200  0.24998700  1
  O  O14  1  0.73967700  0.09644400  0.25001100  1
  O  O15  1  0.26173600  0.90465000  0.75000000  1
  O  O16  1  0.24111100  0.39920200  0.75000000  1
  O  O17  1  0.75723500  0.60067200  0.25000100  1
  O  O18  1  0.20689800  0.45403500  0.24999000  1
  O  O19  1  0.79090900  0.54572800  0.75000800  1
  O  O20  1  0.27467200  0.16326700  0.05170900  1
  O  O21  1  0.27461300  0.16324500  0.44828300  1
  O  O22  1  0.72593300  0.83552600  0.55208800  1
  O  O23  1  0.72594300  0.83552800  0.94791600  1
  O  O24  1  0.79026700  0.33619700  0.54516300  1
  O  O25  1  0.79027200  0.33619400  0.95485300  1
  O  O26  1  0.20727800  0.66401600  0.04506300  1
  O  O27  1  0.20728100  0.66401200  0.45493800  1
