# generated using pymatgen
data_LiCr(PO3)4
_symmetry_space_group_name_H-M   'P 1'
_cell_length_a   8.56815132
_cell_length_b   8.56815132
_cell_length_c   9.13538249
_cell_angle_alpha   64.52224555
_cell_angle_beta   64.52224555
_cell_angle_gamma   56.55784513
_symmetry_Int_Tables_number   1
_chemical_formula_structural   LiCr(PO3)4
_chemical_formula_sum   'Li2 Cr2 P8 O24'
_cell_volume   488.32240027
_cell_formula_units_Z   2
loop_
 _symmetry_equiv_pos_site_id
 _symmetry_equiv_pos_as_xyz
  1  'x, y, z'
loop_
 _atom_site_type_symbol
 _atom_site_label
 _atom_site_symmetry_multiplicity
 _atom_site_fract_x
 _atom_site_fract_y
 _atom_site_fract_z
 _atom_site_occupancy
  Li  Li0  1  0.00000000  0.00000000  0.50000000  1
  Li  Li1  1  0.00000000  0.00000000  0.00000000  1
  Cr  Cr2  1  0.33593200  0.66406800  0.75000000  1
  Cr  Cr3  1  0.66406800  0.33593200  0.25000000  1
  P  P4  1  0.30258200  0.41601800  0.13851500  1
  P  P5  1  0.65464200  0.05045600  0.10497500  1
  P  P6  1  0.94954400  0.34535800  0.39502500  1
  P  P7  1  0.58398200  0.69741800  0.36148500  1
  P  P8  1  0.41601800  0.30258200  0.63851500  1
  P  P9  1  0.05045600  0.65464200  0.60497500  1
  P  P10  1  0.34535800  0.94954400  0.89502500  1
  P  P11  1  0.69741800  0.58398200  0.86148500  1
  O  O12  1  0.72416700  0.08879700  0.20875600  1
  O  O13  1  0.21476400  0.57095500  0.99689200  1
  O  O14  1  0.13591000  0.38340500  0.29343200  1
  O  O15  1  0.43731000  0.21246900  0.08962300  1
  O  O16  1  0.58783200  0.54579500  0.80012200  1
  O  O17  1  0.78753100  0.56269000  0.41037700  1
  O  O18  1  0.61659500  0.86409000  0.20656800  1
  O  O19  1  0.97887900  0.20809200  0.56018500  1
  O  O20  1  0.42904500  0.78523600  0.50310800  1
  O  O21  1  0.79190800  0.02112100  0.93981500  1
  O  O22  1  0.91120300  0.27583300  0.29124400  1
  O  O23  1  0.45420500  0.41216800  0.69987800  1
  O  O24  1  0.54579500  0.58783200  0.30012200  1
  O  O25  1  0.08879700  0.72416700  0.70875600  1
  O  O26  1  0.20809200  0.97887900  0.06018500  1
  O  O27  1  0.57095500  0.21476400  0.49689200  1
  O  O28  1  0.02112100  0.79190800  0.43981500  1
  O  O29  1  0.38340500  0.13591000  0.79343200  1
  O  O30  1  0.21246900  0.43731000  0.58962300  1
  O  O31  1  0.41216800  0.45420500  0.19987800  1
  O  O32  1  0.56269000  0.78753100  0.91037700  1
  O  O33  1  0.86409000  0.61659500  0.70656800  1
  O  O34  1  0.78523600  0.42904500  0.00310800  1
  O  O35  1  0.27583300  0.91120300  0.79124400  1
