# generated using pymatgen
data_LiCrPO5
_symmetry_space_group_name_H-M   'P 1'
_cell_length_a   7.14511038
_cell_length_b   10.33096300
_cell_length_c   4.98055701
_cell_angle_alpha   90.00000000
_cell_angle_beta   109.46889180
_cell_angle_gamma   90.00000000
_symmetry_Int_Tables_number   1
_chemical_formula_structural   LiCrPO5
_chemical_formula_sum   'Li4 Cr4 P4 O20'
_cell_volume   346.62321252
_cell_formula_units_Z   4
loop_
 _symmetry_equiv_pos_site_id
 _symmetry_equiv_pos_as_xyz
  1  'x, y, z'
loop_
 _atom_site_type_symbol
 _atom_site_label
 _atom_site_symmetry_multiplicity
 _atom_site_fract_x
 _atom_site_fract_y
 _atom_site_fract_z
 _atom_site_occupancy
  Li  Li0  1  0.16695800  0.10215300  0.12564000  1
  Li  Li1  1  0.33304200  0.60215300  0.37436000  1
  Li  Li2  1  0.66695800  0.39784700  0.62564000  1
  Li  Li3  1  0.83304200  0.89784700  0.87436000  1
  Cr  Cr4  1  0.17840400  0.92700300  0.61747500  1
  Cr  Cr5  1  0.32159600  0.42700300  0.88252500  1
  Cr  Cr6  1  0.67840400  0.57299700  0.11747500  1
  Cr  Cr7  1  0.82159600  0.07299700  0.38252500  1
  P  P8  1  0.02839100  0.34866300  0.21825500  1
  P  P9  1  0.52839100  0.15133700  0.71825500  1
  P  P10  1  0.47160900  0.84866300  0.28174500  1
  P  P11  1  0.97160900  0.65133700  0.78174500  1
  O  O12  1  0.03076700  0.78188800  0.68594900  1
  O  O13  1  0.14828400  0.31044100  0.02045900  1
  O  O14  1  0.99946700  0.95603500  0.27061000  1
  O  O15  1  0.15986800  0.57369800  0.94843800  1
  O  O16  1  0.15903400  0.42995100  0.47238700  1
  O  O17  1  0.34013200  0.07369800  0.55156200  1
  O  O18  1  0.35171600  0.81044100  0.47954100  1
  O  O19  1  0.46923300  0.28188800  0.81405100  1
  O  O20  1  0.34096600  0.92995100  0.02761300  1
  O  O21  1  0.49946700  0.54396500  0.77061000  1
  O  O22  1  0.50053300  0.45603500  0.22939000  1
  O  O23  1  0.65903400  0.07004900  0.97238700  1
  O  O24  1  0.53076700  0.71811200  0.18594900  1
  O  O25  1  0.64828400  0.18955900  0.52045900  1
  O  O26  1  0.65986800  0.92630200  0.44843800  1
  O  O27  1  0.84096600  0.57004900  0.52761300  1
  O  O28  1  0.84013200  0.42630200  0.05156200  1
  O  O29  1  0.00053300  0.04396500  0.72939000  1
  O  O30  1  0.85171600  0.68955900  0.97954100  1
  O  O31  1  0.96923300  0.21811200  0.31405100  1
