# generated using pymatgen
data_Li5Mn3V2O10
_symmetry_space_group_name_H-M   'P 1'
_cell_length_a   5.24829825
_cell_length_b   7.88096866
_cell_length_c   10.39893495
_cell_angle_alpha   100.54401837
_cell_angle_beta   101.81473482
_cell_angle_gamma   107.73210403
_symmetry_Int_Tables_number   1
_chemical_formula_structural   Li5Mn3V2O10
_chemical_formula_sum   'Li10 Mn6 V4 O20'
_cell_volume   386.86882998
_cell_formula_units_Z   2
loop_
 _symmetry_equiv_pos_site_id
 _symmetry_equiv_pos_as_xyz
  1  'x, y, z'
loop_
 _atom_site_type_symbol
 _atom_site_label
 _atom_site_symmetry_multiplicity
 _atom_site_fract_x
 _atom_site_fract_y
 _atom_site_fract_z
 _atom_site_occupancy
  Li  Li0  1  0.49994600  0.50003700  0.25003200  1
  Li  Li1  1  0.49993400  0.50005000  0.75003100  1
  Li  Li2  1  0.90071900  0.39743700  0.10042300  1
  Li  Li3  1  0.90075300  0.39752300  0.60045900  1
  Li  Li4  1  0.09926700  0.60249600  0.39956600  1
  Li  Li5  1  0.09921900  0.60244000  0.89952800  1
  Li  Li6  1  0.29110400  0.77694900  0.19050600  1
  Li  Li7  1  0.29114200  0.77698900  0.69054600  1
  Li  Li8  1  0.70880000  0.22310500  0.30952500  1
  Li  Li9  1  0.70878000  0.22304500  0.80950700  1
  Mn  Mn10  1  0.49969700  0.99995900  0.49999600  1
  Mn  Mn11  1  0.89172200  0.90073500  0.84724900  1
  Mn  Mn12  1  0.10887700  0.09924300  0.15259500  1
  Mn  Mn13  1  0.49978200  0.99998900  0.99990700  1
  Mn  Mn14  1  0.89146300  0.90065100  0.34733500  1
  Mn  Mn15  1  0.10878900  0.09952000  0.65260900  1
  V  V16  1  0.70514300  0.68737700  0.55181600  1
  V  V17  1  0.29517100  0.31267800  0.44829700  1
  V  V18  1  0.70497500  0.68730300  0.05187100  1
  V  V19  1  0.29508200  0.31256800  0.94821000  1
  O  O20  1  0.07031000  0.83237200  0.02506800  1
  O  O21  1  0.07034200  0.83244200  0.52506100  1
  O  O22  1  0.92955600  0.16768400  0.47491600  1
  O  O23  1  0.92960700  0.16758800  0.97490500  1
  O  O24  1  0.68471000  0.93578800  0.16025500  1
  O  O25  1  0.68479300  0.93580300  0.66027400  1
  O  O26  1  0.31509500  0.06417200  0.33969100  1
  O  O27  1  0.31501800  0.06417800  0.83961100  1
  O  O28  1  0.32739200  0.54076400  0.06888400  1
  O  O29  1  0.32745900  0.54082500  0.56890700  1
  O  O30  1  0.67270400  0.45917700  0.43113800  1
  O  O31  1  0.67263500  0.45913800  0.93112100  1
  O  O32  1  0.49327400  0.23698300  0.10526700  1
  O  O33  1  0.49333400  0.23703000  0.60531300  1
  O  O34  1  0.50662100  0.76299400  0.39471000  1
  O  O35  1  0.50662900  0.76302400  0.89469700  1
  O  O36  1  0.88323300  0.65430300  0.21072300  1
  O  O37  1  0.88322100  0.65426200  0.71063400  1
  O  O38  1  0.11688500  0.34566300  0.28943200  1
  O  O39  1  0.11681700  0.34571700  0.78938500  1
