# generated using pymatgen
data_Li2Mn2F7
_symmetry_space_group_name_H-M   'P 1'
_cell_length_a   5.03052000
_cell_length_b   7.81065800
_cell_length_c   12.93632808
_cell_angle_alpha   78.39355220
_cell_angle_beta   90.00000000
_cell_angle_gamma   90.00000000
_symmetry_Int_Tables_number   1
_chemical_formula_structural   Li2Mn2F7
_chemical_formula_sum   'Li8 Mn8 F28'
_cell_volume   497.89675024
_cell_formula_units_Z   4
loop_
 _symmetry_equiv_pos_site_id
 _symmetry_equiv_pos_as_xyz
  1  'x, y, z'
loop_
 _atom_site_type_symbol
 _atom_site_label
 _atom_site_symmetry_multiplicity
 _atom_site_fract_x
 _atom_site_fract_y
 _atom_site_fract_z
 _atom_site_occupancy
  Li  Li0  1  0.24033800  0.97060200  0.30554400  1
  Li  Li1  1  0.75529400  0.99671600  0.11752300  1
  Li  Li2  1  0.78118700  0.60534300  0.68744800  1
  Li  Li3  1  0.28313800  0.56793800  0.84901700  1
  Li  Li4  1  0.78313800  0.43206200  0.15098300  1
  Li  Li5  1  0.28118700  0.39465700  0.31255200  1
  Li  Li6  1  0.25529400  0.00328400  0.88247700  1
  Li  Li7  1  0.74033800  0.02939800  0.69445600  1
  Mn  Mn8  1  0.34486300  0.81640400  0.53995300  1
  Mn  Mn9  1  0.77320200  0.73096900  0.94380700  1
  Mn  Mn10  1  0.22203800  0.74708600  0.15421000  1
  Mn  Mn11  1  0.80457200  0.63425500  0.37381900  1
  Mn  Mn12  1  0.30457200  0.36574500  0.62618100  1
  Mn  Mn13  1  0.72203800  0.25291400  0.84579000  1
  Mn  Mn14  1  0.27320200  0.26903100  0.05619300  1
  Mn  Mn15  1  0.84486300  0.18359600  0.46004700  1
  F  F16  1  0.55712200  0.95307700  0.43281000  1
  F  F17  1  0.40032400  0.02185700  0.16973800  1
  F  F18  1  0.59535600  0.83465300  0.64501800  1
  F  F19  1  0.43895300  0.78182500  0.87281100  1
  F  F20  1  0.09182600  0.79940900  0.43593100  1
  F  F21  1  0.03275100  0.90308700  0.02701100  1
  F  F22  1  0.93737200  0.85805500  0.24444000  1
  F  F23  1  0.13045500  0.66684100  0.63516000  1
  F  F24  1  0.91246200  0.62610600  0.83269000  1
  F  F25  1  0.57739500  0.73354400  0.07151700  1
  F  F26  1  0.44070600  0.66520000  0.29382500  1
  F  F27  1  0.56910000  0.58745000  0.52410700  1
  F  F28  1  0.51940000  0.42692800  0.96488300  1
  F  F29  1  0.48463900  0.47107600  0.75170800  1
  F  F30  1  0.98463900  0.52892400  0.24829200  1
  F  F31  1  0.01940000  0.57307200  0.03511700  1
  F  F32  1  0.06910000  0.41255000  0.47589300  1
  F  F33  1  0.94070600  0.33480000  0.70617500  1
  F  F34  1  0.07739500  0.26645600  0.92848300  1
  F  F35  1  0.41246200  0.37389400  0.16731000  1
  F  F36  1  0.63045500  0.33315900  0.36484000  1
  F  F37  1  0.43737200  0.14194500  0.75556000  1
  F  F38  1  0.53275100  0.09691300  0.97298900  1
  F  F39  1  0.59182600  0.20059100  0.56406900  1
  F  F40  1  0.93895300  0.21817500  0.12718900  1
  F  F41  1  0.09535600  0.16534700  0.35498200  1
  F  F42  1  0.90032400  0.97814300  0.83026200  1
  F  F43  1  0.05712200  0.04692300  0.56719000  1
