# generated using pymatgen
data_Li3Co3OF7
_symmetry_space_group_name_H-M   'P 1'
_cell_length_a   6.06955524
_cell_length_b   6.07247105
_cell_length_c   10.53379645
_cell_angle_alpha   73.31468314
_cell_angle_beta   89.85157122
_cell_angle_gamma   119.82766694
_symmetry_Int_Tables_number   1
_chemical_formula_structural   Li3Co3OF7
_chemical_formula_sum   'Li6 Co6 O2 F14'
_cell_volume   317.65531790
_cell_formula_units_Z   2
loop_
 _symmetry_equiv_pos_site_id
 _symmetry_equiv_pos_as_xyz
  1  'x, y, z'
loop_
 _atom_site_type_symbol
 _atom_site_label
 _atom_site_symmetry_multiplicity
 _atom_site_fract_x
 _atom_site_fract_y
 _atom_site_fract_z
 _atom_site_occupancy
  Li  Li0  1  0.50225400  0.99872100  0.49914000  1
  Li  Li1  1  0.00232700  0.99850700  0.99929900  1
  Li  Li2  1  0.61606500  0.25589100  0.12810000  1
  Li  Li3  1  0.11608300  0.25577800  0.62800300  1
  Li  Li4  1  0.06180900  0.62555100  0.31265200  1
  Li  Li5  1  0.56168000  0.62526700  0.81278000  1
  Co  Co6  1  0.31920800  0.61144000  0.06850200  1
  Co  Co7  1  0.81992500  0.61302700  0.56885800  1
  Co  Co8  1  0.05612900  0.61187400  0.80658900  1
  Co  Co9  1  0.08114500  0.13739600  0.30601000  1
  Co  Co10  1  0.58224700  0.13729500  0.80560800  1
  Co  Co11  1  0.55681700  0.61306700  0.30592600  1
  O  O12  1  0.42134000  0.38606200  0.19257400  1
  O  O13  1  0.92126400  0.38538600  0.69295000  1
  F  F14  1  0.70601500  0.86292000  0.43115200  1
  F  F15  1  0.20598200  0.86242400  0.93144500  1
  F  F16  1  0.94961700  0.38593600  0.19340500  1
  F  F17  1  0.44976900  0.38592300  0.69318600  1
  F  F18  1  0.42082000  0.85685500  0.19349200  1
  F  F19  1  0.92080600  0.85655600  0.69262400  1
  F  F20  1  0.18612900  0.38528900  0.42842000  1
  F  F21  1  0.68618900  0.38708400  0.92840400  1
  F  F22  1  0.69816900  0.39588200  0.43394800  1
  F  F23  1  0.19912000  0.39586400  0.93360300  1
  F  F24  1  0.93490500  0.86739000  0.19796700  1
  F  F25  1  0.43389900  0.86730700  0.69805100  1
  F  F26  1  0.17009700  0.86762200  0.43369600  1
  F  F27  1  0.67018400  0.86768300  0.93361800  1
