# generated using pymatgen
data_Li10Sn(PS6)2
_symmetry_space_group_name_H-M   'P 1'
_cell_length_a   8.66527900
_cell_length_b   8.94964927
_cell_length_c   13.14190842
_cell_angle_alpha   91.99858175
_cell_angle_beta   90.60843564
_cell_angle_gamma   90.07788052
_symmetry_Int_Tables_number   1
_chemical_formula_structural   Li10Sn(PS6)2
_chemical_formula_sum   'Li20 Sn2 P4 S24'
_cell_volume   1018.49194540
_cell_formula_units_Z   2
loop_
 _symmetry_equiv_pos_site_id
 _symmetry_equiv_pos_as_xyz
  1  'x, y, z'
loop_
 _atom_site_type_symbol
 _atom_site_label
 _atom_site_symmetry_multiplicity
 _atom_site_fract_x
 _atom_site_fract_y
 _atom_site_fract_z
 _atom_site_occupancy
  Li  Li0  1  0.98894800  0.51741800  0.95002400  1
  Li  Li1  1  0.96366200  0.51745500  0.42782700  1
  Li  Li2  1  0.51101200  0.96407700  0.54740400  1
  Li  Li3  1  0.49662100  0.99635700  0.05216800  1
  Li  Li4  1  0.26215900  0.28730400  0.15760900  1
  Li  Li5  1  0.74198400  0.74799700  0.28321900  1
  Li  Li6  1  0.21376800  0.81653000  0.75304200  1
  Li  Li7  1  0.23128300  0.75858100  0.25286400  1
  Li  Li8  1  0.75328900  0.21883000  0.35222000  1
  Li  Li9  1  0.46164400  0.51486200  0.75083700  1
  Li  Li10  1  0.23021900  0.22715000  0.36677900  1
  Li  Li11  1  0.73625900  0.25766200  0.85758900  1
  Li  Li12  1  0.24489400  0.76093500  0.00556800  1
  Li  Li13  1  0.73984100  0.26088000  0.13095300  1
  Li  Li14  1  0.76519700  0.72722500  0.68834900  1
  Li  Li15  1  0.22007500  0.25885000  0.91974000  1
  Li  Li16  1  0.74837700  0.76114100  0.00834900  1
  Li  Li17  1  0.24419100  0.71972500  0.48527700  1
  Li  Li18  1  0.78404100  0.21551700  0.62537500  1
  Li  Li19  1  0.24054100  0.21295700  0.64933500  1
  Sn  Sn20  1  0.99620500  0.48983600  0.18330500  1
  Sn  Sn21  1  0.51032700  0.98964700  0.81515400  1
  P  P22  1  0.99330700  0.96515100  0.50167500  1
  P  P23  1  0.49235800  0.51556900  0.99290100  1
  P  P24  1  0.00869000  0.48281500  0.68421900  1
  P  P25  1  0.48794600  0.00926000  0.31062800  1
  S  S26  1  0.98856500  0.17471200  0.44363900  1
  S  S27  1  0.00498900  0.79451800  0.39101600  1
  S  S28  1  0.29705200  0.53064000  0.90190800  1
  S  S29  1  0.68321800  0.53021600  0.90087200  1
  S  S30  1  0.49525900  0.69397400  0.09579900  1
  S  S31  1  0.48703000  0.31156000  0.05885200  1
  S  S32  1  0.19423300  0.94768700  0.58774000  1
  S  S33  1  0.80229800  0.94628100  0.58961900  1
  S  S34  1  0.00766700  0.28530800  0.05847400  1
  S  S35  1  0.00130600  0.72346000  0.09769000  1
  S  S36  1  0.21009000  0.48604500  0.60183700  1
  S  S37  1  0.81715700  0.49112600  0.59004000  1
  S  S38  1  0.48461500  0.80223500  0.37432400  1
  S  S39  1  0.49551900  0.17661900  0.42183100  1
  S  S40  1  0.27200000  0.98823900  0.91047300  1
  S  S41  1  0.72625400  0.00199600  0.92964300  1
  S  S42  1  0.99307100  0.66142900  0.78697900  1
  S  S43  1  0.00304600  0.28298100  0.75975200  1
  S  S44  1  0.76555100  0.46505900  0.27999700  1
  S  S45  1  0.21385500  0.47773600  0.29824700  1
  S  S46  1  0.51915700  0.21416300  0.71556100  1
  S  S47  1  0.49050200  0.78017200  0.69451600  1
  S  S48  1  0.68418100  0.01589500  0.22207100  1
  S  S49  1  0.29394400  0.03132000  0.21991000  1
