# generated using pymatgen
data_Li2FeF4
_symmetry_space_group_name_H-M   'P 1'
_cell_length_a   8.90051345
_cell_length_b   8.90051345
_cell_length_c   8.90051347
_cell_angle_alpha   107.73372666
_cell_angle_beta   107.73372666
_cell_angle_gamma   107.73373308
_symmetry_Int_Tables_number   1
_chemical_formula_structural   Li2FeF4
_chemical_formula_sum   'Li12 Fe6 F24'
_cell_volume   575.04872676
_cell_formula_units_Z   6
loop_
 _symmetry_equiv_pos_site_id
 _symmetry_equiv_pos_as_xyz
  1  'x, y, z'
loop_
 _atom_site_type_symbol
 _atom_site_label
 _atom_site_symmetry_multiplicity
 _atom_site_fract_x
 _atom_site_fract_y
 _atom_site_fract_z
 _atom_site_occupancy
  Li  Li0  1  0.08140700  0.70289400  0.95113100  1
  Li  Li1  1  0.29710600  0.04886900  0.91859300  1
  Li  Li2  1  0.36133900  0.63477100  0.76955200  1
  Li  Li3  1  0.04886900  0.91859300  0.29710600  1
  Li  Li4  1  0.36522900  0.23044800  0.63866100  1
  Li  Li5  1  0.23044800  0.63866100  0.36522900  1
  Li  Li6  1  0.76955200  0.36133900  0.63477100  1
  Li  Li7  1  0.63477100  0.76955200  0.36133900  1
  Li  Li8  1  0.95113100  0.08140700  0.70289400  1
  Li  Li9  1  0.63866100  0.36522900  0.23044800  1
  Li  Li10  1  0.70289400  0.95113100  0.08140700  1
  Li  Li11  1  0.91859300  0.29710600  0.04886900  1
  Fe  Fe12  1  0.29098300  0.44526900  0.99411700  1
  Fe  Fe13  1  0.00588300  0.70901700  0.55473100  1
  Fe  Fe14  1  0.55473100  0.00588300  0.70901700  1
  Fe  Fe15  1  0.44526900  0.99411700  0.29098300  1
  Fe  Fe16  1  0.99411700  0.29098300  0.44526900  1
  Fe  Fe17  1  0.70901700  0.55473100  0.00588300  1
  F  F18  1  0.18013500  0.19037300  0.88977500  1
  F  F19  1  0.26069400  0.62990000  0.93123500  1
  F  F20  1  0.11022500  0.81986500  0.80962700  1
  F  F21  1  0.06876500  0.73930600  0.37010000  1
  F  F22  1  0.17884800  0.54948500  0.53541400  1
  F  F23  1  0.53235500  0.85915000  0.84810300  1
  F  F24  1  0.14085000  0.15189700  0.46764500  1
  F  F25  1  0.37010000  0.06876500  0.73930600  1
  F  F26  1  0.45051500  0.46458600  0.82115200  1
  F  F27  1  0.46458600  0.82115200  0.45051500  1
  F  F28  1  0.80962700  0.11022500  0.81986500  1
  F  F29  1  0.15189700  0.46764500  0.14085000  1
  F  F30  1  0.84810300  0.53235500  0.85915000  1
  F  F31  1  0.19037300  0.88977500  0.18013500  1
  F  F32  1  0.53541400  0.17884800  0.54948500  1
  F  F33  1  0.54948500  0.53541400  0.17884800  1
  F  F34  1  0.62990000  0.93123500  0.26069400  1
  F  F35  1  0.85915000  0.84810300  0.53235500  1
  F  F36  1  0.46764500  0.14085000  0.15189700  1
  F  F37  1  0.82115200  0.45051500  0.46458600  1
  F  F38  1  0.93123500  0.26069400  0.62990000  1
  F  F39  1  0.88977500  0.18013500  0.19037300  1
  F  F40  1  0.73930600  0.37010000  0.06876500  1
  F  F41  1  0.81986500  0.80962700  0.11022500  1
