# generated using pymatgen
data_Li2MnVP2(HO5)2
_symmetry_space_group_name_H-M   'P 1'
_cell_length_a   6.95633600
_cell_length_b   7.41470216
_cell_length_c   8.05206131
_cell_angle_alpha   91.70267042
_cell_angle_beta   92.28652171
_cell_angle_gamma   117.49036151
_symmetry_Int_Tables_number   1
_chemical_formula_structural   Li2MnVP2(HO5)2
_chemical_formula_sum   'Li4 Mn2 V2 P4 H4 O20'
_cell_volume   367.58789245
_cell_formula_units_Z   2
loop_
 _symmetry_equiv_pos_site_id
 _symmetry_equiv_pos_as_xyz
  1  'x, y, z'
loop_
 _atom_site_type_symbol
 _atom_site_label
 _atom_site_symmetry_multiplicity
 _atom_site_fract_x
 _atom_site_fract_y
 _atom_site_fract_z
 _atom_site_occupancy
  Li  Li0  1  0.07281800  0.82286800  0.67592100  1
  Li  Li1  1  0.42856900  0.17331300  0.82547600  1
  Li  Li2  1  0.57143100  0.82668700  0.17452400  1
  Li  Li3  1  0.92718200  0.17713200  0.32407900  1
  Mn  Mn4  1  0.50000000  0.50000000  0.50000000  1
  Mn  Mn5  1  0.50000000  0.00000000  0.50000000  1
  V  V6  1  0.00000000  0.50000000  0.00000000  1
  V  V7  1  0.00000000  0.00000000  0.00000000  1
  P  P8  1  0.47842600  0.76632300  0.84385500  1
  P  P9  1  0.02260300  0.23206400  0.65847300  1
  P  P10  1  0.97739700  0.76793600  0.34152700  1
  P  P11  1  0.52157400  0.23367700  0.15614500  1
  H  H12  1  0.78914300  0.66054600  0.84801900  1
  H  H13  1  0.28987400  0.66987900  0.35180100  1
  H  H14  1  0.71012600  0.33012100  0.64819900  1
  H  H15  1  0.21085700  0.33945400  0.15198100  1
  O  O16  1  0.32418400  0.65661500  0.98220200  1
  O  O17  1  0.11395300  0.12016700  0.77370900  1
  O  O18  1  0.38178600  0.87550400  0.73275300  1
  O  O19  1  0.68778400  0.92722900  0.94259700  1
  O  O20  1  0.18196900  0.92528000  0.44369600  1
  O  O21  1  0.53566900  0.61844700  0.74132500  1
  O  O22  1  0.18329200  0.34259800  0.52102900  1
  O  O23  1  0.03180800  0.61890800  0.23928400  1
  O  O24  1  0.94200500  0.72452000  0.89604800  1
  O  O25  1  0.44423200  0.73707800  0.39509100  1
  O  O26  1  0.55576800  0.26292200  0.60490900  1
  O  O27  1  0.05799500  0.27548000  0.10395200  1
  O  O28  1  0.96819200  0.38109200  0.76071600  1
  O  O29  1  0.81670800  0.65740200  0.47897100  1
  O  O30  1  0.46433100  0.38155300  0.25867500  1
  O  O31  1  0.81803100  0.07472000  0.55630400  1
  O  O32  1  0.31221600  0.07277100  0.05740300  1
  O  O33  1  0.61821400  0.12449600  0.26724700  1
  O  O34  1  0.88604700  0.87983300  0.22629100  1
  O  O35  1  0.67581600  0.34338500  0.01779800  1
