# generated using pymatgen
data_Li6VO4F
_symmetry_space_group_name_H-M   'P 1'
_cell_length_a   5.26944083
_cell_length_b   9.05555474
_cell_length_c   10.81923028
_cell_angle_alpha   66.86541531
_cell_angle_beta   101.49143027
_cell_angle_gamma   84.01124432
_symmetry_Int_Tables_number   1
_chemical_formula_structural   Li6VO4F
_chemical_formula_sum   'Li24 V4 O16 F4'
_cell_volume   455.58447212
_cell_formula_units_Z   4
loop_
 _symmetry_equiv_pos_site_id
 _symmetry_equiv_pos_as_xyz
  1  'x, y, z'
loop_
 _atom_site_type_symbol
 _atom_site_label
 _atom_site_symmetry_multiplicity
 _atom_site_fract_x
 _atom_site_fract_y
 _atom_site_fract_z
 _atom_site_occupancy
  Li  Li0  1  0.74446900  0.84664200  0.74129300  1
  Li  Li1  1  0.24458000  0.34677900  0.74121200  1
  Li  Li2  1  0.24641400  0.16220400  0.24144800  1
  Li  Li3  1  0.74630700  0.66210600  0.24114500  1
  Li  Li4  1  0.64764800  0.97698300  0.24342800  1
  Li  Li5  1  0.14786500  0.47692900  0.24324800  1
  Li  Li6  1  0.34542700  0.02995000  0.74305800  1
  Li  Li7  1  0.84539200  0.52993100  0.74304500  1
  Li  Li8  1  0.15524400  0.36156300  0.00102200  1
  Li  Li9  1  0.65516000  0.86154500  0.00109500  1
  Li  Li10  1  0.59629800  0.88749100  0.50124700  1
  Li  Li11  1  0.09611800  0.38721400  0.50105600  1
  Li  Li12  1  0.41325200  0.13929400  0.50412900  1
  Li  Li13  1  0.91248000  0.63957700  0.50389600  1
  Li  Li14  1  0.34120800  0.10632400  0.00412200  1
  Li  Li15  1  0.84110800  0.60633000  0.00411300  1
  Li  Li16  1  0.07238300  0.91044600  0.45018400  1
  Li  Li17  1  0.57198300  0.41048700  0.45002500  1
  Li  Li18  1  0.12726400  0.88933700  0.94987500  1
  Li  Li19  1  0.62718100  0.38947200  0.94984400  1
  Li  Li20  1  0.85914900  0.13529300  0.06164100  1
  Li  Li21  1  0.35905500  0.63523800  0.06150300  1
  Li  Li22  1  0.95261900  0.05385700  0.56125400  1
  Li  Li23  1  0.45237300  0.55410900  0.56119700  1
  V  V24  1  0.28091500  0.72053700  0.74145900  1
  V  V25  1  0.71041900  0.28788200  0.24180600  1
  V  V26  1  0.78130900  0.22055200  0.74144800  1
  V  V27  1  0.21008900  0.78790200  0.24174600  1
  O  O28  1  0.49669200  0.22362600  0.09939300  1
  O  O29  1  0.99657800  0.72358300  0.09945800  1
  O  O30  1  0.35156500  0.92718000  0.59868600  1
  O  O31  1  0.85141700  0.42714700  0.59866600  1
  O  O32  1  0.64547300  0.10005400  0.39283300  1
  O  O33  1  0.14524400  0.60003500  0.39280400  1
  O  O34  1  0.49840400  0.75779500  0.89218800  1
  O  O35  1  0.99828800  0.25784300  0.89211100  1
  O  O36  1  0.93042100  0.76542300  0.61788100  1
  O  O37  1  0.43054000  0.26536600  0.61793100  1
  O  O38  1  0.93698900  0.36563500  0.11762400  1
  O  O39  1  0.43681400  0.86564700  0.11768700  1
  O  O40  1  0.03753100  0.98004300  0.25283300  1
  O  O41  1  0.53757800  0.48029700  0.25260600  1
  O  O42  1  0.96477100  0.01745400  0.75213500  1
  O  O43  1  0.46483300  0.51738400  0.75215300  1
  F  F44  1  0.07815600  0.58833000  0.89586400  1
  F  F45  1  0.57818500  0.08833700  0.89585600  1
  F  F46  1  0.06923300  0.26582700  0.39537300  1
  F  F47  1  0.56757700  0.76702400  0.39537500  1
