# generated using pymatgen
data_Li6MnSn3(PO4)6
_symmetry_space_group_name_H-M   'P 1'
_cell_length_a   8.60685900
_cell_length_b   8.64029270
_cell_length_c   8.65457861
_cell_angle_alpha   64.13619457
_cell_angle_beta   64.45725343
_cell_angle_gamma   64.26856035
_symmetry_Int_Tables_number   1
_chemical_formula_structural   Li6MnSn3(PO4)6
_chemical_formula_sum   'Li6 Mn1 Sn3 P6 O24'
_cell_volume   497.95907544
_cell_formula_units_Z   1
loop_
 _symmetry_equiv_pos_site_id
 _symmetry_equiv_pos_as_xyz
  1  'x, y, z'
loop_
 _atom_site_type_symbol
 _atom_site_label
 _atom_site_symmetry_multiplicity
 _atom_site_fract_x
 _atom_site_fract_y
 _atom_site_fract_z
 _atom_site_occupancy
  Li  Li0  1  0.97845100  0.01899000  0.01460300  1
  Li  Li1  1  0.25274700  0.62852300  0.84448500  1
  Li  Li2  1  0.52383700  0.47782400  0.47876200  1
  Li  Li3  1  0.77840500  0.31906600  0.14125600  1
  Li  Li4  1  0.30958700  0.13642500  0.78052500  1
  Li  Li5  1  0.14114200  0.77984900  0.31409800  1
  Mn  Mn6  1  0.16066800  0.16209500  0.15957900  1
  Sn  Sn7  1  0.85351400  0.85607900  0.85182900  1
  Sn  Sn8  1  0.64072300  0.64569500  0.63752600  1
  Sn  Sn9  1  0.33613700  0.33729800  0.33898900  1
  P  P10  1  0.92565700  0.58222200  0.25410400  1
  P  P11  1  0.58303100  0.25464400  0.92873400  1
  P  P12  1  0.25175300  0.93363300  0.57616800  1
  P  P13  1  0.75695000  0.04127800  0.44593700  1
  P  P14  1  0.44031000  0.75540800  0.03398400  1
  P  P15  1  0.04557800  0.45091900  0.75862900  1
  O  O16  1  0.87851200  0.51230900  0.69698400  1
  O  O17  1  0.68009100  0.89125000  0.48446600  1
  O  O18  1  0.90082700  0.76185500  0.09404400  1
  O  O19  1  0.45419700  0.68456000  0.88767500  1
  O  O20  1  0.73707000  0.58260000  0.40152500  1
  O  O21  1  0.98689400  0.41565100  0.19587400  1
  O  O22  1  0.76239000  0.09767000  0.89658500  1
  O  O23  1  0.57574100  0.40748400  0.74228100  1
  O  O24  1  0.39461400  0.73907800  0.58642500  1
  O  O25  1  0.82906500  0.99070200  0.60199300  1
  O  O26  1  0.91428100  0.04910800  0.26641500  1
  O  O27  1  0.61422100  0.80682100  0.96699000  1
  O  O28  1  0.41261800  0.20092300  0.99004900  1
  O  O29  1  0.10108400  0.89664800  0.76221100  1
  O  O30  1  0.19488500  0.99067300  0.41058300  1
  O  O31  1  0.61473400  0.23175500  0.42376500  1
  O  O32  1  0.42087800  0.61572100  0.22434600  1
  O  O33  1  0.26890600  0.92231700  0.04326800  1
  O  O34  1  0.03151800  0.60598900  0.81652800  1
  O  O35  1  0.23046100  0.41489500  0.61308200  1
  O  O36  1  0.59853200  0.31870800  0.05941300  1
  O  O37  1  0.04343800  0.27425900  0.91946700  1
  O  O38  1  0.31821600  0.06539300  0.58659400  1
  O  O39  1  0.05833900  0.59269000  0.32123000  1
