# generated using pymatgen
data_Li3MnFeCo(PO4)3
_symmetry_space_group_name_H-M   'P 1'
_cell_length_a   6.09142300
_cell_length_b   10.44697300
_cell_length_c   14.31023569
_cell_angle_alpha   89.90494898
_cell_angle_beta   90.00000000
_cell_angle_gamma   90.00000000
_symmetry_Int_Tables_number   1
_chemical_formula_structural   Li3MnFeCo(PO4)3
_chemical_formula_sum   'Li12 Mn4 Fe4 Co4 P12 O48'
_cell_volume   910.65823695
_cell_formula_units_Z   4
loop_
 _symmetry_equiv_pos_site_id
 _symmetry_equiv_pos_as_xyz
  1  'x, y, z'
loop_
 _atom_site_type_symbol
 _atom_site_label
 _atom_site_symmetry_multiplicity
 _atom_site_fract_x
 _atom_site_fract_y
 _atom_site_fract_z
 _atom_site_occupancy
  Li  Li0  1  0.74998500  0.99854700  0.33322200  1
  Li  Li1  1  0.24938700  0.99961000  0.00038600  1
  Li  Li2  1  0.75061300  0.99961000  0.00038600  1
  Li  Li3  1  0.24955500  0.99844800  0.66660800  1
  Li  Li4  1  0.75044500  0.99844800  0.66660800  1
  Li  Li5  1  0.25001500  0.99854700  0.33322200  1
  Li  Li6  1  0.24993000  0.50112900  0.49974000  1
  Li  Li7  1  0.75007000  0.50112900  0.49974000  1
  Li  Li8  1  0.24944200  0.50099800  0.83302200  1
  Li  Li9  1  0.75055800  0.50099800  0.83302200  1
  Li  Li10  1  0.24975800  0.50152600  0.16698500  1
  Li  Li11  1  0.75024200  0.50152600  0.16698500  1
  Mn  Mn12  1  0.50000000  0.21830800  0.84052200  1
  Mn  Mn13  1  0.00000000  0.28130200  0.34035600  1
  Mn  Mn14  1  0.00000000  0.28106300  0.67340600  1
  Mn  Mn15  1  0.50000000  0.72010600  0.99309900  1
  Fe  Fe16  1  0.50000000  0.21935800  0.50669500  1
  Fe  Fe17  1  0.50000000  0.21869800  0.17382500  1
  Fe  Fe18  1  0.00000000  0.28031500  0.00772000  1
  Fe  Fe19  1  0.50000000  0.71969600  0.65858500  1
  Co  Co20  1  0.50000000  0.72146500  0.32808600  1
  Co  Co21  1  0.00000000  0.78108100  0.16101500  1
  Co  Co22  1  0.00000000  0.77920700  0.49359300  1
  Co  Co23  1  0.00000000  0.77902100  0.82643200  1
  P  P24  1  0.00000000  0.09363400  0.19300600  1
  P  P25  1  0.00000000  0.09268900  0.86200900  1
  P  P26  1  0.00000000  0.09271800  0.52666000  1
  P  P27  1  0.50000000  0.40779600  0.69390600  1
  P  P28  1  0.50000000  0.40670700  0.36089700  1
  P  P29  1  0.50000000  0.40496100  0.02793200  1
  P  P30  1  0.00000000  0.59672600  0.63892700  1
  P  P31  1  0.00000000  0.59417800  0.97165900  1
  P  P32  1  0.00000000  0.59718300  0.30516500  1
  P  P33  1  0.50000000  0.90573600  0.14030400  1
  P  P34  1  0.50000000  0.90443600  0.80509500  1
  P  P35  1  0.50000000  0.90447400  0.47271600  1
  O  O36  1  0.50000000  0.04139100  0.76279900  1
  O  O37  1  0.50000000  0.04174800  0.43153100  1
  O  O38  1  0.50000000  0.04230500  0.09886100  1
  O  O39  1  0.00000000  0.09513600  0.41959300  1
  O  O40  1  0.00000000  0.09654800  0.08585800  1
  O  O41  1  0.00000000  0.09629400  0.75471300  1
  O  O42  1  0.20064800  0.16354000  0.90678700  1
  O  O43  1  0.79935200  0.16354000  0.90678700  1
  O  O44  1  0.20216700  0.16320500  0.57043900  1
  O  O45  1  0.79783300  0.16320500  0.57043900  1
  O  O46  1  0.20204800  0.16386900  0.23709500  1
  O  O47  1  0.79795200  0.16386900  0.23709500  1
  O  O48  1  0.69993000  0.33635500  0.40686700  1
  O  O49  1  0.30007000  0.33635500  0.40686700  1
  O  O50  1  0.70149300  0.33748200  0.73876600  1
  O  O51  1  0.29850700  0.33748200  0.73876600  1
  O  O52  1  0.70157400  0.33336600  0.07161200  1
  O  O53  1  0.29842600  0.33336600  0.07161200  1
  O  O54  1  0.50000000  0.40334600  0.58678100  1
  O  O55  1  0.50000000  0.40451400  0.92087800  1
  O  O56  1  0.50000000  0.40189800  0.25426900  1
  O  O57  1  0.00000000  0.45989400  0.59705200  1
  O  O58  1  0.00000000  0.45626800  0.93206700  1
  O  O59  1  0.00000000  0.45953200  0.26426700  1
  O  O60  1  0.50000000  0.54491400  0.73452700  1
  O  O61  1  0.50000000  0.54143400  0.07022400  1
  O  O62  1  0.50000000  0.54579500  0.40084200  1
  O  O63  1  0.00000000  0.59786500  0.74648300  1
  O  O64  1  0.00000000  0.59837500  0.07916600  1
  O  O65  1  0.00000000  0.59834500  0.41314900  1
  O  O66  1  0.20061800  0.66482200  0.92612100  1
  O  O67  1  0.20211700  0.66757600  0.59491800  1
  O  O68  1  0.20253500  0.66680900  0.26060600  1
  O  O69  1  0.79746500  0.66680900  0.26060600  1
  O  O70  1  0.79938200  0.66482200  0.92612100  1
  O  O71  1  0.79788300  0.66757600  0.59491800  1
  O  O72  1  0.70400100  0.83543500  0.09652100  1
  O  O73  1  0.29599900  0.83543500  0.09652100  1
  O  O74  1  0.70348500  0.83366500  0.76201500  1
  O  O75  1  0.70269800  0.83346200  0.42801600  1
  O  O76  1  0.29651500  0.83366500  0.76201500  1
  O  O77  1  0.29730200  0.83346200  0.42801600  1
  O  O78  1  0.50000000  0.90249000  0.24817700  1
  O  O79  1  0.50000000  0.90277500  0.57995300  1
  O  O80  1  0.50000000  0.90457900  0.91237800  1
  O  O81  1  0.00000000  0.95557900  0.23474100  1
  O  O82  1  0.00000000  0.95421300  0.90192100  1
  O  O83  1  0.00000000  0.95420900  0.56871700  1
