# generated using pymatgen
data_Li2CrO3
_symmetry_space_group_name_H-M   'P 1'
_cell_length_a   15.23009869
_cell_length_b   9.80150902
_cell_length_c   9.80252175
_cell_angle_alpha   17.07689142
_cell_angle_beta   16.63334109
_cell_angle_gamma   16.62704271
_symmetry_Int_Tables_number   1
_chemical_formula_structural   Li2CrO3
_chemical_formula_sum   'Li4 Cr2 O6'
_cell_volume   106.31338377
_cell_formula_units_Z   2
loop_
 _symmetry_equiv_pos_site_id
 _symmetry_equiv_pos_as_xyz
  1  'x, y, z'
loop_
 _atom_site_type_symbol
 _atom_site_label
 _atom_site_symmetry_multiplicity
 _atom_site_fract_x
 _atom_site_fract_y
 _atom_site_fract_z
 _atom_site_occupancy
  Li  Li0  1  0.66670200  0.00001000  0.99995000  1
  Li  Li1  1  0.16669100  0.49994100  0.50003300  1
  Li  Li2  1  0.51019200  0.49598400  0.49600500  1
  Li  Li3  1  0.82314500  0.50400000  0.50399300  1
  Cr  Cr4  1  0.02731300  0.98158100  0.98185400  1
  Cr  Cr5  1  0.30607700  0.01874500  0.01778500  1
  O  O6  1  0.21301100  0.28409000  0.28378700  1
  O  O7  1  0.57384800  0.26593600  0.26515900  1
  O  O8  1  0.12033400  0.71538700  0.71667500  1
  O  O9  1  0.94572100  0.23209800  0.23241800  1
  O  O10  1  0.38756400  0.76781700  0.76773100  1
  O  O11  1  0.75940200  0.73441100  0.73461100  1
