# generated using pymatgen
data_Li4Ti2Mn5O12
_symmetry_space_group_name_H-M   'P 1'
_cell_length_a   9.07305100
_cell_length_b   5.29415600
_cell_length_c   10.06514192
_cell_angle_alpha   81.00035210
_cell_angle_beta   90.00000000
_cell_angle_gamma   90.00000000
_symmetry_Int_Tables_number   1
_chemical_formula_structural   Li4Ti2Mn5O12
_chemical_formula_sum   'Li8 Ti4 Mn10 O24'
_cell_volume   477.51865116
_cell_formula_units_Z   2
loop_
 _symmetry_equiv_pos_site_id
 _symmetry_equiv_pos_as_xyz
  1  'x, y, z'
loop_
 _atom_site_type_symbol
 _atom_site_label
 _atom_site_symmetry_multiplicity
 _atom_site_fract_x
 _atom_site_fract_y
 _atom_site_fract_z
 _atom_site_occupancy
  Li  Li0  1  0.90735900  0.00721400  0.74168700  1
  Li  Li1  1  0.91097500  0.49221300  0.25914600  1
  Li  Li2  1  0.58547900  0.75264500  0.50178200  1
  Li  Li3  1  0.58967900  0.50174100  0.25935500  1
  Li  Li4  1  0.40735900  0.99278600  0.25831300  1
  Li  Li5  1  0.41097500  0.50778700  0.74085400  1
  Li  Li6  1  0.08547900  0.24735500  0.49821800  1
  Li  Li7  1  0.08967900  0.49825900  0.74064500  1
  Ti  Ti8  1  0.75725700  0.24129500  0.50483800  1
  Ti  Ti9  1  0.75327600  0.75833000  0.99339900  1
  Ti  Ti10  1  0.25327600  0.24167000  0.00660100  1
  Ti  Ti11  1  0.25725700  0.75870500  0.49516200  1
  Mn  Mn12  1  0.92177800  0.25007900  0.00518800  1
  Mn  Mn13  1  0.92640300  0.75067400  0.49469400  1
  Mn  Mn14  1  0.74699100  0.98985800  0.25667800  1
  Mn  Mn15  1  0.57995300  0.24585200  0.99841000  1
  Mn  Mn16  1  0.73750400  0.51772600  0.73957600  1
  Mn  Mn17  1  0.42640300  0.24932600  0.50530600  1
  Mn  Mn18  1  0.42177800  0.74992100  0.99481200  1
  Mn  Mn19  1  0.24699100  0.01014200  0.74332200  1
  Mn  Mn20  1  0.23750400  0.48227400  0.26042400  1
  Mn  Mn21  1  0.07995300  0.75414800  0.00159000  1
  O  O22  1  0.89520200  0.14265400  0.38110500  1
  O  O23  1  0.89744500  0.85436600  0.11676700  1
  O  O24  1  0.76948400  0.88734100  0.60466300  1
  O  O25  1  0.76039200  0.10286700  0.89297700  1
  O  O26  1  0.90007300  0.63546400  0.87833700  1
  O  O27  1  0.89803600  0.36388800  0.62465500  1
  O  O28  1  0.58818700  0.14316400  0.38654300  1
  O  O29  1  0.76244500  0.61487300  0.38665300  1
  O  O30  1  0.59022800  0.85737000  0.11701900  1
  O  O31  1  0.75258400  0.38795800  0.11358100  1
  O  O32  1  0.59035900  0.62570900  0.88582200  1
  O  O33  1  0.58795500  0.37919500  0.60779900  1
  O  O34  1  0.39744500  0.14563400  0.88323300  1
  O  O35  1  0.39520200  0.85734600  0.61889500  1
  O  O36  1  0.26948400  0.11265900  0.39533700  1
  O  O37  1  0.39803600  0.63611200  0.37534500  1
  O  O38  1  0.26039200  0.89713300  0.10702300  1
  O  O39  1  0.40007300  0.36453600  0.12166300  1
  O  O40  1  0.09022800  0.14263000  0.88298100  1
  O  O41  1  0.26244500  0.38512700  0.61334700  1
  O  O42  1  0.08818700  0.85683600  0.61345700  1
  O  O43  1  0.25258400  0.61204200  0.88641900  1
  O  O44  1  0.08795500  0.62080500  0.39220100  1
  O  O45  1  0.09035900  0.37429100  0.11417800  1
