# generated using pymatgen
data_LiNiPO4
_symmetry_space_group_name_H-M   'P 1'
_cell_length_a   7.55397007
_cell_length_b   7.55397007
_cell_length_c   9.60789700
_cell_angle_alpha   90.00000000
_cell_angle_beta   90.00000000
_cell_angle_gamma   120.00000061
_symmetry_Int_Tables_number   1
_chemical_formula_structural   LiNiPO4
_chemical_formula_sum   'Li6 Ni6 P6 O24'
_cell_volume   474.79866277
_cell_formula_units_Z   6
loop_
 _symmetry_equiv_pos_site_id
 _symmetry_equiv_pos_as_xyz
  1  'x, y, z'
loop_
 _atom_site_type_symbol
 _atom_site_label
 _atom_site_symmetry_multiplicity
 _atom_site_fract_x
 _atom_site_fract_y
 _atom_site_fract_z
 _atom_site_occupancy
  Li  Li0  1  0.06915900  0.59217000  0.47941800  1
  Li  Li1  1  0.52301000  0.93084100  0.47941800  1
  Li  Li2  1  0.40783000  0.47699000  0.47941800  1
  Li  Li3  1  0.47699000  0.40783000  0.97941800  1
  Li  Li4  1  0.59217000  0.06915900  0.97941800  1
  Li  Li5  1  0.93084100  0.52301000  0.97941800  1
  Ni  Ni6  1  0.23403400  0.97676000  0.25780700  1
  Ni  Ni7  1  0.02324000  0.25727300  0.25780700  1
  Ni  Ni8  1  0.25727300  0.02324000  0.75780700  1
  Ni  Ni9  1  0.74272700  0.76596600  0.25780700  1
  Ni  Ni10  1  0.76596600  0.74272700  0.75780700  1
  Ni  Ni11  1  0.97676000  0.23403400  0.75780700  1
  P  P12  1  0.33333300  0.66666700  0.19541400  1
  P  P13  1  0.00000000  0.00000000  0.99098100  1
  P  P14  1  0.00000000  0.00000000  0.49098100  1
  P  P15  1  0.33333300  0.66666700  0.78155200  1
  P  P16  1  0.66666700  0.33333300  0.69541400  1
  P  P17  1  0.66666700  0.33333300  0.28155200  1
  O  O18  1  0.08762300  0.86618900  0.43894700  1
  O  O19  1  0.20166800  0.75735200  0.13893400  1
  O  O20  1  0.37661700  0.87664200  0.83993700  1
  O  O21  1  0.12335800  0.49997500  0.83993700  1
  O  O22  1  0.24264800  0.44431600  0.13893400  1
  O  O23  1  0.33333300  0.66666700  0.35530500  1
  O  O24  1  0.00000000  0.00000000  0.15744000  1
  O  O25  1  0.00000000  0.00000000  0.65744000  1
  O  O26  1  0.33333300  0.66666700  0.62148100  1
  O  O27  1  0.13381100  0.22143400  0.43894700  1
  O  O28  1  0.22143400  0.13381100  0.93894700  1
  O  O29  1  0.55568400  0.79833200  0.13893400  1
  O  O30  1  0.50002500  0.62338300  0.83993700  1
  O  O31  1  0.77856600  0.91237700  0.43894700  1
  O  O32  1  0.44431600  0.24264800  0.63893400  1
  O  O33  1  0.49997500  0.12335800  0.33993700  1
  O  O34  1  0.62338300  0.50002500  0.33993700  1
  O  O35  1  0.79833200  0.55568400  0.63893400  1
  O  O36  1  0.66666700  0.33333300  0.85530500  1
  O  O37  1  0.66666700  0.33333300  0.12148100  1
  O  O38  1  0.91237700  0.77856600  0.93894700  1
  O  O39  1  0.75735200  0.20166800  0.63893400  1
  O  O40  1  0.87664200  0.37661700  0.33993700  1
  O  O41  1  0.86618900  0.08762300  0.93894700  1
