# generated using pymatgen
data_Li6MnSiO6
_symmetry_space_group_name_H-M   'P 1'
_cell_length_a   8.27352800
_cell_length_b   8.27352800
_cell_length_c   8.27352800
_cell_angle_alpha   90.00000000
_cell_angle_beta   90.00000000
_cell_angle_gamma   90.00000000
_symmetry_Int_Tables_number   1
_chemical_formula_structural   Li6MnSiO6
_chemical_formula_sum   'Li24 Mn4 Si4 O24'
_cell_volume   566.33346230
_cell_formula_units_Z   4
loop_
 _symmetry_equiv_pos_site_id
 _symmetry_equiv_pos_as_xyz
  1  'x, y, z'
loop_
 _atom_site_type_symbol
 _atom_site_label
 _atom_site_symmetry_multiplicity
 _atom_site_fract_x
 _atom_site_fract_y
 _atom_site_fract_z
 _atom_site_occupancy
  Li  Li0  1  0.02013500  0.17206800  0.33426000  1
  Li  Li1  1  0.00370100  0.23651500  0.72662000  1
  Li  Li2  1  0.17206800  0.33426000  0.02013500  1
  Li  Li3  1  0.16574000  0.97986500  0.67206800  1
  Li  Li4  1  0.27338000  0.50370100  0.26348500  1
  Li  Li5  1  0.23651500  0.72662000  0.00370100  1
  Li  Li6  1  0.26348500  0.27338000  0.50370100  1
  Li  Li7  1  0.22662000  0.49629900  0.76348500  1
  Li  Li8  1  0.33426000  0.02013500  0.17206800  1
  Li  Li9  1  0.32793200  0.66574000  0.52013500  1
  Li  Li10  1  0.49629900  0.76348500  0.22662000  1
  Li  Li11  1  0.47986500  0.82793200  0.83426000  1
  Li  Li12  1  0.52013500  0.32793200  0.66574000  1
  Li  Li13  1  0.50370100  0.26348500  0.27338000  1
  Li  Li14  1  0.67206800  0.16574000  0.97986500  1
  Li  Li15  1  0.66574000  0.52013500  0.32793200  1
  Li  Li16  1  0.77338000  0.99629900  0.73651500  1
  Li  Li17  1  0.73651500  0.77338000  0.99629900  1
  Li  Li18  1  0.76348500  0.22662000  0.49629900  1
  Li  Li19  1  0.72662000  0.00370100  0.23651500  1
  Li  Li20  1  0.83426000  0.47986500  0.82793200  1
  Li  Li21  1  0.82793200  0.83426000  0.47986500  1
  Li  Li22  1  0.99629900  0.73651500  0.77338000  1
  Li  Li23  1  0.97986500  0.67206800  0.16574000  1
  Mn  Mn24  1  0.12640900  0.87359100  0.37359100  1
  Mn  Mn25  1  0.37359100  0.12640900  0.87359100  1
  Mn  Mn26  1  0.62640900  0.62640900  0.62640900  1
  Mn  Mn27  1  0.87359100  0.37359100  0.12640900  1
  Si  Si28  1  0.99264400  0.50735600  0.49264400  1
  Si  Si29  1  0.50735600  0.49264400  0.99264400  1
  Si  Si30  1  0.49264400  0.99264400  0.50735600  1
  Si  Si31  1  0.00735600  0.00735600  0.00735600  1
  O  O32  1  0.01049600  0.51049600  0.98950400  1
  O  O33  1  0.12449800  0.89927100  0.88725900  1
  O  O34  1  0.10072900  0.38725900  0.37550200  1
  O  O35  1  0.12299000  0.12299000  0.12299000  1
  O  O36  1  0.11274100  0.62449800  0.60072900  1
  O  O37  1  0.23804800  0.26195200  0.73804800  1
  O  O38  1  0.26195200  0.73804800  0.23804800  1
  O  O39  1  0.38725900  0.37550200  0.10072900  1
  O  O40  1  0.37701000  0.87701000  0.62299000  1
  O  O41  1  0.39927100  0.61274100  0.87550200  1
  O  O42  1  0.37550200  0.10072900  0.38725900  1
  O  O43  1  0.48950400  0.48950400  0.48950400  1
  O  O44  1  0.51049600  0.98950400  0.01049600  1
  O  O45  1  0.62449800  0.60072900  0.11274100  1
  O  O46  1  0.60072900  0.11274100  0.62449800  1
  O  O47  1  0.62299000  0.37701000  0.87701000  1
  O  O48  1  0.61274100  0.87550200  0.39927100  1
  O  O49  1  0.73804800  0.23804800  0.26195200  1
  O  O50  1  0.76195200  0.76195200  0.76195200  1
  O  O51  1  0.88725900  0.12449800  0.89927100  1
  O  O52  1  0.87701000  0.62299000  0.37701000  1
  O  O53  1  0.89927100  0.88725900  0.12449800  1
  O  O54  1  0.87550200  0.39927100  0.61274100  1
  O  O55  1  0.98950400  0.01049600  0.51049600  1
