# generated using pymatgen
data_Li8MnFe7(BO3)8
_symmetry_space_group_name_H-M   'P 1'
_cell_length_a   5.24527400
_cell_length_b   9.05695058
_cell_length_c   11.53061298
_cell_angle_alpha   112.59035168
_cell_angle_beta   102.45953313
_cell_angle_gamma   89.68765662
_symmetry_Int_Tables_number   1
_chemical_formula_structural   Li8MnFe7(BO3)8
_chemical_formula_sum   'Li8 Mn1 Fe7 B8 O24'
_cell_volume   492.01165897
_cell_formula_units_Z   1
loop_
 _symmetry_equiv_pos_site_id
 _symmetry_equiv_pos_as_xyz
  1  'x, y, z'
loop_
 _atom_site_type_symbol
 _atom_site_label
 _atom_site_symmetry_multiplicity
 _atom_site_fract_x
 _atom_site_fract_y
 _atom_site_fract_z
 _atom_site_occupancy
  Li  Li0  1  0.02979200  0.03972600  0.41564900  1
  Li  Li1  1  0.29405700  0.28552700  0.91584800  1
  Li  Li2  1  0.48519800  0.50644700  0.66709600  1
  Li  Li3  1  0.26927200  0.24850600  0.16853200  1
  Li  Li4  1  0.52417400  0.53748900  0.41404000  1
  Li  Li5  1  0.79509400  0.78186000  0.91537300  1
  Li  Li6  1  0.98431600  0.00645000  0.66607400  1
  Li  Li7  1  0.76559200  0.74591500  0.16483300  1
  Mn  Mn8  1  0.27642000  0.93927500  0.88459500  1
  Fe  Fe9  1  0.01243500  0.35685100  0.38120600  1
  Fe  Fe10  1  0.47572900  0.15666200  0.63147500  1
  Fe  Fe11  1  0.24539100  0.56751400  0.13251300  1
  Fe  Fe12  1  0.52414000  0.85275100  0.38314800  1
  Fe  Fe13  1  0.77987000  0.43137500  0.88023800  1
  Fe  Fe14  1  0.75039200  0.06858500  0.13516000  1
  Fe  Fe15  1  0.97527800  0.65501400  0.63212200  1
  B  B16  1  0.01901700  0.68586300  0.37564200  1
  B  B17  1  0.26631700  0.60215100  0.87530500  1
  B  B18  1  0.23760400  0.89735900  0.12893600  1
  B  B19  1  0.47478800  0.81377200  0.62506400  1
  B  B20  1  0.51884100  0.18398100  0.37659300  1
  B  B21  1  0.76886200  0.10538000  0.87719100  1
  B  B22  1  0.73520800  0.39731600  0.12685800  1
  B  B23  1  0.97723400  0.31325200  0.62471700  1
  O  O24  1  0.02281100  0.10976100  0.86257000  1
  O  O25  1  0.10065900  0.71025900  0.84422900  1
  O  O26  1  0.16699700  0.49341200  0.91692800  1
  O  O27  1  0.08844500  0.17050400  0.61459600  1
  O  O28  1  0.10265000  0.42488200  0.59460600  1
  O  O29  1  0.23847600  0.84186400  0.66340200  1
  O  O30  1  0.26512800  0.66023300  0.34737700  1
  O  O31  1  0.52201000  0.60270900  0.86299400  1
  O  O32  1  0.59956300  0.21294400  0.84703600  1
  O  O33  1  0.40256600  0.08038200  0.41664000  1
  O  O34  1  0.39089200  0.31220700  0.36175800  1
  O  O35  1  0.67897800  0.99452900  0.91892500  1
  O  O36  1  0.34506700  0.01552300  0.09952200  1
  O  O37  1  0.58596400  0.66954200  0.61283700  1
  O  O38  1  0.59898200  0.92644100  0.59639300  1
  O  O39  1  0.39605400  0.79218600  0.16613100  1
  O  O40  1  0.46597700  0.38041900  0.11548400  1
  O  O41  1  0.74148800  0.34312500  0.66315900  1
  O  O42  1  0.76698800  0.15803600  0.34829600  1
  O  O43  1  0.90108200  0.58029900  0.41459200  1
  O  O44  1  0.89215800  0.81493100  0.36322400  1
  O  O45  1  0.84042500  0.51519200  0.09717200  1
  O  O46  1  0.89693000  0.29359800  0.16521100  1
  O  O47  1  0.96788900  0.88120600  0.11631300  1
