# generated using pymatgen
data_Li2Mn5O12
_symmetry_space_group_name_H-M   'P 1'
_cell_length_a   5.82600699
_cell_length_b   5.82600699
_cell_length_c   13.05433654
_cell_angle_alpha   77.15690656
_cell_angle_beta   77.15690656
_cell_angle_gamma   89.98175262
_symmetry_Int_Tables_number   1
_chemical_formula_structural   Li2Mn5O12
_chemical_formula_sum   'Li4 Mn10 O24'
_cell_volume   420.63994402
_cell_formula_units_Z   2
loop_
 _symmetry_equiv_pos_site_id
 _symmetry_equiv_pos_as_xyz
  1  'x, y, z'
loop_
 _atom_site_type_symbol
 _atom_site_label
 _atom_site_symmetry_multiplicity
 _atom_site_fract_x
 _atom_site_fract_y
 _atom_site_fract_z
 _atom_site_occupancy
  Li  Li0  1  0.65962300  0.92097200  0.67018900  1
  Li  Li1  1  0.92097200  0.65962300  0.17018900  1
  Li  Li2  1  0.99977600  0.25343200  0.99649500  1
  Li  Li3  1  0.25343200  0.99977600  0.49649500  1
  Mn  Mn4  1  0.46531600  0.45602600  0.58046000  1
  Mn  Mn5  1  0.79174500  0.79182000  0.41612100  1
  Mn  Mn6  1  0.12140400  0.12674100  0.25289000  1
  Mn  Mn7  1  0.95673700  0.45610900  0.58076200  1
  Mn  Mn8  1  0.79182000  0.79174500  0.91612100  1
  Mn  Mn9  1  0.45602600  0.46531600  0.08046000  1
  Mn  Mn10  1  0.45610900  0.95673700  0.08076200  1
  Mn  Mn11  1  0.12713200  0.62424300  0.75249500  1
  Mn  Mn12  1  0.12674100  0.12140400  0.75289000  1
  Mn  Mn13  1  0.62424300  0.12713200  0.25249500  1
  O  O14  1  0.33505300  0.87945200  0.74162100  1
  O  O15  1  0.34827100  0.37872600  0.74202000  1
  O  O16  1  0.87945200  0.33505300  0.24162100  1
  O  O17  1  0.87063400  0.89281400  0.25893400  1
  O  O18  1  0.71257700  0.69084800  0.57485300  1
  O  O19  1  0.70406300  0.24622600  0.59145400  1
  O  O20  1  0.55712800  0.55119200  0.93167100  1
  O  O21  1  0.55738300  0.01655500  0.93076900  1
  O  O22  1  0.03671400  0.02234700  0.40206400  1
  O  O23  1  0.01655500  0.55738300  0.43076900  1
  O  O24  1  0.23236100  0.20578600  0.08893300  1
  O  O25  1  0.89281400  0.87063400  0.75893400  1
  O  O26  1  0.91414100  0.38126500  0.73764200  1
  O  O27  1  0.24622600  0.70406300  0.09145400  1
  O  O28  1  0.02260600  0.56247100  0.90244400  1
  O  O29  1  0.02234700  0.03671400  0.90206400  1
  O  O30  1  0.37872600  0.34827100  0.24202000  1
  O  O31  1  0.38126500  0.91414100  0.23764200  1
  O  O32  1  0.20383800  0.67528600  0.59241300  1
  O  O33  1  0.20578600  0.23236100  0.58893300  1
  O  O34  1  0.67528600  0.20383800  0.09241300  1
  O  O35  1  0.69084800  0.71257700  0.07485300  1
  O  O36  1  0.56247100  0.02260600  0.40244400  1
  O  O37  1  0.55119200  0.55712800  0.43167100  1
