# generated using pymatgen
data_LiAlVO4
_symmetry_space_group_name_H-M   'P 1'
_cell_length_a   2.91596400
_cell_length_b   9.43557700
_cell_length_c   10.16391700
_cell_angle_alpha   90.00000000
_cell_angle_beta   90.00000000
_cell_angle_gamma   90.00000000
_symmetry_Int_Tables_number   1
_chemical_formula_structural   LiAlVO4
_chemical_formula_sum   'Li4 Al4 V4 O16'
_cell_volume   279.64800853
_cell_formula_units_Z   4
loop_
 _symmetry_equiv_pos_site_id
 _symmetry_equiv_pos_as_xyz
  1  'x, y, z'
loop_
 _atom_site_type_symbol
 _atom_site_label
 _atom_site_symmetry_multiplicity
 _atom_site_fract_x
 _atom_site_fract_y
 _atom_site_fract_z
 _atom_site_occupancy
  Li  Li0  1  0.25000000  0.59318000  0.12093200  1
  Li  Li1  1  0.75000000  0.90682000  0.62093200  1
  Li  Li2  1  0.25000000  0.09318000  0.37906800  1
  Li  Li3  1  0.75000000  0.40682000  0.87906800  1
  Al  Al4  1  0.25000000  0.50519400  0.62400900  1
  Al  Al5  1  0.75000000  0.99480600  0.12400900  1
  Al  Al6  1  0.25000000  0.00519400  0.87599100  1
  Al  Al7  1  0.75000000  0.49480600  0.37599100  1
  V  V8  1  0.75000000  0.72881100  0.84349300  1
  V  V9  1  0.25000000  0.77118900  0.34349300  1
  V  V10  1  0.75000000  0.22881100  0.65650700  1
  V  V11  1  0.25000000  0.27118900  0.15650700  1
  O  O12  1  0.25000000  0.60086000  0.46034500  1
  O  O13  1  0.25000000  0.64133800  0.93563900  1
  O  O14  1  0.75000000  0.60253700  0.70260500  1
  O  O15  1  0.75000000  0.64750400  0.25420100  1
  O  O16  1  0.25000000  0.85249600  0.75420100  1
  O  O17  1  0.25000000  0.89746300  0.20260500  1
  O  O18  1  0.75000000  0.85866200  0.43563900  1
  O  O19  1  0.75000000  0.89914000  0.96034500  1
  O  O20  1  0.25000000  0.10086000  0.03965500  1
  O  O21  1  0.25000000  0.14133800  0.56436100  1
  O  O22  1  0.75000000  0.10253700  0.79739500  1
  O  O23  1  0.75000000  0.14750400  0.24579900  1
  O  O24  1  0.25000000  0.35249600  0.74579900  1
  O  O25  1  0.25000000  0.39746300  0.29739500  1
  O  O26  1  0.75000000  0.35866200  0.06436100  1
  O  O27  1  0.75000000  0.39914000  0.53965500  1
