# generated using pymatgen
data_Li3Co3OF7
_symmetry_space_group_name_H-M   'P 1'
_cell_length_a   6.09872255
_cell_length_b   10.41066364
_cell_length_c   6.09813551
_cell_angle_alpha   106.96107865
_cell_angle_beta   60.00179541
_cell_angle_gamma   106.97776089
_symmetry_Int_Tables_number   1
_chemical_formula_structural   Li3Co3OF7
_chemical_formula_sum   'Li6 Co6 O2 F14'
_cell_volume   315.69867314
_cell_formula_units_Z   2
loop_
 _symmetry_equiv_pos_site_id
 _symmetry_equiv_pos_as_xyz
  1  'x, y, z'
loop_
 _atom_site_type_symbol
 _atom_site_label
 _atom_site_symmetry_multiplicity
 _atom_site_fract_x
 _atom_site_fract_y
 _atom_site_fract_z
 _atom_site_occupancy
  Li  Li0  1  0.67615500  0.06081200  0.67646000  1
  Li  Li1  1  0.17642600  0.56078500  0.17620100  1
  Li  Li2  1  0.49938600  0.49406900  0.49948800  1
  Li  Li3  1  0.99948600  0.99408900  0.99938600  1
  Li  Li4  1  0.94162000  0.31530500  0.94155800  1
  Li  Li5  1  0.44161500  0.81531300  0.44161800  1
  Co  Co6  1  0.89295400  0.63698200  0.89304600  1
  Co  Co7  1  0.43601600  0.30796100  0.92377000  1
  Co  Co8  1  0.92411200  0.30769700  0.43550400  1
  Co  Co9  1  0.39309900  0.13708000  0.39307600  1
  Co  Co10  1  0.93589700  0.80788300  0.42383600  1
  Co  Co11  1  0.42383800  0.80789300  0.93590400  1
  O  O12  1  0.58112400  0.19942800  0.58128100  1
  O  O13  1  0.08113500  0.69949900  0.08118200  1
  F  F14  1  0.05875400  0.19352700  0.05852100  1
  F  F15  1  0.55866000  0.69347000  0.55867200  1
  F  F16  1  0.29551900  0.42372000  0.29522900  1
  F  F17  1  0.79540800  0.92373400  0.79536300  1
  F  F18  1  0.81603800  0.43151900  0.81664500  1
  F  F19  1  0.31638100  0.93153700  0.31641400  1
  F  F20  1  0.57299600  0.19327000  0.04851500  1
  F  F21  1  0.07302200  0.69340400  0.54855600  1
  F  F22  1  0.04868700  0.19356800  0.57298100  1
  F  F23  1  0.54856100  0.69343900  0.07304800  1
  F  F24  1  0.83181300  0.43350100  0.30011500  1
  F  F25  1  0.33197100  0.93346900  0.79967800  1
  F  F26  1  0.29959800  0.43353000  0.83197700  1
  F  F27  1  0.79974000  0.93351800  0.33198100  1
