# generated using pymatgen
data_Li5FeP3O11
_symmetry_space_group_name_H-M   'P 1'
_cell_length_a   5.36501900
_cell_length_b   8.52565005
_cell_length_c   9.61994141
_cell_angle_alpha   84.21415070
_cell_angle_beta   88.70407979
_cell_angle_gamma   85.40168528
_symmetry_Int_Tables_number   1
_chemical_formula_structural   Li5FeP3O11
_chemical_formula_sum   'Li10 Fe2 P6 O22'
_cell_volume   436.32117774
_cell_formula_units_Z   2
loop_
 _symmetry_equiv_pos_site_id
 _symmetry_equiv_pos_as_xyz
  1  'x, y, z'
loop_
 _atom_site_type_symbol
 _atom_site_label
 _atom_site_symmetry_multiplicity
 _atom_site_fract_x
 _atom_site_fract_y
 _atom_site_fract_z
 _atom_site_occupancy
  Li  Li0  1  0.77964300  0.67029500  0.65670400  1
  Li  Li1  1  0.70977200  0.37593400  0.16773500  1
  Li  Li2  1  0.67387300  0.61436600  0.31941900  1
  Li  Li3  1  0.82778700  0.38381900  0.84469500  1
  Li  Li4  1  0.49693900  0.99673500  0.15588700  1
  Li  Li5  1  0.50306100  0.00326500  0.84411300  1
  Li  Li6  1  0.17221300  0.61618100  0.15530500  1
  Li  Li7  1  0.32612700  0.38563400  0.68058100  1
  Li  Li8  1  0.29022800  0.62406600  0.83226500  1
  Li  Li9  1  0.22035700  0.32970500  0.34329600  1
  Fe  Fe10  1  0.00000000  0.00000000  0.00000000  1
  Fe  Fe11  1  0.50000000  0.00000000  0.50000000  1
  P  P12  1  0.96543400  0.04345300  0.68639200  1
  P  P13  1  0.78338400  0.70338200  0.98467900  1
  P  P14  1  0.72929300  0.32688900  0.52353200  1
  P  P15  1  0.27070700  0.67311100  0.47646800  1
  P  P16  1  0.21661600  0.29661800  0.01532100  1
  P  P17  1  0.03456600  0.95654700  0.31360800  1
  O  O18  1  0.05502500  0.74550300  0.94011800  1
  O  O19  1  0.95005500  0.18968500  0.56474700  1
  O  O20  1  0.87567000  0.11883200  0.82037200  1
  O  O21  1  0.79651700  0.59924900  0.12748400  1
  O  O22  1  0.81973500  0.40077600  0.38235800  1
  O  O23  1  0.75881800  0.01632300  0.31363000  1
  O  O24  1  0.77326800  0.92818400  0.65570600  1
  O  O25  1  0.70617800  0.43335300  0.64376100  1
  O  O26  1  0.66298700  0.61855000  0.87058500  1
  O  O27  1  0.63964100  0.86625100  0.00666200  1
  O  O28  1  0.52068100  0.75145800  0.48189200  1
  O  O29  1  0.47931900  0.24854200  0.51810800  1
  O  O30  1  0.36035900  0.13374900  0.99333800  1
  O  O31  1  0.33701300  0.38145000  0.12941500  1
  O  O32  1  0.29382200  0.56664700  0.35623900  1
  O  O33  1  0.22673200  0.07181600  0.34429400  1
  O  O34  1  0.24118200  0.98367700  0.68637000  1
  O  O35  1  0.18026500  0.59922400  0.61764200  1
  O  O36  1  0.20348300  0.40075100  0.87251600  1
  O  O37  1  0.12433000  0.88116800  0.17962800  1
  O  O38  1  0.04994500  0.81031500  0.43525300  1
  O  O39  1  0.94497500  0.25449700  0.05988200  1
