# generated using pymatgen
data_Li4V3OF11
_symmetry_space_group_name_H-M   'P 1'
_cell_length_a   5.28245400
_cell_length_b   5.51333570
_cell_length_c   16.01823178
_cell_angle_alpha   80.94387070
_cell_angle_beta   89.68411429
_cell_angle_gamma   88.51019100
_symmetry_Int_Tables_number   1
_chemical_formula_structural   Li4V3OF11
_chemical_formula_sum   'Li8 V6 O2 F22'
_cell_volume   460.54257113
_cell_formula_units_Z   2
loop_
 _symmetry_equiv_pos_site_id
 _symmetry_equiv_pos_as_xyz
  1  'x, y, z'
loop_
 _atom_site_type_symbol
 _atom_site_label
 _atom_site_symmetry_multiplicity
 _atom_site_fract_x
 _atom_site_fract_y
 _atom_site_fract_z
 _atom_site_occupancy
  Li  Li0  1  0.18324400  0.81400000  0.84190900  1
  Li  Li1  1  0.48907500  0.73688400  0.43436100  1
  Li  Li2  1  0.98235900  0.77271600  0.56379800  1
  Li  Li3  1  0.70222200  0.35636200  0.82108600  1
  Li  Li4  1  0.81675600  0.18600000  0.15809100  1
  Li  Li5  1  0.01764100  0.22728400  0.43620200  1
  Li  Li6  1  0.51092500  0.26311600  0.56563900  1
  Li  Li7  1  0.29777800  0.64363800  0.17891400  1
  V  V8  1  0.98118300  0.84074300  0.33476800  1
  V  V9  1  0.50000000  0.00000000  0.00000000  1
  V  V10  1  0.01881700  0.15925700  0.66523200  1
  V  V11  1  0.48810400  0.69266000  0.66339300  1
  V  V12  1  0.51189600  0.30734000  0.33660700  1
  V  V13  1  0.00000000  0.50000000  0.00000000  1
  O  O14  1  0.68868700  0.00766800  0.36834100  1
  O  O15  1  0.31131300  0.99233200  0.63165900  1
  F  F16  1  0.69588500  0.68847200  0.02007600  1
  F  F17  1  0.82764600  0.84002900  0.68435700  1
  F  F18  1  0.20196200  0.80946600  0.96538200  1
  F  F19  1  0.62760600  0.67079900  0.54839200  1
  F  F20  1  0.58729900  0.06183500  0.88345300  1
  F  F21  1  0.92512800  0.86923100  0.21533700  1
  F  F22  1  0.13140300  0.81974600  0.45198900  1
  F  F23  1  0.07487200  0.13076900  0.78466300  1
  F  F24  1  0.41270100  0.93816500  0.11654700  1
  F  F25  1  0.79803800  0.19053400  0.03461800  1
  F  F26  1  0.69197200  0.35471800  0.68892700  1
  F  F27  1  0.17235400  0.15997100  0.31564300  1
  F  F28  1  0.30411500  0.31152800  0.97992400  1
  F  F29  1  0.86859700  0.18025400  0.54801100  1
  F  F30  1  0.92364600  0.54471400  0.88080600  1
  F  F31  1  0.57993300  0.37933500  0.21694100  1
  F  F32  1  0.42006700  0.62066500  0.78305900  1
  F  F33  1  0.07635400  0.45528600  0.11919400  1
  F  F34  1  0.37239400  0.32920100  0.45160800  1
  F  F35  1  0.80761900  0.50731200  0.37435500  1
  F  F36  1  0.19238100  0.49268800  0.62564500  1
  F  F37  1  0.30802800  0.64528200  0.31107300  1
