# generated using pymatgen
data_Li8TiNi7O16
_symmetry_space_group_name_H-M   'P 1'
_cell_length_a   6.47883300
_cell_length_b   6.51635240
_cell_length_c   7.70438116
_cell_angle_alpha   75.63791997
_cell_angle_beta   65.20247997
_cell_angle_gamma   72.08717489
_symmetry_Int_Tables_number   1
_chemical_formula_structural   Li8TiNi7O16
_chemical_formula_sum   'Li8 Ti1 Ni7 O16'
_cell_volume   278.28079924
_cell_formula_units_Z   1
loop_
 _symmetry_equiv_pos_site_id
 _symmetry_equiv_pos_as_xyz
  1  'x, y, z'
loop_
 _atom_site_type_symbol
 _atom_site_label
 _atom_site_symmetry_multiplicity
 _atom_site_fract_x
 _atom_site_fract_y
 _atom_site_fract_z
 _atom_site_occupancy
  Li  Li0  1  0.32321400  0.18015900  0.06871300  1
  Li  Li1  1  0.18769800  0.31199200  0.44430100  1
  Li  Li2  1  0.94286700  0.55084400  0.19006200  1
  Li  Li3  1  0.55966000  0.92951600  0.31409800  1
  Li  Li4  1  0.44258300  0.06983800  0.68409500  1
  Li  Li5  1  0.06512000  0.44749700  0.80713900  1
  Li  Li6  1  0.81095800  0.69013900  0.55746700  1
  Li  Li7  1  0.67723500  0.81353700  0.92946100  1
  Ti  Ti8  1  0.99990100  0.00391800  0.98943800  1
  Ni  Ni9  1  0.62345500  0.37376600  0.12673600  1
  Ni  Ni10  1  0.12710700  0.87203100  0.62205700  1
  Ni  Ni11  1  0.25022600  0.74808100  0.25159000  1
  Ni  Ni12  1  0.87728000  0.12461000  0.37419300  1
  Ni  Ni13  1  0.49753900  0.49902000  0.50070800  1
  Ni  Ni14  1  0.75079900  0.25148700  0.74774900  1
  Ni  Ni15  1  0.37615800  0.62467500  0.87505300  1
  O  O16  1  0.67332200  0.08136900  0.03069400  1
  O  O17  1  0.28734900  0.48897800  0.15442300  1
  O  O18  1  0.96536300  0.25946600  0.10746900  1
  O  O19  1  0.56722100  0.64575500  0.24383200  1
  O  O20  1  0.54003200  0.23757400  0.40690800  1
  O  O21  1  0.21219200  0.01244500  0.34311600  1
  O  O22  1  0.17980600  0.58765500  0.52921800  1
  O  O23  1  0.92730900  0.85129600  0.27110400  1
  O  O24  1  0.09008100  0.15146400  0.73249500  1
  O  O25  1  0.81996100  0.40435300  0.46728200  1
  O  O26  1  0.79727400  0.98275300  0.63241000  1
  O  O27  1  0.46220500  0.75645200  0.59287700  1
  O  O28  1  0.41621900  0.36600700  0.76368600  1
  O  O29  1  0.04689400  0.72234000  0.90914500  1
  O  O30  1  0.69420500  0.52992700  0.85278800  1
  O  O31  1  0.33505900  0.90186900  0.96267700  1
