# generated using pymatgen
data_Li2Ti2V5O12
_symmetry_space_group_name_H-M   'P 1'
_cell_length_a   9.12723400
_cell_length_b   5.13714600
_cell_length_c   9.92019992
_cell_angle_alpha   78.73970025
_cell_angle_beta   90.00000000
_cell_angle_gamma   90.00000000
_symmetry_Int_Tables_number   1
_chemical_formula_structural   Li2Ti2V5O12
_chemical_formula_sum   'Li4 Ti4 V10 O24'
_cell_volume   456.18386565
_cell_formula_units_Z   2
loop_
 _symmetry_equiv_pos_site_id
 _symmetry_equiv_pos_as_xyz
  1  'x, y, z'
loop_
 _atom_site_type_symbol
 _atom_site_label
 _atom_site_symmetry_multiplicity
 _atom_site_fract_x
 _atom_site_fract_y
 _atom_site_fract_z
 _atom_site_occupancy
  Li  Li0  1  0.58177200  0.75618200  0.49927400  1
  Li  Li1  1  0.59034000  0.51112100  0.26402600  1
  Li  Li2  1  0.08177200  0.24381800  0.50072600  1
  Li  Li3  1  0.09034000  0.48887900  0.73597400  1
  Ti  Ti4  1  0.75408600  0.21937000  0.51171000  1
  Ti  Ti5  1  0.75158100  0.77233000  0.99406000  1
  Ti  Ti6  1  0.25158100  0.22767000  0.00594000  1
  Ti  Ti7  1  0.25408600  0.78063000  0.48829000  1
  V  V8  1  0.92216700  0.26086200  0.00902600  1
  V  V9  1  0.92854400  0.74662700  0.48680800  1
  V  V10  1  0.74685600  0.99744700  0.25814000  1
  V  V11  1  0.73921500  0.50947400  0.74150900  1
  V  V12  1  0.57296300  0.25321200  0.00643200  1
  V  V13  1  0.42854400  0.25337300  0.51319200  1
  V  V14  1  0.42216700  0.73913800  0.99097400  1
  V  V15  1  0.24685600  0.00255300  0.74186000  1
  V  V16  1  0.23921500  0.49052600  0.25849100  1
  V  V17  1  0.07296300  0.74678800  0.99356800  1
  O  O18  1  0.89725100  0.11435800  0.38644000  1
  O  O19  1  0.89983300  0.88631200  0.11004500  1
  O  O20  1  0.76216200  0.87300000  0.61140100  1
  O  O21  1  0.89670800  0.40052200  0.61691300  1
  O  O22  1  0.89649800  0.61318600  0.88062400  1
  O  O23  1  0.75111300  0.13423700  0.89311200  1
  O  O24  1  0.60123100  0.14810700  0.38892300  1
  O  O25  1  0.74901400  0.64508800  0.37799300  1
  O  O26  1  0.74562800  0.37058100  0.11963600  1
  O  O27  1  0.59731400  0.85992800  0.11585600  1
  O  O28  1  0.59738200  0.62742100  0.88335500  1
  O  O29  1  0.60046300  0.37686400  0.61481800  1
  O  O30  1  0.39725100  0.88564200  0.61356000  1
  O  O31  1  0.39983300  0.11368800  0.88995500  1
  O  O32  1  0.26216200  0.12700000  0.38859900  1
  O  O33  1  0.39670800  0.59947800  0.38308700  1
  O  O34  1  0.25111300  0.86576300  0.10688800  1
  O  O35  1  0.39649800  0.38681400  0.11937600  1
  O  O36  1  0.24901400  0.35491200  0.62200700  1
  O  O37  1  0.09731400  0.14007200  0.88414400  1
  O  O38  1  0.10123100  0.85189300  0.61107700  1
  O  O39  1  0.24562800  0.62941900  0.88036400  1
  O  O40  1  0.10046300  0.62313600  0.38518200  1
  O  O41  1  0.09738200  0.37257900  0.11664500  1
