# generated using pymatgen
data_Li3V2(SiO5)2
_symmetry_space_group_name_H-M   'P 1'
_cell_length_a   4.55447600
_cell_length_b   8.99627800
_cell_length_c   9.28755600
_cell_angle_alpha   90.00000000
_cell_angle_beta   90.00000000
_cell_angle_gamma   90.00000000
_symmetry_Int_Tables_number   1
_chemical_formula_structural   Li3V2(SiO5)2
_chemical_formula_sum   'Li6 V4 Si4 O20'
_cell_volume   380.54211769
_cell_formula_units_Z   2
loop_
 _symmetry_equiv_pos_site_id
 _symmetry_equiv_pos_as_xyz
  1  'x, y, z'
loop_
 _atom_site_type_symbol
 _atom_site_label
 _atom_site_symmetry_multiplicity
 _atom_site_fract_x
 _atom_site_fract_y
 _atom_site_fract_z
 _atom_site_occupancy
  Li  Li0  1  0.61583800  0.00000000  0.00482400  1
  Li  Li1  1  0.38416200  0.00000000  0.50482400  1
  Li  Li2  1  0.00075600  0.25359700  0.00251500  1
  Li  Li3  1  0.99924400  0.25359700  0.50251500  1
  Li  Li4  1  0.00075600  0.74640300  0.00251500  1
  Li  Li5  1  0.99924400  0.74640300  0.50251500  1
  V  V6  1  0.95739700  0.00000000  0.29059900  1
  V  V7  1  0.04260300  0.00000000  0.79059900  1
  V  V8  1  0.57557500  0.50000000  0.49638000  1
  V  V9  1  0.42442500  0.50000000  0.99638000  1
  Si  Si10  1  0.50016200  0.25109900  0.24817200  1
  Si  Si11  1  0.49983800  0.25109900  0.74817200  1
  Si  Si12  1  0.49983800  0.74890100  0.74817200  1
  Si  Si13  1  0.50016200  0.74890100  0.24817200  1
  O  O14  1  0.80344400  0.00000000  0.45516800  1
  O  O15  1  0.19655600  0.00000000  0.95516800  1
  O  O16  1  0.74447500  0.14593700  0.16467300  1
  O  O17  1  0.25552500  0.14593700  0.66467300  1
  O  O18  1  0.25953400  0.15037500  0.33613300  1
  O  O19  1  0.74046600  0.15037500  0.83613300  1
  O  O20  1  0.31655700  0.35160600  0.13198700  1
  O  O21  1  0.68344300  0.35160600  0.63198700  1
  O  O22  1  0.68781200  0.35332900  0.36185900  1
  O  O23  1  0.31218800  0.35332900  0.86185900  1
  O  O24  1  0.21689200  0.50000000  0.49610600  1
  O  O25  1  0.78310800  0.50000000  0.99610600  1
  O  O26  1  0.68781200  0.64667100  0.36185900  1
  O  O27  1  0.31218800  0.64667100  0.86185900  1
  O  O28  1  0.31655700  0.64839400  0.13198700  1
  O  O29  1  0.68344300  0.64839400  0.63198700  1
  O  O30  1  0.25953400  0.84962500  0.33613300  1
  O  O31  1  0.74046600  0.84962500  0.83613300  1
  O  O32  1  0.25552500  0.85406300  0.66467300  1
  O  O33  1  0.74447500  0.85406300  0.16467300  1
