# generated using pymatgen
data_NaLi2FePCO7
_symmetry_space_group_name_H-M   'P 1'
_cell_length_a   6.61333997
_cell_length_b   10.21565752
_cell_length_c   9.65626983
_cell_angle_alpha   116.67042777
_cell_angle_beta   87.76731309
_cell_angle_gamma   89.22853478
_symmetry_Int_Tables_number   1
_chemical_formula_structural   NaLi2FePCO7
_chemical_formula_sum   'Na4 Li8 Fe4 P4 C4 O28'
_cell_volume   582.17077509
_cell_formula_units_Z   4
loop_
 _symmetry_equiv_pos_site_id
 _symmetry_equiv_pos_as_xyz
  1  'x, y, z'
loop_
 _atom_site_type_symbol
 _atom_site_label
 _atom_site_symmetry_multiplicity
 _atom_site_fract_x
 _atom_site_fract_y
 _atom_site_fract_z
 _atom_site_occupancy
  Na  Na0  1  0.50004500  0.26209100  0.26004900  1
  Na  Na1  1  0.49875500  0.76324900  0.26070100  1
  Na  Na2  1  0.50126200  0.73678000  0.73931100  1
  Na  Na3  1  0.49999200  0.23786000  0.73996100  1
  Li  Li4  1  0.20130600  0.43279900  0.08912300  1
  Li  Li5  1  0.20049600  0.93269500  0.08903100  1
  Li  Li6  1  0.79960800  0.56729200  0.91095400  1
  Li  Li7  1  0.79888300  0.06723700  0.91096700  1
  Li  Li8  1  0.03114500  0.27326700  0.28418700  1
  Li  Li9  1  0.02947700  0.77322000  0.28400200  1
  Li  Li10  1  0.97054500  0.72679400  0.71595100  1
  Li  Li11  1  0.96886400  0.22679900  0.71584700  1
  Fe  Fe12  1  0.76746600  0.06311000  0.33939000  1
  Fe  Fe13  1  0.23261600  0.43681300  0.66055400  1
  Fe  Fe14  1  0.76791800  0.56322100  0.33913900  1
  Fe  Fe15  1  0.23187000  0.93703100  0.66088300  1
  P  P16  1  0.24906300  0.56772300  0.41158800  1
  P  P17  1  0.24818400  0.06754500  0.41168400  1
  P  P18  1  0.75178900  0.43242900  0.58829300  1
  P  P19  1  0.75084900  0.93227600  0.58843800  1
  C  C20  1  0.77105700  0.36544900  0.04267100  1
  C  C21  1  0.77040300  0.86565700  0.04294400  1
  C  C22  1  0.22966000  0.63430100  0.95705600  1
  C  C23  1  0.22892100  0.13459100  0.95735700  1
  O  O24  1  0.23587000  0.24005000  0.09670500  1
  O  O25  1  0.23568600  0.73999400  0.09625800  1
  O  O26  1  0.76438700  0.75999500  0.90372600  1
  O  O27  1  0.76410200  0.25999900  0.90339900  1
  O  O28  1  0.76535000  0.50260300  0.07157500  1
  O  O29  1  0.76291000  0.00275400  0.07171300  1
  O  O30  1  0.23716400  0.49716600  0.92827900  1
  O  O31  1  0.23465300  0.99742300  0.92841100  1
  O  O32  1  0.78573400  0.33450600  0.15962700  1
  O  O33  1  0.78587300  0.83495900  0.16001400  1
  O  O34  1  0.21415500  0.66499100  0.83996800  1
  O  O35  1  0.21425200  0.16561100  0.84052300  1
  O  O36  1  0.08371500  0.57231400  0.30110700  1
  O  O37  1  0.08358900  0.07301500  0.30101400  1
  O  O38  1  0.91640300  0.42699400  0.69896000  1
  O  O39  1  0.91623100  0.92758700  0.69889400  1
  O  O40  1  0.45477300  0.55983300  0.32453000  1
  O  O41  1  0.45454100  0.05820800  0.32486700  1
  O  O42  1  0.54547700  0.44176400  0.67512000  1
  O  O43  1  0.54504100  0.94007800  0.67533200  1
  O  O44  1  0.22483300  0.42597400  0.43315000  1
  O  O45  1  0.22259500  0.92592900  0.43323400  1
  O  O46  1  0.77729600  0.57401800  0.56673000  1
  O  O47  1  0.77516400  0.07401300  0.56684700  1
  O  O48  1  0.77241100  0.29666500  0.42827700  1
  O  O49  1  0.77181500  0.79671900  0.42838300  1
  O  O50  1  0.22819700  0.70331300  0.57158900  1
  O  O51  1  0.22761000  0.20329900  0.57168600  1
