# generated using pymatgen
data_Li2Cr2(PO4)3
_symmetry_space_group_name_H-M   'P 1'
_cell_length_a   8.62364594
_cell_length_b   8.62364594
_cell_length_c   8.69399125
_cell_angle_alpha   59.81632948
_cell_angle_beta   59.81632948
_cell_angle_gamma   60.40596678
_symmetry_Int_Tables_number   1
_chemical_formula_structural   Li2Cr2(PO4)3
_chemical_formula_sum   'Li4 Cr4 P6 O24'
_cell_volume   457.27979102
_cell_formula_units_Z   2
loop_
 _symmetry_equiv_pos_site_id
 _symmetry_equiv_pos_as_xyz
  1  'x, y, z'
loop_
 _atom_site_type_symbol
 _atom_site_label
 _atom_site_symmetry_multiplicity
 _atom_site_fract_x
 _atom_site_fract_y
 _atom_site_fract_z
 _atom_site_occupancy
  Li  Li0  1  0.67630200  0.82499500  0.44714100  1
  Li  Li1  1  0.17500500  0.32369800  0.05285900  1
  Li  Li2  1  0.82499500  0.67630200  0.94714100  1
  Li  Li3  1  0.32369800  0.17500500  0.55285900  1
  Cr  Cr4  1  0.86104700  0.36110600  0.42122500  1
  Cr  Cr5  1  0.63889400  0.13895300  0.07877500  1
  Cr  Cr6  1  0.36110600  0.86104700  0.92122500  1
  Cr  Cr7  1  0.13895300  0.63889400  0.57877500  1
  P  P8  1  0.96581600  0.03418400  0.25000000  1
  P  P9  1  0.03418400  0.96581600  0.75000000  1
  P  P10  1  0.53850900  0.74691700  0.24797500  1
  P  P11  1  0.25308300  0.46149100  0.25202500  1
  P  P12  1  0.74691700  0.53850900  0.74797500  1
  P  P13  1  0.46149100  0.25308300  0.75202500  1
  O  O14  1  0.86575500  0.99181500  0.93022500  1
  O  O15  1  0.70006000  0.37165900  0.92222200  1
  O  O16  1  0.95136200  0.22229700  0.24742200  1
  O  O17  1  0.47246900  0.20357200  0.94357300  1
  O  O18  1  0.99181500  0.86575500  0.43022500  1
  O  O19  1  0.77770300  0.04863800  0.25257800  1
  O  O20  1  0.73021100  0.58151100  0.24359100  1
  O  O21  1  0.56202700  0.90899300  0.25851600  1
  O  O22  1  0.41849000  0.26978900  0.25640900  1
  O  O23  1  0.79642800  0.52753100  0.55642700  1
  O  O24  1  0.90899300  0.56202700  0.75851600  1
  O  O25  1  0.62834100  0.29994000  0.57777800  1
  O  O26  1  0.37165900  0.70006000  0.42222200  1
  O  O27  1  0.09100700  0.43797300  0.24148400  1
  O  O28  1  0.20357200  0.47246900  0.44357300  1
  O  O29  1  0.58151000  0.73021100  0.74359100  1
  O  O30  1  0.43797300  0.09100700  0.74148400  1
  O  O31  1  0.26978900  0.41849000  0.75640900  1
  O  O32  1  0.22229700  0.95136200  0.74742200  1
  O  O33  1  0.00818500  0.13424500  0.56977500  1
  O  O34  1  0.52753100  0.79642800  0.05642700  1
  O  O35  1  0.04863800  0.77770300  0.75257800  1
  O  O36  1  0.29994000  0.62834100  0.07777800  1
  O  O37  1  0.13424500  0.00818500  0.06977500  1
