# generated using pymatgen
data_Li3Bi2(PO4)3
_symmetry_space_group_name_H-M   'P 1'
_cell_length_a   9.23725300
_cell_length_b   9.30885000
_cell_length_c   16.03849043
_cell_angle_alpha   55.04143807
_cell_angle_beta   90.00000000
_cell_angle_gamma   90.00000000
_symmetry_Int_Tables_number   1
_chemical_formula_structural   Li3Bi2(PO4)3
_chemical_formula_sum   'Li12 Bi8 P12 O48'
_cell_volume   1130.28155961
_cell_formula_units_Z   4
loop_
 _symmetry_equiv_pos_site_id
 _symmetry_equiv_pos_as_xyz
  1  'x, y, z'
loop_
 _atom_site_type_symbol
 _atom_site_label
 _atom_site_symmetry_multiplicity
 _atom_site_fract_x
 _atom_site_fract_y
 _atom_site_fract_z
 _atom_site_occupancy
  Li  Li0  1  0.11180100  0.22483000  0.69284300  1
  Li  Li1  1  0.71440300  0.18095800  0.74364700  1
  Li  Li2  1  0.76998000  0.61131600  0.17929900  1
  Li  Li3  1  0.26998000  0.38868400  0.32070100  1
  Li  Li4  1  0.21440300  0.81904200  0.75635300  1
  Li  Li5  1  0.61180100  0.77517000  0.80715700  1
  Li  Li6  1  0.38819900  0.22483000  0.19284300  1
  Li  Li7  1  0.78559700  0.18095800  0.24364700  1
  Li  Li8  1  0.73002000  0.61131600  0.67929900  1
  Li  Li9  1  0.23002000  0.38868400  0.82070100  1
  Li  Li10  1  0.28559700  0.81904200  0.25635300  1
  Li  Li11  1  0.88819900  0.77517000  0.30715700  1
  Bi  Bi12  1  0.44666300  0.65885400  0.10145800  1
  Bi  Bi13  1  0.04041500  0.85352700  0.90002000  1
  Bi  Bi14  1  0.54041500  0.14647300  0.59998000  1
  Bi  Bi15  1  0.94666300  0.34114600  0.39854200  1
  Bi  Bi16  1  0.05333700  0.65885400  0.60145800  1
  Bi  Bi17  1  0.45958500  0.85352700  0.40002000  1
  Bi  Bi18  1  0.95958500  0.14647300  0.09998000  1
  Bi  Bi19  1  0.55333700  0.34114600  0.89854200  1
  P  P20  1  0.24163300  0.46401200  0.48938700  1
  P  P21  1  0.39019800  0.06780900  0.83478000  1
  P  P22  1  0.09222700  0.73445100  0.16802900  1
  P  P23  1  0.59222700  0.26554900  0.33197100  1
  P  P24  1  0.89019800  0.93219100  0.66522000  1
  P  P25  1  0.74163300  0.53598800  0.01061300  1
  P  P26  1  0.25836700  0.46401200  0.98938700  1
  P  P27  1  0.10980200  0.06780900  0.33478000  1
  P  P28  1  0.40777300  0.73445100  0.66802900  1
  P  P29  1  0.90777300  0.26554900  0.83197100  1
  P  P30  1  0.60980200  0.93219100  0.16522000  1
  P  P31  1  0.75836700  0.53598800  0.51061300  1
  O  O32  1  0.87110100  0.54630300  0.43515100  1
  O  O33  1  0.71009000  0.34400400  0.59177500  1
  O  O34  1  0.89922400  0.11517900  0.81515900  1
  O  O35  1  0.61029400  0.75649500  0.17379400  1
  O  O36  1  0.36963100  0.34677200  0.55484200  1
  O  O37  1  0.24538800  0.05401400  0.78963700  1
  O  O38  1  0.17547900  0.39101000  0.43117200  1
  O  O39  1  0.40140800  0.91174900  0.94740500  1
  O  O40  1  0.07192900  0.80816000  0.05539800  1
  O  O41  1  0.23883100  0.63541000  0.20900500  1
  O  O42  1  0.96034400  0.61819700  0.23186300  1
  O  O43  1  0.52313300  0.06537000  0.77466900  1
  O  O44  1  0.02313300  0.93463000  0.72533100  1
  O  O45  1  0.46034400  0.38180300  0.26813700  1
  O  O46  1  0.73883100  0.36459000  0.29099500  1
  O  O47  1  0.57192900  0.19184000  0.44460200  1
  O  O48  1  0.90140800  0.08825100  0.55259500  1
  O  O49  1  0.67547900  0.60899000  0.06882800  1
  O  O50  1  0.74538800  0.94598600  0.71036300  1
  O  O51  1  0.86963100  0.65322800  0.94515800  1
  O  O52  1  0.11029400  0.24350500  0.32620600  1
  O  O53  1  0.39922400  0.88482100  0.68484100  1
  O  O54  1  0.21009000  0.65599600  0.90822500  1
  O  O55  1  0.37110100  0.45369700  0.06484900  1
  O  O56  1  0.62889900  0.54630300  0.93515100  1
  O  O57  1  0.78991000  0.34400400  0.09177500  1
  O  O58  1  0.60077600  0.11517900  0.31515900  1
  O  O59  1  0.88970600  0.75649500  0.67379400  1
  O  O60  1  0.13036900  0.34677200  0.05484200  1
  O  O61  1  0.25461200  0.05401400  0.28963700  1
  O  O62  1  0.32452100  0.39101000  0.93117200  1
  O  O63  1  0.09859200  0.91174900  0.44740500  1
  O  O64  1  0.42807100  0.80816000  0.55539800  1
  O  O65  1  0.26116900  0.63541000  0.70900500  1
  O  O66  1  0.53965600  0.61819700  0.73186300  1
  O  O67  1  0.97686700  0.06537000  0.27466900  1
  O  O68  1  0.47686700  0.93463000  0.22533100  1
  O  O69  1  0.03965600  0.38180300  0.76813700  1
  O  O70  1  0.76116900  0.36459000  0.79099500  1
  O  O71  1  0.92807100  0.19184000  0.94460200  1
  O  O72  1  0.59859200  0.08825100  0.05259500  1
  O  O73  1  0.82452100  0.60899000  0.56882800  1
  O  O74  1  0.75461200  0.94598600  0.21036300  1
  O  O75  1  0.63036900  0.65322800  0.44515800  1
  O  O76  1  0.38970600  0.24350500  0.82620600  1
  O  O77  1  0.10077600  0.88482100  0.18484100  1
  O  O78  1  0.28991000  0.65599600  0.40822500  1
  O  O79  1  0.12889900  0.45369700  0.56484900  1
