# generated using pymatgen
data_Li2FeBO4
_symmetry_space_group_name_H-M   'P 1'
_cell_length_a   4.88883800
_cell_length_b   6.19376000
_cell_length_c   10.21600200
_cell_angle_alpha   90.00000000
_cell_angle_beta   90.00000000
_cell_angle_gamma   90.00000000
_symmetry_Int_Tables_number   1
_chemical_formula_structural   Li2FeBO4
_chemical_formula_sum   'Li8 Fe4 B4 O16'
_cell_volume   309.34349555
_cell_formula_units_Z   4
loop_
 _symmetry_equiv_pos_site_id
 _symmetry_equiv_pos_as_xyz
  1  'x, y, z'
loop_
 _atom_site_type_symbol
 _atom_site_label
 _atom_site_symmetry_multiplicity
 _atom_site_fract_x
 _atom_site_fract_y
 _atom_site_fract_z
 _atom_site_occupancy
  Li  Li0  1  0.71157600  0.86856700  0.07940100  1
  Li  Li1  1  0.18927400  0.11642000  0.15815300  1
  Li  Li2  1  0.68927400  0.61642000  0.34184700  1
  Li  Li3  1  0.21157600  0.36856700  0.42059900  1
  Li  Li4  1  0.78842400  0.86856700  0.57940100  1
  Li  Li5  1  0.31072600  0.11642000  0.65815300  1
  Li  Li6  1  0.81072600  0.61642000  0.84184700  1
  Li  Li7  1  0.28842400  0.36856700  0.92059900  1
  Fe  Fe8  1  0.18638100  0.62015000  0.16222900  1
  Fe  Fe9  1  0.68638100  0.12015000  0.33777100  1
  Fe  Fe10  1  0.31361900  0.62015000  0.66222900  1
  Fe  Fe11  1  0.81361900  0.12015000  0.83777100  1
  B  B12  1  0.68339500  0.36686600  0.09097100  1
  B  B13  1  0.18339500  0.86686600  0.40902900  1
  B  B14  1  0.81660500  0.36686600  0.59097100  1
  B  B15  1  0.31660500  0.86686600  0.90902900  1
  O  O16  1  0.25205000  0.86106800  0.05231600  1
  O  O17  1  0.37730700  0.37434900  0.10496800  1
  O  O18  1  0.79944700  0.56740400  0.15261400  1
  O  O19  1  0.78655200  0.16727600  0.15803100  1
  O  O20  1  0.28655200  0.66727600  0.34196900  1
  O  O21  1  0.29944700  0.06740400  0.34738600  1
  O  O22  1  0.87730700  0.87434900  0.39503200  1
  O  O23  1  0.75205000  0.36106800  0.44768400  1
  O  O24  1  0.24795000  0.86106800  0.55231600  1
  O  O25  1  0.12269300  0.37434900  0.60496800  1
  O  O26  1  0.70055300  0.56740400  0.65261400  1
  O  O27  1  0.71344800  0.16727600  0.65803100  1
  O  O28  1  0.21344800  0.66727600  0.84196900  1
  O  O29  1  0.20055300  0.06740400  0.84738600  1
  O  O30  1  0.62269300  0.87434900  0.89503200  1
  O  O31  1  0.74795000  0.36106800  0.94768400  1
