# generated using pymatgen
data_Li3Mn2(PO4)3
_symmetry_space_group_name_H-M   'P 1'
_cell_length_a   8.71126500
_cell_length_b   8.67501100
_cell_length_c   12.22092164
_cell_angle_alpha   85.96472924
_cell_angle_beta   90.00000000
_cell_angle_gamma   90.00000000
_symmetry_Int_Tables_number   1
_chemical_formula_structural   Li3Mn2(PO4)3
_chemical_formula_sum   'Li12 Mn8 P12 O48'
_cell_volume   921.24942858
_cell_formula_units_Z   4
loop_
 _symmetry_equiv_pos_site_id
 _symmetry_equiv_pos_as_xyz
  1  'x, y, z'
loop_
 _atom_site_type_symbol
 _atom_site_label
 _atom_site_symmetry_multiplicity
 _atom_site_fract_x
 _atom_site_fract_y
 _atom_site_fract_z
 _atom_site_occupancy
  Li  Li0  1  0.19699200  0.69320900  0.94935700  1
  Li  Li1  1  0.58357000  0.50000000  0.75000000  1
  Li  Li2  1  0.19699200  0.30679100  0.55064300  1
  Li  Li3  1  0.50000000  0.50000000  0.50000000  1
  Li  Li4  1  0.00000000  0.00000000  0.50000000  1
  Li  Li5  1  0.80300800  0.69320900  0.44935700  1
  Li  Li6  1  0.91156100  0.00000000  0.75000000  1
  Li  Li7  1  0.41643000  0.50000000  0.25000000  1
  Li  Li8  1  0.08843900  0.00000000  0.25000000  1
  Li  Li9  1  0.00000000  0.00000000  0.00000000  1
  Li  Li10  1  0.50000000  0.50000000  0.00000000  1
  Li  Li11  1  0.80300800  0.30679100  0.05064300  1
  Mn  Mn12  1  0.99681000  0.71596200  0.64308900  1
  Mn  Mn13  1  0.50385800  0.79063200  0.85429600  1
  Mn  Mn14  1  0.99681000  0.28403800  0.85691100  1
  Mn  Mn15  1  0.00319000  0.71596200  0.14308900  1
  Mn  Mn16  1  0.00319000  0.28403800  0.35691100  1
  Mn  Mn17  1  0.49614200  0.79063200  0.35429600  1
  Mn  Mn18  1  0.50385800  0.20936800  0.64570400  1
  Mn  Mn19  1  0.49614200  0.20936800  0.14570400  1
  P  P20  1  0.28287100  0.50000000  0.75000000  1
  P  P21  1  0.84906900  0.65083900  0.90105800  1
  P  P22  1  0.64467100  0.83973700  0.60478100  1
  P  P23  1  0.64467100  0.16026300  0.89521900  1
  P  P24  1  0.15093100  0.65083900  0.40105800  1
  P  P25  1  0.20849200  0.00000000  0.75000000  1
  P  P26  1  0.84906900  0.34916100  0.59894200  1
  P  P27  1  0.35532900  0.83973700  0.10478100  1
  P  P28  1  0.35532900  0.16026300  0.39521900  1
  P  P29  1  0.15093100  0.34916100  0.09894200  1
  P  P30  1  0.71712900  0.50000000  0.25000000  1
  P  P31  1  0.79150800  0.00000000  0.25000000  1
  O  O32  1  0.30647100  0.86743600  0.80422700  1
  O  O33  1  0.59110400  0.99558700  0.89377700  1
  O  O34  1  0.09977000  0.94489700  0.65954400  1
  O  O35  1  0.38753500  0.56372100  0.83948200  1
  O  O36  1  0.18265600  0.37764000  0.81215600  1
  O  O37  1  0.67097300  0.66273700  0.91557100  1
  O  O38  1  0.93924100  0.74639000  0.98338900  1
  O  O39  1  0.18265600  0.62236000  0.68784400  1
  O  O40  1  0.59281900  0.25375800  0.99288100  1
  O  O41  1  0.06075900  0.74639000  0.48338900  1
  O  O42  1  0.09977000  0.05510300  0.84045600  1
  O  O43  1  0.59661900  0.73990700  0.70909100  1
  O  O44  1  0.87804400  0.47637300  0.91603400  1
  O  O45  1  0.40889600  0.99558700  0.39377700  1
  O  O46  1  0.90290200  0.72676600  0.78932400  1
  O  O47  1  0.38753500  0.43627900  0.66051800  1
  O  O48  1  0.59661900  0.26009300  0.79090900  1
  O  O49  1  0.09709800  0.72676600  0.28932400  1
  O  O50  1  0.82604200  0.85112500  0.59154700  1
  O  O51  1  0.59281900  0.74624200  0.50711900  1
  O  O52  1  0.12195600  0.47637300  0.41603400  1
  O  O53  1  0.30647100  0.13256400  0.69577300  1
  O  O54  1  0.82604200  0.14887500  0.90845300  1
  O  O55  1  0.32902700  0.66273700  0.41557100  1
  O  O56  1  0.67097300  0.33726300  0.58442900  1
  O  O57  1  0.17395800  0.85112500  0.09154700  1
  O  O58  1  0.69352900  0.86743600  0.30422700  1
  O  O59  1  0.87804400  0.52362700  0.58396600  1
  O  O60  1  0.17395800  0.14887500  0.40845300  1
  O  O61  1  0.40718100  0.25375800  0.49288100  1
  O  O62  1  0.40338100  0.73990700  0.20909100  1
  O  O63  1  0.90290200  0.27323400  0.71067600  1
  O  O64  1  0.61246500  0.56372100  0.33948200  1
  O  O65  1  0.09709800  0.27323400  0.21067600  1
  O  O66  1  0.59110400  0.00441300  0.60622300  1
  O  O67  1  0.12195600  0.52362700  0.08396600  1
  O  O68  1  0.40338100  0.26009300  0.29090900  1
  O  O69  1  0.90023000  0.94489700  0.15954400  1
  O  O70  1  0.93924100  0.25361000  0.51661100  1
  O  O71  1  0.40718100  0.74624200  0.00711900  1
  O  O72  1  0.81734400  0.37764000  0.31215600  1
  O  O73  1  0.32902700  0.33726300  0.08442900  1
  O  O74  1  0.06075900  0.25361000  0.01661100  1
  O  O75  1  0.81734400  0.62236000  0.18784400  1
  O  O76  1  0.61246500  0.43627900  0.16051800  1
  O  O77  1  0.90023000  0.05510300  0.34045600  1
  O  O78  1  0.40889600  0.00441300  0.10622300  1
  O  O79  1  0.69352900  0.13256400  0.19577300  1
