# generated using pymatgen
data_Li24Mn7Cr5O36
_symmetry_space_group_name_H-M   'P 1'
_cell_length_a   5.00582000
_cell_length_b   9.74171228
_cell_length_c   13.27877836
_cell_angle_alpha   97.20807974
_cell_angle_beta   100.67776895
_cell_angle_gamma   94.71588435
_symmetry_Int_Tables_number   1
_chemical_formula_structural   Li24Mn7Cr5O36
_chemical_formula_sum   'Li24 Mn7 Cr5 O36'
_cell_volume   627.59712664
_cell_formula_units_Z   1
loop_
 _symmetry_equiv_pos_site_id
 _symmetry_equiv_pos_as_xyz
  1  'x, y, z'
loop_
 _atom_site_type_symbol
 _atom_site_label
 _atom_site_symmetry_multiplicity
 _atom_site_fract_x
 _atom_site_fract_y
 _atom_site_fract_z
 _atom_site_occupancy
  Li  Li0  1  0.16476500  0.00032600  0.83364100  1
  Li  Li1  1  0.05138100  0.00044800  0.61418100  1
  Li  Li2  1  0.99981300  0.74961400  0.25054300  1
  Li  Li3  1  0.33181000  0.75024900  0.91753300  1
  Li  Li4  1  0.04832700  0.50044400  0.11178400  1
  Li  Li5  1  0.38023600  0.49979000  0.77673900  1
  Li  Li6  1  0.16680100  0.50022800  0.33357700  1
  Li  Li7  1  0.50059800  0.50052500  0.00063800  1
  Li  Li8  1  0.28601800  0.50046400  0.55558100  1
  Li  Li9  1  0.33296600  0.25022700  0.41530700  1
  Li  Li10  1  0.50094500  0.99969000  0.49977100  1
  Li  Li11  1  0.28003200  0.99837300  0.05210300  1
  Li  Li12  1  0.61815500  0.99869100  0.71875200  1
  Li  Li13  1  0.38211600  0.99931000  0.28067800  1
  Li  Li14  1  0.72029300  0.00183100  0.94746500  1
  Li  Li15  1  0.66401800  0.74994300  0.58434800  1
  Li  Li16  1  0.71262400  0.49848600  0.44314800  1
  Li  Li17  1  0.83369000  0.49919100  0.66710800  1
  Li  Li18  1  0.62060600  0.50155500  0.22356900  1
  Li  Li19  1  0.95136400  0.49920200  0.88763200  1
  Li  Li20  1  0.66688100  0.24949500  0.08288100  1
  Li  Li21  1  0.83361500  0.99981100  0.16755600  1
  Li  Li22  1  0.99721900  0.25030100  0.74901000  1
  Li  Li23  1  0.95095600  0.00086300  0.38597200  1
  Mn  Mn24  1  0.10829700  0.24805300  0.97214900  1
  Mn  Mn25  1  0.22361700  0.75045700  0.69422100  1
  Mn  Mn26  1  0.44448700  0.74990200  0.13909000  1
  Mn  Mn27  1  0.55394000  0.74871900  0.35976700  1
  Mn  Mn28  1  0.77828500  0.25068400  0.30664400  1
  Mn  Mn29  1  0.89084300  0.25025000  0.52736800  1
  Mn  Mn30  1  0.89162800  0.75107900  0.02891700  1
  Cr  Cr31  1  0.10492000  0.75033600  0.47347500  1
  Cr  Cr32  1  0.22653400  0.25004000  0.19301200  1
  Cr  Cr33  1  0.44606700  0.25151500  0.63649200  1
  Cr  Cr34  1  0.55035900  0.24930500  0.86039200  1
  Cr  Cr35  1  0.77353700  0.74968200  0.80763200  1
  O  O36  1  0.00305100  0.86278900  0.93150700  1
  O  O37  1  0.06879600  0.63644700  0.78435700  1
  O  O38  1  0.00282200  0.36157600  0.42902400  1
  O  O39  1  0.13699400  0.36263100  0.64224900  1
  O  O40  1  0.26481800  0.36377400  0.88257000  1
  O  O41  1  0.33699900  0.86362100  0.59802700  1
  O  O42  1  0.06787400  0.13537300  0.28524200  1
  O  O43  1  0.19070900  0.13810800  0.52530000  1
  O  O44  1  0.40058400  0.13507600  0.95282000  1
  O  O45  1  0.14372100  0.86176700  0.14356000  1
  O  O46  1  0.26545100  0.86415200  0.38235100  1
  O  O47  1  0.48047200  0.86163200  0.80890300  1
  O  O48  1  0.34124300  0.13860000  0.73911200  1
  O  O49  1  0.19099300  0.63826500  0.02370300  1
  O  O50  1  0.40233000  0.63669300  0.45056800  1
  O  O51  1  0.51808400  0.63660900  0.68843300  1
  O  O52  1  0.33131800  0.63818600  0.23707900  1
  O  O53  1  0.67021000  0.63843900  0.90480400  1
  O  O54  1  0.33095700  0.36141100  0.09535800  1
  O  O55  1  0.66164500  0.36308800  0.75996400  1
  O  O56  1  0.48172300  0.36305000  0.31131000  1
  O  O57  1  0.59778100  0.36385400  0.54838700  1
  O  O58  1  0.81085000  0.36209300  0.97569200  1
  O  O59  1  0.66638300  0.86145000  0.26159500  1
  O  O60  1  0.52036000  0.13831300  0.19234800  1
  O  O61  1  0.74151300  0.13523900  0.61710500  1
  O  O62  1  0.85915400  0.13805000  0.85707500  1
  O  O63  1  0.59682500  0.86354000  0.04851300  1
  O  O64  1  0.81234600  0.86169000  0.47429900  1
  O  O65  1  0.93171300  0.86425200  0.71526100  1
  O  O66  1  0.66560300  0.13839300  0.40471100  1
  O  O67  1  0.73670800  0.63612600  0.11838700  1
  O  O68  1  0.85087500  0.63679200  0.35523000  1
  O  O69  1  0.00282900  0.63904700  0.57056000  1
  O  O70  1  0.93224000  0.36336700  0.21630700  1
  O  O71  1  0.99628200  0.13742400  0.06961400  1
