# generated using pymatgen
data_Li6Nb3P8O29
_symmetry_space_group_name_H-M   'P 1'
_cell_length_a   10.02260900
_cell_length_b   10.02568704
_cell_length_c   13.97031299
_cell_angle_alpha   90.41587128
_cell_angle_beta   89.90214817
_cell_angle_gamma   119.91516972
_symmetry_Int_Tables_number   1
_chemical_formula_structural   Li6Nb3P8O29
_chemical_formula_sum   'Li12 Nb6 P16 O58'
_cell_volume   1216.71764387
_cell_formula_units_Z   2
loop_
 _symmetry_equiv_pos_site_id
 _symmetry_equiv_pos_as_xyz
  1  'x, y, z'
loop_
 _atom_site_type_symbol
 _atom_site_label
 _atom_site_symmetry_multiplicity
 _atom_site_fract_x
 _atom_site_fract_y
 _atom_site_fract_z
 _atom_site_occupancy
  Li  Li0  1  0.99118900  0.01847400  0.49706700  1
  Li  Li1  1  0.99931700  0.00092300  0.99863000  1
  Li  Li2  1  0.90668000  0.67501000  0.94028900  1
  Li  Li3  1  0.66819500  0.32859700  0.11567900  1
  Li  Li4  1  0.76836700  0.67201000  0.43922000  1
  Li  Li5  1  0.33060500  0.09813100  0.43940300  1
  Li  Li6  1  0.67001400  0.77024000  0.05752000  1
  Li  Li7  1  0.32626300  0.22812300  0.93868100  1
  Li  Li8  1  0.67090500  0.90656800  0.55958200  1
  Li  Li9  1  0.23041700  0.33407600  0.55934200  1
  Li  Li10  1  0.09466700  0.32704600  0.05876700  1
  Li  Li11  1  0.10062800  0.76893700  0.55992200  1
  Nb  Nb12  1  0.99826800  0.43200200  0.25452600  1
  Nb  Nb13  1  0.00084600  0.56613800  0.74850500  1
  Nb  Nb14  1  0.56920100  0.00367100  0.75532400  1
  Nb  Nb15  1  0.43209600  0.99396800  0.24623300  1
  Nb  Nb16  1  0.56260000  0.56618900  0.25067100  1
  Nb  Nb17  1  0.43182900  0.43200000  0.74978000  1
  P  P18  1  0.91963900  0.22300400  0.65696400  1
  P  P19  1  0.77856100  0.08325100  0.15670100  1
  P  P20  1  0.91214100  0.68862500  0.15322200  1
  P  P21  1  0.66685700  0.33599300  0.87942000  1
  P  P22  1  0.66344400  0.33262800  0.37862300  1
  P  P23  1  0.77299600  0.68790800  0.65503400  1
  P  P24  1  0.69020200  0.77416100  0.84427800  1
  P  P25  1  0.31001400  0.08150400  0.65423400  1
  P  P26  1  0.69196700  0.91846800  0.34843700  1
  P  P27  1  0.31188200  0.22293700  0.15539700  1
  P  P28  1  0.22565100  0.30917300  0.34532300  1
  P  P29  1  0.33006300  0.66227400  0.12029300  1
  P  P30  1  0.33545400  0.66982600  0.62093700  1
  P  P31  1  0.08452200  0.31063600  0.84775100  1
  P  P32  1  0.22349300  0.91752000  0.84373400  1
  P  P33  1  0.08406800  0.77558600  0.34362600  1
  O  O34  1  0.99603100  0.20655600  0.75531200  1
  O  O35  1  0.00744000  0.22506600  0.93766200  1
  O  O36  1  0.92341100  0.24435600  0.15447000  1
  O  O37  1  0.79252700  0.00717100  0.25540400  1
  O  O38  1  0.77901800  0.99763100  0.43835800  1
  O  O39  1  0.75671900  0.08251100  0.65573300  1
  O  O40  1  0.91305400  0.37416800  0.66860400  1
  O  O41  1  0.80665600  0.33338600  0.32975500  1
  O  O42  1  0.89199700  0.52536000  0.16517700  1
  O  O43  1  0.99242100  0.77202100  0.43130300  1
  O  O44  1  0.99832000  0.78770400  0.24847300  1
  O  O45  1  0.91913800  0.67244400  0.65251200  1
  O  O46  1  0.67399900  0.19553000  0.83385700  1
  O  O47  1  0.63651700  0.10767300  0.16616300  1
  O  O48  1  0.80713000  0.48675900  0.84106600  1
  O  O49  1  0.66440200  0.33478300  0.98683200  1
  O  O50  1  0.66418000  0.33698700  0.48449600  1
  O  O51  1  0.66884800  0.48223300  0.33585400  1
  O  O52  1  0.46576400  0.09040400  0.66573200  1
  O  O53  1  0.51616700  0.18804600  0.33535500  1
  O  O54  1  0.74958800  0.67201400  0.15562600  1
  O  O55  1  0.79226200  0.78873600  0.75001300  1
  O  O56  1  0.77842600  0.77132700  0.93190500  1
  O  O57  1  0.77032400  0.77629700  0.56775500  1
  O  O58  1  0.62767200  0.53137300  0.66701200  1
  O  O59  1  0.51292700  0.32178500  0.84068200  1
  O  O60  1  0.67475900  0.75599000  0.34298800  1
  O  O61  1  0.47606300  0.36621200  0.16615500  1
  O  O62  1  0.32886700  0.08046600  0.15533000  1
  O  O63  1  0.77467800  0.98390700  0.07488400  1
  O  O64  1  0.21668900  0.01082600  0.92604700  1
  O  O65  1  0.20525200  0.99550500  0.74575100  1
  O  O66  1  0.67045200  0.91477800  0.84355100  1
  O  O67  1  0.53418600  0.62511900  0.83220600  1
  O  O68  1  0.33002000  0.24585700  0.65443800  1
  O  O69  1  0.48050600  0.66874500  0.16327000  1
  O  O70  1  0.37540100  0.46523200  0.33695000  1
  O  O71  1  0.22728600  0.21948900  0.43217400  1
  O  O72  1  0.22638800  0.23191700  0.06838300  1
  O  O73  1  0.21332400  0.21149600  0.24943400  1
  O  O74  1  0.24934600  0.33001400  0.84267700  1
  O  O75  1  0.48501100  0.81280200  0.66512700  1
  O  O76  1  0.53532000  0.90960100  0.33608300  1
  O  O77  1  0.32280400  0.51756400  0.66241600  1
  O  O78  1  0.33208700  0.65833100  0.01457200  1
  O  O79  1  0.33745900  0.67030200  0.51405700  1
  O  O80  1  0.18607100  0.51597000  0.16462200  1
  O  O81  1  0.36835900  0.90363000  0.83329100  1
  O  O82  1  0.32969000  0.80546300  0.16755200  1
  O  O83  1  0.08497200  0.32872600  0.34370500  1
  O  O84  1  0.01507300  0.22099400  0.57448400  1
  O  O85  1  0.09535000  0.46664100  0.83353100  1
  O  O86  1  0.19252200  0.68043400  0.66088600  1
  O  O87  1  0.09949800  0.63121300  0.33371400  1
  O  O88  1  0.24332100  0.92211400  0.34431800  1
  O  O89  1  0.22153700  0.99525800  0.56504200  1
  O  O90  1  0.07949900  0.75260000  0.84169400  1
  O  O91  1  0.99565800  0.77268600  0.06471200  1
