# generated using pymatgen
data_Li2TiSn3(PO4)6
_symmetry_space_group_name_H-M   'P 1'
_cell_length_a   8.86718566
_cell_length_b   8.86718566
_cell_length_c   8.86718510
_cell_angle_alpha   58.91085907
_cell_angle_beta   58.91085907
_cell_angle_gamma   58.91085502
_symmetry_Int_Tables_number   1
_chemical_formula_structural   Li2TiSn3(PO4)6
_chemical_formula_sum   'Li2 Ti1 Sn3 P6 O24'
_cell_volume   480.74060467
_cell_formula_units_Z   1
loop_
 _symmetry_equiv_pos_site_id
 _symmetry_equiv_pos_as_xyz
  1  'x, y, z'
loop_
 _atom_site_type_symbol
 _atom_site_label
 _atom_site_symmetry_multiplicity
 _atom_site_fract_x
 _atom_site_fract_y
 _atom_site_fract_z
 _atom_site_occupancy
  Li  Li0  1  0.00317300  0.00317300  0.00317300  1
  Li  Li1  1  0.49973700  0.49973700  0.49973700  1
  Ti  Ti2  1  0.14448200  0.14448200  0.14448200  1
  Sn  Sn3  1  0.85486300  0.85486300  0.85486300  1
  Sn  Sn4  1  0.64348300  0.64348300  0.64348300  1
  Sn  Sn5  1  0.35478500  0.35478500  0.35478500  1
  P  P6  1  0.54095200  0.95688900  0.24941300  1
  P  P7  1  0.24941300  0.54095200  0.95688900  1
  P  P8  1  0.95688900  0.24941300  0.54095200  1
  P  P9  1  0.04538400  0.75211900  0.45283000  1
  P  P10  1  0.75211900  0.45283000  0.04538400  1
  P  P11  1  0.45283000  0.04538400  0.75211900  1
  O  O12  1  0.47915300  0.88026300  0.71485900  1
  O  O13  1  0.88026300  0.71485900  0.47915300  1
  O  O14  1  0.72905600  0.93529500  0.08471500  1
  O  O15  1  0.71485900  0.47915300  0.88026300  1
  O  O16  1  0.55021600  0.77039000  0.41845600  1
  O  O17  1  0.37560100  0.00479100  0.19827500  1
  O  O18  1  0.08471500  0.72905600  0.93529500  1
  O  O19  1  0.41845600  0.55021600  0.77039000  1
  O  O20  1  0.77039000  0.41845600  0.55021600  1
  O  O21  1  0.01557900  0.78743800  0.61972000  1
  O  O22  1  0.06950100  0.92171400  0.26917800  1
  O  O23  1  0.78743800  0.61972000  0.01557900  1
  O  O24  1  0.19827500  0.37560100  0.00479100  1
  O  O25  1  0.93529500  0.08471500  0.72905600  1
  O  O26  1  0.00479100  0.19827500  0.37560100  1
  O  O27  1  0.23261400  0.58592300  0.43185100  1
  O  O28  1  0.58592300  0.43185100  0.23261400  1
  O  O29  1  0.92171400  0.26917800  0.06950100  1
  O  O30  1  0.61972000  0.01557900  0.78743800  1
  O  O31  1  0.43185100  0.23261400  0.58592300  1
  O  O32  1  0.29662200  0.51710100  0.11358200  1
  O  O33  1  0.26917800  0.06950100  0.92171400  1
  O  O34  1  0.11358200  0.29662200  0.51710100  1
  O  O35  1  0.51710100  0.11358200  0.29662200  1
