# generated using pymatgen
data_Li6MnNi7O16
_symmetry_space_group_name_H-M   'P 1'
_cell_length_a   6.44983400
_cell_length_b   7.63188686
_cell_length_c   12.60467934
_cell_angle_alpha   93.72236044
_cell_angle_beta   99.61439978
_cell_angle_gamma   114.15996198
_symmetry_Int_Tables_number   1
_chemical_formula_structural   Li6MnNi7O16
_chemical_formula_sum   'Li12 Mn2 Ni14 O32'
_cell_volume   551.99834920
_cell_formula_units_Z   2
loop_
 _symmetry_equiv_pos_site_id
 _symmetry_equiv_pos_as_xyz
  1  'x, y, z'
loop_
 _atom_site_type_symbol
 _atom_site_label
 _atom_site_symmetry_multiplicity
 _atom_site_fract_x
 _atom_site_fract_y
 _atom_site_fract_z
 _atom_site_occupancy
  Li  Li0  1  0.72171000  0.80689100  0.77647500  1
  Li  Li1  1  0.22499200  0.80600600  0.28240800  1
  Li  Li2  1  0.03698700  0.68244600  0.47061900  1
  Li  Li3  1  0.34923900  0.55594000  0.15067500  1
  Li  Li4  1  0.96301300  0.31755400  0.52938100  1
  Li  Li5  1  0.65076100  0.44406000  0.84932500  1
  Li  Li6  1  0.77500800  0.19399400  0.71759200  1
  Li  Li7  1  0.27829000  0.19310900  0.22352500  1
  Li  Li8  1  0.09467800  0.07129600  0.40620100  1
  Li  Li9  1  0.90532200  0.92870400  0.59379900  1
  Li  Li10  1  0.58726100  0.05917700  0.90867600  1
  Li  Li11  1  0.41273900  0.94082300  0.09132400  1
  Mn  Mn12  1  0.75139500  0.49699000  0.25294700  1
  Mn  Mn13  1  0.24860500  0.50301000  0.74705300  1
  Ni  Ni14  1  0.12456400  0.75113800  0.87524400  1
  Ni  Ni15  1  0.93636400  0.62226400  0.06259400  1
  Ni  Ni16  1  0.61820500  0.74684200  0.37159900  1
  Ni  Ni17  1  0.43911500  0.62263200  0.56262800  1
  Ni  Ni18  1  0.06363600  0.37773600  0.93740600  1
  Ni  Ni19  1  0.87543600  0.24886200  0.12475600  1
  Ni  Ni20  1  0.56088500  0.37736800  0.43737200  1
  Ni  Ni21  1  0.18818600  0.13156000  0.81241500  1
  Ni  Ni22  1  0.38179500  0.25315800  0.62840100  1
  Ni  Ni23  1  0.00000000  0.00000000  0.00000000  1
  Ni  Ni24  1  0.81181400  0.86844000  0.18758500  1
  Ni  Ni25  1  0.69627900  0.12528100  0.31532600  1
  Ni  Ni26  1  0.50000000  0.00000000  0.50000000  1
  Ni  Ni27  1  0.30372100  0.87471900  0.68467400  1
  O  O28  1  0.86512100  0.72848000  0.93613900  1
  O  O29  1  0.89711500  0.75658400  0.32650100  1
  O  O30  1  0.38652500  0.77788100  0.81322300  1
  O  O31  1  0.19810500  0.63163000  0.01465100  1
  O  O32  1  0.35914300  0.74786600  0.42416500  1
  O  O33  1  0.98249200  0.47963400  0.81246600  1
  O  O34  1  0.01750800  0.52036600  0.18753400  1
  O  O35  1  0.16678400  0.58882600  0.61362900  1
  O  O36  1  0.80189500  0.36837000  0.98534900  1
  O  O37  1  0.83321600  0.41117400  0.38637100  1
  O  O38  1  0.68025000  0.60449000  0.12201100  1
  O  O39  1  0.69676700  0.64835800  0.49958000  1
  O  O40  1  0.31975000  0.39551000  0.87798900  1
  O  O41  1  0.47294200  0.46673400  0.28809600  1
  O  O42  1  0.52705800  0.53326600  0.71190400  1
  O  O43  1  0.13487900  0.27152000  0.06386100  1
  O  O44  1  0.30323300  0.35164200  0.50042000  1
  O  O45  1  0.91524100  0.11918800  0.86211300  1
  O  O46  1  0.95823200  0.12409400  0.25936500  1
  O  O47  1  0.10288500  0.24341600  0.67349900  1
  O  O48  1  0.73464900  0.99290000  0.05076700  1
  O  O49  1  0.78534300  0.03913400  0.44442500  1
  O  O50  1  0.61347500  0.22211900  0.18677700  1
  O  O51  1  0.64085700  0.25213400  0.57583500  1
  O  O52  1  0.26535100  0.00710000  0.94923300  1
  O  O53  1  0.42016000  0.11458900  0.36601100  1
  O  O54  1  0.46213700  0.16101500  0.76061300  1
  O  O55  1  0.08475900  0.88081200  0.13788700  1
  O  O56  1  0.21465700  0.96086600  0.55557500  1
  O  O57  1  0.04176800  0.87590600  0.74063500  1
  O  O58  1  0.53786300  0.83898500  0.23938700  1
  O  O59  1  0.57984000  0.88541100  0.63398900  1
