# generated using pymatgen
data_Li5V3P8O29
_symmetry_space_group_name_H-M   'P 1'
_cell_length_a   9.76911200
_cell_length_b   9.78189936
_cell_length_c   14.00008006
_cell_angle_alpha   90.23886496
_cell_angle_beta   89.91047173
_cell_angle_gamma   119.77894744
_symmetry_Int_Tables_number   1
_chemical_formula_structural   Li5V3P8O29
_chemical_formula_sum   'Li10 V6 P16 O58'
_cell_volume   1161.17762106
_cell_formula_units_Z   2
loop_
 _symmetry_equiv_pos_site_id
 _symmetry_equiv_pos_as_xyz
  1  'x, y, z'
loop_
 _atom_site_type_symbol
 _atom_site_label
 _atom_site_symmetry_multiplicity
 _atom_site_fract_x
 _atom_site_fract_y
 _atom_site_fract_z
 _atom_site_occupancy
  Li  Li0  1  0.91341700  0.22664300  0.93967900  1
  Li  Li1  1  0.76374500  0.09258900  0.44194700  1
  Li  Li2  1  0.90021100  0.66262900  0.44215700  1
  Li  Li3  1  0.76769800  0.67222100  0.93680400  1
  Li  Li4  1  0.32552900  0.09660100  0.93933100  1
  Li  Li5  1  0.33691600  0.23248800  0.44249400  1
  Li  Li6  1  0.68052900  0.90953700  0.05876400  1
  Li  Li7  1  0.10151300  0.33554600  0.56127300  1
  Li  Li8  1  0.09290700  0.77719100  0.05852000  1
  Li  Li9  1  0.98306300  0.96073400  0.50866700  1
  V  V10  1  0.56256400  0.56883000  0.74630700  1
  V  V11  1  0.43214500  0.43227500  0.24799700  1
  V  V12  1  0.56613400  0.00108100  0.25443300  1
  V  V13  1  0.43108700  0.99907900  0.74589000  1
  V  V14  1  0.99970700  0.43243300  0.75220600  1
  V  V15  1  0.00013600  0.56773800  0.24920500  1
  P  P16  1  0.91089500  0.23045800  0.15788900  1
  P  P17  1  0.77511400  0.08785100  0.65640000  1
  P  P18  1  0.91067700  0.68495500  0.65849800  1
  P  P19  1  0.66482100  0.33469100  0.87041700  1
  P  P20  1  0.66602900  0.33619500  0.37217900  1
  P  P21  1  0.76663400  0.68120500  0.15534300  1
  P  P22  1  0.69002800  0.77317200  0.34150900  1
  P  P23  1  0.32005700  0.08789400  0.15746600  1
  P  P24  1  0.68164400  0.91307200  0.83971600  1
  P  P25  1  0.31404500  0.22885200  0.65811700  1
  P  P26  1  0.23075000  0.31574700  0.84358200  1
  P  P27  1  0.32894300  0.66322600  0.62770700  1
  P  P28  1  0.33680200  0.67000800  0.12989700  1
  P  P29  1  0.08819800  0.31522700  0.34086500  1
  P  P30  1  0.22302200  0.91527700  0.34142500  1
  P  P31  1  0.08896100  0.77023600  0.84054400  1
  O  O32  1  0.00362800  0.22620400  0.42997700  1
  O  O33  1  0.91996300  0.25739200  0.66445300  1
  O  O34  1  0.76024000  0.00054000  0.93004600  1
  O  O35  1  0.74381500  0.08234900  0.16354200  1
  O  O36  1  0.90092600  0.38157600  0.18061700  1
  O  O37  1  0.81308700  0.32771600  0.83072600  1
  O  O38  1  0.91255800  0.53087800  0.66870600  1
  O  O39  1  0.99713300  0.75496700  0.93001900  1
  O  O40  1  0.91648100  0.66569800  0.15679000  1
  O  O41  1  0.67849200  0.19074100  0.33380700  1
  O  O42  1  0.62107200  0.09054000  0.66813400  1
  O  O43  1  0.81053000  0.49038200  0.33388200  1
  O  O44  1  0.66936400  0.34301100  0.97704400  1
  O  O45  1  0.65436200  0.33385500  0.47871600  1
  O  O46  1  0.66900900  0.48646600  0.82723600  1
  O  O47  1  0.47951400  0.09875700  0.17774200  1
  O  O48  1  0.51323900  0.18615000  0.83119400  1
  O  O49  1  0.74055500  0.65787300  0.66979000  1
  O  O50  1  0.78629100  0.79680500  0.24216800  1
  O  O51  1  0.79475700  0.78354200  0.42247400  1
  O  O52  1  0.74982600  0.75187000  0.06412400  1
  O  O53  1  0.61862400  0.51992500  0.17702800  1
  O  O54  1  0.51062500  0.32494600  0.32771000  1
  O  O55  1  0.66078300  0.74525500  0.84010200  1
  O  O56  1  0.47238300  0.38377200  0.67165500  1
  O  O57  1  0.34177800  0.08748800  0.66351800  1
  O  O58  1  0.79324800  0.99849700  0.74907500  1
  O  O59  1  0.79251300  0.01425000  0.56638900  1
  O  O60  1  0.20893600  0.00601200  0.42346800  1
  O  O61  1  0.66045300  0.91497800  0.34311800  1
  O  O62  1  0.53466900  0.61571400  0.32968900  1
  O  O63  1  0.34044300  0.25550800  0.16555400  1
  O  O64  1  0.48142200  0.66702600  0.67642200  1
  O  O65  1  0.38172300  0.47541900  0.82343100  1
  O  O66  1  0.24144700  0.23026000  0.92712300  1
  O  O67  1  0.23025000  0.22750500  0.56720500  1
  O  O68  1  0.20328900  0.21163700  0.74634800  1
  O  O69  1  0.25763200  0.33721700  0.33891500  1
  O  O70  1  0.48749500  0.81660700  0.17122100  1
  O  O71  1  0.52294800  0.90587100  0.82154900  1
  O  O72  1  0.33743200  0.52271300  0.17989200  1
  O  O73  1  0.34106100  0.66316200  0.02405200  1
  O  O74  1  0.33937200  0.65595400  0.52222400  1
  O  O75  1  0.18616800  0.50798700  0.66715100  1
  O  O76  1  0.38064200  0.91550200  0.33227400  1
  O  O77  1  0.32450700  0.80642000  0.67168300  1
  O  O78  1  0.08421700  0.33788200  0.84400000  1
  O  O79  1  0.00250200  0.20867100  0.24790100  1
  O  O80  1  0.99084400  0.24110200  0.06632000  1
  O  O81  1  0.09338900  0.47263700  0.32856600  1
  O  O82  1  0.18653700  0.67300400  0.16765700  1
  O  O83  1  0.10018700  0.62029800  0.82196500  1
  O  O84  1  0.25428700  0.91765100  0.84166800  1
  O  O85  1  0.24651500  0.00461800  0.06566600  1
  O  O86  1  0.20148400  0.98924100  0.24268100  1
  O  O87  1  0.08255500  0.74338400  0.33926700  1
  O  O88  1  0.98048500  0.77398000  0.56792000  1
  O  O89  1  0.00262800  0.79491000  0.74949100  1
