# generated using pymatgen
data_Li8Mn3Fe5(BO3)8
_symmetry_space_group_name_H-M   'P 1'
_cell_length_a   5.24043000
_cell_length_b   5.24676308
_cell_length_c   20.77843080
_cell_angle_alpha   90.70526441
_cell_angle_beta   90.58228996
_cell_angle_gamma   119.89191226
_symmetry_Int_Tables_number   1
_chemical_formula_structural   Li8Mn3Fe5(BO3)8
_chemical_formula_sum   'Li8 Mn3 Fe5 B8 O24'
_cell_volume   495.18113005
_cell_formula_units_Z   1
loop_
 _symmetry_equiv_pos_site_id
 _symmetry_equiv_pos_as_xyz
  1  'x, y, z'
loop_
 _atom_site_type_symbol
 _atom_site_label
 _atom_site_symmetry_multiplicity
 _atom_site_fract_x
 _atom_site_fract_y
 _atom_site_fract_z
 _atom_site_occupancy
  Li  Li0  1  0.67456900  0.64951900  0.33314900  1
  Li  Li1  1  0.65325200  0.67888900  0.08362100  1
  Li  Li2  1  0.67813400  0.65340800  0.83357400  1
  Li  Li3  1  0.65251300  0.67852300  0.58344400  1
  Li  Li4  1  0.34458800  0.33366000  0.20940000  1
  Li  Li5  1  0.33538200  0.34793000  0.45822800  1
  Li  Li6  1  0.34704400  0.33392600  0.70883100  1
  Li  Li7  1  0.33525600  0.34755200  0.95864500  1
  Mn  Mn8  1  0.32251700  0.00047000  0.06693800  1
  Mn  Mn9  1  0.32292700  0.00034000  0.56636600  1
  Mn  Mn10  1  0.99986300  0.32366200  0.81644600  1
  Fe  Fe11  1  0.67762600  0.00194500  0.44065100  1
  Fe  Fe12  1  0.67599600  0.00066700  0.94154400  1
  Fe  Fe13  1  0.99023300  0.32346000  0.31658500  1
  Fe  Fe14  1  0.00177900  0.67405900  0.19192000  1
  Fe  Fe15  1  0.00023800  0.67460200  0.69140800  1
  B  B16  1  0.99693700  0.33981200  0.06301600  1
  B  B17  1  0.99676500  0.33969300  0.56268200  1
  B  B18  1  0.67006100  0.00527700  0.18896400  1
  B  B19  1  0.66921000  0.00551100  0.68824000  1
  B  B20  1  0.33875000  0.99780800  0.31302300  1
  B  B21  1  0.33955300  0.99714400  0.81281700  1
  B  B22  1  0.00794600  0.67013200  0.43737500  1
  B  B23  1  0.00682900  0.66985700  0.93819300  1
  O  O24  1  0.93181400  0.25301800  0.20780600  1
  O  O25  1  0.93157700  0.25370800  0.70724900  1
  O  O26  1  0.74665900  0.06963200  0.04740000  1
  O  O27  1  0.96632700  0.57688000  0.08379100  1
  O  O28  1  0.74677600  0.06968600  0.54674500  1
  O  O29  1  0.96613200  0.57669300  0.58353200  1
  O  O30  1  0.41860500  0.02516700  0.17451000  1
  O  O31  1  0.73475500  0.65315600  0.43125700  1
  O  O32  1  0.41865900  0.02622100  0.67365700  1
  O  O33  1  0.73397500  0.65208900  0.93180700  1
  O  O34  1  0.65203800  0.73207600  0.18267700  1
  O  O35  1  0.65108700  0.73278700  0.68204600  1
  O  O36  1  0.35828800  0.26818000  0.30685200  1
  O  O37  1  0.36948300  0.27319300  0.80598300  1
  O  O38  1  0.27323400  0.36945400  0.05603900  1
  O  O39  1  0.58475700  0.97484800  0.33199000  1
  O  O40  1  0.27305800  0.36925700  0.55583300  1
  O  O41  1  0.57661500  0.96639600  0.83357700  1
  O  O42  1  0.02920600  0.42063400  0.42275100  1
  O  O43  1  0.02728900  0.41908400  0.92369400  1
  O  O44  1  0.25620200  0.93198300  0.45669000  1
  O  O45  1  0.25461600  0.93167300  0.95741200  1
  O  O46  1  0.07293700  0.74026900  0.29837800  1
  O  O47  1  0.06914100  0.74726700  0.79706600  1
