# generated using pymatgen
data_Li4TiV3O10
_symmetry_space_group_name_H-M   'P 1'
_cell_length_a   6.71680600
_cell_length_b   6.71677600
_cell_length_c   9.19961800
_cell_angle_alpha   90.00035975
_cell_angle_beta   89.99984850
_cell_angle_gamma   89.99737269
_symmetry_Int_Tables_number   1
_chemical_formula_structural   Li4TiV3O10
_chemical_formula_sum   'Li8 Ti2 V6 O20'
_cell_volume   415.04335404
_cell_formula_units_Z   2
loop_
 _symmetry_equiv_pos_site_id
 _symmetry_equiv_pos_as_xyz
  1  'x, y, z'
loop_
 _atom_site_type_symbol
 _atom_site_label
 _atom_site_symmetry_multiplicity
 _atom_site_fract_x
 _atom_site_fract_y
 _atom_site_fract_z
 _atom_site_occupancy
  Li  Li0  1  0.00069000  0.99931500  0.00002100  1
  Li  Li1  1  0.00068500  0.99931200  0.49997800  1
  Li  Li2  1  0.00069300  0.50068500  0.00002300  1
  Li  Li3  1  0.00068500  0.50069300  0.49997600  1
  Li  Li4  1  0.49931100  0.50068500  0.00002200  1
  Li  Li5  1  0.49931500  0.50068800  0.49997800  1
  Li  Li6  1  0.49930400  0.99931400  0.00002200  1
  Li  Li7  1  0.49931400  0.99930600  0.49997800  1
  Ti  Ti8  1  0.74999600  0.24999300  0.24999800  1
  Ti  Ti9  1  0.74999700  0.24999300  0.74999800  1
  V  V10  1  0.24999900  0.25000000  0.30098000  1
  V  V11  1  0.24999900  0.24998000  0.80103700  1
  V  V12  1  0.75000000  0.74999800  0.19902000  1
  V  V13  1  0.74999400  0.74999500  0.69896900  1
  V  V14  1  0.25004000  0.75011000  0.75001100  1
  V  V15  1  0.24999000  0.74996600  0.24999500  1
  O  O16  1  0.25000000  0.25000000  0.11747800  1
  O  O17  1  0.25000000  0.25000100  0.61763200  1
  O  O18  1  0.75000000  0.75000000  0.38252200  1
  O  O19  1  0.75000000  0.75000000  0.88236800  1
  O  O20  1  0.03051600  0.75001400  0.13419300  1
  O  O21  1  0.03051800  0.74970600  0.63413200  1
  O  O22  1  0.25001400  0.53051600  0.36580700  1
  O  O23  1  0.24970700  0.53051500  0.86587000  1
  O  O24  1  0.24998600  0.96948300  0.36580600  1
  O  O25  1  0.25029200  0.96946000  0.86585500  1
  O  O26  1  0.46948300  0.74998600  0.13419300  1
  O  O27  1  0.46947300  0.75029100  0.63413700  1
  O  O28  1  0.53051000  0.25000200  0.36786200  1
  O  O29  1  0.53042500  0.25003500  0.86780100  1
  O  O30  1  0.75000300  0.03050900  0.13213800  1
  O  O31  1  0.75003500  0.03042400  0.63219900  1
  O  O32  1  0.74999700  0.46949000  0.13213800  1
  O  O33  1  0.74996400  0.46957500  0.63219900  1
  O  O34  1  0.96949000  0.24999700  0.36786100  1
  O  O35  1  0.96957400  0.24996400  0.86780100  1
