# generated using pymatgen
data_LiVCrP2(HO5)2
_symmetry_space_group_name_H-M   'P 1'
_cell_length_a   5.25552020
_cell_length_b   5.31881802
_cell_length_c   13.06111440
_cell_angle_alpha   87.99307758
_cell_angle_beta   91.90890594
_cell_angle_gamma   98.48319001
_symmetry_Int_Tables_number   1
_chemical_formula_structural   LiVCrP2(HO5)2
_chemical_formula_sum   'Li2 V2 Cr2 P4 H4 O20'
_cell_volume   360.73706022
_cell_formula_units_Z   2
loop_
 _symmetry_equiv_pos_site_id
 _symmetry_equiv_pos_as_xyz
  1  'x, y, z'
loop_
 _atom_site_type_symbol
 _atom_site_label
 _atom_site_symmetry_multiplicity
 _atom_site_fract_x
 _atom_site_fract_y
 _atom_site_fract_z
 _atom_site_occupancy
  Li  Li0  1  0.12827600  0.50658100  0.06730000  1
  Li  Li1  1  0.62812600  0.00658000  0.56724700  1
  V  V2  1  0.24916200  0.25052200  0.75314700  1
  V  V3  1  0.74942000  0.75018900  0.25311000  1
  Cr  Cr4  1  0.50067000  0.49283700  0.49968500  1
  Cr  Cr5  1  0.00078300  0.99286300  0.99943300  1
  P  P6  1  0.56191700  0.23003900  0.11611000  1
  P  P7  1  0.06176300  0.73006700  0.61606800  1
  P  P8  1  0.94534200  0.26777700  0.38640500  1
  P  P9  1  0.44544400  0.76793900  0.88643800  1
  H  H10  1  0.17893300  0.87120100  0.17068900  1
  H  H11  1  0.67884400  0.37099800  0.67062200  1
  H  H12  1  0.32442000  0.66882900  0.33718200  1
  H  H13  1  0.82422000  0.16866800  0.83721000  1
  O  O14  1  0.50480200  0.67928300  0.36231000  1
  O  O15  1  0.00462700  0.17955300  0.86237100  1
  O  O16  1  0.52316000  0.98607600  0.18724900  1
  O  O17  1  0.02250300  0.48567700  0.68700100  1
  O  O18  1  0.94315500  0.03238100  0.31759200  1
  O  O19  1  0.44293900  0.53260200  0.81752900  1
  O  O20  1  0.32791700  0.21973300  0.04098200  1
  O  O21  1  0.82783300  0.71992600  0.54088200  1
  O  O22  1  0.82025000  0.25513100  0.06190800  1
  O  O23  1  0.32010900  0.75513500  0.56196000  1
  O  O24  1  0.69287800  0.23290000  0.44578800  1
  O  O25  1  0.19307400  0.73288200  0.94579900  1
  O  O26  1  0.17605900  0.27956600  0.46080000  1
  O  O27  1  0.67623700  0.77958400  0.96079700  1
  O  O28  1  0.55620300  0.47426600  0.17807500  1
  O  O29  1  0.05617600  0.97416500  0.67813100  1
  O  O30  1  0.97078600  0.51267700  0.31523500  1
  O  O31  1  0.47072100  0.01284800  0.81531200  1
  O  O32  1  0.00985400  0.80297200  0.13855700  1
  O  O33  1  0.50956000  0.30296500  0.63851900  1
