# generated using pymatgen
data_Li4V3Cr5O16
_symmetry_space_group_name_H-M   'P 1'
_cell_length_a   5.86856319
_cell_length_b   5.86856319
_cell_length_c   9.53334495
_cell_angle_alpha   89.30137812
_cell_angle_beta   89.30137812
_cell_angle_gamma   60.52454028
_symmetry_Int_Tables_number   1
_chemical_formula_structural   Li4V3Cr5O16
_chemical_formula_sum   'Li4 V3 Cr5 O16'
_cell_volume   285.80351425
_cell_formula_units_Z   1
loop_
 _symmetry_equiv_pos_site_id
 _symmetry_equiv_pos_as_xyz
  1  'x, y, z'
loop_
 _atom_site_type_symbol
 _atom_site_label
 _atom_site_symmetry_multiplicity
 _atom_site_fract_x
 _atom_site_fract_y
 _atom_site_fract_z
 _atom_site_occupancy
  Li  Li0  1  0.66809000  0.66809000  0.89159100  1
  Li  Li1  1  0.00245400  0.00245400  0.99697700  1
  Li  Li2  1  0.99812700  0.99812700  0.49570600  1
  Li  Li3  1  0.33670600  0.33670600  0.39129400  1
  V  V4  1  0.66301800  0.16800900  0.71275000  1
  V  V5  1  0.83044000  0.83044000  0.21117700  1
  V  V6  1  0.16800900  0.66301800  0.71275000  1
  Cr  Cr7  1  0.83257200  0.33918300  0.21398400  1
  Cr  Cr8  1  0.66498500  0.66498500  0.48375800  1
  Cr  Cr9  1  0.33918300  0.83257200  0.21398400  1
  Cr  Cr10  1  0.16983700  0.16983700  0.71418800  1
  Cr  Cr11  1  0.33090600  0.33090600  0.98457700  1
  O  O12  1  0.82513700  0.32425300  0.60369200  1
  O  O13  1  0.52099700  0.52099700  0.34065500  1
  O  O14  1  0.67769600  0.67769600  0.10311500  1
  O  O15  1  0.99354500  0.99354500  0.30992700  1
  O  O16  1  0.99677100  0.99677100  0.81255300  1
  O  O17  1  0.32425300  0.82513700  0.60369200  1
  O  O18  1  0.96012300  0.53343800  0.33853100  1
  O  O19  1  0.53343800  0.96012300  0.33853100  1
  O  O20  1  0.16198600  0.16198600  0.09795900  1
  O  O21  1  0.83295400  0.83295400  0.60784000  1
  O  O22  1  0.48865300  0.04111200  0.83781200  1
  O  O23  1  0.04111200  0.48865300  0.83781200  1
  O  O24  1  0.33722700  0.33722700  0.60203000  1
  O  O25  1  0.67217600  0.14958100  0.10658500  1
  O  O26  1  0.48178800  0.48178800  0.83850300  1
  O  O27  1  0.14958100  0.67217600  0.10658500  1
