# generated using pymatgen
data_Li32Mn3Cr13O48
_symmetry_space_group_name_H-M   'P 1'
_cell_length_a   5.03807400
_cell_length_b   8.71651601
_cell_length_c   19.51754599
_cell_angle_alpha   98.15936396
_cell_angle_beta   94.89354239
_cell_angle_gamma   89.74844775
_symmetry_Int_Tables_number   1
_chemical_formula_structural   Li32Mn3Cr13O48
_chemical_formula_sum   'Li32 Mn3 Cr13 O48'
_cell_volume   845.30756398
_cell_formula_units_Z   1
loop_
 _symmetry_equiv_pos_site_id
 _symmetry_equiv_pos_as_xyz
  1  'x, y, z'
loop_
 _atom_site_type_symbol
 _atom_site_label
 _atom_site_symmetry_multiplicity
 _atom_site_fract_x
 _atom_site_fract_y
 _atom_site_fract_z
 _atom_site_occupancy
  Li  Li0  1  0.99010900  0.16921500  0.24954000  1
  Li  Li1  1  0.87612100  0.37585900  0.37529800  1
  Li  Li2  1  0.75236300  0.25008000  0.99988300  1
  Li  Li3  1  0.74004100  0.92043700  0.00024700  1
  Li  Li4  1  0.98932800  0.16801900  0.74925600  1
  Li  Li5  1  0.75698900  0.58003700  0.49949400  1
  Li  Li6  1  0.87230900  0.37347300  0.87471400  1
  Li  Li7  1  0.75257500  0.24856700  0.50016800  1
  Li  Li8  1  0.73906800  0.92068500  0.49930300  1
  Li  Li9  1  0.62432100  0.12424400  0.12484900  1
  Li  Li10  1  0.75445000  0.57823200  0.99920900  1
  Li  Li11  1  0.50884800  0.33065400  0.25000900  1
  Li  Li12  1  0.62438800  0.12559700  0.62529200  1
  Li  Li13  1  0.49795000  0.00015400  0.25003700  1
  Li  Li14  1  0.49563200  0.67042400  0.25053900  1
  Li  Li15  1  0.50679800  0.32958400  0.74976400  1
  Li  Li16  1  0.37719900  0.87667000  0.37510300  1
  Li  Li17  1  0.50029400  0.00224300  0.75019800  1
  Li  Li18  1  0.25171800  0.75116700  0.99965800  1
  Li  Li19  1  0.49029100  0.66866400  0.75034000  1
  Li  Li20  1  0.24411300  0.41963500  0.99974400  1
  Li  Li21  1  0.37442100  0.87454300  0.87475400  1
  Li  Li22  1  0.26229700  0.08219100  0.50069100  1
  Li  Li23  1  0.24805600  0.74893200  0.50007200  1
  Li  Li24  1  0.12436600  0.62443500  0.12497900  1
  Li  Li25  1  0.24262800  0.42025400  0.50068300  1
  Li  Li26  1  0.00560800  0.83150400  0.25047700  1
  Li  Li27  1  0.26043400  0.07923800  0.00020800  1
  Li  Li28  1  0.12605800  0.62308800  0.62462700  1
  Li  Li29  1  0.99955500  0.49976900  0.25030100  1
  Li  Li30  1  0.00878900  0.83116300  0.75067600  1
  Li  Li31  1  0.00533500  0.49938400  0.74967500  1
  Mn  Mn32  1  0.87270000  0.70809600  0.37424100  1
  Mn  Mn33  1  0.37628500  0.54198300  0.87544500  1
  Mn  Mn34  1  0.12883900  0.29080100  0.62604100  1
  Cr  Cr35  1  0.88187000  0.03949900  0.37480700  1
  Cr  Cr36  1  0.87133900  0.70390900  0.87471700  1
  Cr  Cr37  1  0.87702300  0.03751400  0.87486500  1
  Cr  Cr38  1  0.61798800  0.78949800  0.12398000  1
  Cr  Cr39  1  0.63158300  0.45522700  0.12608900  1
  Cr  Cr40  1  0.61922700  0.79439500  0.62377700  1
  Cr  Cr41  1  0.63086700  0.45726400  0.62555200  1
  Cr  Cr42  1  0.37538400  0.54595300  0.37485700  1
  Cr  Cr43  1  0.37572800  0.21249000  0.37560100  1
  Cr  Cr44  1  0.36911600  0.21171800  0.87535600  1
  Cr  Cr45  1  0.11528200  0.95861700  0.12372400  1
  Cr  Cr46  1  0.13445200  0.29518400  0.12661500  1
  Cr  Cr47  1  0.11783800  0.95469600  0.62453500  1
  O  O48  1  0.96813400  0.10509300  0.06882000  1
  O  O49  1  0.92429600  0.78472400  0.06853900  1
  O  O50  1  0.93230800  0.42306000  0.06796100  1
  O  O51  1  0.96847100  0.10747100  0.56947200  1
  O  O52  1  0.82288500  0.96215600  0.18075800  1
  O  O53  1  0.81924100  0.32288600  0.18291600  1
  O  O54  1  0.93185000  0.78743400  0.56829900  1
  O  O55  1  0.92885300  0.42663300  0.56822700  1
  O  O56  1  0.78334400  0.64021000  0.18101000  1
  O  O57  1  0.70992000  0.85310400  0.31847100  1
  O  O58  1  0.81556700  0.95945700  0.68123800  1
  O  O59  1  0.82636800  0.32124000  0.68243400  1
  O  O60  1  0.68296800  0.53506900  0.31905600  1
  O  O61  1  0.67315200  0.17452900  0.31814800  1
  O  O62  1  0.78053600  0.64016200  0.68077500  1
  O  O63  1  0.71695600  0.85257600  0.81852200  1
  O  O64  1  0.46650900  0.60843500  0.06908200  1
  O  O65  1  0.57315200  0.71377800  0.43065700  1
  O  O66  1  0.57558400  0.07173400  0.43273100  1
  O  O67  1  0.67618300  0.53527000  0.81904000  1
  O  O68  1  0.67353200  0.17819100  0.81781500  1
  O  O69  1  0.42647200  0.92942600  0.06682700  1
  O  O70  1  0.43323700  0.29019500  0.06908700  1
  O  O71  1  0.53251200  0.39568400  0.43144500  1
  O  O72  1  0.46643300  0.60861500  0.56821900  1
  O  O73  1  0.56737600  0.71457300  0.93079400  1
  O  O74  1  0.57694600  0.07481800  0.93199000  1
  O  O75  1  0.32465200  0.82616100  0.18159500  1
  O  O76  1  0.31801400  0.46451100  0.18170500  1
  O  O77  1  0.43213000  0.92606700  0.56715300  1
  O  O78  1  0.42842000  0.28807800  0.56969700  1
  O  O79  1  0.54000100  0.39764900  0.93162700  1
  O  O80  1  0.28328700  0.14595300  0.18145500  1
  O  O81  1  0.21775200  0.35897000  0.31904700  1
  O  O82  1  0.31783400  0.82759600  0.68228100  1
  O  O83  1  0.31832100  0.46490400  0.68131200  1
  O  O84  1  0.17578000  0.67721100  0.31803700  1
  O  O85  1  0.17102400  0.03646400  0.31873700  1
  O  O86  1  0.28823300  0.14420100  0.68107500  1
  O  O87  1  0.21612700  0.35714700  0.81952700  1
  O  O88  1  0.06847900  0.57285400  0.43199700  1
  O  O89  1  0.08005800  0.21462900  0.43133800  1
  O  O90  1  0.18146200  0.67721600  0.81771800  1
  O  O91  1  0.16783900  0.03527900  0.81854000  1
  O  O92  1  0.03246600  0.89316300  0.43061800  1
  O  O93  1  0.07389800  0.57357600  0.93179800  1
  O  O94  1  0.08147500  0.21444300  0.93154000  1
  O  O95  1  0.03199300  0.89242000  0.93088200  1
