# generated using pymatgen
data_LiNiPO4
_symmetry_space_group_name_H-M   'P 1'
_cell_length_a   7.67290200
_cell_length_b   8.55584800
_cell_length_c   17.04644051
_cell_angle_alpha   60.14824666
_cell_angle_beta   90.00000000
_cell_angle_gamma   90.00000000
_symmetry_Int_Tables_number   1
_chemical_formula_structural   LiNiPO4
_chemical_formula_sum   'Li12 Ni12 P12 O48'
_cell_volume   970.58567480
_cell_formula_units_Z   12
loop_
 _symmetry_equiv_pos_site_id
 _symmetry_equiv_pos_as_xyz
  1  'x, y, z'
loop_
 _atom_site_type_symbol
 _atom_site_label
 _atom_site_symmetry_multiplicity
 _atom_site_fract_x
 _atom_site_fract_y
 _atom_site_fract_z
 _atom_site_occupancy
  Li  Li0  1  0.74826900  0.93836200  0.09559000  1
  Li  Li1  1  0.77804600  0.36767300  0.72887400  1
  Li  Li2  1  0.74366300  0.67533300  0.43465500  1
  Li  Li3  1  0.24366300  0.32466700  0.06534500  1
  Li  Li4  1  0.27804600  0.63232700  0.77112600  1
  Li  Li5  1  0.24826900  0.06163800  0.40441000  1
  Li  Li6  1  0.75173100  0.93836200  0.59559000  1
  Li  Li7  1  0.72195400  0.36767300  0.22887400  1
  Li  Li8  1  0.75633700  0.67533300  0.93465500  1
  Li  Li9  1  0.25633700  0.32466700  0.56534500  1
  Li  Li10  1  0.22195400  0.63232700  0.27112600  1
  Li  Li11  1  0.25173100  0.06163800  0.90441000  1
  Ni  Ni12  1  0.06092000  0.69821100  0.55737800  1
  Ni  Ni13  1  0.98127600  0.36366300  0.89965000  1
  Ni  Ni14  1  0.16843900  0.00519500  0.24899600  1
  Ni  Ni15  1  0.66843900  0.99480500  0.25100400  1
  Ni  Ni16  1  0.48127600  0.63633700  0.60035000  1
  Ni  Ni17  1  0.56092000  0.30178900  0.94262200  1
  Ni  Ni18  1  0.43908000  0.69821100  0.05737800  1
  Ni  Ni19  1  0.51872400  0.36366300  0.39965000  1
  Ni  Ni20  1  0.33156100  0.00519500  0.74899600  1
  Ni  Ni21  1  0.83156100  0.99480500  0.75100400  1
  Ni  Ni22  1  0.01872400  0.63633700  0.10035000  1
  Ni  Ni23  1  0.93908000  0.30178900  0.44262200  1
  P  P24  1  0.33398900  0.95863600  0.09113600  1
  P  P25  1  0.15942500  0.37618700  0.72088400  1
  P  P26  1  0.33767900  0.68330900  0.42586600  1
  P  P27  1  0.83767900  0.31669100  0.07413400  1
  P  P28  1  0.65942500  0.62381300  0.77911600  1
  P  P29  1  0.83398900  0.04136400  0.40886400  1
  P  P30  1  0.16601100  0.95863600  0.59113600  1
  P  P31  1  0.34057500  0.37618700  0.22088400  1
  P  P32  1  0.16232100  0.68330900  0.92586600  1
  P  P33  1  0.66232100  0.31669100  0.57413400  1
  P  P34  1  0.84057500  0.62381300  0.27911600  1
  P  P35  1  0.66601100  0.04136400  0.90886400  1
  O  O36  1  0.49358400  0.15017600  0.88267900  1
  O  O37  1  0.62229900  0.40625200  0.63153400  1
  O  O38  1  0.76999400  0.10545600  0.96668100  1
  O  O39  1  0.75767000  0.76072700  0.30303900  1
  O  O40  1  0.20054600  0.57767900  0.50064000  1
  O  O41  1  0.99117000  0.44904700  0.66467200  1
  O  O42  1  0.12476500  0.28760200  0.82378000  1
  O  O43  1  0.22352200  0.90235500  0.17811800  1
  O  O44  1  0.50668300  0.70329100  0.47015800  1
  O  O45  1  0.37085400  0.16337400  0.04028300  1
  O  O46  1  0.26610200  0.87842600  0.36418200  1
  O  O47  1  0.28589100  0.53844800  0.68867500  1
  O  O48  1  0.76610200  0.12157400  0.13581800  1
  O  O49  1  0.78589100  0.46155200  0.81132500  1
  O  O50  1  0.87085400  0.83662600  0.45971700  1
  O  O51  1  0.00668300  0.29670900  0.02984200  1
  O  O52  1  0.72352200  0.09764500  0.32188200  1
  O  O53  1  0.62476500  0.71239800  0.67622000  1
  O  O54  1  0.49117000  0.55095300  0.83532800  1
  O  O55  1  0.25767000  0.23927300  0.19696100  1
  O  O56  1  0.70054600  0.42232100  0.99936000  1
  O  O57  1  0.26999400  0.89454400  0.53331900  1
  O  O58  1  0.12229900  0.59374800  0.86846600  1
  O  O59  1  0.99358400  0.84982400  0.61732100  1
  O  O60  1  0.00641600  0.15017600  0.38267900  1
  O  O61  1  0.87770100  0.40625200  0.13153400  1
  O  O62  1  0.73000600  0.10545600  0.46668100  1
  O  O63  1  0.29945400  0.57767900  0.00064000  1
  O  O64  1  0.74233000  0.76072700  0.80303900  1
  O  O65  1  0.50883000  0.44904700  0.16467200  1
  O  O66  1  0.37523500  0.28760200  0.32378000  1
  O  O67  1  0.27647800  0.90235500  0.67811800  1
  O  O68  1  0.99331700  0.70329100  0.97015800  1
  O  O69  1  0.12914600  0.16337400  0.54028300  1
  O  O70  1  0.21410900  0.53844800  0.18867500  1
  O  O71  1  0.23389800  0.87842600  0.86418200  1
  O  O72  1  0.71410900  0.46155200  0.31132500  1
  O  O73  1  0.73389800  0.12157400  0.63581800  1
  O  O74  1  0.62914600  0.83662600  0.95971700  1
  O  O75  1  0.49331700  0.29670900  0.52984200  1
  O  O76  1  0.77647800  0.09764500  0.82188200  1
  O  O77  1  0.87523500  0.71239800  0.17622000  1
  O  O78  1  0.00883000  0.55095300  0.33532800  1
  O  O79  1  0.79945400  0.42232100  0.49936000  1
  O  O80  1  0.24233000  0.23927300  0.69696100  1
  O  O81  1  0.23000600  0.89454400  0.03331900  1
  O  O82  1  0.37770100  0.59374800  0.36846600  1
  O  O83  1  0.50641600  0.84982400  0.11732100  1
