# generated using pymatgen
data_Li5Mn6(BO3)6
_symmetry_space_group_name_H-M   'P 1'
_cell_length_a   9.14852068
_cell_length_b   9.14852068
_cell_length_c   11.85011344
_cell_angle_alpha   65.67008654
_cell_angle_beta   65.67008654
_cell_angle_gamma   59.92119950
_symmetry_Int_Tables_number   1
_chemical_formula_structural   Li5Mn6(BO3)6
_chemical_formula_sum   'Li10 Mn12 B12 O36'
_cell_volume   754.99155036
_cell_formula_units_Z   2
loop_
 _symmetry_equiv_pos_site_id
 _symmetry_equiv_pos_as_xyz
  1  'x, y, z'
loop_
 _atom_site_type_symbol
 _atom_site_label
 _atom_site_symmetry_multiplicity
 _atom_site_fract_x
 _atom_site_fract_y
 _atom_site_fract_z
 _atom_site_occupancy
  Li  Li0  1  0.90405500  0.37596900  0.66581800  1
  Li  Li1  1  0.91287300  0.41595900  0.91335500  1
  Li  Li2  1  0.23330900  0.71154500  0.67041300  1
  Li  Li3  1  0.41595900  0.91287300  0.41335500  1
  Li  Li4  1  0.24002500  0.75328500  0.91458900  1
  Li  Li5  1  0.57911000  0.03766600  0.66448200  1
  Li  Li6  1  0.71154500  0.23330900  0.17041300  1
  Li  Li7  1  0.75328500  0.24002500  0.41458900  1
  Li  Li8  1  0.03766600  0.57911000  0.16448200  1
  Li  Li9  1  0.37596900  0.90405500  0.16581800  1
  Mn  Mn10  1  0.90522100  0.77386000  0.88151300  1
  Mn  Mn11  1  0.56732600  0.39527600  0.63466400  1
  Mn  Mn12  1  0.59518600  0.40699500  0.88618100  1
  Mn  Mn13  1  0.72106600  0.91807200  0.12775200  1
  Mn  Mn14  1  0.91807200  0.72106600  0.62775200  1
  Mn  Mn15  1  0.77386000  0.90522100  0.38151300  1
  Mn  Mn16  1  0.24797600  0.06260900  0.63360800  1
  Mn  Mn17  1  0.09628200  0.27630000  0.38376400  1
  Mn  Mn18  1  0.27630000  0.09628200  0.88376400  1
  Mn  Mn19  1  0.39527600  0.56732600  0.13466400  1
  Mn  Mn20  1  0.40699500  0.59518600  0.38618100  1
  Mn  Mn21  1  0.06260900  0.24797600  0.13360800  1
  B  B22  1  0.90578800  0.06647300  0.62676500  1
  B  B23  1  0.94533500  0.09055100  0.87721300  1
  B  B24  1  0.74906700  0.60114400  0.37262100  1
  B  B25  1  0.25594700  0.43659300  0.87656000  1
  B  B26  1  0.57602500  0.72383000  0.62590800  1
  B  B27  1  0.60114400  0.74906700  0.87262100  1
  B  B28  1  0.39242800  0.23939400  0.13247200  1
  B  B29  1  0.43659300  0.25594700  0.37656000  1
  B  B30  1  0.72383000  0.57602500  0.12590800  1
  B  B31  1  0.23939400  0.39242800  0.63247200  1
  B  B32  1  0.06647300  0.90578800  0.12676500  1
  B  B33  1  0.09055100  0.94533500  0.37721300  1
  O  O34  1  0.98189100  0.88368300  0.67668100  1
  O  O35  1  0.84845800  0.98908400  0.92900500  1
  O  O36  1  0.00134200  0.16593000  0.59435700  1
  O  O37  1  0.86269100  0.26857200  0.86299700  1
  O  O38  1  0.43681200  0.35227400  0.83778800  1
  O  O39  1  0.65073900  0.49997300  0.42292100  1
  O  O40  1  0.92506600  0.52766500  0.35208800  1
  O  O41  1  0.82640100  0.67142300  0.08734500  1
  O  O42  1  0.65752900  0.54227900  0.66992100  1
  O  O43  1  0.66401700  0.78619200  0.33963100  1
  O  O44  1  0.17649500  0.61483200  0.86299000  1
  O  O45  1  0.78619200  0.66401700  0.83963100  1
  O  O46  1  0.49997300  0.65073900  0.92292100  1
  O  O47  1  0.40629200  0.80512400  0.61524000  1
  O  O48  1  0.67142300  0.82640100  0.58734500  1
  O  O49  1  0.88368300  0.98189100  0.17668100  1
  O  O50  1  0.46241500  0.06755500  0.13609700  1
  O  O51  1  0.00753800  0.12929900  0.33971600  1
  O  O52  1  0.52766500  0.92506600  0.85208800  1
  O  O53  1  0.12929900  0.00753800  0.83971600  1
  O  O54  1  0.33897700  0.15684400  0.42313100  1
  O  O55  1  0.61483200  0.17649500  0.36299000  1
  O  O56  1  0.50395700  0.32477600  0.09432600  1
  O  O57  1  0.74182600  0.14601000  0.60747400  1
  O  O58  1  0.21140400  0.33506000  0.16727500  1
  O  O59  1  0.80512400  0.40629200  0.11524000  1
  O  O60  1  0.33506000  0.21140400  0.66727500  1
  O  O61  1  0.35227400  0.43681200  0.33778800  1
  O  O62  1  0.15684400  0.33897700  0.92313100  1
  O  O63  1  0.06755500  0.46241500  0.63609700  1
  O  O64  1  0.32477600  0.50395700  0.59432600  1
  O  O65  1  0.54227900  0.65752900  0.16992100  1
  O  O66  1  0.14601000  0.74182600  0.10747400  1
  O  O67  1  0.98908400  0.84845800  0.42900500  1
  O  O68  1  0.26857200  0.86269100  0.36299700  1
  O  O69  1  0.16593000  0.00134200  0.09435700  1
