# generated using pymatgen
data_Li66Be24H35
_symmetry_space_group_name_H-M   'P 1'
_cell_length_a   10.44683300
_cell_length_b   11.00379687
_cell_length_c   12.63996269
_cell_angle_alpha   95.32083428
_cell_angle_beta   91.96736011
_cell_angle_gamma   89.93145622
_symmetry_Int_Tables_number   1
_chemical_formula_structural   Li66Be24H35
_chemical_formula_sum   'Li66 Be24 H35'
_cell_volume   1445.90803797
_cell_formula_units_Z   1
loop_
 _symmetry_equiv_pos_site_id
 _symmetry_equiv_pos_as_xyz
  1  'x, y, z'
loop_
 _atom_site_type_symbol
 _atom_site_label
 _atom_site_symmetry_multiplicity
 _atom_site_fract_x
 _atom_site_fract_y
 _atom_site_fract_z
 _atom_site_occupancy
  Li  Li0  1  0.56023800  0.91537100  0.17192000  1
  Li  Li1  1  0.01080300  0.94898600  0.21513400  1
  Li  Li2  1  0.34504200  0.21011300  0.04589300  1
  Li  Li3  1  0.84521900  0.25088300  0.08793600  1
  Li  Li4  1  0.88607100  0.79086200  0.06634400  1
  Li  Li5  1  0.38462100  0.73762800  0.06269000  1
  Li  Li6  1  0.46068400  0.43004600  0.14188800  1
  Li  Li7  1  0.89446200  0.44198700  0.24537600  1
  Li  Li8  1  0.68677900  0.70182800  0.52308900  1
  Li  Li9  1  0.06135200  0.66959500  0.56781100  1
  Li  Li10  1  0.02264400  0.12500300  0.54785300  1
  Li  Li11  1  0.56138300  0.21372300  0.59506100  1
  Li  Li12  1  0.16327400  0.44458700  0.60931000  1
  Li  Li13  1  0.25415000  0.96096800  0.61718200  1
  Li  Li14  1  0.59138300  0.97452100  0.59597100  1
  Li  Li15  1  0.66243500  0.46861500  0.59578000  1
  Li  Li16  1  0.67376200  0.58703400  0.87835700  1
  Li  Li17  1  0.33997700  0.35571900  0.87660500  1
  Li  Li18  1  0.42408100  0.10452700  0.77986000  1
  Li  Li19  1  0.84700600  0.01154600  0.68295900  1
  Li  Li20  1  0.20430400  0.04448700  0.91363600  1
  Li  Li21  1  0.34802200  0.61457600  0.84434900  1
  Li  Li22  1  0.89060000  0.10327600  0.89401500  1
  Li  Li23  1  0.88436900  0.53764000  0.01989400  1
  Li  Li24  1  0.62410900  0.07844500  0.94493500  1
  Li  Li25  1  0.10554800  0.13177600  0.13303300  1
  Li  Li26  1  0.46420500  0.78368600  0.59917200  1
  Li  Li27  1  0.43886400  0.54970800  0.64480700  1
  Li  Li28  1  0.67051700  0.68520300  0.10699400  1
  Li  Li29  1  0.12174300  0.67702900  0.11931600  1
  Li  Li30  1  0.88221000  0.52963400  0.71424900  1
  Li  Li31  1  0.92499600  0.86402400  0.51078100  1
  Li  Li32  1  0.77746700  0.12834800  0.50670400  1
  Li  Li33  1  0.87404600  0.55396300  0.47345800  1
  Li  Li34  1  0.37282100  0.00078600  0.45096600  1
  Li  Li35  1  0.27696500  0.52002200  0.44911700  1
  Li  Li36  1  0.09320600  0.28174800  0.95110800  1
  Li  Li37  1  0.17341700  0.79842900  0.93635700  1
  Li  Li38  1  0.60887000  0.81120500  0.95483900  1
  Li  Li39  1  0.62209900  0.32169600  0.97602700  1
  Li  Li40  1  0.72003200  0.60946400  0.30035400  1
  Li  Li41  1  0.76472400  0.12841800  0.25229700  1
  Li  Li42  1  0.31195200  0.59597800  0.24405400  1
  Li  Li43  1  0.32675200  0.04089700  0.24258400  1
  Li  Li44  1  0.07820000  0.88824700  0.74374000  1
  Li  Li45  1  0.62457800  0.90720200  0.77133900  1
  Li  Li46  1  0.57020100  0.36572100  0.77289700  1
  Li  Li47  1  0.07998500  0.40577700  0.77962100  1
  Li  Li48  1  0.90652000  0.71569400  0.86164300  1
  Li  Li49  1  0.83923800  0.34734000  0.85813500  1
  Li  Li50  1  0.18116000  0.17601200  0.74343700  1
  Li  Li51  1  0.35200700  0.87558800  0.79042900  1
  Li  Li52  1  0.97252300  0.21367400  0.34612400  1
  Li  Li53  1  0.56719100  0.12692700  0.37106500  1
  Li  Li54  1  0.53180400  0.51012600  0.39770400  1
  Li  Li55  1  0.07905200  0.59017400  0.34557600  1
  Li  Li56  1  0.56703200  0.13878200  0.13547500  1
  Li  Li57  1  0.45083500  0.29979000  0.30611900  1
  Li  Li58  1  0.14218300  0.41329700  0.14590300  1
  Li  Li59  1  0.12409900  0.97987000  0.40999900  1
  Li  Li60  1  0.66731900  0.91064700  0.40093100  1
  Li  Li61  1  0.21131700  0.30791200  0.31761700  1
  Li  Li62  1  0.75103000  0.35757500  0.41523500  1
  Li  Li63  1  0.93516700  0.75944600  0.30691500  1
  Li  Li64  1  0.44247100  0.78760200  0.34389800  1
  Li  Li65  1  0.23109600  0.22474400  0.50349800  1
  Be  Be66  1  0.99642100  0.97273900  0.00666400  1
  Be  Be67  1  0.36038200  0.33604200  0.66565000  1
  Be  Be68  1  0.11143200  0.57770800  0.91746900  1
  Be  Be69  1  0.25271700  0.72347200  0.64755600  1
  Be  Be70  1  0.66525300  0.32944700  0.21915700  1
  Be  Be71  1  0.77721000  0.90277000  0.23134500  1
  Be  Be72  1  0.03689900  0.39628400  0.45106400  1
  Be  Be73  1  0.19604300  0.80701200  0.29827900  1
  Be  Be74  1  0.78104300  0.28215500  0.67015400  1
  Be  Be75  1  0.86233900  0.75463600  0.66102000  1
  Be  Be76  1  0.39239200  0.96099700  0.02126200  1
  Be  Be77  1  0.49255300  0.53378800  0.99085300  1
  Be  Be78  1  0.71120500  0.16752600  0.77959700  1
  Be  Be79  1  0.94854000  0.21533300  0.72077500  1
  Be  Be80  1  0.24653600  0.77495900  0.46516900  1
  Be  Be81  1  0.87793200  0.99258700  0.36595100  1
  Be  Be82  1  0.68674300  0.46827300  0.12310300  1
  Be  Be83  1  0.28433800  0.52270000  0.01974900  1
  Be  Be84  1  0.92501300  0.33501900  0.57709100  1
  Be  Be85  1  0.41952300  0.36137700  0.51388700  1
  Be  Be86  1  0.21718000  0.89216200  0.12435100  1
  Be  Be87  1  0.79871600  0.99820700  0.09085400  1
  Be  Be88  1  0.10903100  0.65381500  0.76434500  1
  Be  Be89  1  0.67927900  0.69795100  0.71090900  1
  H  H90  1  0.73528200  0.03904200  0.80276100  1
  H  H91  1  0.02444700  0.63924800  0.99737000  1
  H  H92  1  0.04126700  0.08758600  0.97541400  1
  H  H93  1  0.76991200  0.30777500  0.55769600  1
  H  H94  1  0.20022000  0.06909100  0.52571500  1
  H  H95  1  0.61312100  0.74438600  0.80540600  1
  H  H96  1  0.24452000  0.01805300  0.76135700  1
  H  H97  1  0.97932600  0.68426800  0.71432300  1
  H  H98  1  0.59701400  0.07358500  0.49769500  1
  H  H99  1  0.38923700  0.25104700  0.56943800  1
  H  H100  1  0.93135900  0.86990700  0.66156500  1
  H  H101  1  0.22581900  0.54874200  0.12152100  1
  H  H102  1  0.17954400  0.61064700  0.67072400  1
  H  H103  1  0.46167900  0.07917500  0.02697100  1
  H  H104  1  0.01726500  0.09896400  0.69776000  1
  H  H105  1  0.78128600  0.68805700  0.97540200  1
  H  H106  1  0.53335900  0.64991000  0.95574200  1
  H  H107  1  0.46854800  0.94237800  0.69262500  1
  H  H108  1  0.58899100  0.64120100  0.62944600  1
  H  H109  1  0.09118300  0.52058900  0.47839600  1
  H  H110  1  0.07649300  0.92734100  0.09051200  1
  H  H111  1  0.88132500  0.70851300  0.54828400  1
  H  H112  1  0.60682900  0.22598100  0.26103700  1
  H  H113  1  0.69826900  0.53791100  0.45593700  1
  H  H114  1  0.48533100  0.86978500  0.04668900  1
  H  H115  1  0.17490800  0.45765800  0.95157100  1
  H  H116  1  0.56676200  0.54260200  0.09662400  1
  H  H117  1  0.25308100  0.66955700  0.53350700  1
  H  H118  1  0.37560600  0.70336200  0.69890500  1
  H  H119  1  0.77706700  0.56693200  0.15276600  1
  H  H120  1  0.86031700  0.94605800  0.98580300  1
  H  H121  1  0.90042700  0.60082600  0.33855500  1
  H  H122  1  0.25180400  0.20850800  0.91308900  1
  H  H123  1  0.22104000  0.77698000  0.06484500  1
  H  H124  1  0.72042800  0.21624800  0.89392600  1
