# generated using pymatgen
data_Li3Sb
_symmetry_space_group_name_H-M   'P 1'
_cell_length_a   4.69002853
_cell_length_b   4.69002853
_cell_length_c   8.34724300
_cell_angle_alpha   90.00000000
_cell_angle_beta   90.00000000
_cell_angle_gamma   120.00000742
_symmetry_Int_Tables_number   1
_chemical_formula_structural   Li3Sb
_chemical_formula_sum   'Li6 Sb2'
_cell_volume   159.01006836
_cell_formula_units_Z   2
loop_
 _symmetry_equiv_pos_site_id
 _symmetry_equiv_pos_as_xyz
  1  'x, y, z'
loop_
 _atom_site_type_symbol
 _atom_site_label
 _atom_site_symmetry_multiplicity
 _atom_site_fract_x
 _atom_site_fract_y
 _atom_site_fract_z
 _atom_site_occupancy
  Li  Li0  1  0.33333300  0.66666700  0.91227900  1
  Li  Li1  1  0.66666700  0.33333300  0.41227900  1
  Li  Li2  1  0.00000000  0.00000000  0.25000000  1
  Li  Li3  1  0.00000000  0.00000000  0.75000000  1
  Li  Li4  1  0.33333300  0.66666700  0.58772100  1
  Li  Li5  1  0.66666700  0.33333300  0.08772100  1
  Sb  Sb6  1  0.66666700  0.33333300  0.75000000  1
  Sb  Sb7  1  0.33333300  0.66666700  0.25000000  1
