# generated using pymatgen
data_Li2Ti2O5
_symmetry_space_group_name_H-M   'P 1'
_cell_length_a   5.34419400
_cell_length_b   5.88209000
_cell_length_c   15.84698400
_cell_angle_alpha   90.00000000
_cell_angle_beta   90.00000000
_cell_angle_gamma   90.00000000
_symmetry_Int_Tables_number   1
_chemical_formula_structural   Li2Ti2O5
_chemical_formula_sum   'Li8 Ti8 O20'
_cell_volume   498.15041880
_cell_formula_units_Z   4
loop_
 _symmetry_equiv_pos_site_id
 _symmetry_equiv_pos_as_xyz
  1  'x, y, z'
loop_
 _atom_site_type_symbol
 _atom_site_label
 _atom_site_symmetry_multiplicity
 _atom_site_fract_x
 _atom_site_fract_y
 _atom_site_fract_z
 _atom_site_occupancy
  Li  Li0  1  0.81911700  0.09851600  0.04946900  1
  Li  Li1  1  0.18088300  0.09851600  0.54946900  1
  Li  Li2  1  0.31911700  0.40148400  0.04946900  1
  Li  Li3  1  0.68088300  0.40148400  0.54946900  1
  Li  Li4  1  0.31911700  0.59851600  0.45053100  1
  Li  Li5  1  0.68088300  0.59851600  0.95053100  1
  Li  Li6  1  0.81911700  0.90148400  0.45053100  1
  Li  Li7  1  0.18088300  0.90148400  0.95053100  1
  Ti  Ti8  1  0.30995300  0.09243000  0.35687100  1
  Ti  Ti9  1  0.69004700  0.09243000  0.85687100  1
  Ti  Ti10  1  0.19004700  0.40757000  0.85687100  1
  Ti  Ti11  1  0.80995300  0.40757000  0.35687100  1
  Ti  Ti12  1  0.19004700  0.59243000  0.64312900  1
  Ti  Ti13  1  0.80995300  0.59243000  0.14312900  1
  Ti  Ti14  1  0.30995300  0.90757000  0.14312900  1
  Ti  Ti15  1  0.69004700  0.90757000  0.64312900  1
  O  O16  1  0.22632700  0.00000000  0.25000000  1
  O  O17  1  0.77367300  0.00000000  0.75000000  1
  O  O18  1  0.19195800  0.08763400  0.06289900  1
  O  O19  1  0.80804200  0.08763400  0.56289900  1
  O  O20  1  0.65518400  0.12585100  0.37262400  1
  O  O21  1  0.34481600  0.12585100  0.87262400  1
  O  O22  1  0.15518400  0.37414900  0.37262400  1
  O  O23  1  0.84481600  0.37414900  0.87262400  1
  O  O24  1  0.30804200  0.41236600  0.56289900  1
  O  O25  1  0.69195800  0.41236600  0.06289900  1
  O  O26  1  0.27367300  0.50000000  0.75000000  1
  O  O27  1  0.72632700  0.50000000  0.25000000  1
  O  O28  1  0.69195800  0.58763400  0.43710100  1
  O  O29  1  0.30804200  0.58763400  0.93710100  1
  O  O30  1  0.15518400  0.62585100  0.12737600  1
  O  O31  1  0.84481600  0.62585100  0.62737600  1
  O  O32  1  0.65518400  0.87414900  0.12737600  1
  O  O33  1  0.34481600  0.87414900  0.62737600  1
  O  O34  1  0.19195800  0.91236600  0.43710100  1
  O  O35  1  0.80804200  0.91236600  0.93710100  1
