# generated using pymatgen
data_Li4VNi3O8
_symmetry_space_group_name_H-M   'P 1'
_cell_length_a   10.18398357
_cell_length_b   10.18661785
_cell_length_c   14.40678567
_cell_angle_alpha   19.46017816
_cell_angle_beta   19.45136057
_cell_angle_gamma   33.51697664
_symmetry_Int_Tables_number   1
_chemical_formula_structural   Li4VNi3O8
_chemical_formula_sum   'Li4 V1 Ni3 O8'
_cell_volume   143.71134106
_cell_formula_units_Z   1
loop_
 _symmetry_equiv_pos_site_id
 _symmetry_equiv_pos_as_xyz
  1  'x, y, z'
loop_
 _atom_site_type_symbol
 _atom_site_label
 _atom_site_symmetry_multiplicity
 _atom_site_fract_x
 _atom_site_fract_y
 _atom_site_fract_z
 _atom_site_occupancy
  Li  Li0  1  0.99349239  0.00335670  0.50019261  1
  Li  Li1  1  0.99971191  0.49412688  0.50220683  1
  Li  Li2  1  0.49859878  0.99310403  0.50547246  1
  Li  Li3  1  0.49751530  0.49835914  0.50338393  1
  V  V4  1  0.00524941  0.00440095  -0.00673717  1
  Ni  Ni5  1  0.00122590  0.49617125  0.00123161  1
  Ni  Ni6  1  0.50615691  0.00039459  0.99497300  1
  Ni  Ni7  1  0.50236136  0.49936862  -0.00234459  1
  O  O8  1  0.00736450  -0.00140765  0.25635848  1
  O  O9  1  0.00224839  0.53175342  0.23284458  1
  O  O10  1  0.53917922  -0.00238070  0.23142464  1
  O  O11  1  0.00098804  0.99917703  0.73814048  1
  O  O12  1  0.46808828  0.46172864  0.30224856  1
  O  O13  1  0.00345412  0.46492127  0.76384644  1
  O  O14  1  0.46490499  0.99672320  0.76858536  1
  O  O15  1  0.53912449  0.53553962  0.69315680  1
