# generated using pymatgen
data_K2Li2CoO4
_symmetry_space_group_name_H-M   'P 1'
_cell_length_a   5.60109000
_cell_length_b   8.99399288
_cell_length_c   10.40014603
_cell_angle_alpha   86.99007556
_cell_angle_beta   82.38619255
_cell_angle_gamma   89.60118114
_symmetry_Int_Tables_number   1
_chemical_formula_structural   K2Li2CoO4
_chemical_formula_sum   'K8 Li8 Co4 O16'
_cell_volume   518.58399655
_cell_formula_units_Z   4
loop_
 _symmetry_equiv_pos_site_id
 _symmetry_equiv_pos_as_xyz
  1  'x, y, z'
loop_
 _atom_site_type_symbol
 _atom_site_label
 _atom_site_symmetry_multiplicity
 _atom_site_fract_x
 _atom_site_fract_y
 _atom_site_fract_z
 _atom_site_occupancy
  K  K0  1  0.15192900  0.00376000  0.12793700  1
  K  K1  1  0.17757600  0.21142200  0.64213600  1
  K  K2  1  0.36018300  0.48566100  0.36959500  1
  K  K3  1  0.37881300  0.78153400  0.87506600  1
  K  K4  1  0.66704000  0.30850900  0.09407600  1
  K  K5  1  0.65925000  0.45232300  0.68722400  1
  K  K6  1  0.87123500  0.69077800  0.37840300  1
  K  K7  1  0.77762400  0.04763500  0.85377300  1
  Li  Li8  1  0.08876400  0.24739000  0.29370400  1
  Li  Li9  1  0.19286000  0.00272600  0.42577800  1
  Li  Li10  1  0.27613400  0.52043600  0.07350400  1
  Li  Li11  1  0.06244900  0.53114100  0.82693000  1
  Li  Li12  1  0.41097900  0.75316100  0.19590800  1
  Li  Li13  1  0.60955800  0.97462900  0.28923700  1
  Li  Li14  1  0.77843200  0.96775800  0.56023800  1
  Li  Li15  1  0.91081200  0.75476700  0.69794500  1
  Co  Co16  1  0.19828800  0.29651000  0.93856400  1
  Co  Co17  1  0.32560600  0.77765400  0.55815100  1
  Co  Co18  1  0.68414600  0.20140900  0.43336900  1
  Co  Co19  1  0.82252800  0.72018200  0.06162500  1
  O  O20  1  0.14894900  0.30682700  0.11597600  1
  O  O21  1  0.10655200  0.70448500  0.12913500  1
  O  O22  1  0.10688100  0.92189800  0.60838300  1
  O  O23  1  0.16280900  0.60881400  0.61337000  1
  O  O24  1  0.39969600  0.17612900  0.36467600  1
  O  O25  1  0.37693200  0.81145500  0.37898800  1
  O  O26  1  0.31433800  0.11783800  0.89734600  1
  O  O27  1  0.35485500  0.46968900  0.89287800  1
  O  O28  1  0.59969200  0.58794400  0.13811800  1
  O  O29  1  0.67177800  0.89518600  0.11270800  1
  O  O30  1  0.65615300  0.16478300  0.60355400  1
  O  O31  1  0.61159500  0.78280600  0.61959600  1
  O  O32  1  0.83326700  0.37505600  0.39344100  1
  O  O33  1  0.88308000  0.05027400  0.36618600  1
  O  O34  1  0.93405500  0.32753400  0.85839400  1
  O  O35  1  0.88640400  0.71842100  0.88543100  1
