# generated using pymatgen
data_Li2VO3F
_symmetry_space_group_name_H-M   'P 1'
_cell_length_a   7.22921125
_cell_length_b   7.14606215
_cell_length_c   7.14970345
_cell_angle_alpha   109.33440731
_cell_angle_beta   108.79008435
_cell_angle_gamma   110.49551367
_symmetry_Int_Tables_number   1
_chemical_formula_structural   Li2VO3F
_chemical_formula_sum   'Li8 V4 O12 F4'
_cell_volume   283.55514073
_cell_formula_units_Z   4
loop_
 _symmetry_equiv_pos_site_id
 _symmetry_equiv_pos_as_xyz
  1  'x, y, z'
loop_
 _atom_site_type_symbol
 _atom_site_label
 _atom_site_symmetry_multiplicity
 _atom_site_fract_x
 _atom_site_fract_y
 _atom_site_fract_z
 _atom_site_occupancy
  Li  Li0  1  0.25513697  0.74726611  0.75533140  1
  Li  Li1  1  0.48252731  0.48041391  0.75094225  1
  Li  Li2  1  0.47688389  0.76228117  0.47350226  1
  Li  Li3  1  0.73120725  0.73727608  0.24566163  1
  Li  Li4  1  0.71019009  0.23489780  0.70273171  1
  Li  Li5  1  0.51060132  0.24470898  0.00433761  1
  Li  Li6  1  0.00869624  0.54045058  0.27392775  1
  Li  Li7  1  0.99052375  0.25520855  0.50305023  1
  V  V8  1  0.01948404  0.02696008  0.74699878  1
  V  V9  1  0.27442661  0.27944139  0.26735687  1
  V  V10  1  0.75507054  0.02707147  0.01863716  1
  V  V11  1  0.97094345  0.70973069  0.96440798  1
  O  O12  1  -0.00008638  0.52362291  0.77036192  1
  O  O13  1  0.23748537  0.23348606  0.76176131  1
  O  O14  1  0.24592584  0.47207227  0.46982751  1
  O  O15  1  0.54085228  0.98894088  0.77864260  1
  O  O16  1  0.21919712  0.00050694  0.99912653  1
  O  O17  1  0.47400724  0.46675859  0.24413968  1
  O  O18  1  0.78086124  0.76602451  0.77890189  1
  O  O19  1  0.78456693  0.99421015  0.53751311  1
  O  O20  1  0.00853620  0.22675200  0.00331032  1
  O  O21  1  0.76428135  0.51671623  0.99590897  1
  O  O22  1  0.77000539  0.24076142  0.22950607  1
  O  O23  1  0.98420641  0.99720625  0.21599886  1
  F  F24  1  0.01013858  0.76543483  0.52942580  1
  F  F25  1  0.21634799  0.75497990  0.23783383  1
  F  F26  1  0.46798812  0.24543313  0.49040360  1
  F  F27  1  0.52461890  0.75402412  0.99242036  1
