# generated using pymatgen
data_Li2VOF3
_symmetry_space_group_name_H-M   'P 1'
_cell_length_a   5.97229639
_cell_length_b   8.48858607
_cell_length_c   6.07555339
_cell_angle_alpha   89.99984436
_cell_angle_beta   89.99986626
_cell_angle_gamma   91.02284787
_symmetry_Int_Tables_number   1
_chemical_formula_structural   Li2VOF3
_chemical_formula_sum   'Li8 V4 O4 F12'
_cell_volume   307.95931353
_cell_formula_units_Z   4
loop_
 _symmetry_equiv_pos_site_id
 _symmetry_equiv_pos_as_xyz
  1  'x, y, z'
loop_
 _atom_site_type_symbol
 _atom_site_label
 _atom_site_symmetry_multiplicity
 _atom_site_fract_x
 _atom_site_fract_y
 _atom_site_fract_z
 _atom_site_occupancy
  Li  Li0  1  0.49999700  0.00003100  0.49999900  1
  Li  Li1  1  0.00000400  0.49996900  0.99999900  1
  Li  Li2  1  0.99999600  0.00003300  0.49999900  1
  Li  Li3  1  0.50000500  0.49996800  0.99999900  1
  Li  Li4  1  0.22129800  0.12637700  0.99999900  1
  Li  Li5  1  0.72129500  0.62634400  0.49999900  1
  Li  Li6  1  0.27870300  0.37362300  0.49999900  1
  Li  Li7  1  0.77870600  0.87365600  0.99999900  1
  V  V8  1  0.24999700  0.75000100  0.75000000  1
  V  V9  1  0.25000200  0.74999800  0.24999800  1
  V  V10  1  0.74999300  0.24999300  0.24999600  1
  V  V11  1  0.74999300  0.25000400  0.75002700  1
  O  O12  1  0.54536100  0.24474900  0.49999800  1
  O  O13  1  0.04542400  0.74473100  0.99999900  1
  O  O14  1  0.95464000  0.25525100  0.00000000  1
  O  O15  1  0.45457700  0.75526900  0.50000000  1
  F  F16  1  0.99488300  0.24556300  0.50000000  1
  F  F17  1  0.49492300  0.74553600  0.00000100  1
  F  F18  1  0.50511800  0.25443800  0.99999800  1
  F  F19  1  0.00507800  0.75446400  0.49999800  1
  F  F20  1  0.75562500  0.01252800  0.73772500  1
  F  F21  1  0.25562600  0.51256500  0.23769900  1
  F  F22  1  0.75562500  0.01252900  0.26227300  1
  F  F23  1  0.25562500  0.51256500  0.76230000  1
  F  F24  1  0.74437600  0.48747200  0.23772600  1
  F  F25  1  0.24437600  0.98743500  0.73769900  1
  F  F26  1  0.74437700  0.48747200  0.76227300  1
  F  F27  1  0.24437600  0.98743600  0.26230000  1
