# generated using pymatgen
data_Li2V2Cu(PO4)3
_symmetry_space_group_name_H-M   'P 1'
_cell_length_a   8.69565940
_cell_length_b   8.69565940
_cell_length_c   8.65761113
_cell_angle_alpha   61.33796210
_cell_angle_beta   61.33796210
_cell_angle_gamma   60.99339703
_symmetry_Int_Tables_number   1
_chemical_formula_structural   Li2V2Cu(PO4)3
_chemical_formula_sum   'Li4 V4 Cu2 P6 O24'
_cell_volume   475.62364961
_cell_formula_units_Z   2
loop_
 _symmetry_equiv_pos_site_id
 _symmetry_equiv_pos_as_xyz
  1  'x, y, z'
loop_
 _atom_site_type_symbol
 _atom_site_label
 _atom_site_symmetry_multiplicity
 _atom_site_fract_x
 _atom_site_fract_y
 _atom_site_fract_z
 _atom_site_occupancy
  Li  Li0  1  0.35000300  0.64999700  0.50000000  1
  Li  Li1  1  0.65529200  0.34470800  0.00000000  1
  Li  Li2  1  0.25176700  0.15346300  0.59424400  1
  Li  Li3  1  0.84653700  0.74823300  0.40575600  1
  V  V4  1  0.35719600  0.86008700  0.10640200  1
  V  V5  1  0.13991300  0.64280400  0.89359800  1
  V  V6  1  0.85702800  0.35131800  0.60251700  1
  V  V7  1  0.64868200  0.14297200  0.39748300  1
  Cu  Cu8  1  0.50054800  0.02015500  0.22010500  1
  Cu  Cu9  1  0.97984500  0.49945200  0.77989500  1
  P  P10  1  0.75089700  0.54567100  0.20167600  1
  P  P11  1  0.45432900  0.24910300  0.79832400  1
  P  P12  1  0.04719900  0.95280100  0.50000000  1
  P  P13  1  0.96031800  0.03968200  0.00000000  1
  P  P14  1  0.53788900  0.74742700  0.70496800  1
  P  P15  1  0.25257300  0.46211100  0.29503200  1
  O  O16  1  0.20950600  0.50384700  0.12644200  1
  O  O17  1  0.99395200  0.88426800  0.94118300  1
  O  O18  1  0.58024500  0.72708000  0.20053400  1
  O  O19  1  0.38240300  0.69948800  0.71839500  1
  O  O20  1  0.70037000  0.38449900  0.23058500  1
  O  O21  1  0.91033400  0.56964300  0.01295000  1
  O  O22  1  0.43035700  0.08966600  0.98705000  1
  O  O23  1  0.27292000  0.41975500  0.79946600  1
  O  O24  1  0.11573200  0.00604800  0.05881700  1
  O  O25  1  0.07023600  0.76149800  0.65600100  1
  O  O26  1  0.76723600  0.06432800  0.16065500  1
  O  O27  1  0.49615300  0.79049400  0.87355800  1
  O  O28  1  0.48994900  0.18877800  0.63906600  1
  O  O29  1  0.23850200  0.92976400  0.34399900  1
  O  O30  1  0.93567200  0.23276400  0.83934500  1
  O  O31  1  0.88830700  0.98495400  0.44283600  1
  O  O32  1  0.73092100  0.58425100  0.68304600  1
  O  O33  1  0.57053600  0.90837400  0.51603600  1
  O  O34  1  0.09162600  0.42946400  0.48396400  1
  O  O35  1  0.30051200  0.61759700  0.28160600  1
  O  O36  1  0.61550100  0.29963000  0.76941500  1
  O  O37  1  0.41574900  0.26907900  0.31695400  1
  O  O38  1  0.01504600  0.11169300  0.55716400  1
  O  O39  1  0.81122200  0.51005100  0.36093400  1
