# generated using pymatgen
data_Li6Bi(BO3)3
_symmetry_space_group_name_H-M   'P 1'
_cell_length_a   16.73113000
_cell_length_b   6.80006700
_cell_length_c   7.35578357
_cell_angle_alpha   74.40731870
_cell_angle_beta   90.00000000
_cell_angle_gamma   90.00000000
_symmetry_Int_Tables_number   1
_chemical_formula_structural   Li6Bi(BO3)3
_chemical_formula_sum   'Li24 Bi4 B12 O36'
_cell_volume   806.08805987
_cell_formula_units_Z   4
loop_
 _symmetry_equiv_pos_site_id
 _symmetry_equiv_pos_as_xyz
  1  'x, y, z'
loop_
 _atom_site_type_symbol
 _atom_site_label
 _atom_site_symmetry_multiplicity
 _atom_site_fract_x
 _atom_site_fract_y
 _atom_site_fract_z
 _atom_site_occupancy
  Li  Li0  1  0.00162100  0.32261100  0.07117800  1
  Li  Li1  1  0.44937100  0.42226100  0.14395800  1
  Li  Li2  1  0.49837900  0.82261100  0.07117800  1
  Li  Li3  1  0.53624500  0.05494900  0.30410000  1
  Li  Li4  1  0.05062900  0.92226100  0.14395800  1
  Li  Li5  1  0.29365100  0.36825500  0.28800900  1
  Li  Li6  1  0.96375500  0.55494900  0.30410000  1
  Li  Li7  1  0.70453100  0.05263500  0.43464400  1
  Li  Li8  1  0.03041300  0.16893100  0.45575000  1
  Li  Li9  1  0.20634900  0.86825500  0.28800900  1
  Li  Li10  1  0.79546900  0.55263500  0.43464400  1
  Li  Li11  1  0.46958700  0.66893100  0.45575000  1
  Li  Li12  1  0.53041300  0.33106900  0.54425000  1
  Li  Li13  1  0.20453100  0.44736500  0.56535600  1
  Li  Li14  1  0.79365100  0.13174500  0.71199100  1
  Li  Li15  1  0.96958700  0.83106900  0.54425000  1
  Li  Li16  1  0.29546900  0.94736500  0.56535600  1
  Li  Li17  1  0.03624500  0.44505100  0.69590000  1
  Li  Li18  1  0.70634900  0.63174500  0.71199100  1
  Li  Li19  1  0.94937100  0.07773900  0.85604200  1
  Li  Li20  1  0.46375500  0.94505100  0.69590000  1
  Li  Li21  1  0.50162100  0.17738900  0.92882200  1
  Li  Li22  1  0.55062900  0.57773900  0.85604200  1
  Li  Li23  1  0.99837900  0.67738900  0.92882200  1
  Bi  Bi24  1  0.81329400  0.34619400  0.07532000  1
  Bi  Bi25  1  0.68670600  0.84619400  0.07532000  1
  Bi  Bi26  1  0.31329400  0.15380600  0.92468000  1
  Bi  Bi27  1  0.18670600  0.65380600  0.92468000  1
  B  B28  1  0.63303600  0.34049100  0.07979400  1
  B  B29  1  0.86696400  0.84049100  0.07979400  1
  B  B30  1  0.11803900  0.49396900  0.29486800  1
  B  B31  1  0.88659700  0.18366500  0.44232300  1
  B  B32  1  0.38196100  0.99396900  0.29486800  1
  B  B33  1  0.61340300  0.68366500  0.44232300  1
  B  B34  1  0.38659700  0.31633500  0.55767700  1
  B  B35  1  0.61803900  0.00603100  0.70513200  1
  B  B36  1  0.11340300  0.81633500  0.55767700  1
  B  B37  1  0.88196100  0.50603100  0.70513200  1
  B  B38  1  0.13303600  0.15950900  0.92020600  1
  B  B39  1  0.36696400  0.65950900  0.92020600  1
  O  O40  1  0.33088300  0.47198000  0.00914200  1
  O  O41  1  0.42936700  0.03246100  0.13131800  1
  O  O42  1  0.55143000  0.32281000  0.08458200  1
  O  O43  1  0.68273000  0.17332600  0.15330800  1
  O  O44  1  0.16911700  0.97198000  0.00914200  1
  O  O45  1  0.07063300  0.53246100  0.13131800  1
  O  O46  1  0.30129500  0.04923200  0.27071200  1
  O  O47  1  0.94857000  0.82281000  0.08458200  1
  O  O48  1  0.81727000  0.67332600  0.15330800  1
  O  O49  1  0.93349800  0.26455500  0.28092200  1
  O  O50  1  0.19870500  0.54923200  0.27071200  1
  O  O51  1  0.56650200  0.76455500  0.28092200  1
  O  O52  1  0.80501100  0.22277600  0.42783600  1
  O  O53  1  0.42349800  0.42893700  0.39518900  1
  O  O54  1  0.58631400  0.09120900  0.52992000  1
  O  O55  1  0.08631400  0.40879100  0.47008000  1
  O  O56  1  0.69498900  0.72277600  0.42783600  1
  O  O57  1  0.92349800  0.07106300  0.60481100  1
  O  O58  1  0.07650200  0.92893700  0.39518900  1
  O  O59  1  0.30501100  0.27722400  0.57216400  1
  O  O60  1  0.91368600  0.59120900  0.52992000  1
  O  O61  1  0.41368600  0.90879100  0.47008000  1
  O  O62  1  0.57650200  0.57106300  0.60481100  1
  O  O63  1  0.19498900  0.77722400  0.57216400  1
  O  O64  1  0.43349800  0.23544500  0.71907800  1
  O  O65  1  0.80129500  0.45076800  0.72928800  1
  O  O66  1  0.06650200  0.73544500  0.71907800  1
  O  O67  1  0.18273000  0.32667400  0.84669200  1
  O  O68  1  0.05143000  0.17719000  0.91541800  1
  O  O69  1  0.69870500  0.95076800  0.72928800  1
  O  O70  1  0.92936700  0.46753900  0.86868200  1
  O  O71  1  0.83088300  0.02802000  0.99085800  1
  O  O72  1  0.31727000  0.82667400  0.84669200  1
  O  O73  1  0.44857000  0.67719000  0.91541800  1
  O  O74  1  0.57063300  0.96753900  0.86868200  1
  O  O75  1  0.66911700  0.52802000  0.99085800  1
