# generated using pymatgen
data_Li2VBO4
_symmetry_space_group_name_H-M   'P 1'
_cell_length_a   4.75933300
_cell_length_b   6.23912500
_cell_length_c   10.35917000
_cell_angle_alpha   90.00000000
_cell_angle_beta   90.00000000
_cell_angle_gamma   90.00000000
_symmetry_Int_Tables_number   1
_chemical_formula_structural   Li2VBO4
_chemical_formula_sum   'Li8 V4 B4 O16'
_cell_volume   307.60595542
_cell_formula_units_Z   4
loop_
 _symmetry_equiv_pos_site_id
 _symmetry_equiv_pos_as_xyz
  1  'x, y, z'
loop_
 _atom_site_type_symbol
 _atom_site_label
 _atom_site_symmetry_multiplicity
 _atom_site_fract_x
 _atom_site_fract_y
 _atom_site_fract_z
 _atom_site_occupancy
  Li  Li0  1  0.75500000  0.00187300  0.15658100  1
  Li  Li1  1  0.75462600  0.22814500  0.92776900  1
  Li  Li2  1  0.75462600  0.27185500  0.42776900  1
  Li  Li3  1  0.75500000  0.49812700  0.65658100  1
  Li  Li4  1  0.25500000  0.50187300  0.34341900  1
  Li  Li5  1  0.25462600  0.72814500  0.57223100  1
  Li  Li6  1  0.25462600  0.77185500  0.07223100  1
  Li  Li7  1  0.25500000  0.99812700  0.84341900  1
  V  V8  1  0.25194900  0.01273200  0.33882800  1
  V  V9  1  0.25194900  0.48726800  0.83882800  1
  V  V10  1  0.75194900  0.51273200  0.16117200  1
  V  V11  1  0.75194900  0.98726800  0.66117200  1
  B  B12  1  0.26640400  0.24580900  0.59020000  1
  B  B13  1  0.26640400  0.25419100  0.09020000  1
  B  B14  1  0.76640400  0.74580900  0.90980000  1
  B  B15  1  0.76640400  0.75419100  0.40980000  1
  O  O16  1  0.16187900  0.04414300  0.65626800  1
  O  O17  1  0.16329900  0.05597600  0.15717000  1
  O  O18  1  0.17058900  0.24879100  0.95199100  1
  O  O19  1  0.57937800  0.24295100  0.59624900  1
  O  O20  1  0.57937800  0.25704900  0.09624900  1
  O  O21  1  0.17058900  0.25120900  0.45199100  1
  O  O22  1  0.16329900  0.44402400  0.65717000  1
  O  O23  1  0.16187900  0.45585700  0.15626800  1
  O  O24  1  0.66187900  0.54414300  0.84373200  1
  O  O25  1  0.66329900  0.55597600  0.34283000  1
  O  O26  1  0.67058900  0.74879100  0.54800900  1
  O  O27  1  0.07937800  0.74295100  0.90375100  1
  O  O28  1  0.07937800  0.75704900  0.40375100  1
  O  O29  1  0.67058900  0.75120900  0.04800900  1
  O  O30  1  0.66329900  0.94402400  0.84283000  1
  O  O31  1  0.66187900  0.95585700  0.34373200  1
