# generated using pymatgen
data_Li3CrCo3O8
_symmetry_space_group_name_H-M   'P 1'
_cell_length_a   5.83164402
_cell_length_b   10.13864827
_cell_length_c   5.92102289
_cell_angle_alpha   106.92245947
_cell_angle_beta   119.50130469
_cell_angle_gamma   90.00048174
_symmetry_Int_Tables_number   1
_chemical_formula_structural   Li3CrCo3O8
_chemical_formula_sum   'Li6 Cr2 Co6 O16'
_cell_volume   287.14514834
_cell_formula_units_Z   2
loop_
 _symmetry_equiv_pos_site_id
 _symmetry_equiv_pos_as_xyz
  1  'x, y, z'
loop_
 _atom_site_type_symbol
 _atom_site_label
 _atom_site_symmetry_multiplicity
 _atom_site_fract_x
 _atom_site_fract_y
 _atom_site_fract_z
 _atom_site_occupancy
  Li  Li0  1  0.24966300  0.75001000  0.50008500  1
  Li  Li1  1  0.74957200  0.24999100  0.49991700  1
  Li  Li2  1  0.99945300  0.50032000  0.49940800  1
  Li  Li3  1  0.50032500  0.00010100  0.50049000  1
  Li  Li4  1  0.50004200  0.49968200  0.50059200  1
  Li  Li5  1  0.99983700  0.99989400  0.49950700  1
  Cr  Cr6  1  0.00269900  0.99999700  0.00000700  1
  Cr  Cr7  1  0.49829300  0.50000100  0.99999200  1
  Co  Co8  1  0.50115100  0.99999800  0.00000200  1
  Co  Co9  1  0.24927200  0.75021900  0.99985800  1
  Co  Co10  1  0.24941100  0.24978200  0.00015200  1
  Co  Co11  1  0.99942300  0.50000300  0.99999900  1
  Co  Co12  1  0.74933000  0.24998300  0.99976000  1
  Co  Co13  1  0.74957500  0.75001500  0.00022800  1
  O  O14  1  0.10795500  0.38200100  0.21460700  1
  O  O15  1  0.60770300  0.88228100  0.21466200  1
  O  O16  1  0.39304200  0.11771400  0.78533700  1
  O  O17  1  0.89336500  0.61799900  0.78538600  1
  O  O18  1  0.39080000  0.63196400  0.77682200  1
  O  O19  1  0.88564400  0.13193800  0.77653400  1
  O  O20  1  0.10912800  0.86806400  0.22348900  1
  O  O21  1  0.61396500  0.36803600  0.22315600  1
  O  O22  1  0.86978200  0.61391800  0.21412400  1
  O  O23  1  0.37199900  0.11481300  0.21541100  1
  O  O24  1  0.15659600  0.88519500  0.78459600  1
  O  O25  1  0.65565800  0.38609000  0.78586700  1
  O  O26  1  0.34355800  0.61501200  0.21513300  1
  O  O27  1  0.84399900  0.11381200  0.21368500  1
  O  O28  1  0.63032500  0.88618300  0.78632000  1
  O  O29  1  0.12843600  0.38498400  0.78487400  1
