# generated using pymatgen
data_Li2Cr3FeO8
_symmetry_space_group_name_H-M   'P 1'
_cell_length_a   5.25752800
_cell_length_b   7.76141369
_cell_length_c   7.83416524
_cell_angle_alpha   95.19979390
_cell_angle_beta   94.61575592
_cell_angle_gamma   108.85676171
_symmetry_Int_Tables_number   1
_chemical_formula_structural   Li2Cr3FeO8
_chemical_formula_sum   'Li4 Cr6 Fe2 O16'
_cell_volume   299.22704365
_cell_formula_units_Z   2
loop_
 _symmetry_equiv_pos_site_id
 _symmetry_equiv_pos_as_xyz
  1  'x, y, z'
loop_
 _atom_site_type_symbol
 _atom_site_label
 _atom_site_symmetry_multiplicity
 _atom_site_fract_x
 _atom_site_fract_y
 _atom_site_fract_z
 _atom_site_occupancy
  Li  Li0  1  0.99828200  0.99778600  0.00150600  1
  Li  Li1  1  0.49496900  0.50009100  0.49796900  1
  Li  Li2  1  0.25334400  0.25593800  0.75660200  1
  Li  Li3  1  0.74595000  0.74885500  0.24664300  1
  Cr  Cr4  1  0.55254400  0.06518500  0.18645300  1
  Cr  Cr5  1  0.70362900  0.18297400  0.56219700  1
  Cr  Cr6  1  0.04600100  0.56934300  0.68784400  1
  Cr  Cr7  1  0.45271700  0.92937200  0.81132400  1
  Cr  Cr8  1  0.29206400  0.81773900  0.43682100  1
  Cr  Cr9  1  0.20471500  0.68202900  0.06256500  1
  Fe  Fe10  1  0.79670100  0.32201000  0.93990200  1
  Fe  Fe11  1  0.95184900  0.43199900  0.31155500  1
  O  O12  1  0.42489600  0.14282400  0.97145100  1
  O  O13  1  0.33969900  0.02542900  0.60048100  1
  O  O14  1  0.58153500  0.27602700  0.36208200  1
  O  O15  1  0.67809900  0.39912400  0.70991400  1
  O  O16  1  0.83543200  0.53365600  0.10937400  1
  O  O17  1  0.93048900  0.65590000  0.47087400  1
  O  O18  1  0.08446500  0.77274200  0.85144500  1
  O  O19  1  0.81714900  0.10335900  0.77286400  1
  O  O20  1  0.18772900  0.90276900  0.21925800  1
  O  O21  1  0.07363000  0.35831000  0.53973200  1
  O  O22  1  0.16660700  0.46743000  0.88793300  1
  O  O23  1  0.90688200  0.20720000  0.14808200  1
  O  O24  1  0.40681800  0.71374400  0.63704900  1
  O  O25  1  0.33017500  0.61227300  0.29198900  1
  O  O26  1  0.57800200  0.85580900  0.03479700  1
  O  O27  1  0.66562700  0.97008400  0.39129100  1
