# generated using pymatgen
data_LiVP2O7
_symmetry_space_group_name_H-M   'P 1'
_cell_length_a   6.53586813
_cell_length_b   9.07597226
_cell_length_c   8.40453448
_cell_angle_alpha   90.01451100
_cell_angle_beta   89.86449136
_cell_angle_gamma   77.24962854
_symmetry_Int_Tables_number   1
_chemical_formula_structural   LiVP2O7
_chemical_formula_sum   'Li4 V4 P8 O28'
_cell_volume   486.25623613
_cell_formula_units_Z   4
loop_
 _symmetry_equiv_pos_site_id
 _symmetry_equiv_pos_as_xyz
  1  'x, y, z'
loop_
 _atom_site_type_symbol
 _atom_site_label
 _atom_site_symmetry_multiplicity
 _atom_site_fract_x
 _atom_site_fract_y
 _atom_site_fract_z
 _atom_site_occupancy
  Li  Li0  1  0.98333000  0.49255000  0.69810500  1
  Li  Li1  1  0.48397300  0.49255200  0.19802000  1
  Li  Li2  1  0.98218800  0.99247400  0.30077500  1
  Li  Li3  1  0.48277600  0.99124000  0.80159900  1
  V  V4  1  0.50134600  0.00253100  0.17740400  1
  V  V5  1  0.00088400  0.50279200  0.32278700  1
  V  V6  1  0.00202200  0.00318300  0.67680100  1
  V  V7  1  0.50162300  0.50241800  0.82263600  1
  P  P8  1  0.28576200  0.70289700  0.50296200  1
  P  P9  1  0.78618300  0.70286600  0.00314700  1
  P  P10  1  0.28548500  0.20359700  0.49699300  1
  P  P11  1  0.78675000  0.20351200  0.99708700  1
  P  P12  1  0.71994600  0.79942400  0.49286000  1
  P  P13  1  0.22078800  0.79896500  0.99282100  1
  P  P14  1  0.72067300  0.29896300  0.50687900  1
  P  P15  1  0.22151800  0.29892600  0.00766300  1
  O  O16  1  0.30664000  0.60848300  0.65557500  1
  O  O17  1  0.80541200  0.60886700  0.15609700  1
  O  O18  1  0.30562600  0.10910400  0.34425800  1
  O  O19  1  0.80788000  0.10982700  0.84381600  1
  O  O20  1  0.25396800  0.60939100  0.35622200  1
  O  O21  1  0.75540000  0.60894400  0.85644600  1
  O  O22  1  0.25424300  0.11002500  0.64406900  1
  O  O23  1  0.75491600  0.10907800  0.14322400  1
  O  O24  1  0.11843800  0.85123200  0.51135900  1
  O  O25  1  0.61940600  0.85145900  0.01023300  1
  O  O26  1  0.11901300  0.35230100  0.49028000  1
  O  O27  1  0.61979900  0.35189300  0.99002800  1
  O  O28  1  0.99576400  0.75873800  0.98097000  1
  O  O29  1  0.49453900  0.75947500  0.47901600  1
  O  O30  1  0.99591000  0.25959100  0.02043900  1
  O  O31  1  0.49520400  0.25936700  0.51879400  1
  O  O32  1  0.87111200  0.64324400  0.50100700  1
  O  O33  1  0.37242000  0.64303000  0.00083600  1
  O  O34  1  0.87225500  0.14305800  0.49860000  1
  O  O35  1  0.37258600  0.14280300  0.99923000  1
  O  O36  1  0.72880900  0.88770800  0.33805600  1
  O  O37  1  0.22898500  0.88710900  0.83800400  1
  O  O38  1  0.72840500  0.38710400  0.66182600  1
  O  O39  1  0.22945700  0.38720700  0.16248100  1
  O  O40  1  0.73019300  0.89321700  0.64352400  1
  O  O41  1  0.23197400  0.89304400  0.14328100  1
  O  O42  1  0.73284600  0.39301200  0.35657500  1
  O  O43  1  0.23355300  0.39280300  0.85721700  1
