# generated using pymatgen
data_Li2Ti4O9
_symmetry_space_group_name_H-M   'P 1'
_cell_length_a   5.07312377
_cell_length_b   5.07312377
_cell_length_c   13.97506300
_cell_angle_alpha   90.00000000
_cell_angle_beta   90.00000000
_cell_angle_gamma   119.99999706
_symmetry_Int_Tables_number   1
_chemical_formula_structural   Li2Ti4O9
_chemical_formula_sum   'Li4 Ti8 O18'
_cell_volume   311.48370778
_cell_formula_units_Z   2
loop_
 _symmetry_equiv_pos_site_id
 _symmetry_equiv_pos_as_xyz
  1  'x, y, z'
loop_
 _atom_site_type_symbol
 _atom_site_label
 _atom_site_symmetry_multiplicity
 _atom_site_fract_x
 _atom_site_fract_y
 _atom_site_fract_z
 _atom_site_occupancy
  Li  Li0  1  0.00000000  0.00000000  0.14418500  1
  Li  Li1  1  0.00000000  0.00000000  0.35581500  1
  Li  Li2  1  0.00000000  0.00000000  0.64418500  1
  Li  Li3  1  0.00000000  0.00000000  0.85581500  1
  Ti  Ti4  1  0.33333300  0.66666700  0.02485100  1
  Ti  Ti5  1  0.33333300  0.66666700  0.31239300  1
  Ti  Ti6  1  0.33333300  0.66666700  0.52485100  1
  Ti  Ti7  1  0.33333300  0.66666700  0.81239300  1
  Ti  Ti8  1  0.66666700  0.33333300  0.18760700  1
  Ti  Ti9  1  0.66666700  0.33333300  0.68760700  1
  Ti  Ti10  1  0.66666700  0.33333300  0.47514900  1
  Ti  Ti11  1  0.66666700  0.33333300  0.97514900  1
  O  O12  1  0.00000000  0.65793800  0.75000000  1
  O  O13  1  0.02486500  0.64088600  0.41864300  1
  O  O14  1  0.35911400  0.97513500  0.91864300  1
  O  O15  1  0.00000000  0.34206200  0.25000000  1
  O  O16  1  0.02486500  0.38398000  0.91864300  1
  O  O17  1  0.35911400  0.38398000  0.41864300  1
  O  O18  1  0.34206200  0.34206200  0.75000000  1
  O  O19  1  0.38398000  0.35911400  0.08135700  1
  O  O20  1  0.61602000  0.97513500  0.41864300  1
  O  O21  1  0.34206200  0.00000000  0.25000000  1
  O  O22  1  0.38398000  0.02486500  0.58135700  1
  O  O23  1  0.61602000  0.64088600  0.91864300  1
  O  O24  1  0.65793800  0.65793800  0.25000000  1
  O  O25  1  0.64088600  0.61602000  0.58135700  1
  O  O26  1  0.97513500  0.61602000  0.08135700  1
  O  O27  1  0.64088600  0.02486500  0.08135700  1
  O  O28  1  0.65793800  0.00000000  0.75000000  1
  O  O29  1  0.97513500  0.35911400  0.58135700  1
