# generated using pymatgen
data_Li3Mn2(PO3)7
_symmetry_space_group_name_H-M   'P 1'
_cell_length_a   6.79114800
_cell_length_b   7.15778050
_cell_length_c   19.32743260
_cell_angle_alpha   88.38031065
_cell_angle_beta   99.11863440
_cell_angle_gamma   114.02602105
_symmetry_Int_Tables_number   1
_chemical_formula_structural   Li3Mn2(PO3)7
_chemical_formula_sum   'Li6 Mn4 P14 O42'
_cell_volume   846.57072472
_cell_formula_units_Z   2
loop_
 _symmetry_equiv_pos_site_id
 _symmetry_equiv_pos_as_xyz
  1  'x, y, z'
loop_
 _atom_site_type_symbol
 _atom_site_label
 _atom_site_symmetry_multiplicity
 _atom_site_fract_x
 _atom_site_fract_y
 _atom_site_fract_z
 _atom_site_occupancy
  Li  Li0  1  0.25577500  0.80206100  0.75099500  1
  Li  Li1  1  0.44224400  0.23962000  0.57883600  1
  Li  Li2  1  0.82800100  0.87374600  0.87172500  1
  Li  Li3  1  0.17199900  0.12625400  0.12827500  1
  Li  Li4  1  0.55775600  0.76038000  0.42116400  1
  Li  Li5  1  0.74422500  0.19793900  0.24900500  1
  Mn  Mn6  1  0.60108000  0.81201400  0.61616800  1
  Mn  Mn7  1  0.38597500  0.14919500  0.87699000  1
  Mn  Mn8  1  0.61402500  0.85080500  0.12301000  1
  Mn  Mn9  1  0.39892000  0.18798600  0.38383200  1
  P  P10  1  0.29710600  0.72864500  0.96285800  1
  P  P11  1  0.19110200  0.77286900  0.49598900  1
  P  P12  1  0.02128000  0.69640100  0.06862800  1
  P  P13  1  0.08726000  0.42303400  0.39975600  1
  P  P14  1  0.04421300  0.10895400  0.72032900  1
  P  P15  1  0.35115000  0.82844600  0.26822500  1
  P  P16  1  0.46699500  0.46457800  0.75139300  1
  P  P17  1  0.53300500  0.53542200  0.24860700  1
  P  P18  1  0.64885000  0.17155400  0.73177500  1
  P  P19  1  0.95578700  0.89104600  0.27967100  1
  P  P20  1  0.91274000  0.57696600  0.60024400  1
  P  P21  1  0.97872000  0.30359900  0.93137200  1
  P  P22  1  0.80889800  0.22713100  0.50401100  1
  P  P23  1  0.70289400  0.27135500  0.03714200  1
  O  O24  1  0.09633300  0.75376700  0.99126700  1
  O  O25  1  0.97879100  0.71680500  0.53297300  1
  O  O26  1  0.30865500  0.82667700  0.89271800  1
  O  O27  1  0.08048000  0.65993000  0.66345900  1
  O  O28  1  0.21813300  0.48532800  0.95221700  1
  O  O29  1  0.02526600  0.12760700  0.90848100  1
  O  O30  1  0.08693800  0.64155100  0.42235900  1
  O  O31  1  0.27771800  0.99736400  0.48341200  1
  O  O32  1  0.09286400  0.77212200  0.25503500  1
  O  O33  1  0.50320800  0.79619300  0.01560600  1
  O  O34  1  0.10684900  0.99819100  0.78163600  1
  O  O35  1  0.25775300  0.29701900  0.69988900  1
  O  O36  1  0.33975000  0.68335800  0.53619900  1
  O  O37  1  0.17800100  0.62667900  0.11240900  1
  O  O38  1  0.32470400  0.45930900  0.40043000  1
  O  O39  1  0.42911200  0.43263000  0.82603100  1
  O  O40  1  0.45332700  0.91312400  0.34308800  1
  O  O41  1  0.45900100  0.95845800  0.21122900  1
  O  O42  1  0.07165400  0.01169700  0.34662100  1
  O  O43  1  0.51726100  0.67342700  0.72286300  1
  O  O44  1  0.33951700  0.60072300  0.26169200  1
  O  O45  1  0.66048300  0.39927700  0.73830800  1
  O  O46  1  0.48273900  0.32657300  0.27713700  1
  O  O47  1  0.92834600  0.98830300  0.65337900  1
  O  O48  1  0.54099900  0.04154200  0.78877100  1
  O  O49  1  0.54667300  0.08687600  0.65691200  1
  O  O50  1  0.57088800  0.56737000  0.17396900  1
  O  O51  1  0.67529600  0.54069100  0.59957000  1
  O  O52  1  0.82199900  0.37332100  0.88759100  1
  O  O53  1  0.66025000  0.31664200  0.46380100  1
  O  O54  1  0.74224700  0.70298100  0.30011100  1
  O  O55  1  0.89315100  0.00180900  0.21836400  1
  O  O56  1  0.49679200  0.20380700  0.98439400  1
  O  O57  1  0.90713600  0.22787800  0.74496500  1
  O  O58  1  0.72228200  0.00263600  0.51658800  1
  O  O59  1  0.91306200  0.35844900  0.57764100  1
  O  O60  1  0.97473400  0.87239300  0.09151900  1
  O  O61  1  0.78186700  0.51467200  0.04778300  1
  O  O62  1  0.91952000  0.34007000  0.33654100  1
  O  O63  1  0.69134500  0.17332300  0.10728200  1
  O  O64  1  0.02120900  0.28319500  0.46702700  1
  O  O65  1  0.90366700  0.24623300  0.00873300  1
