# generated using pymatgen
data_Li2VCrP2(HO5)2
_symmetry_space_group_name_H-M   'P 1'
_cell_length_a   5.17448550
_cell_length_b   10.66045989
_cell_length_c   7.36525261
_cell_angle_alpha   75.33946424
_cell_angle_beta   108.66300075
_cell_angle_gamma   82.92311724
_symmetry_Int_Tables_number   1
_chemical_formula_structural   Li2VCrP2(HO5)2
_chemical_formula_sum   'Li4 V2 Cr2 P4 H4 O20'
_cell_volume   363.03086424
_cell_formula_units_Z   2
loop_
 _symmetry_equiv_pos_site_id
 _symmetry_equiv_pos_as_xyz
  1  'x, y, z'
loop_
 _atom_site_type_symbol
 _atom_site_label
 _atom_site_symmetry_multiplicity
 _atom_site_fract_x
 _atom_site_fract_y
 _atom_site_fract_z
 _atom_site_occupancy
  Li  Li0  1  0.54589200  0.19776700  0.62604700  1
  Li  Li1  1  0.04690500  0.69722600  0.12418200  1
  Li  Li2  1  0.95315000  0.30284100  0.87575000  1
  Li  Li3  1  0.45411600  0.80230100  0.37390500  1
  V  V4  1  0.50006600  0.50003000  0.49999500  1
  V  V5  1  0.00012300  0.00000000  0.00006600  1
  Cr  Cr6  1  0.50014100  0.49983800  0.00011100  1
  Cr  Cr7  1  0.99982500  0.99995200  0.49995200  1
  P  P8  1  0.49685300  0.18114100  0.05235500  1
  P  P9  1  0.99757500  0.68091600  0.55207900  1
  P  P10  1  0.00259500  0.31898100  0.44800600  1
  P  P11  1  0.50320800  0.81882700  0.94755800  1
  H  H12  1  0.32997000  0.02961700  0.31329600  1
  H  H13  1  0.82909000  0.53058800  0.81357700  1
  H  H14  1  0.17088400  0.46948000  0.18645700  1
  H  H15  1  0.66974000  0.97043200  0.68678700  1
  O  O16  1  0.81465400  0.02397600  0.69768300  1
  O  O17  1  0.31507700  0.52339500  0.19769200  1
  O  O18  1  0.68510200  0.47656600  0.80233500  1
  O  O19  1  0.18513400  0.97604700  0.30231100  1
  O  O20  1  0.62598800  0.10194200  0.27954400  1
  O  O21  1  0.12662300  0.60173400  0.77936200  1
  O  O22  1  0.87358400  0.39824100  0.22072500  1
  O  O23  1  0.37374500  0.89811700  0.72039100  1
  O  O24  1  0.13197400  0.17104900  0.48761100  1
  O  O25  1  0.63374600  0.67101700  0.98707300  1
  O  O26  1  0.36626200  0.32890200  0.01295900  1
  O  O27  1  0.86775000  0.82882500  0.51237000  1
  O  O28  1  0.24425500  0.12707900  0.94721300  1
  O  O29  1  0.74440200  0.62723000  0.44681400  1
  O  O30  1  0.25563500  0.37281700  0.55314500  1
  O  O31  1  0.75571900  0.87298200  0.05269000  1
  O  O32  1  0.71556700  0.17039800  0.94824700  1
  O  O33  1  0.21611800  0.66985300  0.44782500  1
  O  O34  1  0.78397300  0.33022200  0.55214900  1
  O  O35  1  0.28456000  0.82967200  0.05173700  1
