# generated using pymatgen
data_Li2TiP3O10
_symmetry_space_group_name_H-M   'P 1'
_cell_length_a   8.05610100
_cell_length_b   9.98282300
_cell_length_c   12.26151743
_cell_angle_alpha   81.95703083
_cell_angle_beta   90.00000000
_cell_angle_gamma   90.00000000
_symmetry_Int_Tables_number   1
_chemical_formula_structural   Li2TiP3O10
_chemical_formula_sum   'Li8 Ti4 P12 O40'
_cell_volume   976.40359539
_cell_formula_units_Z   4
loop_
 _symmetry_equiv_pos_site_id
 _symmetry_equiv_pos_as_xyz
  1  'x, y, z'
loop_
 _atom_site_type_symbol
 _atom_site_label
 _atom_site_symmetry_multiplicity
 _atom_site_fract_x
 _atom_site_fract_y
 _atom_site_fract_z
 _atom_site_occupancy
  Li  Li0  1  0.54793000  0.61883900  0.14960700  1
  Li  Li1  1  0.95207000  0.11883900  0.14960700  1
  Li  Li2  1  0.88769600  0.08839900  0.43890200  1
  Li  Li3  1  0.61230400  0.58839900  0.43890200  1
  Li  Li4  1  0.38769600  0.41160100  0.56109800  1
  Li  Li5  1  0.11230400  0.91160100  0.56109800  1
  Li  Li6  1  0.04793000  0.88116100  0.85039300  1
  Li  Li7  1  0.45207000  0.38116100  0.85039300  1
  Ti  Ti8  1  0.14244700  0.36852100  0.16944800  1
  Ti  Ti9  1  0.35755300  0.86852100  0.16944800  1
  Ti  Ti10  1  0.64244700  0.13147900  0.83055200  1
  Ti  Ti11  1  0.85755300  0.63147900  0.83055200  1
  P  P12  1  0.42528900  0.19371100  0.06079800  1
  P  P13  1  0.07471100  0.69371100  0.06079800  1
  P  P14  1  0.57239100  0.08657800  0.26971600  1
  P  P15  1  0.92760900  0.58657800  0.26971600  1
  P  P16  1  0.21356500  0.06723200  0.33128100  1
  P  P17  1  0.28643500  0.56723200  0.33128100  1
  P  P18  1  0.71356500  0.43276800  0.66871900  1
  P  P19  1  0.78643500  0.93276800  0.66871900  1
  P  P20  1  0.07239100  0.41342200  0.73028400  1
  P  P21  1  0.42760900  0.91342200  0.73028400  1
  P  P22  1  0.92528900  0.30628900  0.93920200  1
  P  P23  1  0.57471100  0.80628900  0.93920200  1
  O  O24  1  0.32974800  0.06202100  0.08403200  1
  O  O25  1  0.99883400  0.28179400  0.05521900  1
  O  O26  1  0.33307800  0.32317700  0.07785700  1
  O  O27  1  0.17025200  0.56202100  0.08403200  1
  O  O28  1  0.50116600  0.78179400  0.05521900  1
  O  O29  1  0.16692200  0.82317700  0.07785700  1
  O  O30  1  0.57671600  0.18469600  0.15128100  1
  O  O31  1  0.92328400  0.68469600  0.15128100  1
  O  O32  1  0.11463600  0.17013100  0.24974500  1
  O  O33  1  0.94229800  0.44126100  0.24575700  1
  O  O34  1  0.27818700  0.42811100  0.29169300  1
  O  O35  1  0.38536400  0.67013100  0.24974500  1
  O  O36  1  0.55770200  0.94126100  0.24575700  1
  O  O37  1  0.22181300  0.92811100  0.29169300  1
  O  O38  1  0.40530700  0.12601000  0.33094600  1
  O  O39  1  0.72233600  0.12343700  0.32979600  1
  O  O40  1  0.09469300  0.62601000  0.33094600  1
  O  O41  1  0.77766400  0.62343700  0.32979600  1
  O  O42  1  0.14274800  0.06086200  0.44570600  1
  O  O43  1  0.35725200  0.56086200  0.44570600  1
  O  O44  1  0.64274800  0.43913800  0.55429400  1
  O  O45  1  0.85725200  0.93913800  0.55429400  1
  O  O46  1  0.22233600  0.37656300  0.67020400  1
  O  O47  1  0.90530700  0.37399000  0.66905400  1
  O  O48  1  0.27766400  0.87656300  0.67020400  1
  O  O49  1  0.59469300  0.87399000  0.66905400  1
  O  O50  1  0.77818700  0.07188900  0.70830700  1
  O  O51  1  0.44229800  0.05873900  0.75424300  1
  O  O52  1  0.61463600  0.32986900  0.75025500  1
  O  O53  1  0.72181300  0.57188900  0.70830700  1
  O  O54  1  0.05770200  0.55873900  0.75424300  1
  O  O55  1  0.88536400  0.82986900  0.75025500  1
  O  O56  1  0.07671600  0.31530400  0.84871900  1
  O  O57  1  0.42328400  0.81530400  0.84871900  1
  O  O58  1  0.83307800  0.17682300  0.92214300  1
  O  O59  1  0.49883400  0.21820600  0.94478100  1
  O  O60  1  0.82974800  0.43797900  0.91596800  1
  O  O61  1  0.66692200  0.67682300  0.92214300  1
  O  O62  1  0.00116600  0.71820600  0.94478100  1
  O  O63  1  0.67025200  0.93797900  0.91596800  1
