# generated using pymatgen
data_Li6MnV3(PO4)6
_symmetry_space_group_name_H-M   'P 1'
_cell_length_a   8.80108900
_cell_length_b   8.80239747
_cell_length_c   14.49407075
_cell_angle_alpha   73.66411468
_cell_angle_beta   73.69688276
_cell_angle_gamma   60.63199431
_symmetry_Int_Tables_number   1
_chemical_formula_structural   Li6MnV3(PO4)6
_chemical_formula_sum   'Li12 Mn2 V6 P12 O48'
_cell_volume   925.27136035
_cell_formula_units_Z   2
loop_
 _symmetry_equiv_pos_site_id
 _symmetry_equiv_pos_as_xyz
  1  'x, y, z'
loop_
 _atom_site_type_symbol
 _atom_site_label
 _atom_site_symmetry_multiplicity
 _atom_site_fract_x
 _atom_site_fract_y
 _atom_site_fract_z
 _atom_site_occupancy
  Li  Li0  1  0.14332700  0.01391400  0.11364000  1
  Li  Li1  1  0.50281400  0.99820100  0.99794700  1
  Li  Li2  1  0.23504800  0.10532600  0.63689700  1
  Li  Li3  1  0.75088300  0.25052300  0.24986900  1
  Li  Li4  1  0.35633800  0.48603100  0.38707800  1
  Li  Li5  1  0.26478500  0.39227100  0.86195700  1
  Li  Li6  1  0.73603100  0.60630500  0.13658300  1
  Li  Li7  1  0.64176900  0.51536200  0.61183900  1
  Li  Li8  1  0.24752400  0.75184400  0.74831100  1
  Li  Li9  1  0.99991000  0.50000800  0.50015700  1
  Li  Li10  1  0.76491700  0.89286300  0.36363400  1
  Li  Li11  1  0.85444300  0.98529600  0.88622600  1
  Mn  Mn12  1  0.57482900  0.07303200  0.78483100  1
  Mn  Mn13  1  0.32132100  0.82878200  0.53419700  1
  V  V14  1  0.68226300  0.17375700  0.46292200  1
  V  V15  1  0.07804800  0.56831000  0.28659800  1
  V  V16  1  0.81963300  0.32524700  0.03717100  1
  V  V17  1  0.18226900  0.67267600  0.96245200  1
  V  V18  1  0.92257400  0.43362600  0.71270600  1
  V  V19  1  0.42389800  0.93075200  0.21275000  1
  P  P20  1  0.13219900  0.33126200  0.11861600  1
  P  P21  1  0.36760800  0.16780700  0.38191000  1
  P  P22  1  0.17442200  0.07667500  0.87428500  1
  P  P23  1  0.91626100  0.11876000  0.63348000  1
  P  P24  1  0.32191400  0.43015400  0.62325600  1
  P  P25  1  0.41889200  0.61756400  0.13131700  1
  P  P26  1  0.58219200  0.38148600  0.86822300  1
  P  P27  1  0.67775800  0.57240800  0.37433700  1
  P  P28  1  0.08320200  0.88126600  0.36934100  1
  P  P29  1  0.82693000  0.92318200  0.12502700  1
  P  P30  1  0.63049000  0.83325000  0.61824200  1
  P  P31  1  0.86882400  0.66702800  0.88288200  1
  O  O32  1  0.28271900  0.14067900  0.11361500  1
  O  O33  1  0.38386900  0.08832500  0.29710500  1
  O  O34  1  0.32993300  0.05771100  0.48159200  1
  O  O35  1  0.16680100  0.44379200  0.01995000  1
  O  O36  1  0.11664400  0.40972900  0.20376400  1
  O  O37  1  0.81082600  0.10647400  0.12811200  1
  O  O38  1  0.10190200  0.19712700  0.78086200  1
  O  O39  1  0.54699500  0.17800800  0.36585700  1
  O  O40  1  0.05364100  0.14663900  0.96861000  1
  O  O41  1  0.89228400  0.03151100  0.36415100  1
  O  O42  1  0.21806700  0.35875500  0.38651900  1
  O  O43  1  0.35629100  0.06476700  0.87792800  1
  O  O44  1  0.13930600  0.44508200  0.61913800  1
  O  O45  1  0.83866400  0.13286900  0.54805100  1
  O  O46  1  0.33956400  0.63389100  0.04640600  1
  O  O47  1  0.44482000  0.35381800  0.53088700  1
  O  O48  1  0.80181600  0.08308900  0.73237100  1
  O  O49  1  0.60942400  0.46644300  0.13604900  1
  O  O50  1  0.38776300  0.31566300  0.71901700  1
  O  O51  1  0.30719000  0.58303000  0.23042100  1
  O  O52  1  0.95356700  0.31911500  0.13546600  1
  O  O53  1  0.57085600  0.20162000  0.88447200  1
  O  O54  1  0.69357700  0.38974600  0.36955600  1
  O  O55  1  0.07187400  0.70230300  0.38535000  1
  O  O56  1  0.92407900  0.30016000  0.61559800  1
  O  O57  1  0.30916500  0.61338900  0.62493900  1
  O  O58  1  0.43037600  0.79622700  0.11499800  1
  O  O59  1  0.04956500  0.67632600  0.86495300  1
  O  O60  1  0.69447400  0.41657600  0.76996900  1
  O  O61  1  0.60338100  0.69511400  0.28129600  1
  O  O62  1  0.39189600  0.53214600  0.86343900  1
  O  O63  1  0.19485000  0.91538600  0.26988200  1
  O  O64  1  0.56225400  0.63870500  0.46930100  1
  O  O65  1  0.65992600  0.36427000  0.95424000  1
  O  O66  1  0.16107900  0.86710300  0.45442100  1
  O  O67  1  0.86162300  0.55691100  0.37603700  1
  O  O68  1  0.64347000  0.93967700  0.12224100  1
  O  O69  1  0.78105600  0.64279600  0.61364400  1
  O  O70  1  0.10481600  0.97061800  0.64198100  1
  O  O71  1  0.94739700  0.85142400  0.03144900  1
  O  O72  1  0.45118300  0.82085900  0.63305700  1
  O  O73  1  0.89865100  0.80350000  0.21895900  1
  O  O74  1  0.19154500  0.89277000  0.87187400  1
  O  O75  1  0.88280100  0.59063900  0.79701600  1
  O  O76  1  0.83882700  0.54912900  0.98087100  1
  O  O77  1  0.66599800  0.94470900  0.51939000  1
  O  O78  1  0.61083500  0.91171700  0.70453100  1
  O  O79  1  0.71904200  0.85469300  0.89198000  1
