# generated using pymatgen
data_Li8Mn2O7
_symmetry_space_group_name_H-M   'P 1'
_cell_length_a   10.11888300
_cell_length_b   7.67150100
_cell_length_c   9.60093142
_cell_angle_alpha   68.59041717
_cell_angle_beta   90.00000000
_cell_angle_gamma   90.00000000
_symmetry_Int_Tables_number   1
_chemical_formula_structural   Li8Mn2O7
_chemical_formula_sum   'Li32 Mn8 O28'
_cell_volume   693.86268464
_cell_formula_units_Z   4
loop_
 _symmetry_equiv_pos_site_id
 _symmetry_equiv_pos_as_xyz
  1  'x, y, z'
loop_
 _atom_site_type_symbol
 _atom_site_label
 _atom_site_symmetry_multiplicity
 _atom_site_fract_x
 _atom_site_fract_y
 _atom_site_fract_z
 _atom_site_occupancy
  Li  Li0  1  0.52812900  0.90230700  0.92250200  1
  Li  Li1  1  0.51858800  0.88638500  0.63282600  1
  Li  Li2  1  0.26922500  0.90556400  0.54611500  1
  Li  Li3  1  0.97187100  0.90230700  0.42250200  1
  Li  Li4  1  0.04320700  0.72808000  0.69401100  1
  Li  Li5  1  0.98141200  0.88638500  0.13282600  1
  Li  Li6  1  0.72108400  0.71474700  0.58794000  1
  Li  Li7  1  0.23077500  0.90556400  0.04611500  1
  Li  Li8  1  0.51764100  0.57949100  0.86619300  1
  Li  Li9  1  0.49197800  0.65209600  0.51910400  1
  Li  Li10  1  0.45679300  0.72808000  0.19401100  1
  Li  Li11  1  0.76151600  0.49230300  0.87708500  1
  Li  Li12  1  0.77891600  0.71474700  0.08794000  1
  Li  Li13  1  0.26151600  0.50769700  0.62291500  1
  Li  Li14  1  0.98235900  0.57949100  0.36619300  1
  Li  Li15  1  0.99197800  0.34790400  0.98089600  1
  Li  Li16  1  0.00802200  0.65209600  0.01910400  1
  Li  Li17  1  0.01764100  0.42050900  0.63380700  1
  Li  Li18  1  0.73848400  0.49230300  0.37708500  1
  Li  Li19  1  0.22108400  0.28525300  0.91206000  1
  Li  Li20  1  0.23848400  0.50769700  0.12291500  1
  Li  Li21  1  0.54320700  0.27192000  0.80598900  1
  Li  Li22  1  0.50802200  0.34790400  0.48089600  1
  Li  Li23  1  0.48235900  0.42050900  0.13380700  1
  Li  Li24  1  0.76922500  0.09443600  0.95388500  1
  Li  Li25  1  0.27891600  0.28525300  0.41206000  1
  Li  Li26  1  0.01858800  0.11361500  0.86717400  1
  Li  Li27  1  0.95679300  0.27192000  0.30598900  1
  Li  Li28  1  0.02812900  0.09769300  0.57749800  1
  Li  Li29  1  0.73077500  0.09443600  0.45388500  1
  Li  Li30  1  0.48141200  0.11361500  0.36717400  1
  Li  Li31  1  0.47187100  0.09769300  0.07749800  1
  Mn  Mn32  1  0.79190700  0.89329400  0.77781300  1
  Mn  Mn33  1  0.70809300  0.89329400  0.27781300  1
  Mn  Mn34  1  0.27680900  0.69384800  0.84287600  1
  Mn  Mn35  1  0.22319100  0.69384800  0.34287600  1
  Mn  Mn36  1  0.77680900  0.30615200  0.65712400  1
  Mn  Mn37  1  0.72319100  0.30615200  0.15712400  1
  Mn  Mn38  1  0.29190700  0.10670600  0.72218700  1
  Mn  Mn39  1  0.20809300  0.10670600  0.22218700  1
  O  O40  1  0.90233600  0.89734600  0.93916300  1
  O  O41  1  0.17021500  0.90392200  0.71843200  1
  O  O42  1  0.88769300  0.87489900  0.61430300  1
  O  O43  1  0.59766400  0.89734600  0.43916300  1
  O  O44  1  0.65802700  0.73233900  0.77359500  1
  O  O45  1  0.32978500  0.90392200  0.21843200  1
  O  O46  1  0.61230700  0.87489900  0.11430300  1
  O  O47  1  0.38684900  0.67233100  0.68962200  1
  O  O48  1  0.84197300  0.73233900  0.27359500  1
  O  O49  1  0.13959100  0.52777700  0.93584300  1
  O  O50  1  0.10091800  0.65971400  0.50524300  1
  O  O51  1  0.11315100  0.67233100  0.18962200  1
  O  O52  1  0.36040900  0.52777700  0.43584300  1
  O  O53  1  0.60091800  0.34028600  0.99475700  1
  O  O54  1  0.39908200  0.65971400  0.00524300  1
  O  O55  1  0.63959100  0.47222300  0.56415700  1
  O  O56  1  0.88684900  0.32766900  0.81037800  1
  O  O57  1  0.89908200  0.34028600  0.49475700  1
  O  O58  1  0.86040900  0.47222300  0.06415700  1
  O  O59  1  0.15802700  0.26766100  0.72640500  1
  O  O60  1  0.61315100  0.32766900  0.31037800  1
  O  O61  1  0.38769300  0.12510100  0.88569700  1
  O  O62  1  0.67021500  0.09607800  0.78156800  1
  O  O63  1  0.34197300  0.26766100  0.22640500  1
  O  O64  1  0.40233600  0.10265400  0.56083700  1
  O  O65  1  0.11230700  0.12510100  0.38569700  1
  O  O66  1  0.82978500  0.09607800  0.28156800  1
  O  O67  1  0.09766400  0.10265400  0.06083700  1
