# generated using pymatgen
data_Li24Mn5Cr7O36
_symmetry_space_group_name_H-M   'P 1'
_cell_length_a   5.00496600
_cell_length_b   9.74726665
_cell_length_c   13.31092108
_cell_angle_alpha   97.17720346
_cell_angle_beta   100.57243927
_cell_angle_gamma   94.48296735
_symmetry_Int_Tables_number   1
_chemical_formula_structural   Li24Mn5Cr7O36
_chemical_formula_sum   'Li24 Mn5 Cr7 O36'
_cell_volume   629.93324539
_cell_formula_units_Z   1
loop_
 _symmetry_equiv_pos_site_id
 _symmetry_equiv_pos_as_xyz
  1  'x, y, z'
loop_
 _atom_site_type_symbol
 _atom_site_label
 _atom_site_symmetry_multiplicity
 _atom_site_fract_x
 _atom_site_fract_y
 _atom_site_fract_z
 _atom_site_occupancy
  Li  Li0  1  0.16578500  0.99934800  0.83316900  1
  Li  Li1  1  0.04553000  0.00083100  0.61256000  1
  Li  Li2  1  0.99984200  0.75029900  0.24990400  1
  Li  Li3  1  0.33334300  0.75040400  0.91590900  1
  Li  Li4  1  0.04649300  0.50107000  0.11252600  1
  Li  Li5  1  0.38148300  0.49892500  0.78022500  1
  Li  Li6  1  0.16429800  0.50015400  0.33328600  1
  Li  Li7  1  0.49825800  0.50020000  0.99911600  1
  Li  Li8  1  0.28644100  0.50001100  0.55389000  1
  Li  Li9  1  0.33483000  0.24996200  0.41666200  1
  Li  Li10  1  0.49622600  0.99987000  0.50003000  1
  Li  Li11  1  0.28472600  0.99858400  0.05423900  1
  Li  Li12  1  0.61999400  0.00060800  0.72271500  1
  Li  Li13  1  0.38422100  0.00149400  0.27973900  1
  Li  Li14  1  0.71527500  0.99946600  0.94426600  1
  Li  Li15  1  0.66837300  0.74964900  0.58313300  1
  Li  Li16  1  0.71743700  0.50076200  0.44676300  1
  Li  Li17  1  0.83549100  0.49984700  0.66685600  1
  Li  Li18  1  0.61756700  0.49931500  0.22068300  1
  Li  Li19  1  0.95182700  0.49996200  0.88652300  1
  Li  Li20  1  0.66841600  0.24980000  0.08393400  1
  Li  Li21  1  0.83661000  0.00049500  0.16593900  1
  Li  Li22  1  0.00049600  0.25041800  0.75099400  1
  Li  Li23  1  0.94919500  0.99897300  0.38696300  1
  Mn  Mn24  1  0.10803400  0.74856500  0.47180900  1
  Mn  Mn25  1  0.22212900  0.24970300  0.19535600  1
  Mn  Mn26  1  0.55797100  0.25144400  0.86149500  1
  Mn  Mn27  1  0.77906600  0.75136600  0.80588300  1
  Mn  Mn28  1  0.77447600  0.24871300  0.30453800  1
  Cr  Cr29  1  0.11445400  0.25011200  0.97476100  1
  Cr  Cr30  1  0.22775900  0.74965600  0.69320800  1
  Cr  Cr31  1  0.44205800  0.25051100  0.64165900  1
  Cr  Cr32  1  0.44347100  0.74970200  0.14106800  1
  Cr  Cr33  1  0.55761700  0.75078800  0.36335900  1
  Cr  Cr34  1  0.89322100  0.24972700  0.52508000  1
  Cr  Cr35  1  0.88840200  0.74967000  0.02524700  1
  O  O36  1  0.00090800  0.86202100  0.92751800  1
  O  O37  1  0.06940100  0.63660800  0.78418000  1
  O  O38  1  0.99641200  0.36080100  0.42786600  1
  O  O39  1  0.15214600  0.36276700  0.64206700  1
  O  O40  1  0.26629500  0.36519100  0.88085300  1
  O  O41  1  0.32875500  0.86124300  0.59579200  1
  O  O42  1  0.07101400  0.13653700  0.28545400  1
  O  O43  1  0.18214100  0.13729500  0.52429300  1
  O  O44  1  0.39942600  0.13695300  0.95055400  1
  O  O45  1  0.14908000  0.86220200  0.14229100  1
  O  O46  1  0.25764900  0.86389900  0.38234600  1
  O  O47  1  0.48120100  0.86320300  0.81107100  1
  O  O48  1  0.33537700  0.13888600  0.73826800  1
  O  O49  1  0.18352300  0.63754700  0.02436000  1
  O  O50  1  0.40226100  0.63600600  0.45155200  1
  O  O51  1  0.52089600  0.63861700  0.69137100  1
  O  O52  1  0.33768600  0.63780400  0.23876800  1
  O  O53  1  0.66645100  0.63882600  0.90282700  1
  O  O54  1  0.33046500  0.36146400  0.09629100  1
  O  O55  1  0.67025300  0.36227900  0.76399500  1
  O  O56  1  0.47566800  0.36156800  0.30990600  1
  O  O57  1  0.60016600  0.36455800  0.54921400  1
  O  O58  1  0.81152300  0.36147900  0.97529700  1
  O  O59  1  0.66439700  0.86213900  0.26418600  1
  O  O60  1  0.52384200  0.13879600  0.18974000  1
  O  O61  1  0.73238000  0.13553500  0.61644900  1
  O  O62  1  0.85571700  0.13805300  0.85681900  1
  O  O63  1  0.60256200  0.86451100  0.04952700  1
  O  O64  1  0.80875400  0.86149600  0.47611800  1
  O  O65  1  0.92970200  0.86368100  0.71486300  1
  O  O66  1  0.66313500  0.13716900  0.40146700  1
  O  O67  1  0.73165700  0.63490300  0.11721100  1
  O  O68  1  0.86154800  0.63768300  0.35707900  1
  O  O69  1  0.99618100  0.63669800  0.56884200  1
  O  O70  1  0.92870600  0.36352700  0.21468900  1
  O  O71  1  0.00190600  0.13765200  0.07338800  1
