# generated using pymatgen
data_LiV4(PO4)3
_symmetry_space_group_name_H-M   'P 1'
_cell_length_a   6.52351200
_cell_length_b   10.03811400
_cell_length_c   14.41937400
_cell_angle_alpha   90.00000000
_cell_angle_beta   90.00000000
_cell_angle_gamma   90.00000000
_symmetry_Int_Tables_number   1
_chemical_formula_structural   LiV4(PO4)3
_chemical_formula_sum   'Li4 V16 P12 O48'
_cell_volume   944.23478507
_cell_formula_units_Z   4
loop_
 _symmetry_equiv_pos_site_id
 _symmetry_equiv_pos_as_xyz
  1  'x, y, z'
loop_
 _atom_site_type_symbol
 _atom_site_label
 _atom_site_symmetry_multiplicity
 _atom_site_fract_x
 _atom_site_fract_y
 _atom_site_fract_z
 _atom_site_occupancy
  Li  Li0  1  0.05541000  0.73995700  0.25000000  1
  Li  Li1  1  0.44459000  0.23995700  0.75000000  1
  Li  Li2  1  0.55541000  0.76004300  0.25000000  1
  Li  Li3  1  0.94459000  0.26004300  0.75000000  1
  V  V4  1  0.14986500  0.45183500  0.59809400  1
  V  V5  1  0.14986500  0.45183500  0.90190600  1
  V  V6  1  0.15340000  0.84688300  0.60934600  1
  V  V7  1  0.15340000  0.84688300  0.89065400  1
  V  V8  1  0.34660000  0.34688300  0.10934600  1
  V  V9  1  0.34660000  0.34688300  0.39065400  1
  V  V10  1  0.35013500  0.95183500  0.09809400  1
  V  V11  1  0.35013500  0.95183500  0.40190600  1
  V  V12  1  0.64986500  0.04816500  0.59809400  1
  V  V13  1  0.64986500  0.04816500  0.90190600  1
  V  V14  1  0.65340000  0.65311700  0.60934600  1
  V  V15  1  0.65340000  0.65311700  0.89065400  1
  V  V16  1  0.84660000  0.15311700  0.10934600  1
  V  V17  1  0.84660000  0.15311700  0.39065400  1
  V  V18  1  0.85013500  0.54816500  0.40190600  1
  V  V19  1  0.85013500  0.54816500  0.09809400  1
  P  P20  1  0.99395100  0.40392900  0.25000000  1
  P  P21  1  0.14654200  0.13085400  0.57469600  1
  P  P22  1  0.14654200  0.13085400  0.92530400  1
  P  P23  1  0.35345800  0.63085400  0.07469600  1
  P  P24  1  0.35345800  0.63085400  0.42530400  1
  P  P25  1  0.50604900  0.90392900  0.75000000  1
  P  P26  1  0.49395100  0.09607100  0.25000000  1
  P  P27  1  0.64654200  0.36914600  0.57469600  1
  P  P28  1  0.64654200  0.36914600  0.92530400  1
  P  P29  1  0.85345800  0.86914600  0.42530400  1
  P  P30  1  0.85345800  0.86914600  0.07469600  1
  P  P31  1  0.00604900  0.59607100  0.75000000  1
  O  O32  1  0.02384000  0.96289700  0.11452900  1
  O  O33  1  0.02384000  0.96289700  0.38547100  1
  O  O34  1  0.06338800  0.44502500  0.75000000  1
  O  O35  1  0.09826300  0.65189600  0.65886700  1
  O  O36  1  0.09826300  0.65189600  0.84113300  1
  O  O37  1  0.08312000  0.20753200  0.01374100  1
  O  O38  1  0.08312000  0.20753200  0.48625900  1
  O  O39  1  0.17773300  0.52493500  0.05156500  1
  O  O40  1  0.17773300  0.52493500  0.44843500  1
  O  O41  1  0.21746900  0.23464300  0.64614200  1
  O  O42  1  0.21746900  0.23464300  0.85385800  1
  O  O43  1  0.22723400  0.38176900  0.25000000  1
  O  O44  1  0.27276600  0.88176900  0.75000000  1
  O  O45  1  0.28253100  0.73464300  0.35385800  1
  O  O46  1  0.28253100  0.73464300  0.14614200  1
  O  O47  1  0.32226700  0.02493500  0.55156500  1
  O  O48  1  0.32226700  0.02493500  0.94843500  1
  O  O49  1  0.41688000  0.70753200  0.51374100  1
  O  O50  1  0.41688000  0.70753200  0.98625900  1
  O  O51  1  0.40173700  0.15189600  0.15886700  1
  O  O52  1  0.40173700  0.15189600  0.34113300  1
  O  O53  1  0.43661200  0.94502500  0.25000000  1
  O  O54  1  0.47616000  0.46289700  0.61452900  1
  O  O55  1  0.47616000  0.46289700  0.88547100  1
  O  O56  1  0.52384000  0.53710300  0.11452900  1
  O  O57  1  0.52384000  0.53710300  0.38547100  1
  O  O58  1  0.56338800  0.05497500  0.75000000  1
  O  O59  1  0.59826300  0.84810400  0.65886700  1
  O  O60  1  0.59826300  0.84810400  0.84113300  1
  O  O61  1  0.58312000  0.29246800  0.01374100  1
  O  O62  1  0.58312000  0.29246800  0.48625900  1
  O  O63  1  0.67773300  0.97506500  0.44843500  1
  O  O64  1  0.67773300  0.97506500  0.05156500  1
  O  O65  1  0.71746900  0.26535700  0.64614200  1
  O  O66  1  0.71746900  0.26535700  0.85385800  1
  O  O67  1  0.72723400  0.11823100  0.25000000  1
  O  O68  1  0.77276600  0.61823100  0.75000000  1
  O  O69  1  0.78253100  0.76535700  0.14614200  1
  O  O70  1  0.78253100  0.76535700  0.35385800  1
  O  O71  1  0.82226700  0.47506500  0.55156500  1
  O  O72  1  0.82226700  0.47506500  0.94843500  1
  O  O73  1  0.91688000  0.79246800  0.51374100  1
  O  O74  1  0.91688000  0.79246800  0.98625900  1
  O  O75  1  0.90173700  0.34810400  0.15886700  1
  O  O76  1  0.90173700  0.34810400  0.34113300  1
  O  O77  1  0.93661200  0.55497500  0.25000000  1
  O  O78  1  0.97616000  0.03710300  0.61452900  1
  O  O79  1  0.97616000  0.03710300  0.88547100  1
