# generated using pymatgen
data_Li4Cr3Sn5O16
_symmetry_space_group_name_H-M   'P 1'
_cell_length_a   6.20590948
_cell_length_b   9.93853878
_cell_length_c   10.67663737
_cell_angle_alpha   89.71226887
_cell_angle_beta   89.99996553
_cell_angle_gamma   90.00005145
_symmetry_Int_Tables_number   1
_chemical_formula_structural   Li4Cr3Sn5O16
_chemical_formula_sum   'Li8 Cr6 Sn10 O32'
_cell_volume   658.50183450
_cell_formula_units_Z   2
loop_
 _symmetry_equiv_pos_site_id
 _symmetry_equiv_pos_as_xyz
  1  'x, y, z'
loop_
 _atom_site_type_symbol
 _atom_site_label
 _atom_site_symmetry_multiplicity
 _atom_site_fract_x
 _atom_site_fract_y
 _atom_site_fract_z
 _atom_site_occupancy
  Li  Li0  1  0.50001200  0.89026400  0.16893300  1
  Li  Li1  1  0.00001300  0.89026800  0.66893200  1
  Li  Li2  1  0.50001000  0.98856200  0.49009700  1
  Li  Li3  1  0.00000900  0.98858800  0.99007700  1
  Li  Li4  1  0.49999700  0.49754600  0.49161900  1
  Li  Li5  1  0.00000200  0.49755900  0.99163400  1
  Li  Li6  1  0.00001700  0.40424100  0.33264100  1
  Li  Li7  1  0.50001700  0.40425800  0.83264700  1
  Cr  Cr8  1  0.00003100  0.21475200  0.83150300  1
  Cr  Cr9  1  0.74482400  0.71330500  0.91535200  1
  Cr  Cr10  1  0.25519300  0.71330300  0.91535800  1
  Cr  Cr11  1  0.50004400  0.21461300  0.33152500  1
  Cr  Cr12  1  0.24480400  0.71318900  0.41538600  1
  Cr  Cr13  1  0.75521100  0.71318000  0.41540000  1
  Sn  Sn14  1  0.50001000  0.49604900  0.17087000  1
  Sn  Sn15  1  0.00000800  0.49607600  0.67085300  1
  Sn  Sn16  1  0.00000200  0.71377800  0.16930500  1
  Sn  Sn17  1  0.50000000  0.71379500  0.66929900  1
  Sn  Sn18  1  0.00000800  0.98560100  0.34111200  1
  Sn  Sn19  1  0.50001100  0.98563900  0.84111400  1
  Sn  Sn20  1  0.74688600  0.21555500  0.08543600  1
  Sn  Sn21  1  0.24686700  0.21555800  0.58542400  1
  Sn  Sn22  1  0.25313600  0.21555500  0.08544900  1
  Sn  Sn23  1  0.75315000  0.21556000  0.58543600  1
  O  O24  1  0.50000700  0.34518100  0.01629800  1
  O  O25  1  0.00000700  0.34519100  0.51628400  1
  O  O26  1  0.50001900  0.10361800  0.17087700  1
  O  O27  1  0.00001800  0.10366100  0.67090000  1
  O  O28  1  0.50001500  0.31432700  0.49585800  1
  O  O29  1  0.00001800  0.31435400  0.99587300  1
  O  O30  1  0.50000200  0.80614600  0.49553000  1
  O  O31  1  0.00000700  0.80618100  0.99552800  1
  O  O32  1  0.00000900  0.09448000  0.16143900  1
  O  O33  1  0.50000800  0.09449700  0.66142000  1
  O  O34  1  0.50000500  0.60272500  0.33809400  1
  O  O35  1  0.00000900  0.60274600  0.83808000  1
  O  O36  1  0.00000300  0.60742700  0.33756700  1
  O  O37  1  0.50000800  0.60746800  0.83754800  1
  O  O38  1  0.00000700  0.83022800  0.48358300  1
  O  O39  1  0.50001300  0.83026000  0.98356600  1
  O  O40  1  0.75813600  0.59633500  0.07820600  1
  O  O41  1  0.25815000  0.59631600  0.57820600  1
  O  O42  1  0.24187300  0.59633200  0.07821100  1
  O  O43  1  0.74185200  0.59631000  0.57821100  1
  O  O44  1  0.72396800  0.34444400  0.24087300  1
  O  O45  1  0.22395800  0.34447500  0.74086100  1
  O  O46  1  0.27607600  0.34444000  0.24088200  1
  O  O47  1  0.77609000  0.34447100  0.74087300  1
  O  O48  1  0.22576600  0.83823600  0.26234000  1
  O  O49  1  0.72577900  0.83825700  0.76231800  1
  O  O50  1  0.77424500  0.83823500  0.26234600  1
  O  O51  1  0.27423200  0.83825800  0.76232400  1
  O  O52  1  0.25890100  0.09853800  0.42013600  1
  O  O53  1  0.75896300  0.09860700  0.92010400  1
  O  O54  1  0.74112600  0.09853600  0.42014600  1
  O  O55  1  0.24106600  0.09860200  0.92011300  1
