# generated using pymatgen
data_Li4FeNi3(PO4)4
_symmetry_space_group_name_H-M   'P 1'
_cell_length_a   5.97581400
_cell_length_b   4.73186700
_cell_length_c   10.18402746
_cell_angle_alpha   89.96936057
_cell_angle_beta   90.00000000
_cell_angle_gamma   90.00000000
_symmetry_Int_Tables_number   1
_chemical_formula_structural   Li4FeNi3(PO4)4
_chemical_formula_sum   'Li4 Fe1 Ni3 P4 O16'
_cell_volume   287.97122914
_cell_formula_units_Z   1
loop_
 _symmetry_equiv_pos_site_id
 _symmetry_equiv_pos_as_xyz
  1  'x, y, z'
loop_
 _atom_site_type_symbol
 _atom_site_label
 _atom_site_symmetry_multiplicity
 _atom_site_fract_x
 _atom_site_fract_y
 _atom_site_fract_z
 _atom_site_occupancy
  Li  Li0  1  0.24999700  0.00008300  0.99887800  1
  Li  Li1  1  0.75000300  0.00008300  0.99887800  1
  Li  Li2  1  0.74920100  0.49987100  0.50145300  1
  Li  Li3  1  0.25079900  0.49987100  0.50145300  1
  Fe  Fe4  1  0.00000000  0.97676200  0.27812600  1
  Ni  Ni5  1  0.50000000  0.01917800  0.72484100  1
  Ni  Ni6  1  0.50000000  0.47948200  0.22244300  1
  Ni  Ni7  1  0.00000000  0.52063800  0.77633200  1
  P  P8  1  0.00000000  0.08559300  0.59650600  1
  P  P9  1  0.00000000  0.41546500  0.09161600  1
  P  P10  1  0.50000000  0.58382700  0.90536900  1
  P  P11  1  0.50000000  0.91517400  0.40677800  1
  O  O12  1  0.00000000  0.20457000  0.45461300  1
  O  O13  1  0.20661100  0.22563500  0.66690900  1
  O  O14  1  0.79338900  0.22563500  0.66690900  1
  O  O15  1  0.50000000  0.23974400  0.39937000  1
  O  O16  1  0.50000000  0.25981100  0.90022100  1
  O  O17  1  0.20775300  0.27804800  0.16243400  1
  O  O18  1  0.79224700  0.27804800  0.16243400  1
  O  O19  1  0.00000000  0.29609900  0.94976100  1
  O  O20  1  0.50000000  0.70162900  0.04820100  1
  O  O21  1  0.70584600  0.72504400  0.83458300  1
  O  O22  1  0.29415400  0.72504400  0.83458300  1
  O  O23  1  0.00000000  0.73874700  0.09645400  1
  O  O24  1  0.00000000  0.76117600  0.60083800  1
  O  O25  1  0.70397100  0.77245500  0.33543600  1
  O  O26  1  0.29602900  0.77245500  0.33543600  1
  O  O27  1  0.50000000  0.79983100  0.54915000  1
