# generated using pymatgen
data_LiNi5O3F5
_symmetry_space_group_name_H-M   'P 1'
_cell_length_a   6.04847327
_cell_length_b   6.04748445
_cell_length_c   10.58730964
_cell_angle_alpha   106.51590022
_cell_angle_beta   73.48626348
_cell_angle_gamma   119.97103549
_symmetry_Int_Tables_number   1
_chemical_formula_structural   LiNi5O3F5
_chemical_formula_sum   'Li2 Ni10 O6 F10'
_cell_volume   316.88472484
_cell_formula_units_Z   2
loop_
 _symmetry_equiv_pos_site_id
 _symmetry_equiv_pos_as_xyz
  1  'x, y, z'
loop_
 _atom_site_type_symbol
 _atom_site_label
 _atom_site_symmetry_multiplicity
 _atom_site_fract_x
 _atom_site_fract_y
 _atom_site_fract_z
 _atom_site_occupancy
  Li  Li0  1  0.62274400  0.37715300  0.13189100  1
  Li  Li1  1  0.12273100  0.87728100  0.63110500  1
  Ni  Ni2  1  0.50774800  0.49226500  0.47586200  1
  Ni  Ni3  1  0.00853600  0.99156900  0.97498400  1
  Ni  Ni4  1  0.81601900  0.18445200  0.55159100  1
  Ni  Ni5  1  0.05640600  0.94426400  0.32167100  1
  Ni  Ni6  1  0.55589000  0.44388500  0.82196400  1
  Ni  Ni7  1  0.31679700  0.68335200  0.05121800  1
  Ni  Ni8  1  0.05558900  0.43376400  0.32194400  1
  Ni  Ni9  1  0.55576700  0.93403500  0.82216700  1
  Ni  Ni10  1  0.56639600  0.94405400  0.32198500  1
  Ni  Ni11  1  0.06599700  0.44403900  0.82208900  1
  O  O12  1  0.70174100  0.29802700  0.42852400  1
  O  O13  1  0.20205200  0.79770500  0.92914300  1
  O  O14  1  0.70271300  0.83335400  0.42883200  1
  O  O15  1  0.20199200  0.33311100  0.92927900  1
  O  O16  1  0.16669400  0.29760600  0.42878300  1
  O  O17  1  0.66673400  0.79797400  0.92925100  1
  F  F18  1  0.18934000  0.81059600  0.43183200  1
  F  F19  1  0.68916100  0.31068200  0.93179100  1
  F  F20  1  0.93413900  0.06583200  0.19771200  1
  F  F21  1  0.43418000  0.56573000  0.69796500  1
  F  F22  1  0.42148200  0.57839000  0.19473100  1
  F  F23  1  0.92099200  0.07898100  0.69482200  1
  F  F24  1  0.96292000  0.57888000  0.19462800  1
  F  F25  1  0.46254200  0.07857300  0.69481800  1
  F  F26  1  0.42118600  0.03697700  0.19461300  1
  F  F27  1  0.92150600  0.53747800  0.69481100  1
