# generated using pymatgen
data_Li6Mn2O5F2
_symmetry_space_group_name_H-M   'P 1'
_cell_length_a   5.87109500
_cell_length_b   5.88297569
_cell_length_c   9.91427516
_cell_angle_alpha   95.43912949
_cell_angle_beta   93.55901840
_cell_angle_gamma   118.10458808
_symmetry_Int_Tables_number   1
_chemical_formula_structural   Li6Mn2O5F2
_chemical_formula_sum   'Li12 Mn4 O10 F4'
_cell_volume   298.46811449
_cell_formula_units_Z   2
loop_
 _symmetry_equiv_pos_site_id
 _symmetry_equiv_pos_as_xyz
  1  'x, y, z'
loop_
 _atom_site_type_symbol
 _atom_site_label
 _atom_site_symmetry_multiplicity
 _atom_site_fract_x
 _atom_site_fract_y
 _atom_site_fract_z
 _atom_site_occupancy
  Li  Li0  1  0.79044200  0.86870200  0.90809000  1
  Li  Li1  1  0.52877400  0.86650500  0.39261800  1
  Li  Li2  1  0.09230900  0.89318900  0.42051000  1
  Li  Li3  1  0.32033700  0.87791500  0.90178800  1
  Li  Li4  1  0.66913300  0.58499500  0.10890700  1
  Li  Li5  1  0.91852400  0.58017200  0.60475100  1
  Li  Li6  1  0.08147600  0.41982800  0.39524900  1
  Li  Li7  1  0.33086700  0.41500500  0.89109300  1
  Li  Li8  1  0.67966300  0.12208500  0.09821200  1
  Li  Li9  1  0.90769100  0.10681100  0.57949000  1
  Li  Li10  1  0.47122600  0.13349500  0.60738200  1
  Li  Li11  1  0.20955800  0.13129800  0.09191000  1
  Mn  Mn12  1  0.20434800  0.62025300  0.11908600  1
  Mn  Mn13  1  0.44076300  0.60650300  0.62284500  1
  Mn  Mn14  1  0.55923700  0.39349700  0.37715500  1
  Mn  Mn15  1  0.79565200  0.37974700  0.88091400  1
  O  O16  1  0.49607900  0.75412700  0.02205200  1
  O  O17  1  0.26332100  0.74881600  0.52594000  1
  O  O18  1  0.74844900  0.73570000  0.48591100  1
  O  O19  1  0.36911800  0.49985900  0.25104100  1
  O  O20  1  0.01834600  0.75115200  0.00884800  1
  O  O21  1  0.98165400  0.24884800  0.99115200  1
  O  O22  1  0.63088200  0.50014100  0.74895900  1
  O  O23  1  0.25155100  0.26430000  0.51408900  1
  O  O24  1  0.73667900  0.25118400  0.47406000  1
  O  O25  1  0.50392100  0.24587300  0.97794800  1
  F  F26  1  0.89876400  0.50946700  0.23837300  1
  F  F27  1  0.10123600  0.49053300  0.76162700  1
  F  F28  1  0.36535800  0.03008200  0.25891100  1
  F  F29  1  0.63464200  0.96991800  0.74108900  1
