# generated using pymatgen
data_Li4MnV3(P2O7)4
_symmetry_space_group_name_H-M   'P 1'
_cell_length_a   4.87726000
_cell_length_b   8.29197613
_cell_length_c   13.36768970
_cell_angle_alpha   90.48543009
_cell_angle_beta   91.41418807
_cell_angle_gamma   90.34707376
_symmetry_Int_Tables_number   1
_chemical_formula_structural   Li4MnV3(P2O7)4
_chemical_formula_sum   'Li4 Mn1 V3 P8 O28'
_cell_volume   540.42307469
_cell_formula_units_Z   1
loop_
 _symmetry_equiv_pos_site_id
 _symmetry_equiv_pos_as_xyz
  1  'x, y, z'
loop_
 _atom_site_type_symbol
 _atom_site_label
 _atom_site_symmetry_multiplicity
 _atom_site_fract_x
 _atom_site_fract_y
 _atom_site_fract_z
 _atom_site_occupancy
  Li  Li0  1  0.16084100  0.63968800  0.33732900  1
  Li  Li1  1  0.33728500  0.13870100  0.16324100  1
  Li  Li2  1  0.66004900  0.63886100  0.83737200  1
  Li  Li3  1  0.83887900  0.13751000  0.66216600  1
  Mn  Mn4  1  0.15006600  0.00071100  0.36577300  1
  V  V5  1  0.35096000  0.50132800  0.13591200  1
  V  V6  1  0.64849600  0.00009000  0.86427200  1
  V  V7  1  0.85099200  0.49949800  0.63638700  1
  P  P8  1  0.13900500  0.81959000  0.73826100  1
  P  P9  1  0.17113600  0.21672100  0.95679000  1
  P  P10  1  0.33204500  0.71255600  0.54329900  1
  P  P11  1  0.36074900  0.31903900  0.76112400  1
  P  P12  1  0.64054200  0.82279900  0.23931300  1
  P  P13  1  0.66958300  0.21576300  0.45573500  1
  P  P14  1  0.83041700  0.71587900  0.04324200  1
  P  P15  1  0.86107800  0.31991700  0.25894400  1
  O  O16  1  0.00131400  0.15820100  0.24731600  1
  O  O17  1  0.05335700  0.46412200  0.24132200  1
  O  O18  1  0.09413200  0.32163100  0.69774400  1
  O  O19  1  0.14343300  0.56313000  0.54347600  1
  O  O20  1  0.12387600  0.67532400  0.07434000  1
  O  O21  1  0.22027200  0.84592600  0.62336700  1
  O  O22  1  0.19117200  0.30458500  0.05685600  1
  O  O23  1  0.28239700  0.34715800  0.87654700  1
  O  O24  1  0.31727600  0.79551300  0.44283200  1
  O  O25  1  0.35577600  0.06698900  0.95760800  1
  O  O26  1  0.36962500  0.17546800  0.42772500  1
  O  O27  1  0.40488600  0.82234500  0.80241600  1
  O  O28  1  0.44818500  0.96461900  0.25941500  1
  O  O29  1  0.50426700  0.15593600  0.75275000  1
  O  O30  1  0.49635900  0.65907000  0.24688100  1
  O  O31  1  0.55488100  0.46077800  0.74137100  1
  O  O32  1  0.59083300  0.32584600  0.19741600  1
  O  O33  1  0.62460800  0.67341100  0.57718500  1
  O  O34  1  0.64235300  0.56653800  0.04207100  1
  O  O35  1  0.68784700  0.30447500  0.55616500  1
  O  O36  1  0.72153300  0.84805600  0.12399800  1
  O  O37  1  0.80993300  0.80262300  0.94315200  1
  O  O38  1  0.78168400  0.34445000  0.37542300  1
  O  O39  1  0.87645000  0.17603100  0.92538400  1
  O  O40  1  0.85409100  0.06609800  0.45838100  1
  O  O41  1  0.90689800  0.82439700  0.30415500  1
  O  O42  1  0.94581000  0.96109700  0.75875100  1
  O  O43  1  0.99462700  0.65637400  0.74679100  1
