# generated using pymatgen
data_LiP3(WO6)2
_symmetry_space_group_name_H-M   'P 1'
_cell_length_a   8.99005500
_cell_length_b   8.67724300
_cell_length_c   14.95186866
_cell_angle_alpha   55.44763928
_cell_angle_beta   90.00000000
_cell_angle_gamma   90.00000000
_symmetry_Int_Tables_number   1
_chemical_formula_structural   LiP3(WO6)2
_chemical_formula_sum   'Li4 P12 W8 O48'
_cell_volume   960.63909414
_cell_formula_units_Z   4
loop_
 _symmetry_equiv_pos_site_id
 _symmetry_equiv_pos_as_xyz
  1  'x, y, z'
loop_
 _atom_site_type_symbol
 _atom_site_label
 _atom_site_symmetry_multiplicity
 _atom_site_fract_x
 _atom_site_fract_y
 _atom_site_fract_z
 _atom_site_occupancy
  Li  Li0  1  0.78127900  0.98767200  0.32384600  1
  Li  Li1  1  0.28127900  0.01232800  0.17615400  1
  Li  Li2  1  0.71872100  0.98767200  0.82384600  1
  Li  Li3  1  0.21872100  0.01232800  0.67615400  1
  P  P4  1  0.25107000  0.45785500  0.00787000  1
  P  P5  1  0.38206200  0.74771100  0.64806300  1
  P  P6  1  0.11039200  0.03345400  0.35641400  1
  P  P7  1  0.61039200  0.96654600  0.14358600  1
  P  P8  1  0.88206200  0.25228900  0.85193700  1
  P  P9  1  0.75107000  0.54214500  0.49213000  1
  P  P10  1  0.24893000  0.45785500  0.50787000  1
  P  P11  1  0.11793800  0.74771100  0.14806300  1
  P  P12  1  0.38960800  0.03345400  0.85641400  1
  P  P13  1  0.88960800  0.96654600  0.64358600  1
  P  P14  1  0.61793800  0.25228900  0.35193700  1
  P  P15  1  0.74893000  0.54214500  0.99213000  1
  W  W16  1  0.53196500  0.37034700  0.88181900  1
  W  W17  1  0.96242400  0.14213900  0.11369000  1
  W  W18  1  0.03196500  0.62965300  0.61818100  1
  W  W19  1  0.46242400  0.85786100  0.38631000  1
  W  W20  1  0.53757600  0.14213900  0.61369000  1
  W  W21  1  0.96803500  0.37034700  0.38181900  1
  W  W22  1  0.03757600  0.85786100  0.88631000  1
  W  W23  1  0.46803500  0.62965300  0.11818100  1
  O  O24  1  0.86840200  0.39004400  0.05928300  1
  O  O25  1  0.88507900  0.80928600  0.62514400  1
  O  O26  1  0.58406900  0.09627500  0.33266400  1
  O  O27  1  0.68485900  0.52015800  0.90367600  1
  O  O28  1  0.36807800  0.47710900  0.92917000  1
  O  O29  1  0.21391100  0.71827000  0.66726400  1
  O  O30  1  0.42523800  0.81991300  0.53124300  1
  O  O31  1  0.98864800  0.07858300  0.26922200  1
  O  O32  1  0.17807800  0.26103500  0.06809400  1
  O  O33  1  0.26177000  0.01083000  0.31563600  1
  O  O34  1  0.06370600  0.84684700  0.45960500  1
  O  O35  1  0.47666500  0.57297700  0.72568100  1
  O  O36  1  0.97666500  0.42702300  0.77431900  1
  O  O37  1  0.56370600  0.15315300  0.04039500  1
  O  O38  1  0.76177000  0.98917000  0.18436400  1
  O  O39  1  0.67807800  0.73896500  0.43190600  1
  O  O40  1  0.92523800  0.18008700  0.96875700  1
  O  O41  1  0.48864800  0.92141700  0.23077800  1
  O  O42  1  0.71391100  0.28173000  0.83273600  1
  O  O43  1  0.86807800  0.52289100  0.57083000  1
  O  O44  1  0.18485900  0.47984200  0.59632400  1
  O  O45  1  0.38507900  0.19071400  0.87485600  1
  O  O46  1  0.08406900  0.90372500  0.16733600  1
  O  O47  1  0.36840200  0.60995600  0.44071700  1
  O  O48  1  0.63159800  0.39004400  0.55928300  1
  O  O49  1  0.91593100  0.09627500  0.83266400  1
  O  O50  1  0.61492100  0.80928600  0.12514400  1
  O  O51  1  0.81514100  0.52015800  0.40367600  1
  O  O52  1  0.13192200  0.47710900  0.42917000  1
  O  O53  1  0.28608900  0.71827000  0.16726400  1
  O  O54  1  0.51135200  0.07858300  0.76922200  1
  O  O55  1  0.07476200  0.81991300  0.03124300  1
  O  O56  1  0.32192200  0.26103500  0.56809400  1
  O  O57  1  0.23823000  0.01083000  0.81563600  1
  O  O58  1  0.43629400  0.84684700  0.95960500  1
  O  O59  1  0.02333500  0.57297700  0.22568100  1
  O  O60  1  0.52333500  0.42702300  0.27431900  1
  O  O61  1  0.93629400  0.15315300  0.54039500  1
  O  O62  1  0.73823000  0.98917000  0.68436400  1
  O  O63  1  0.82192200  0.73896500  0.93190600  1
  O  O64  1  0.01135200  0.92141700  0.73077800  1
  O  O65  1  0.57476200  0.18008700  0.46875700  1
  O  O66  1  0.78608900  0.28173000  0.33273600  1
  O  O67  1  0.63192200  0.52289100  0.07083000  1
  O  O68  1  0.31514100  0.47984200  0.09632400  1
  O  O69  1  0.41593100  0.90372500  0.66733600  1
  O  O70  1  0.11492100  0.19071400  0.37485600  1
  O  O71  1  0.13159800  0.60995600  0.94071700  1
