# generated using pymatgen
data_Li4VCr3O8
_symmetry_space_group_name_H-M   'P 1'
_cell_length_a   5.15105200
_cell_length_b   7.86814830
_cell_length_c   7.86954289
_cell_angle_alpha   94.18395814
_cell_angle_beta   96.35372483
_cell_angle_gamma   108.79106720
_symmetry_Int_Tables_number   1
_chemical_formula_structural   Li4VCr3O8
_chemical_formula_sum   'Li8 V2 Cr6 O16'
_cell_volume   298.08597584
_cell_formula_units_Z   2
loop_
 _symmetry_equiv_pos_site_id
 _symmetry_equiv_pos_as_xyz
  1  'x, y, z'
loop_
 _atom_site_type_symbol
 _atom_site_label
 _atom_site_symmetry_multiplicity
 _atom_site_fract_x
 _atom_site_fract_y
 _atom_site_fract_z
 _atom_site_occupancy
  Li  Li0  1  0.62573900  0.62397900  0.87512900  1
  Li  Li1  1  0.87411400  0.87466800  0.62338100  1
  Li  Li2  1  0.75055100  0.74887500  0.25019300  1
  Li  Li3  1  0.24944900  0.25112500  0.74980700  1
  Li  Li4  1  0.12588600  0.12533200  0.37661900  1
  Li  Li5  1  0.00000000  0.00000000  0.00000000  1
  Li  Li6  1  0.50000000  0.50000000  0.50000000  1
  Li  Li7  1  0.37426100  0.37602100  0.12487100  1
  V  V8  1  0.43789500  0.93792100  0.81359300  1
  V  V9  1  0.56210500  0.06207900  0.18640700  1
  Cr  Cr10  1  0.31191600  0.81219900  0.43758800  1
  Cr  Cr11  1  0.18593800  0.68622900  0.06301400  1
  Cr  Cr12  1  0.68808400  0.18780100  0.56241200  1
  Cr  Cr13  1  0.06218000  0.56267200  0.68750800  1
  Cr  Cr14  1  0.93782000  0.43732800  0.31249200  1
  Cr  Cr15  1  0.81406200  0.31377100  0.93698600  1
  O  O16  1  0.04693700  0.77434900  0.84605000  1
  O  O17  1  0.44800600  0.72297000  0.65522600  1
  O  O18  1  0.92695700  0.65147900  0.47002100  1
  O  O19  1  0.82845200  0.10129700  0.78000500  1
  O  O20  1  0.30204300  0.02719000  0.59410900  1
  O  O21  1  0.17154800  0.89870300  0.21999500  1
  O  O22  1  0.69795700  0.97281000  0.40589100  1
  O  O23  1  0.67708400  0.40163100  0.71889000  1
  O  O24  1  0.55199400  0.27703000  0.34477400  1
  O  O25  1  0.57460300  0.84542300  0.03083200  1
  O  O26  1  0.07304300  0.34852100  0.52997900  1
  O  O27  1  0.42539700  0.15457700  0.96916800  1
  O  O28  1  0.95306300  0.22565100  0.15395000  1
  O  O29  1  0.80153100  0.52597000  0.09511900  1
  O  O30  1  0.32291600  0.59836900  0.28111000  1
  O  O31  1  0.19846900  0.47403000  0.90488100  1
