# generated using pymatgen
data_Li3Cr(PO4)2
_symmetry_space_group_name_H-M   'P 1'
_cell_length_a   5.34321200
_cell_length_b   6.72233000
_cell_length_c   8.51130867
_cell_angle_alpha   84.03586005
_cell_angle_beta   90.00000000
_cell_angle_gamma   90.00000000
_symmetry_Int_Tables_number   1
_chemical_formula_structural   Li3Cr(PO4)2
_chemical_formula_sum   'Li6 Cr2 P4 O16'
_cell_volume   304.06148123
_cell_formula_units_Z   2
loop_
 _symmetry_equiv_pos_site_id
 _symmetry_equiv_pos_as_xyz
  1  'x, y, z'
loop_
 _atom_site_type_symbol
 _atom_site_label
 _atom_site_symmetry_multiplicity
 _atom_site_fract_x
 _atom_site_fract_y
 _atom_site_fract_z
 _atom_site_occupancy
  Li  Li0  1  0.75000000  0.67305500  0.99420800  1
  Li  Li1  1  0.25000000  0.57899300  0.30504700  1
  Li  Li2  1  0.75000000  0.26355400  0.36669200  1
  Li  Li3  1  0.25000000  0.73644600  0.63330800  1
  Li  Li4  1  0.75000000  0.42100700  0.69495300  1
  Li  Li5  1  0.25000000  0.32694500  0.00579200  1
  Cr  Cr6  1  0.25000000  0.02118400  0.24644300  1
  Cr  Cr7  1  0.75000000  0.97881600  0.75355700  1
  P  P8  1  0.75000000  0.21627000  0.06055700  1
  P  P9  1  0.75000000  0.74730000  0.40181800  1
  P  P10  1  0.25000000  0.25270000  0.59818200  1
  P  P11  1  0.25000000  0.78373000  0.93944300  1
  O  O12  1  0.75000000  0.02400300  0.97905900  1
  O  O13  1  0.25000000  0.59716100  0.05813400  1
  O  O14  1  0.51929600  0.22505400  0.17489900  1
  O  O15  1  0.98070400  0.22505400  0.17489900  1
  O  O16  1  0.50753700  0.80750900  0.30569700  1
  O  O17  1  0.99246300  0.80750900  0.30569700  1
  O  O18  1  0.75000000  0.51929900  0.43750500  1
  O  O19  1  0.25000000  0.14316600  0.44815900  1
  O  O20  1  0.75000000  0.85683400  0.55184100  1
  O  O21  1  0.25000000  0.48070100  0.56249500  1
  O  O22  1  0.00753700  0.19249100  0.69430300  1
  O  O23  1  0.49246300  0.19249100  0.69430300  1
  O  O24  1  0.01929600  0.77494600  0.82510100  1
  O  O25  1  0.48070400  0.77494600  0.82510100  1
  O  O26  1  0.75000000  0.40283900  0.94186600  1
  O  O27  1  0.25000000  0.97599700  0.02094100  1
