# generated using pymatgen
data_LiMnO2
_symmetry_space_group_name_H-M   'P 1'
_cell_length_a   5.19861841
_cell_length_b   10.20588194
_cell_length_c   7.97993006
_cell_angle_alpha   71.16089116
_cell_angle_beta   77.47109593
_cell_angle_gamma   98.34761674
_symmetry_Int_Tables_number   1
_chemical_formula_structural   LiMnO2
_chemical_formula_sum   'Li10 Mn10 O20'
_cell_volume   380.40145680
_cell_formula_units_Z   10
loop_
 _symmetry_equiv_pos_site_id
 _symmetry_equiv_pos_as_xyz
  1  'x, y, z'
loop_
 _atom_site_type_symbol
 _atom_site_label
 _atom_site_symmetry_multiplicity
 _atom_site_fract_x
 _atom_site_fract_y
 _atom_site_fract_z
 _atom_site_occupancy
  Li  Li0  1  0.99999600  0.00000300  0.49998300  1
  Li  Li1  1  0.49998200  0.49999400  0.99999900  1
  Li  Li2  1  0.59059100  0.09753600  0.30918300  1
  Li  Li3  1  0.09057300  0.59754900  0.80917500  1
  Li  Li4  1  0.40936700  0.90244900  0.69082100  1
  Li  Li5  1  0.90940100  0.40242900  0.19084500  1
  Li  Li6  1  0.70574100  0.19792100  0.57163100  1
  Li  Li7  1  0.20572100  0.69792700  0.07162300  1
  Li  Li8  1  0.29423900  0.80206600  0.42834200  1
  Li  Li9  1  0.79424200  0.30205300  0.92838800  1
  Mn  Mn10  1  0.50029700  0.00010900  0.99999200  1
  Mn  Mn11  1  0.80188600  0.79721600  0.89270400  1
  Mn  Mn12  1  0.19811200  0.20276900  0.10730000  1
  Mn  Mn13  1  0.59862900  0.60188700  0.29100600  1
  Mn  Mn14  1  0.40134000  0.39809300  0.70896900  1
  Mn  Mn15  1  0.00010200  0.50004400  0.50013000  1
  Mn  Mn16  1  0.30190400  0.29725800  0.39271100  1
  Mn  Mn17  1  0.69805100  0.70276400  0.60727800  1
  Mn  Mn18  1  0.09868500  0.10189500  0.79098400  1
  Mn  Mn19  1  0.90133900  0.89807200  0.20897400  1
  O  O20  1  0.62120400  0.39069800  0.44185800  1
  O  O21  1  0.12113400  0.89067900  0.94181500  1
  O  O22  1  0.37875500  0.60929300  0.55814900  1
  O  O23  1  0.87881500  0.10931200  0.05816200  1
  O  O24  1  0.05812300  0.30539300  0.61880500  1
  O  O25  1  0.55809100  0.80539700  0.11873000  1
  O  O26  1  0.94183900  0.69458800  0.38124500  1
  O  O27  1  0.44193300  0.19463400  0.88122200  1
  O  O28  1  0.99062300  0.20346600  0.33609200  1
  O  O29  1  0.49050700  0.70344500  0.83608900  1
  O  O30  1  0.00940200  0.79652600  0.66386900  1
  O  O31  1  0.50949900  0.29654900  0.16388400  1
  O  O32  1  0.27410200  0.01023300  0.22650700  1
  O  O33  1  0.77400300  0.51021000  0.72660600  1
  O  O34  1  0.72592700  0.98978200  0.77343500  1
  O  O35  1  0.22588200  0.48977700  0.27353600  1
  O  O36  1  0.34762800  0.11696800  0.53633900  1
  O  O37  1  0.84756100  0.61697600  0.03629600  1
  O  O38  1  0.65236400  0.88302000  0.46365300  1
  O  O39  1  0.15240800  0.38302300  0.96367300  1
