# generated using pymatgen
data_Li3Bi(PO4)2
_symmetry_space_group_name_H-M   'P 1'
_cell_length_a   9.06647800
_cell_length_b   9.09629647
_cell_length_c   9.22096933
_cell_angle_alpha   91.03223483
_cell_angle_beta   89.67934346
_cell_angle_gamma   112.46249400
_symmetry_Int_Tables_number   1
_chemical_formula_structural   Li3Bi(PO4)2
_chemical_formula_sum   'Li12 Bi4 P8 O32'
_cell_volume   702.65458614
_cell_formula_units_Z   4
loop_
 _symmetry_equiv_pos_site_id
 _symmetry_equiv_pos_as_xyz
  1  'x, y, z'
loop_
 _atom_site_type_symbol
 _atom_site_label
 _atom_site_symmetry_multiplicity
 _atom_site_fract_x
 _atom_site_fract_y
 _atom_site_fract_z
 _atom_site_occupancy
  Li  Li0  1  0.89002200  0.37614700  0.77310100  1
  Li  Li1  1  0.59330500  0.13193400  0.28238600  1
  Li  Li2  1  0.13974800  0.06384400  0.43264800  1
  Li  Li3  1  0.61415600  0.59352500  0.76690800  1
  Li  Li4  1  0.11321800  0.05836200  0.77310700  1
  Li  Li5  1  0.40511200  0.40486100  0.24683300  1
  Li  Li6  1  0.88026000  0.91719800  0.23664300  1
  Li  Li7  1  0.86063800  0.94659200  0.55637600  1
  Li  Li8  1  0.04173800  0.11908800  0.02982100  1
  Li  Li9  1  0.42307400  0.88074100  0.69299900  1
  Li  Li10  1  0.10872300  0.59687100  0.22044600  1
  Li  Li11  1  0.08830600  0.68769300  0.90874100  1
  Bi  Bi12  1  0.49420400  0.22992300  0.89248200  1
  Bi  Bi13  1  0.74796800  0.49430400  0.43662100  1
  Bi  Bi14  1  0.23659900  0.50266200  0.59352100  1
  Bi  Bi15  1  0.50915800  0.78250400  0.10466300  1
  P  P16  1  0.74445100  0.03756200  0.91216800  1
  P  P17  1  0.95961400  0.27091800  0.41663700  1
  P  P18  1  0.43131400  0.23871100  0.56838000  1
  P  P19  1  0.76250900  0.57194900  0.07701300  1
  P  P20  1  0.24876700  0.44254200  0.92166200  1
  P  P21  1  0.56351800  0.75954500  0.42289600  1
  P  P22  1  0.03436000  0.73608600  0.59720500  1
  P  P23  1  0.24899000  0.96791700  0.09515200  1
  O  O24  1  0.90289800  0.03793100  0.85220700  1
  O  O25  1  0.94480700  0.09650400  0.40263900  1
  O  O26  1  0.72497500  0.19462100  0.86090300  1
  O  O27  1  0.80763800  0.28520400  0.35009700  1
  O  O28  1  0.43305700  0.08802700  0.64201700  1
  O  O29  1  0.93742000  0.59248200  0.07492700  1
  O  O30  1  0.21818100  0.95196200  0.92737400  1
  O  O31  1  0.02083000  0.66460900  0.43749000  1
  O  O32  1  0.88403300  0.62832500  0.68179800  1
  O  O33  1  0.42183200  0.10466000  0.11852500  1
  O  O34  1  0.67105500  0.49141200  0.93382000  1
  O  O35  1  0.47942400  0.25683900  0.40588200  1
  O  O36  1  0.55787700  0.38422800  0.65322200  1
  O  O37  1  0.66381900  0.46050900  0.20079900  1
  O  O38  1  0.26112300  0.24187900  0.58381600  1
  O  O39  1  0.74984500  0.73763900  0.09769600  1
  O  O40  1  0.22354800  0.26329200  0.92397000  1
  O  O41  1  0.73861600  0.76683300  0.43083100  1
  O  O42  1  0.38492600  0.53176700  0.81155800  1
  O  O43  1  0.45941900  0.61252600  0.32965400  1
  O  O44  1  0.49425500  0.74086700  0.57780900  1
  O  O45  1  0.29953300  0.51429200  0.07571700  1
  O  O46  1  0.59191000  0.89351800  0.85958200  1
  O  O47  1  0.11399300  0.38919100  0.34620000  1
  O  O48  1  0.96576200  0.32310400  0.58247400  1
  O  O49  1  0.74503200  0.03624000  0.08208300  1
  O  O50  1  0.09943700  0.46502000  0.86144800  1
  O  O51  1  0.56403300  0.90865800  0.34250700  1
  O  O52  1  0.18651000  0.72832600  0.67137400  1
  O  O53  1  0.25877600  0.81008400  0.14902200  1
  O  O54  1  0.05102700  0.91157700  0.59494200  1
  O  O55  1  0.12047500  0.00901500  0.17798000  1
