# generated using pymatgen
data_Na5LiMn2P2(CO7)2
_symmetry_space_group_name_H-M   'P 1'
_cell_length_a   6.76685100
_cell_length_b   8.98345600
_cell_length_c   10.36674061
_cell_angle_alpha   89.93058231
_cell_angle_beta   90.00000000
_cell_angle_gamma   90.00000000
_symmetry_Int_Tables_number   1
_chemical_formula_structural   Na5LiMn2P2(CO7)2
_chemical_formula_sum   'Na10 Li2 Mn4 P4 C4 O28'
_cell_volume   630.19067423
_cell_formula_units_Z   2
loop_
 _symmetry_equiv_pos_site_id
 _symmetry_equiv_pos_as_xyz
  1  'x, y, z'
loop_
 _atom_site_type_symbol
 _atom_site_label
 _atom_site_symmetry_multiplicity
 _atom_site_fract_x
 _atom_site_fract_y
 _atom_site_fract_z
 _atom_site_occupancy
  Na  Na0  1  0.24975900  0.58343300  0.88059600  1
  Na  Na1  1  0.25263500  0.58283700  0.37929200  1
  Na  Na2  1  0.00137400  0.75856800  0.62356500  1
  Na  Na3  1  0.49890900  0.75851000  0.62322800  1
  Na  Na4  1  0.00186000  0.75803600  0.12416200  1
  Na  Na5  1  0.50186000  0.24196400  0.87583800  1
  Na  Na6  1  0.50137400  0.24143200  0.37643500  1
  Na  Na7  1  0.99890900  0.24149000  0.37677200  1
  Na  Na8  1  0.75263500  0.41716300  0.62070800  1
  Na  Na9  1  0.74975900  0.41656700  0.11940400  1
  Li  Li10  1  0.49092900  0.76870800  0.12035100  1
  Li  Li11  1  0.99092900  0.23129200  0.87964900  1
  Mn  Mn12  1  0.74732300  0.86142800  0.89024800  1
  Mn  Mn13  1  0.74938900  0.86173300  0.38843000  1
  Mn  Mn14  1  0.24938900  0.13826700  0.61157000  1
  Mn  Mn15  1  0.24732300  0.13857200  0.10975200  1
  P  P16  1  0.24558300  0.91388100  0.85216300  1
  P  P17  1  0.25317600  0.90987400  0.34949000  1
  P  P18  1  0.75317600  0.09012600  0.65051000  1
  P  P19  1  0.74558300  0.08611900  0.14783700  1
  C  C20  1  0.75490200  0.55649000  0.86887600  1
  C  C21  1  0.74861500  0.56069900  0.36673800  1
  C  C22  1  0.24861500  0.43930100  0.63326200  1
  C  C23  1  0.25490200  0.44351000  0.13112400  1
  O  O24  1  0.24987200  0.58320500  0.64408800  1
  O  O25  1  0.26782400  0.58789200  0.14078900  1
  O  O26  1  0.74822300  0.62018900  0.98141300  1
  O  O27  1  0.75049900  0.62235700  0.48042000  1
  O  O28  1  0.74782200  0.63959100  0.76559700  1
  O  O29  1  0.74592500  0.64495800  0.26420600  1
  O  O30  1  0.06322400  0.81918500  0.89259900  1
  O  O31  1  0.43058400  0.82572400  0.89921100  1
  O  O32  1  0.06672600  0.81884200  0.38868400  1
  O  O33  1  0.43482100  0.81820500  0.39527700  1
  O  O34  1  0.25155300  0.92720200  0.70195200  1
  O  O35  1  0.75059000  0.93191100  0.59101300  1
  O  O36  1  0.26177100  0.92391900  0.19860600  1
  O  O37  1  0.73611000  0.92562500  0.09161600  1
  O  O38  1  0.23611000  0.07437500  0.90838400  1
  O  O39  1  0.76177100  0.07608100  0.80139400  1
  O  O40  1  0.25059000  0.06808900  0.40898700  1
  O  O41  1  0.75155300  0.07279800  0.29804800  1
  O  O42  1  0.56672600  0.18115800  0.61131600  1
  O  O43  1  0.93482100  0.18179500  0.60472300  1
  O  O44  1  0.56322400  0.18081500  0.10740100  1
  O  O45  1  0.93058400  0.17427600  0.10078900  1
  O  O46  1  0.24592500  0.35504200  0.73579400  1
  O  O47  1  0.24782200  0.36040900  0.23440300  1
  O  O48  1  0.25049900  0.37764300  0.51958000  1
  O  O49  1  0.24822300  0.37981100  0.01858700  1
  O  O50  1  0.76782400  0.41210800  0.85921100  1
  O  O51  1  0.74987200  0.41679500  0.35591200  1
