# generated using pymatgen
data_LiNiPO4
_symmetry_space_group_name_H-M   'P 1'
_cell_length_a   9.90099372
_cell_length_b   9.90099372
_cell_length_c   22.58012900
_cell_angle_alpha   90.00000000
_cell_angle_beta   90.00000000
_cell_angle_gamma   119.99999811
_symmetry_Int_Tables_number   1
_chemical_formula_structural   LiNiPO4
_chemical_formula_sum   'Li24 Ni24 P24 O96'
_cell_volume   1916.96696392
_cell_formula_units_Z   24
loop_
 _symmetry_equiv_pos_site_id
 _symmetry_equiv_pos_as_xyz
  1  'x, y, z'
loop_
 _atom_site_type_symbol
 _atom_site_label
 _atom_site_symmetry_multiplicity
 _atom_site_fract_x
 _atom_site_fract_y
 _atom_site_fract_z
 _atom_site_occupancy
  Li  Li0  1  0.04106400  0.94193600  0.41325900  1
  Li  Li1  1  0.07420100  0.58186400  0.91333200  1
  Li  Li2  1  0.06382600  0.51838200  0.25456300  1
  Li  Li3  1  0.00503900  0.46658000  0.58781600  1
  Li  Li4  1  0.46154100  0.99496100  0.92115000  1
  Li  Li5  1  0.45455600  0.93617400  0.58789700  1
  Li  Li6  1  0.05806400  0.09912800  0.07992600  1
  Li  Li7  1  0.50766300  0.92579900  0.24666500  1
  Li  Li8  1  0.09912800  0.04106400  0.24659300  1
  Li  Li9  1  0.41813600  0.49233700  0.57999800  1
  Li  Li10  1  0.48161800  0.54544400  0.92123000  1
  Li  Li11  1  0.53342000  0.53845900  0.25448300  1
  Li  Li12  1  0.46658000  0.46154100  0.75448300  1
  Li  Li13  1  0.51838200  0.45455600  0.42123000  1
  Li  Li14  1  0.58186400  0.50766300  0.07999800  1
  Li  Li15  1  0.90087200  0.95893600  0.74659300  1
  Li  Li16  1  0.49233700  0.07420100  0.74666500  1
  Li  Li17  1  0.94193600  0.90087200  0.57992600  1
  Li  Li18  1  0.54544400  0.06382600  0.08789700  1
  Li  Li19  1  0.53845900  0.00503900  0.42115000  1
  Li  Li20  1  0.99496100  0.53342000  0.08781600  1
  Li  Li21  1  0.93617400  0.48161800  0.75456300  1
  Li  Li22  1  0.92579900  0.41813600  0.41333200  1
  Li  Li23  1  0.95893600  0.05806400  0.91325900  1
  Ni  Ni24  1  0.14549300  0.83075000  0.67899100  1
  Ni  Ni25  1  0.19203600  0.89645600  0.01349600  1
  Ni  Ni26  1  0.18037400  0.77815500  0.37844400  1
  Ni  Ni27  1  0.10354400  0.29558100  0.68016300  1
  Ni  Ni28  1  0.34594000  0.69988100  0.81658500  1
  Ni  Ni29  1  0.30011900  0.64605900  0.48325200  1
  Ni  Ni30  1  0.35394100  0.65406000  0.14991800  1
  Ni  Ni31  1  0.16925000  0.31474300  0.34565800  1
  Ni  Ni32  1  0.22184500  0.40221900  0.04511100  1
  Ni  Ni33  1  0.59778100  0.81962600  0.71177700  1
  Ni  Ni34  1  0.29558100  0.19203600  0.84682900  1
  Ni  Ni35  1  0.31474300  0.14549300  0.51232400  1
  Ni  Ni36  1  0.68525700  0.85450700  0.01232400  1
  Ni  Ni37  1  0.70441900  0.80796400  0.34682900  1
  Ni  Ni38  1  0.40221900  0.18037400  0.21177700  1
  Ni  Ni39  1  0.77815500  0.59778100  0.54511100  1
  Ni  Ni40  1  0.83075000  0.68525700  0.84565800  1
  Ni  Ni41  1  0.64605900  0.34594000  0.64991800  1
  Ni  Ni42  1  0.69988100  0.35394100  0.98325200  1
  Ni  Ni43  1  0.65406000  0.30011900  0.31658500  1
  Ni  Ni44  1  0.89645600  0.70441900  0.18016300  1
  Ni  Ni45  1  0.81962600  0.22184500  0.87844400  1
  Ni  Ni46  1  0.80796400  0.10354400  0.51349600  1
  Ni  Ni47  1  0.85450700  0.16925000  0.17899100  1
  P  P48  1  0.17171600  0.85511700  0.81320900  1
  P  P49  1  0.12581700  0.77993000  0.51221600  1
  P  P50  1  0.23287900  0.87579100  0.14669500  1
  P  P51  1  0.12420900  0.35708800  0.81336200  1
  P  P52  1  0.32221600  0.68675500  0.00724500  1
  P  P53  1  0.14488300  0.31659800  0.47987600  1
  P  P54  1  0.31324500  0.63546100  0.67391200  1
  P  P55  1  0.36453900  0.67778400  0.34057800  1
  P  P56  1  0.22007000  0.34588700  0.17888300  1
  P  P57  1  0.65411300  0.87418300  0.84554900  1
  P  P58  1  0.35708800  0.23287900  0.98002900  1
  P  P59  1  0.31659800  0.17171600  0.64654300  1
  P  P60  1  0.68340200  0.82828400  0.14654300  1
  P  P61  1  0.64291200  0.76712100  0.48002900  1
  P  P62  1  0.34588700  0.12581700  0.34554900  1
  P  P63  1  0.77993000  0.65411300  0.67888300  1
  P  P64  1  0.63546100  0.32221600  0.84057800  1
  P  P65  1  0.68675500  0.36453900  0.17391200  1
  P  P66  1  0.85511700  0.68340200  0.97987600  1
  P  P67  1  0.67778400  0.31324500  0.50724500  1
  P  P68  1  0.87579100  0.64291200  0.31336200  1
  P  P69  1  0.76712100  0.12420900  0.64669500  1
  P  P70  1  0.87418300  0.22007000  0.01221600  1
  P  P71  1  0.82828400  0.14488300  0.31320900  1
  O  O72  1  0.01283400  0.70395600  0.80102600  1
  O  O73  1  0.13543500  0.97898500  0.83757400  1
  O  O74  1  0.00691200  0.68772300  0.56195300  1
  O  O75  1  0.12250800  0.93305800  0.49986400  1
  O  O76  1  0.20526500  0.99182200  0.18401500  1
  O  O77  1  0.07345900  0.72786100  0.13400600  1
  O  O78  1  0.08118600  0.67675400  0.45530700  1
  O  O79  1  0.26259800  0.90605000  0.75352400  1
  O  O80  1  0.31042200  0.95124400  0.08680600  1
  O  O81  1  0.16222000  0.64323500  0.67297100  1
  O  O82  1  0.19985600  0.71743800  0.97766200  1
  O  O83  1  0.27677100  0.83059400  0.85810700  1
  O  O84  1  0.21970000  0.66976100  0.31093300  1
  O  O85  1  0.29059600  0.81289600  0.52984400  1
  O  O86  1  0.04875600  0.35917800  0.75347300  1
  O  O87  1  0.34445100  0.83669900  0.18094800  1
  O  O88  1  0.16330100  0.50775200  0.84761500  1
  O  O89  1  0.00817800  0.21344300  0.85068200  1
  O  O90  1  0.09395000  0.35654700  0.42019000  1
  O  O91  1  0.02101500  0.15645000  0.50424000  1
  O  O92  1  0.25478800  0.62023400  0.07084800  1
  O  O93  1  0.06694200  0.18945000  0.16653100  1
  O  O94  1  0.16940600  0.44617600  0.52477400  1
  O  O95  1  0.18710400  0.47769900  0.19651100  1
  O  O96  1  0.36544600  0.74521200  0.40418200  1
  O  O97  1  0.28256200  0.48241900  0.64432900  1
  O  O98  1  0.37976600  0.63455400  0.73751500  1
  O  O99  1  0.33023900  0.54993800  0.97759900  1
  O  O100  1  0.45006200  0.78030000  0.64426600  1
  O  O101  1  0.48101500  0.83778000  0.00630400  1
  O  O102  1  0.35676500  0.51898500  0.33963800  1
  O  O103  1  0.15645000  0.13543500  0.67090700  1
  O  O104  1  0.21344300  0.20526500  0.01734800  1
  O  O105  1  0.27213900  0.34559800  0.80067300  1
  O  O106  1  0.32324600  0.40443200  0.12197300  1
  O  O107  1  0.51758100  0.80014400  0.31099600  1
  O  O108  1  0.18945000  0.12250800  0.33319700  1
  O  O109  1  0.29604400  0.30887800  0.46769300  1
  O  O110  1  0.31227700  0.31918900  0.22862000  1
  O  O111  1  0.52230100  0.70940400  0.86317700  1
  O  O112  1  0.59556800  0.91881400  0.78864000  1
  O  O113  1  0.55382400  0.72322900  0.19144000  1
  O  O114  1  0.35917800  0.31042200  0.92013900  1
  O  O115  1  0.68081100  0.99308800  0.89528600  1
  O  O116  1  0.49224800  0.65554900  0.51428200  1
  O  O117  1  0.35654700  0.26259800  0.58685700  1
  O  O118  1  0.65440200  0.92654100  0.46734000  1
  O  O119  1  0.69112200  0.98716600  0.13436000  1
  O  O120  1  0.30887800  0.01283400  0.63436000  1
  O  O121  1  0.34559800  0.07345900  0.96734000  1
  O  O122  1  0.64345300  0.73740200  0.08685700  1
  O  O123  1  0.50775200  0.34445100  0.01428200  1
  O  O124  1  0.31918900  0.00691200  0.39528600  1
  O  O125  1  0.64082200  0.68957800  0.42013900  1
  O  O126  1  0.44617600  0.27677100  0.69144000  1
  O  O127  1  0.40443200  0.08118600  0.28864000  1
  O  O128  1  0.47769900  0.29059600  0.36317700  1
  O  O129  1  0.68772300  0.68081100  0.72862000  1
  O  O130  1  0.70395600  0.69112200  0.96769300  1
  O  O131  1  0.81055000  0.87749200  0.83319700  1
  O  O132  1  0.48241900  0.19985600  0.81099600  1
  O  O133  1  0.67675400  0.59556800  0.62197300  1
  O  O134  1  0.72786100  0.65440200  0.30067300  1
  O  O135  1  0.78655700  0.79473500  0.51734800  1
  O  O136  1  0.84355000  0.86456500  0.17090700  1
  O  O137  1  0.64323500  0.48101500  0.83963800  1
  O  O138  1  0.51898500  0.16222000  0.50630400  1
  O  O139  1  0.54993800  0.21970000  0.14426600  1
  O  O140  1  0.66976100  0.45006200  0.47759900  1
  O  O141  1  0.62023400  0.36544600  0.23751500  1
  O  O142  1  0.71743800  0.51758100  0.14432900  1
  O  O143  1  0.63455400  0.25478800  0.90418200  1
  O  O144  1  0.81289600  0.52230100  0.69651100  1
  O  O145  1  0.83059400  0.55382400  0.02477400  1
  O  O146  1  0.93305800  0.81055000  0.66653100  1
  O  O147  1  0.74521200  0.37976600  0.57084800  1
  O  O148  1  0.97898500  0.84355000  0.00424000  1
  O  O149  1  0.90605000  0.64345300  0.92019000  1
  O  O150  1  0.99182200  0.78655700  0.35068200  1
  O  O151  1  0.83669900  0.49224800  0.34761500  1
  O  O152  1  0.65554900  0.16330100  0.68094800  1
  O  O153  1  0.95124400  0.64082200  0.25347300  1
  O  O154  1  0.70940400  0.18710400  0.02984400  1
  O  O155  1  0.78030000  0.33023900  0.81093300  1
  O  O156  1  0.72322900  0.16940600  0.35810700  1
  O  O157  1  0.80014400  0.28256200  0.47766200  1
  O  O158  1  0.83778000  0.35676500  0.17297100  1
  O  O159  1  0.68957800  0.04875600  0.58680600  1
  O  O160  1  0.73740200  0.09395000  0.25352400  1
  O  O161  1  0.91881400  0.32324600  0.95530700  1
  O  O162  1  0.92654100  0.27213900  0.63400600  1
  O  O163  1  0.79473500  0.00817800  0.68401500  1
  O  O164  1  0.87749200  0.06694200  0.99986400  1
  O  O165  1  0.99308800  0.31227700  0.06195300  1
  O  O166  1  0.86456500  0.02101500  0.33757400  1
  O  O167  1  0.98716600  0.29604400  0.30102600  1
