# generated using pymatgen
data_Li6V3P8O29
_symmetry_space_group_name_H-M   'P 1'
_cell_length_a   9.80951200
_cell_length_b   9.81121218
_cell_length_c   13.88622351
_cell_angle_alpha   89.71054456
_cell_angle_beta   89.72870045
_cell_angle_gamma   60.05900000
_symmetry_Int_Tables_number   1
_chemical_formula_structural   Li6V3P8O29
_chemical_formula_sum   'Li12 V6 P16 O58'
_cell_volume   1158.07259835
_cell_formula_units_Z   2
loop_
 _symmetry_equiv_pos_site_id
 _symmetry_equiv_pos_as_xyz
  1  'x, y, z'
loop_
 _atom_site_type_symbol
 _atom_site_label
 _atom_site_symmetry_multiplicity
 _atom_site_fract_x
 _atom_site_fract_y
 _atom_site_fract_z
 _atom_site_occupancy
  Li  Li0  1  0.22732000  0.09325200  0.55791800  1
  Li  Li1  1  0.09255800  0.67679300  0.56035500  1
  Li  Li2  1  0.32540000  0.33571800  0.88508000  1
  Li  Li3  1  0.23213900  0.66882800  0.06327600  1
  Li  Li4  1  0.66974900  0.09535400  0.06322500  1
  Li  Li5  1  0.32463300  0.77074400  0.43751900  1
  Li  Li6  1  0.67820200  0.22761600  0.55931700  1
  Li  Li7  1  0.33165600  0.90392900  0.94172200  1
  Li  Li8  1  0.76576800  0.33665800  0.94165200  1
  Li  Li9  1  0.90478100  0.32557800  0.43696900  1
  Li  Li10  1  0.77227400  0.90331300  0.43891800  1
  Li  Li11  1  0.00146700  0.99964300  0.00379300  1
  V  V12  1  0.43245400  0.56708300  0.25087400  1
  V  V13  1  0.56912100  0.43346000  0.74681600  1
  V  V14  1  0.43606100  0.99922400  0.75036900  1
  V  V15  1  0.56800700  0.99814500  0.24987200  1
  V  V16  1  0.00253100  0.43101500  0.24465000  1
  V  V17  1  0.99457000  0.56856800  0.75512800  1
  P  P18  1  0.08632800  0.22287300  0.84338600  1
  P  P19  1  0.23081700  0.08751300  0.34036800  1
  P  P20  1  0.08549500  0.68019600  0.34304000  1
  P  P21  1  0.33476100  0.33351500  0.12633900  1
  P  P22  1  0.33211600  0.33402500  0.62757800  1
  P  P23  1  0.22676900  0.68265300  0.84304100  1
  P  P24  1  0.31717700  0.77042500  0.65709400  1
  P  P25  1  0.68434800  0.09096200  0.84341200  1
  P  P26  1  0.31559000  0.91181600  0.15621100  1
  P  P27  1  0.68065100  0.23062800  0.34204400  1
  P  P28  1  0.77216100  0.31667000  0.15810600  1
  P  P29  1  0.66802000  0.66459100  0.37232300  1
  P  P30  1  0.66561400  0.66627800  0.87382900  1
  P  P31  1  0.91505100  0.31930400  0.65579700  1
  P  P32  1  0.77066100  0.91219800  0.65796600  1
  P  P33  1  0.91482800  0.77466400  0.15715300  1
  O  O34  1  0.00226600  0.24071400  0.56465600  1
  O  O35  1  0.08366000  0.25185200  0.34102100  1
  O  O36  1  0.22779600  0.98770200  0.06513800  1
  O  O37  1  0.25342400  0.07815500  0.84404000  1
  O  O38  1  0.10379500  0.37179800  0.83254800  1
  O  O39  1  0.19317200  0.32451000  0.16929400  1
  O  O40  1  0.09343700  0.52217600  0.32416900  1
  O  O41  1  0.00514100  0.78736700  0.07303200  1
  O  O42  1  0.08386800  0.66085900  0.84180200  1
  O  O43  1  0.33100300  0.18345600  0.67132600  1
  O  O44  1  0.38189700  0.09667900  0.32222900  1
  O  O45  1  0.18508100  0.48281800  0.67130900  1
  O  O46  1  0.33749000  0.33616700  0.01757600  1
  O  O47  1  0.33111000  0.33105000  0.52024000  1
  O  O48  1  0.32433400  0.48909700  0.16480800  1
  O  O49  1  0.51898200  0.10804200  0.83054100  1
  O  O50  1  0.49022600  0.18808700  0.16401800  1
  O  O51  1  0.25162800  0.66225500  0.34275600  1
  O  O52  1  0.20989800  0.79063400  0.74990300  1
  O  O53  1  0.24275400  0.75357300  0.56700900  1
  O  O54  1  0.23102100  0.77045400  0.93153500  1
  O  O55  1  0.37628300  0.51971700  0.82984800  1
  O  O56  1  0.48707500  0.32638300  0.66640800  1
  O  O57  1  0.33810500  0.74291000  0.16253400  1
  O  O58  1  0.52058100  0.37977300  0.32366600  1
  O  O59  1  0.66392100  0.08245800  0.34305900  1
  O  O60  1  0.20768000  0.99965800  0.24944600  1
  O  O61  1  0.24484500  0.99696400  0.43135400  1
  O  O62  1  0.75761600  0.00324400  0.56753300  1
  O  O63  1  0.33561800  0.91648100  0.65592500  1
  O  O64  1  0.47715200  0.61909400  0.67705000  1
  O  O65  1  0.66160100  0.26040600  0.83810000  1
  O  O66  1  0.51203300  0.67425200  0.33231300  1
  O  O67  1  0.61937200  0.47246900  0.17021700  1
  O  O68  1  0.77571700  0.22672100  0.06854500  1
  O  O69  1  0.75764200  0.24404700  0.43218900  1
  O  O70  1  0.79197500  0.20662100  0.25044000  1
  O  O71  1  0.74978500  0.33366600  0.65715000  1
  O  O72  1  0.51419100  0.81754900  0.83141800  1
  O  O73  1  0.47219200  0.90708200  0.16988100  1
  O  O74  1  0.67237300  0.51492500  0.83288200  1
  O  O75  1  0.66038400  0.66990700  0.98084200  1
  O  O76  1  0.66459700  0.66681300  0.48014300  1
  O  O77  1  0.81410400  0.51252000  0.33178800  1
  O  O78  1  0.62182400  0.90032800  0.67475800  1
  O  O79  1  0.67492500  0.81292600  0.33218900  1
  O  O80  1  0.91598800  0.33976200  0.16199600  1
  O  O81  1  0.00665000  0.20570400  0.74545900  1
  O  O82  1  0.98955400  0.22130800  0.92663700  1
  O  O83  1  0.90328900  0.47854300  0.67286900  1
  O  O84  1  0.81260000  0.66874600  0.82834500  1
  O  O85  1  0.90775500  0.62382400  0.16874800  1
  O  O86  1  0.74533500  0.91971900  0.16013200  1
  O  O87  1  0.76694200  0.01340300  0.93492900  1
  O  O88  1  0.78963700  0.00259200  0.75074400  1
  O  O89  1  0.91972700  0.74961300  0.65900100  1
  O  O90  1  0.99872200  0.75704200  0.43470800  1
  O  O91  1  0.99475300  0.79545500  0.25450100  1
