# generated using pymatgen
data_Li9(CoO4)2
_symmetry_space_group_name_H-M   'P 1'
_cell_length_a   9.11957200
_cell_length_b   9.27685100
_cell_length_c   9.30084700
_cell_angle_alpha   90.00000000
_cell_angle_beta   90.00000000
_cell_angle_gamma   90.00000000
_symmetry_Int_Tables_number   1
_chemical_formula_structural   Li9(CoO4)2
_chemical_formula_sum   'Li36 Co8 O32'
_cell_volume   786.86012581
_cell_formula_units_Z   4
loop_
 _symmetry_equiv_pos_site_id
 _symmetry_equiv_pos_as_xyz
  1  'x, y, z'
loop_
 _atom_site_type_symbol
 _atom_site_label
 _atom_site_symmetry_multiplicity
 _atom_site_fract_x
 _atom_site_fract_y
 _atom_site_fract_z
 _atom_site_occupancy
  Li  Li0  1  0.86226900  0.36856400  0.64657500  1
  Li  Li1  1  0.36226900  0.13143600  0.64657500  1
  Li  Li2  1  0.16539900  0.89105100  0.63367800  1
  Li  Li3  1  0.66539900  0.60894900  0.63367800  1
  Li  Li4  1  0.64044700  0.15064900  0.63332900  1
  Li  Li5  1  0.14044700  0.34935100  0.63332900  1
  Li  Li6  1  0.58452000  0.87855700  0.58890900  1
  Li  Li7  1  0.08452000  0.62144300  0.58890900  1
  Li  Li8  1  0.08452000  0.12144300  0.41109100  1
  Li  Li9  1  0.58452000  0.37855700  0.41109100  1
  Li  Li10  1  0.14044700  0.84935100  0.36667100  1
  Li  Li11  1  0.64044700  0.65064900  0.36667100  1
  Li  Li12  1  0.16539900  0.39105100  0.36632200  1
  Li  Li13  1  0.66539900  0.10894900  0.36632200  1
  Li  Li14  1  0.86226900  0.86856400  0.35342500  1
  Li  Li15  1  0.36226900  0.63143600  0.35342500  1
  Li  Li16  1  0.64225000  0.38466900  0.13448500  1
  Li  Li17  1  0.14225000  0.11533100  0.13448500  1
  Li  Li18  1  0.34561300  0.88481600  0.13960700  1
  Li  Li19  1  0.84561300  0.61518400  0.13960700  1
  Li  Li20  1  0.37177500  0.35124400  0.12804400  1
  Li  Li21  1  0.87177500  0.14875600  0.12804400  1
  Li  Li22  1  0.10430300  0.38003300  0.09875200  1
  Li  Li23  1  0.60430300  0.11996700  0.09875200  1
  Li  Li24  1  0.89563500  0.88587500  0.08704100  1
  Li  Li25  1  0.39563500  0.61412500  0.08704100  1
  Li  Li26  1  0.89563500  0.38587500  0.91295900  1
  Li  Li27  1  0.39563500  0.11412500  0.91295900  1
  Li  Li28  1  0.60430300  0.61996700  0.90124800  1
  Li  Li29  1  0.10430300  0.88003300  0.90124800  1
  Li  Li30  1  0.37177500  0.85124400  0.87195600  1
  Li  Li31  1  0.87177500  0.64875600  0.87195600  1
  Li  Li32  1  0.34561300  0.38481600  0.86039300  1
  Li  Li33  1  0.84561300  0.11518400  0.86039300  1
  Li  Li34  1  0.64225000  0.88466900  0.86551500  1
  Li  Li35  1  0.14225000  0.61533100  0.86551500  1
  Co  Co36  1  0.87805700  0.86894600  0.62730700  1
  Co  Co37  1  0.37805700  0.63105400  0.62730700  1
  Co  Co38  1  0.87805700  0.36894600  0.37269300  1
  Co  Co39  1  0.37805700  0.13105400  0.37269300  1
  Co  Co40  1  0.62044500  0.85056600  0.13789800  1
  Co  Co41  1  0.12044500  0.64943400  0.13789800  1
  Co  Co42  1  0.62044500  0.35056600  0.86210200  1
  Co  Co43  1  0.12044500  0.14943400  0.86210200  1
  O  O44  1  0.50278000  0.73889700  0.74114500  1
  O  O45  1  0.00278000  0.76110300  0.74114500  1
  O  O46  1  0.75129000  0.98584300  0.71955700  1
  O  O47  1  0.25129000  0.51415700  0.71955700  1
  O  O48  1  0.00125800  0.95150700  0.50207600  1
  O  O49  1  0.50125800  0.54849300  0.50207600  1
  O  O50  1  0.75491000  0.76416000  0.51356300  1
  O  O51  1  0.25491000  0.73584000  0.51356300  1
  O  O52  1  0.75491000  0.26416000  0.48643700  1
  O  O53  1  0.25491000  0.23584000  0.48643700  1
  O  O54  1  0.00125800  0.45150700  0.49792400  1
  O  O55  1  0.50125800  0.04849300  0.49792400  1
  O  O56  1  0.75129000  0.48584300  0.28044300  1
  O  O57  1  0.25129000  0.01415700  0.28044300  1
  O  O58  1  0.50278000  0.23889700  0.25885500  1
  O  O59  1  0.00278000  0.26110300  0.25885500  1
  O  O60  1  0.99403800  0.76265000  0.23063600  1
  O  O61  1  0.49403800  0.73735000  0.23063600  1
  O  O62  1  0.74713900  0.99012400  0.21526900  1
  O  O63  1  0.24713900  0.50987600  0.21526900  1
  O  O64  1  0.50044800  0.96217000  0.00665800  1
  O  O65  1  0.00044800  0.53783000  0.00665800  1
  O  O66  1  0.74203400  0.75142900  0.00158800  1
  O  O67  1  0.24203400  0.74857100  0.00158800  1
  O  O68  1  0.74203400  0.25142900  0.99841200  1
  O  O69  1  0.24203400  0.24857100  0.99841200  1
  O  O70  1  0.50044800  0.46217000  0.99334200  1
  O  O71  1  0.00044800  0.03783000  0.99334200  1
  O  O72  1  0.24713900  0.00987600  0.78473100  1
  O  O73  1  0.74713900  0.49012400  0.78473100  1
  O  O74  1  0.99403800  0.26265000  0.76936400  1
  O  O75  1  0.49403800  0.23735000  0.76936400  1
