# generated using pymatgen
data_LiFeSiO4
_symmetry_space_group_name_H-M   'P 1'
_cell_length_a   5.47462100
_cell_length_b   8.25210400
_cell_length_c   18.74725100
_cell_angle_alpha   90.00000000
_cell_angle_beta   90.00000000
_cell_angle_gamma   90.00000000
_symmetry_Int_Tables_number   1
_chemical_formula_structural   LiFeSiO4
_chemical_formula_sum   'Li12 Fe12 Si12 O48'
_cell_volume   846.94721777
_cell_formula_units_Z   12
loop_
 _symmetry_equiv_pos_site_id
 _symmetry_equiv_pos_as_xyz
  1  'x, y, z'
loop_
 _atom_site_type_symbol
 _atom_site_label
 _atom_site_symmetry_multiplicity
 _atom_site_fract_x
 _atom_site_fract_y
 _atom_site_fract_z
 _atom_site_occupancy
  Li  Li0  1  0.02047800  0.07652900  0.08257400  1
  Li  Li1  1  0.48380500  0.57713700  0.08447300  1
  Li  Li2  1  0.00598500  0.42032300  0.24901500  1
  Li  Li3  1  0.50598500  0.92032300  0.25098500  1
  Li  Li4  1  0.98380500  0.07713700  0.41552700  1
  Li  Li5  1  0.52047800  0.57652900  0.41742600  1
  Li  Li6  1  0.02047800  0.42347100  0.58257400  1
  Li  Li7  1  0.48380500  0.92286300  0.58447300  1
  Li  Li8  1  0.00598500  0.07967700  0.74901500  1
  Li  Li9  1  0.50598500  0.57967700  0.75098500  1
  Li  Li10  1  0.98380500  0.42286300  0.91552700  1
  Li  Li11  1  0.52047800  0.92347100  0.91742600  1
  Fe  Fe12  1  0.00110400  0.74925900  0.99966900  1
  Fe  Fe13  1  0.50110400  0.25074100  0.00033100  1
  Fe  Fe14  1  0.50952500  0.24831900  0.16687400  1
  Fe  Fe15  1  0.00739500  0.74977700  0.16627900  1
  Fe  Fe16  1  0.50739500  0.24977700  0.33372100  1
  Fe  Fe17  1  0.00952500  0.74831900  0.33312600  1
  Fe  Fe18  1  0.00110400  0.75074100  0.49966900  1
  Fe  Fe19  1  0.50110400  0.24925900  0.50033100  1
  Fe  Fe20  1  0.50952500  0.25168100  0.66687400  1
  Fe  Fe21  1  0.00739500  0.75022300  0.66627900  1
  Fe  Fe22  1  0.50739500  0.25022300  0.83372100  1
  Fe  Fe23  1  0.00952500  0.75168100  0.83312600  1
  Si  Si24  1  0.00243100  0.40250900  0.08262600  1
  Si  Si25  1  0.50686900  0.90287100  0.08349400  1
  Si  Si26  1  0.00953700  0.09565800  0.24984000  1
  Si  Si27  1  0.50953700  0.59565800  0.25016000  1
  Si  Si28  1  0.00686900  0.40287100  0.41650600  1
  Si  Si29  1  0.50243100  0.90250900  0.41737400  1
  Si  Si30  1  0.00243100  0.09749100  0.58262600  1
  Si  Si31  1  0.50686900  0.59712900  0.58349400  1
  Si  Si32  1  0.00953700  0.40434200  0.74984000  1
  Si  Si33  1  0.50953700  0.90434200  0.75016000  1
  Si  Si34  1  0.00686900  0.09712900  0.91650600  1
  Si  Si35  1  0.50243100  0.59749100  0.91737400  1
  O  O36  1  0.50060700  0.48637100  0.98879100  1
  O  O37  1  0.00060700  0.51362900  0.01120900  1
  O  O38  1  0.50272500  0.01568000  0.01270300  1
  O  O39  1  0.74668900  0.77609900  0.08333100  1
  O  O40  1  0.26341700  0.77783500  0.08303300  1
  O  O41  1  0.24518100  0.27672500  0.08332400  1
  O  O42  1  0.76210800  0.27621200  0.08325500  1
  O  O43  1  0.00965700  0.51511100  0.15375800  1
  O  O44  1  0.50868800  0.01344800  0.15540400  1
  O  O45  1  0.01069500  0.98485600  0.17815800  1
  O  O46  1  0.50900300  0.48311500  0.17918800  1
  O  O47  1  0.26879800  0.72237200  0.24989400  1
  O  O48  1  0.75142500  0.72153500  0.24979200  1
  O  O49  1  0.76879800  0.22237200  0.25010600  1
  O  O50  1  0.25142500  0.22153500  0.25020800  1
  O  O51  1  0.00900300  0.98311500  0.32081200  1
  O  O52  1  0.51069500  0.48485600  0.32184200  1
  O  O53  1  0.00868800  0.51344800  0.34459600  1
  O  O54  1  0.50965700  0.01511100  0.34624200  1
  O  O55  1  0.26210800  0.77621200  0.41674500  1
  O  O56  1  0.74518100  0.77672500  0.41667600  1
  O  O57  1  0.76341700  0.27783500  0.41696700  1
  O  O58  1  0.24668900  0.27609900  0.41666900  1
  O  O59  1  0.00272500  0.51568000  0.48729700  1
  O  O60  1  0.50060700  0.01362900  0.48879100  1
  O  O61  1  0.00060700  0.98637100  0.51120900  1
  O  O62  1  0.50272500  0.48432000  0.51270300  1
  O  O63  1  0.74668900  0.72390100  0.58333100  1
  O  O64  1  0.26341700  0.72216500  0.58303300  1
  O  O65  1  0.24518100  0.22327500  0.58332400  1
  O  O66  1  0.76210800  0.22378800  0.58325500  1
  O  O67  1  0.00965700  0.98488900  0.65375800  1
  O  O68  1  0.50868800  0.48655200  0.65540400  1
  O  O69  1  0.01069500  0.51514400  0.67815800  1
  O  O70  1  0.50900300  0.01688500  0.67918800  1
  O  O71  1  0.75142500  0.77846500  0.74979200  1
  O  O72  1  0.26879800  0.77762800  0.74989400  1
  O  O73  1  0.25142500  0.27846500  0.75020800  1
  O  O74  1  0.76879800  0.27762800  0.75010600  1
  O  O75  1  0.00900300  0.51688500  0.82081200  1
  O  O76  1  0.51069500  0.01514400  0.82184200  1
  O  O77  1  0.00868800  0.98655200  0.84459600  1
  O  O78  1  0.50965700  0.48488900  0.84624200  1
  O  O79  1  0.26210800  0.72378800  0.91674500  1
  O  O80  1  0.74518100  0.72327500  0.91667600  1
  O  O81  1  0.76341700  0.22216500  0.91696700  1
  O  O82  1  0.24668900  0.22390100  0.91666900  1
  O  O83  1  0.00272500  0.98432000  0.98729700  1
