# generated using pymatgen
data_Li4Mn8O9F7
_symmetry_space_group_name_H-M   'P 1'
_cell_length_a   5.84151400
_cell_length_b   6.22150445
_cell_length_c   10.93902017
_cell_angle_alpha   75.12956536
_cell_angle_beta   74.83204611
_cell_angle_gamma   62.49477807
_symmetry_Int_Tables_number   1
_chemical_formula_structural   Li4Mn8O9F7
_chemical_formula_sum   'Li4 Mn8 O9 F7'
_cell_volume   336.02706977
_cell_formula_units_Z   1
loop_
 _symmetry_equiv_pos_site_id
 _symmetry_equiv_pos_as_xyz
  1  'x, y, z'
loop_
 _atom_site_type_symbol
 _atom_site_label
 _atom_site_symmetry_multiplicity
 _atom_site_fract_x
 _atom_site_fract_y
 _atom_site_fract_z
 _atom_site_occupancy
  Li  Li0  1  0.69993300  0.64076000  0.44915800  1
  Li  Li1  1  0.82042200  0.84515000  0.05608000  1
  Li  Li2  1  0.20148700  0.13551200  0.95157000  1
  Li  Li3  1  0.29320400  0.36492700  0.55000200  1
  Mn  Mn4  1  0.48675000  0.50917200  0.00244900  1
  Mn  Mn5  1  0.24011400  0.27094200  0.24241800  1
  Mn  Mn6  1  0.74864700  0.24833000  0.75254700  1
  Mn  Mn7  1  0.24673800  0.74833100  0.24579000  1
  Mn  Mn8  1  0.99834400  0.00193600  0.49912400  1
  Mn  Mn9  1  0.25113800  0.74819600  0.74878700  1
  Mn  Mn10  1  0.75121300  0.74769500  0.74940100  1
  Mn  Mn11  1  0.74721800  0.25312700  0.24909400  1
  O  O12  1  0.14153100  0.64445900  0.13304400  1
  O  O13  1  0.90852900  0.32550500  0.36036100  1
  O  O14  1  0.61191400  0.61612000  0.65554600  1
  O  O15  1  0.11536000  0.09907600  0.16122800  1
  O  O16  1  0.59081800  0.17421100  0.14024300  1
  O  O17  1  0.40863800  0.82503900  0.85970900  1
  O  O18  1  0.38106300  0.40593100  0.33958000  1
  O  O19  1  0.09238500  0.67613600  0.63585300  1
  O  O20  1  0.89171600  0.87886300  0.84224900  1
  F  F21  1  0.61521900  0.14408600  0.61698900  1
  F  F22  1  0.12313000  0.14455000  0.61710600  1
  F  F23  1  0.64236100  0.63301900  0.12246300  1
  F  F24  1  0.86506800  0.86508600  0.38174100  1
  F  F25  1  0.37357000  0.35483600  0.88083300  1
  F  F26  1  0.37672100  0.84131300  0.37102800  1
  F  F27  1  0.87677100  0.35769000  0.88560400  1
