# generated using pymatgen
data_Li5Ti3O8
_symmetry_space_group_name_H-M   'P 1'
_cell_length_a   5.94514495
_cell_length_b   5.94514495
_cell_length_c   5.94514496
_cell_angle_alpha   59.61130478
_cell_angle_beta   59.61130478
_cell_angle_gamma   59.61130099
_symmetry_Int_Tables_number   1
_chemical_formula_structural   Li5Ti3O8
_chemical_formula_sum   'Li5 Ti3 O8'
_cell_volume   147.27150964
_cell_formula_units_Z   1
loop_
 _symmetry_equiv_pos_site_id
 _symmetry_equiv_pos_as_xyz
  1  'x, y, z'
loop_
 _atom_site_type_symbol
 _atom_site_label
 _atom_site_symmetry_multiplicity
 _atom_site_fract_x
 _atom_site_fract_y
 _atom_site_fract_z
 _atom_site_occupancy
  Li  Li0  1  0.00000000  0.50000000  0.50000000  1
  Li  Li1  1  0.50000000  0.50000000  0.50000000  1
  Li  Li2  1  0.50000000  0.00000000  0.50000000  1
  Li  Li3  1  0.50000000  0.50000000  0.00000000  1
  Li  Li4  1  0.00000000  0.00000000  0.00000000  1
  Ti  Ti5  1  0.00000000  0.00000000  0.50000000  1
  Ti  Ti6  1  0.00000000  0.50000000  0.00000000  1
  Ti  Ti7  1  0.50000000  0.00000000  0.00000000  1
  O  O8  1  0.75510300  0.75510300  0.75510300  1
  O  O9  1  0.22550200  0.75038300  0.75038300  1
  O  O10  1  0.75038300  0.75038300  0.22550200  1
  O  O11  1  0.24961700  0.77449800  0.24961700  1
  O  O12  1  0.24961700  0.24961700  0.77449800  1
  O  O13  1  0.75038300  0.22550200  0.75038300  1
  O  O14  1  0.77449800  0.24961700  0.24961700  1
  O  O15  1  0.24489700  0.24489700  0.24489700  1
