# generated using pymatgen
data_LiVSiO4
_symmetry_space_group_name_H-M   'P 1'
_cell_length_a   4.90699200
_cell_length_b   9.15840900
_cell_length_c   6.31108200
_cell_angle_alpha   89.99916864
_cell_angle_beta   89.99993774
_cell_angle_gamma   89.99998207
_symmetry_Int_Tables_number   1
_chemical_formula_structural   LiVSiO4
_chemical_formula_sum   'Li4 V4 Si4 O16'
_cell_volume   283.62153781
_cell_formula_units_Z   4
loop_
 _symmetry_equiv_pos_site_id
 _symmetry_equiv_pos_as_xyz
  1  'x, y, z'
loop_
 _atom_site_type_symbol
 _atom_site_label
 _atom_site_symmetry_multiplicity
 _atom_site_fract_x
 _atom_site_fract_y
 _atom_site_fract_z
 _atom_site_occupancy
  Li  Li0  1  0.47785800  0.16635100  0.75002000  1
  Li  Li1  1  0.97785600  0.33365700  0.24998700  1
  Li  Li2  1  0.02214200  0.66634800  0.75002100  1
  Li  Li3  1  0.52214100  0.83365200  0.24998600  1
  V  V4  1  0.00006100  0.00002900  0.49991900  1
  V  V5  1  0.49991500  0.50000600  0.49992000  1
  V  V6  1  0.99991500  0.00001000  0.00005500  1
  V  V7  1  0.50012800  0.49990200  0.00004100  1
  Si  Si8  1  0.47676900  0.17816000  0.24991700  1
  Si  Si9  1  0.97676600  0.32184900  0.75008400  1
  Si  Si10  1  0.02323300  0.67815400  0.24991600  1
  Si  Si11  1  0.52323000  0.82184200  0.75008800  1
  O  O12  1  0.80231300  0.12467700  0.24997700  1
  O  O13  1  0.30231400  0.37532700  0.75002800  1
  O  O14  1  0.69768300  0.62467600  0.24997700  1
  O  O15  1  0.19768600  0.87533100  0.75002800  1
  O  O16  1  0.90912300  0.14164800  0.74997500  1
  O  O17  1  0.40912900  0.35835000  0.25002800  1
  O  O18  1  0.59086700  0.64165100  0.74997600  1
  O  O19  1  0.09087600  0.85835700  0.25002800  1
  O  O20  1  0.32921300  0.11860200  0.03507800  1
  O  O21  1  0.32919000  0.11857000  0.46492000  1
  O  O22  1  0.82922800  0.38140100  0.96492300  1
  O  O23  1  0.82919900  0.38143700  0.53509400  1
  O  O24  1  0.17077700  0.61859900  0.03508700  1
  O  O25  1  0.17079600  0.61857000  0.46491100  1
  O  O26  1  0.67081000  0.88143600  0.53508700  1
  O  O27  1  0.67078300  0.88140400  0.96493000  1
