# generated using pymatgen
data_Li32Mn3Cr13O48
_symmetry_space_group_name_H-M   'P 1'
_cell_length_a   5.03147100
_cell_length_b   8.71141357
_cell_length_c   19.49499500
_cell_angle_alpha   98.09066660
_cell_angle_beta   94.83812387
_cell_angle_gamma   89.62602382
_symmetry_Int_Tables_number   1
_chemical_formula_structural   Li32Mn3Cr13O48
_chemical_formula_sum   'Li32 Mn3 Cr13 O48'
_cell_volume   842.95778882
_cell_formula_units_Z   1
loop_
 _symmetry_equiv_pos_site_id
 _symmetry_equiv_pos_as_xyz
  1  'x, y, z'
loop_
 _atom_site_type_symbol
 _atom_site_label
 _atom_site_symmetry_multiplicity
 _atom_site_fract_x
 _atom_site_fract_y
 _atom_site_fract_z
 _atom_site_occupancy
  Li  Li0  1  0.99012400  0.16733100  0.24932000  1
  Li  Li1  1  0.87381900  0.37422000  0.37504600  1
  Li  Li2  1  0.75085000  0.24906200  0.99935300  1
  Li  Li3  1  0.74078600  0.91956300  0.00009300  1
  Li  Li4  1  0.99171400  0.16905200  0.74917500  1
  Li  Li5  1  0.75199900  0.57972800  0.49958500  1
  Li  Li6  1  0.87457500  0.37515100  0.87506600  1
  Li  Li7  1  0.75155800  0.24890500  0.50042700  1
  Li  Li8  1  0.74156200  0.92137900  0.49957200  1
  Li  Li9  1  0.62324200  0.12329500  0.12518200  1
  Li  Li10  1  0.75612400  0.57979600  0.99987000  1
  Li  Li11  1  0.50774400  0.33028500  0.25033900  1
  Li  Li12  1  0.62494100  0.12764100  0.62530100  1
  Li  Li13  1  0.49902600  0.00041300  0.24962500  1
  Li  Li14  1  0.49000500  0.66981100  0.25010700  1
  Li  Li15  1  0.50787100  0.33001500  0.74941100  1
  Li  Li16  1  0.37471000  0.87488700  0.37502600  1
  Li  Li17  1  0.49893300  0.00149600  0.75011200  1
  Li  Li18  1  0.24793600  0.74979600  0.00050500  1
  Li  Li19  1  0.49460700  0.66894500  0.75027200  1
  Li  Li20  1  0.24343400  0.42079800  0.99998000  1
  Li  Li21  1  0.37628000  0.87639000  0.87494100  1
  Li  Li22  1  0.25801800  0.08173900  0.50043800  1
  Li  Li23  1  0.25142900  0.74879700  0.49973300  1
  Li  Li24  1  0.12706400  0.62654500  0.12479800  1
  Li  Li25  1  0.24680400  0.41984100  0.50076700  1
  Li  Li26  1  0.01108600  0.83233200  0.25037500  1
  Li  Li27  1  0.26083400  0.08002400  0.00000300  1
  Li  Li28  1  0.12725700  0.62321800  0.62466200  1
  Li  Li29  1  0.00220300  0.50081000  0.25059300  1
  Li  Li30  1  0.00627300  0.83158200  0.75085800  1
  Li  Li31  1  0.99941900  0.49819500  0.74975800  1
  Mn  Mn32  1  0.87320500  0.70739500  0.87456300  1
  Mn  Mn33  1  0.37496300  0.54196200  0.37500300  1
  Mn  Mn34  1  0.12857900  0.29022700  0.62591000  1
  Cr  Cr35  1  0.86856300  0.70525900  0.37453600  1
  Cr  Cr36  1  0.87987400  0.03854900  0.37518700  1
  Cr  Cr37  1  0.87960400  0.03802700  0.87469800  1
  Cr  Cr38  1  0.62966600  0.78802100  0.12464100  1
  Cr  Cr39  1  0.62293300  0.45226700  0.12394900  1
  Cr  Cr40  1  0.62191600  0.79709000  0.62391200  1
  Cr  Cr41  1  0.63089300  0.46009500  0.62521300  1
  Cr  Cr42  1  0.37184400  0.21221100  0.37534500  1
  Cr  Cr43  1  0.37777700  0.54601400  0.87541900  1
  Cr  Cr44  1  0.37198000  0.21213900  0.87524400  1
  Cr  Cr45  1  0.11976000  0.96170400  0.12539000  1
  Cr  Cr46  1  0.12839100  0.29764900  0.12616400  1
  Cr  Cr47  1  0.12123900  0.95356300  0.62458800  1
  O  O48  1  0.96934100  0.10595900  0.06967900  1
  O  O49  1  0.91850900  0.78419500  0.06859200  1
  O  O50  1  0.93458700  0.42252700  0.06730600  1
  O  O51  1  0.96652900  0.10746600  0.56978600  1
  O  O52  1  0.83117700  0.96597700  0.18134400  1
  O  O53  1  0.81597200  0.32710700  0.18283400  1
  O  O54  1  0.93528700  0.78906600  0.56821200  1
  O  O55  1  0.92514500  0.42604700  0.56844600  1
  O  O56  1  0.78120400  0.64358900  0.18011900  1
  O  O57  1  0.71873200  0.85236900  0.31866800  1
  O  O58  1  0.81330100  0.95924600  0.68131600  1
  O  O59  1  0.82780100  0.31955100  0.68267800  1
  O  O60  1  0.67551200  0.53441300  0.31887900  1
  O  O61  1  0.67228900  0.17655400  0.31790100  1
  O  O62  1  0.77931600  0.64113500  0.68003700  1
  O  O63  1  0.71016000  0.85284700  0.81865700  1
  O  O64  1  0.46303200  0.60212400  0.06880200  1
  O  O65  1  0.56845900  0.71407700  0.43062400  1
  O  O66  1  0.57695500  0.07417400  0.43212200  1
  O  O67  1  0.68325500  0.53583700  0.81900600  1
  O  O68  1  0.67291700  0.17539700  0.81829400  1
  O  O69  1  0.42621600  0.92669400  0.06800800  1
  O  O70  1  0.43760600  0.28738800  0.06880900  1
  O  O71  1  0.53895700  0.39697900  0.43124600  1
  O  O72  1  0.46428400  0.61055600  0.56877000  1
  O  O73  1  0.57230700  0.71387500  0.93053800  1
  O  O74  1  0.57714400  0.07231000  0.93230200  1
  O  O75  1  0.32406100  0.82348600  0.18181300  1
  O  O76  1  0.31316300  0.46271100  0.18134900  1
  O  O77  1  0.43394900  0.92510700  0.56694600  1
  O  O78  1  0.42791400  0.28695600  0.56958100  1
  O  O79  1  0.53320900  0.39661100  0.93127000  1
  O  O80  1  0.28623100  0.14798100  0.18125300  1
  O  O81  1  0.21449200  0.35814300  0.31936100  1
  O  O82  1  0.31461000  0.82710100  0.68255000  1
  O  O83  1  0.32141300  0.46397700  0.68094100  1
  O  O84  1  0.18122800  0.67752300  0.31786700  1
  O  O85  1  0.16898200  0.03606000  0.31877400  1
  O  O86  1  0.28693900  0.14242700  0.68063300  1
  O  O87  1  0.21936100  0.35769300  0.81954200  1
  O  O88  1  0.07356900  0.57390200  0.43152000  1
  O  O89  1  0.08179100  0.21482500  0.43123900  1
  O  O90  1  0.17584800  0.67628400  0.81819500  1
  O  O91  1  0.16812400  0.03554000  0.81872800  1
  O  O92  1  0.03221900  0.89413500  0.43113900  1
  O  O93  1  0.06781900  0.57312800  0.93212700  1
  O  O94  1  0.08139400  0.21358700  0.93149600  1
  O  O95  1  0.03428300  0.89214700  0.93064700  1
