# generated using pymatgen
data_Li2SnP2O7
_symmetry_space_group_name_H-M   'P 1'
_cell_length_a   6.95627308
_cell_length_b   11.30364167
_cell_length_c   9.73514017
_cell_angle_alpha   65.72029922
_cell_angle_beta   106.61404750
_cell_angle_gamma   85.88122125
_symmetry_Int_Tables_number   1
_chemical_formula_structural   Li2SnP2O7
_chemical_formula_sum   'Li8 Sn4 P8 O28'
_cell_volume   652.74097205
_cell_formula_units_Z   4
loop_
 _symmetry_equiv_pos_site_id
 _symmetry_equiv_pos_as_xyz
  1  'x, y, z'
loop_
 _atom_site_type_symbol
 _atom_site_label
 _atom_site_symmetry_multiplicity
 _atom_site_fract_x
 _atom_site_fract_y
 _atom_site_fract_z
 _atom_site_occupancy
  Li  Li0  1  0.00747808  0.45810083  0.22012385  1
  Li  Li1  1  0.61263487  0.37845698  0.07455755  1
  Li  Li2  1  0.68755436  0.02989862  0.50260353  1
  Li  Li3  1  0.18907168  0.78786570  0.13807826  1
  Li  Li4  1  0.18971072  0.97708858  0.46664902  1
  Li  Li5  1  0.80692532  0.20356834  0.86210336  1
  Li  Li6  1  0.36422820  0.62096103  0.92035655  1
  Li  Li7  1  0.94813476  0.51150888  0.86674027  1
  Sn  Sn8  1  0.35371026  0.25325653  0.50834222  1
  Sn  Sn9  1  0.71477095  0.81232096  0.10342165  1
  Sn  Sn10  1  0.28226310  0.20415179  0.87547940  1
  Sn  Sn11  1  0.64850781  0.74332079  0.49684020  1
  P  P12  1  0.07245730  0.21784663  0.16788577  1
  P  P13  1  0.72126970  0.08077506  0.18663349  1
  P  P14  1  0.49031689  0.51996288  0.26890494  1
  P  P15  1  0.13658319  0.69246545  0.47340830  1
  P  P16  1  0.83570532  0.30118045  0.51574647  1
  P  P17  1  0.49728985  0.48198513  0.73070447  1
  P  P18  1  0.29747426  0.92410363  0.79712260  1
  P  P19  1  0.93573678  0.79999631  0.81614216  1
  O  O20  1  0.09002220  0.17901399  0.03647543  1
  O  O21  1  0.56077909  0.21006160  0.10175918  1
  O  O22  1  0.27031866  0.17896203  0.31181739  1
  O  O23  1  0.95048794  0.36167882  0.08989625  1
  O  O24  1  0.98740501  0.32986239  0.42397033  1
  O  O25  1  0.94339102  0.11521843  0.25974815  1
  O  O26  1  0.57677697  0.50651082  0.14667942  1
  O  O27  1  0.05109282  0.72138454  0.29468356  1
  O  O28  1  0.30922851  0.44851575  0.28632716  1
  O  O29  1  0.32422876  0.01898691  0.64134753  1
  O  O30  1  0.43779824  0.66275835  0.23876454  1
  O  O31  1  0.70357610  0.20394518  0.48811119  1
  O  O32  1  0.74365646  0.03088466  0.06437515  1
  O  O33  1  0.31529123  0.55612024  0.55504413  1
  O  O34  1  0.67606275  0.44312919  0.44482859  1
  O  O35  1  0.29828757  0.98250312  0.91672618  1
  O  O36  1  0.24136685  0.80050431  0.49531791  1
  O  O37  1  0.56710338  0.34156347  0.75636163  1
  O  O38  1  0.69776912  0.97824559  0.33800867  1
  O  O39  1  0.67217682  0.56024731  0.72043818  1
  O  O40  1  0.93831038  0.25856557  0.69627713  1
  O  O41  1  0.40846445  0.48600507  0.85532416  1
  O  O42  1  0.06602175  0.90245090  0.72829072  1
  O  O43  1  0.97749143  0.65572647  0.55696497  1
  O  O44  1  0.05391486  0.65733139  0.88874436  1
  O  O45  1  0.73548856  0.84012651  0.67349353  1
  O  O46  1  0.44403456  0.78884328  0.88464717  1
  O  O47  1  0.91648011  0.83727555  0.94954133  1
