# generated using pymatgen
data_LiMn3Al2(HO2)6
_symmetry_space_group_name_H-M   'P 1'
_cell_length_a   5.87796700
_cell_length_b   7.95150028
_cell_length_c   9.69124456
_cell_angle_alpha   100.93401398
_cell_angle_beta   89.77266665
_cell_angle_gamma   100.93891277
_symmetry_Int_Tables_number   1
_chemical_formula_structural   LiMn3Al2(HO2)6
_chemical_formula_sum   'Li2 Mn6 Al4 H12 O24'
_cell_volume   436.41111554
_cell_formula_units_Z   2
loop_
 _symmetry_equiv_pos_site_id
 _symmetry_equiv_pos_as_xyz
  1  'x, y, z'
loop_
 _atom_site_type_symbol
 _atom_site_label
 _atom_site_symmetry_multiplicity
 _atom_site_fract_x
 _atom_site_fract_y
 _atom_site_fract_z
 _atom_site_occupancy
  Li  Li0  1  0.65831900  0.65525300  0.50035800  1
  Li  Li1  1  0.34168100  0.34474700  0.49964200  1
  Mn  Mn2  1  0.91798700  0.66453800  0.00686000  1
  Mn  Mn3  1  0.08201300  0.33546200  0.99314000  1
  Mn  Mn4  1  0.41855100  0.66431900  0.00605400  1
  Mn  Mn5  1  0.58144900  0.33568100  0.99394600  1
  Mn  Mn6  1  0.24995000  0.00022100  0.00033500  1
  Mn  Mn7  1  0.75005000  0.99977900  0.99966500  1
  Al  Al8  1  0.16926900  0.65977900  0.49927100  1
  Al  Al9  1  0.83073100  0.34022100  0.50072900  1
  Al  Al10  1  0.00000000  0.00000000  0.50000000  1
  Al  Al11  1  0.50000000  0.00000000  0.50000000  1
  H  H12  1  0.21111600  0.83644400  0.28821300  1
  H  H13  1  0.71060800  0.84676600  0.29592100  1
  H  H14  1  0.96966400  0.82452200  0.69964100  1
  H  H15  1  0.88785800  0.50177800  0.29139500  1
  H  H16  1  0.44625900  0.82970200  0.70468700  1
  H  H17  1  0.11214200  0.49822200  0.70860500  1
  H  H18  1  0.35924700  0.51674900  0.29094500  1
  H  H19  1  0.03033600  0.17547800  0.30035900  1
  H  H20  1  0.64075300  0.48325100  0.70905500  1
  H  H21  1  0.55374100  0.17029800  0.29531300  1
  H  H22  1  0.78888400  0.16355600  0.71178700  1
  H  H23  1  0.28939200  0.15323400  0.70407900  1
  O  O24  1  0.19818800  0.78083900  0.11425700  1
  O  O25  1  0.21586600  0.86907500  0.39361600  1
  O  O26  1  0.72092700  0.88341900  0.39949900  1
  O  O27  1  0.69760200  0.78079800  0.11343800  1
  O  O28  1  0.96889100  0.80861400  0.59682500  1
  O  O29  1  0.96830100  0.85463200  0.90400500  1
  O  O30  1  0.89756700  0.52089100  0.39470500  1
  O  O31  1  0.86512500  0.46477000  0.10156700  1
  O  O32  1  0.46730500  0.85496300  0.90394000  1
  O  O33  1  0.13487500  0.53523000  0.89843300  1
  O  O34  1  0.43605200  0.81165600  0.60170900  1
  O  O35  1  0.10243300  0.47910900  0.60529500  1
  O  O36  1  0.03110900  0.19138600  0.40317500  1
  O  O37  1  0.36382000  0.46453800  0.09995900  1
  O  O38  1  0.36884400  0.54584200  0.39348700  1
  O  O39  1  0.03169900  0.14536800  0.09599500  1
  O  O40  1  0.63618000  0.53546200  0.90004100  1
  O  O41  1  0.63115600  0.45415800  0.60651300  1
  O  O42  1  0.56394800  0.18834400  0.39829100  1
  O  O43  1  0.53269500  0.14503700  0.09606000  1
  O  O44  1  0.80181200  0.21916100  0.88574300  1
  O  O45  1  0.78413400  0.13092500  0.60638400  1
  O  O46  1  0.27907300  0.11658100  0.60050100  1
  O  O47  1  0.30239800  0.21920200  0.88656200  1
