# generated using pymatgen
data_Li5Mn2(PO4)3
_symmetry_space_group_name_H-M   'P 1'
_cell_length_a   8.50263600
_cell_length_b   8.53468410
_cell_length_c   9.38520714
_cell_angle_alpha   90.33971081
_cell_angle_beta   115.62634786
_cell_angle_gamma   119.44491503
_symmetry_Int_Tables_number   1
_chemical_formula_structural   Li5Mn2(PO4)3
_chemical_formula_sum   'Li10 Mn4 P6 O24'
_cell_volume   513.61519668
_cell_formula_units_Z   2
loop_
 _symmetry_equiv_pos_site_id
 _symmetry_equiv_pos_as_xyz
  1  'x, y, z'
loop_
 _atom_site_type_symbol
 _atom_site_label
 _atom_site_symmetry_multiplicity
 _atom_site_fract_x
 _atom_site_fract_y
 _atom_site_fract_z
 _atom_site_occupancy
  Li  Li0  1  0.31408500  0.51183600  0.39199500  1
  Li  Li1  1  0.37455700  0.05493700  0.10719300  1
  Li  Li2  1  0.09364500  0.21767000  0.60209300  1
  Li  Li3  1  0.66483300  0.19694300  0.40505700  1
  Li  Li4  1  0.02141800  0.30492600  0.10425000  1
  Li  Li5  1  0.32702000  0.77722500  0.59141400  1
  Li  Li6  1  0.82380700  0.75326600  0.21136200  1
  Li  Li7  1  0.21674500  0.27198800  0.90917500  1
  Li  Li8  1  0.60976700  0.92991100  0.89416100  1
  Li  Li9  1  0.92481900  0.64664000  0.85028700  1
  Mn  Mn10  1  0.72642800  0.85459800  0.57007500  1
  Mn  Mn11  1  0.30781100  0.64486600  0.97358000  1
  Mn  Mn12  1  0.67910400  0.34679100  0.02230100  1
  Mn  Mn13  1  0.30342400  0.14221400  0.44579700  1
  P  P14  1  0.81587800  0.24696200  0.75775600  1
  P  P15  1  0.78463700  0.05453800  0.24563300  1
  P  P16  1  0.49764800  0.44204400  0.25215800  1
  P  P17  1  0.48315800  0.53713100  0.74591700  1
  P  P18  1  0.20022300  0.95378300  0.75198900  1
  P  P19  1  0.18293000  0.73357100  0.24104700  1
  O  O20  1  0.29159900  0.42176900  0.11591800  1
  O  O21  1  0.58833100  0.58927200  0.40798900  1
  O  O22  1  0.37173800  0.76578900  0.40491800  1
  O  O23  1  0.24090900  0.79346700  0.10432900  1
  O  O24  1  0.91925800  0.14357900  0.74024900  1
  O  O25  1  0.64800700  0.85660300  0.11862900  1
  O  O26  1  0.43391800  0.24530700  0.28491200  1
  O  O27  1  0.80310800  0.04156200  0.41740300  1
  O  O28  1  0.97775300  0.46051400  0.81253700  1
  O  O29  1  0.67595100  0.16222400  0.18653400  1
  O  O30  1  0.00300900  0.15706400  0.26144000  1
  O  O31  1  0.65039500  0.49639000  0.18779700  1
  O  O32  1  0.33577200  0.48434100  0.81850300  1
  O  O33  1  0.98102700  0.83102200  0.73308500  1
  O  O34  1  0.30543900  0.84123600  0.77963100  1
  O  O35  1  0.01677200  0.52005400  0.18135400  1
  O  O36  1  0.17984800  0.02391400  0.59754100  1
  O  O37  1  0.56198500  0.73993500  0.72551100  1
  O  O38  1  0.33554200  0.12851600  0.90523500  1
  O  O39  1  0.10730100  0.85219500  0.27904500  1
  O  O40  1  0.75803200  0.19085400  0.89557700  1
  O  O41  1  0.61812800  0.18657000  0.59197800  1
  O  O42  1  0.34244200  0.39623000  0.57048100  1
  O  O43  1  0.66970100  0.52295400  0.85746400  1
