# generated using pymatgen
data_Li2Mn2C2O7
_symmetry_space_group_name_H-M   'P 1'
_cell_length_a   6.85324900
_cell_length_b   9.62748600
_cell_length_c   10.33578883
_cell_angle_alpha   64.58250910
_cell_angle_beta   90.00000000
_cell_angle_gamma   90.00000000
_symmetry_Int_Tables_number   1
_chemical_formula_structural   Li2Mn2C2O7
_chemical_formula_sum   'Li8 Mn8 C8 O28'
_cell_volume   615.94088869
_cell_formula_units_Z   4
loop_
 _symmetry_equiv_pos_site_id
 _symmetry_equiv_pos_as_xyz
  1  'x, y, z'
loop_
 _atom_site_type_symbol
 _atom_site_label
 _atom_site_symmetry_multiplicity
 _atom_site_fract_x
 _atom_site_fract_y
 _atom_site_fract_z
 _atom_site_occupancy
  Li  Li0  1  0.25285000  0.26065600  0.00362400  1
  Li  Li1  1  0.64607000  0.42382900  0.14923000  1
  Li  Li2  1  0.14607000  0.07617100  0.85077000  1
  Li  Li3  1  0.75285000  0.23934400  0.99637600  1
  Li  Li4  1  0.24715000  0.76065600  0.00362400  1
  Li  Li5  1  0.85393000  0.92382900  0.14923000  1
  Li  Li6  1  0.35393000  0.57617100  0.85077000  1
  Li  Li7  1  0.74715000  0.73934400  0.99637600  1
  Mn  Mn8  1  0.95287100  0.41427900  0.66389200  1
  Mn  Mn9  1  0.54712900  0.91427900  0.66389200  1
  Mn  Mn10  1  0.45287100  0.08572100  0.33610800  1
  Mn  Mn11  1  0.04712900  0.58572100  0.33610800  1
  Mn  Mn12  1  0.63537600  0.27353500  0.51504400  1
  Mn  Mn13  1  0.86462400  0.77353500  0.51504400  1
  Mn  Mn14  1  0.13537600  0.22646500  0.48495600  1
  Mn  Mn15  1  0.36462400  0.72646500  0.48495600  1
  C  C16  1  0.35518700  0.35032100  0.71676800  1
  C  C17  1  0.76184300  0.06505600  0.84941800  1
  C  C18  1  0.26184300  0.43494400  0.15058200  1
  C  C19  1  0.14481300  0.85032100  0.71676800  1
  C  C20  1  0.85518700  0.14967900  0.28323200  1
  C  C21  1  0.73815700  0.56505600  0.84941800  1
  C  C22  1  0.23815700  0.93494400  0.15058200  1
  C  C23  1  0.64481300  0.64967900  0.28323200  1
  O  O24  1  0.51210400  0.38203800  0.64480100  1
  O  O25  1  0.40811600  0.12945300  0.51292400  1
  O  O26  1  0.32055700  0.39947700  0.81483800  1
  O  O27  1  0.21556700  0.26816600  0.69479700  1
  O  O28  1  0.76095300  0.44419500  0.96927900  1
  O  O29  1  0.70059700  0.06889200  0.73006500  1
  O  O30  1  0.85263800  0.18450400  0.85142100  1
  O  O31  1  0.98789600  0.88203800  0.64480100  1
  O  O32  1  0.09188400  0.62945300  0.51292400  1
  O  O33  1  0.17944300  0.89947700  0.81483800  1
  O  O34  1  0.28443300  0.76816600  0.69479700  1
  O  O35  1  0.35263800  0.31549600  0.14857900  1
  O  O36  1  0.20059700  0.43110800  0.26993500  1
  O  O37  1  0.73904700  0.94419500  0.96927900  1
  O  O38  1  0.26095300  0.05580500  0.03072100  1
  O  O39  1  0.79940300  0.56889200  0.73006500  1
  O  O40  1  0.64736200  0.68450400  0.85142100  1
  O  O41  1  0.71556700  0.23183400  0.30520300  1
  O  O42  1  0.82055700  0.10052300  0.18516200  1
  O  O43  1  0.90811600  0.37054700  0.48707600  1
  O  O44  1  0.01210400  0.11796200  0.35519900  1
  O  O45  1  0.14736200  0.81549600  0.14857900  1
  O  O46  1  0.29940300  0.93110800  0.26993500  1
  O  O47  1  0.23904700  0.55580500  0.03072100  1
  O  O48  1  0.78443300  0.73183400  0.30520300  1
  O  O49  1  0.67944300  0.60052300  0.18516200  1
  O  O50  1  0.59188400  0.87054700  0.48707600  1
  O  O51  1  0.48789600  0.61796200  0.35519900  1
