# generated using pymatgen
data_Li3Al2FeO6
_symmetry_space_group_name_H-M   'P 1'
_cell_length_a   10.21703900
_cell_length_b   5.88693900
_cell_length_c   9.97053028
_cell_angle_alpha   54.43130744
_cell_angle_beta   90.00000000
_cell_angle_gamma   90.00000000
_symmetry_Int_Tables_number   1
_chemical_formula_structural   Li3Al2FeO6
_chemical_formula_sum   'Li12 Al8 Fe4 O24'
_cell_volume   487.80585399
_cell_formula_units_Z   4
loop_
 _symmetry_equiv_pos_site_id
 _symmetry_equiv_pos_as_xyz
  1  'x, y, z'
loop_
 _atom_site_type_symbol
 _atom_site_label
 _atom_site_symmetry_multiplicity
 _atom_site_fract_x
 _atom_site_fract_y
 _atom_site_fract_z
 _atom_site_occupancy
  Li  Li0  1  0.50488700  0.20435800  0.13918900  1
  Li  Li1  1  0.84662500  0.19179400  0.12376000  1
  Li  Li2  1  0.49917600  0.74026700  0.61428800  1
  Li  Li3  1  0.34662500  0.80820600  0.37624000  1
  Li  Li4  1  0.99917600  0.25973300  0.88571200  1
  Li  Li5  1  0.00488700  0.79564200  0.36081100  1
  Li  Li6  1  0.99511300  0.20435800  0.63918900  1
  Li  Li7  1  0.00082400  0.74026700  0.11428800  1
  Li  Li8  1  0.65337500  0.19179400  0.62376000  1
  Li  Li9  1  0.50082400  0.25973300  0.38571200  1
  Li  Li10  1  0.15337500  0.80820600  0.87624000  1
  Li  Li11  1  0.49511300  0.79564200  0.86081100  1
  Al  Al12  1  0.16765900  0.21272100  0.12089200  1
  Al  Al13  1  0.83868900  0.70207800  0.62626500  1
  Al  Al14  1  0.66765900  0.78727900  0.37910800  1
  Al  Al15  1  0.33868900  0.29792200  0.87373500  1
  Al  Al16  1  0.66131100  0.70207800  0.12626500  1
  Al  Al17  1  0.33234100  0.21272100  0.62089200  1
  Al  Al18  1  0.16131100  0.29792200  0.37373500  1
  Al  Al19  1  0.83234100  0.78727900  0.87910800  1
  Fe  Fe20  1  0.16404100  0.71086600  0.62633500  1
  Fe  Fe21  1  0.66404100  0.28913400  0.87366500  1
  Fe  Fe22  1  0.33595900  0.71086600  0.12633500  1
  Fe  Fe23  1  0.83595900  0.28913400  0.37366500  1
  O  O24  1  0.17356500  0.98858100  0.37392400  1
  O  O25  1  0.82258000  0.49102100  0.86300100  1
  O  O26  1  0.51993300  0.93604500  0.37752300  1
  O  O27  1  0.49742500  0.43389800  0.87153900  1
  O  O28  1  0.18987800  0.46540600  0.87742600  1
  O  O29  1  0.82361500  0.93925800  0.38714800  1
  O  O30  1  0.32361500  0.06074200  0.11285200  1
  O  O31  1  0.68987800  0.53459400  0.62257400  1
  O  O32  1  0.99742500  0.56610200  0.62846100  1
  O  O33  1  0.01993300  0.06395500  0.12247700  1
  O  O34  1  0.67356500  0.01141900  0.12607600  1
  O  O35  1  0.32258000  0.50897900  0.63699900  1
  O  O36  1  0.67742000  0.49102100  0.36300100  1
  O  O37  1  0.32643500  0.98858100  0.87392400  1
  O  O38  1  0.98006700  0.93604500  0.87752300  1
  O  O39  1  0.00257500  0.43389800  0.37153900  1
  O  O40  1  0.31012200  0.46540600  0.37742600  1
  O  O41  1  0.67638500  0.93925800  0.88714800  1
  O  O42  1  0.17638500  0.06074200  0.61285200  1
  O  O43  1  0.81012200  0.53459400  0.12257400  1
  O  O44  1  0.50257500  0.56610200  0.12846100  1
  O  O45  1  0.48006700  0.06395500  0.62247700  1
  O  O46  1  0.17742000  0.50897900  0.13699900  1
  O  O47  1  0.82643500  0.01141900  0.62607600  1
