# generated using pymatgen
data_LiMn3(BO3)3
_symmetry_space_group_name_H-M   'P 1'
_cell_length_a   6.18968700
_cell_length_b   7.76637462
_cell_length_c   9.03871782
_cell_angle_alpha   111.60474377
_cell_angle_beta   107.10682107
_cell_angle_gamma   96.98880649
_symmetry_Int_Tables_number   1
_chemical_formula_structural   LiMn3(BO3)3
_chemical_formula_sum   'Li2 Mn6 B6 O18'
_cell_volume   372.95012020
_cell_formula_units_Z   2
loop_
 _symmetry_equiv_pos_site_id
 _symmetry_equiv_pos_as_xyz
  1  'x, y, z'
loop_
 _atom_site_type_symbol
 _atom_site_label
 _atom_site_symmetry_multiplicity
 _atom_site_fract_x
 _atom_site_fract_y
 _atom_site_fract_z
 _atom_site_occupancy
  Li  Li0  1  0.48910800  0.16473200  0.71626800  1
  Li  Li1  1  0.51089200  0.83526800  0.28373200  1
  Mn  Mn2  1  0.18246500  0.43604900  0.27373000  1
  Mn  Mn3  1  0.10827100  0.85726900  0.37888000  1
  Mn  Mn4  1  0.89172900  0.14273100  0.62112000  1
  Mn  Mn5  1  0.81753500  0.56395100  0.72627000  1
  Mn  Mn6  1  0.52416400  0.77874200  0.92647100  1
  Mn  Mn7  1  0.47583600  0.22125800  0.07352900  1
  B  B8  1  0.54986600  0.79740800  0.59754400  1
  B  B9  1  0.45013400  0.20259200  0.40245600  1
  B  B10  1  0.77596500  0.51537600  0.04121800  1
  B  B11  1  0.86354900  0.12842700  0.28149700  1
  B  B12  1  0.22403500  0.48462400  0.95878200  1
  B  B13  1  0.13645100  0.87157300  0.71850300  1
  O  O14  1  0.39521400  0.71423500  0.42785200  1
  O  O15  1  0.22365400  0.35455500  0.03389000  1
  O  O16  1  0.67528800  0.98115900  0.67831100  1
  O  O17  1  0.16042700  0.99708700  0.64327400  1
  O  O18  1  0.60478600  0.28576500  0.57214800  1
  O  O19  1  0.94625400  0.57091800  0.20208900  1
  O  O20  1  0.32471200  0.01884100  0.32168900  1
  O  O21  1  0.61791200  0.34061700  0.95511300  1
  O  O22  1  0.77634600  0.64544500  0.96611000  1
  O  O23  1  0.83957300  0.00291300  0.35672600  1
  O  O24  1  0.02881200  0.29858900  0.36824000  1
  O  O25  1  0.38208800  0.65938300  0.04488700  1
  O  O26  1  0.70033500  0.07208000  0.11745600  1
  O  O27  1  0.05374600  0.42908200  0.79791100  1
  O  O28  1  0.55644700  0.68598700  0.69324700  1
  O  O29  1  0.97118800  0.70141100  0.63176000  1
  O  O30  1  0.44355300  0.31401300  0.30675300  1
  O  O31  1  0.29966500  0.92792000  0.88254400  1
