# generated using pymatgen
data_Li3Bi3P8O29
_symmetry_space_group_name_H-M   'P 1'
_cell_length_a   10.09760521
_cell_length_b   10.09760521
_cell_length_c   14.39504388
_cell_angle_alpha   89.80979261
_cell_angle_beta   89.80979261
_cell_angle_gamma   60.10565150
_symmetry_Int_Tables_number   1
_chemical_formula_structural   Li3Bi3P8O29
_chemical_formula_sum   'Li6 Bi6 P16 O58'
_cell_volume   1272.44370192
_cell_formula_units_Z   2
loop_
 _symmetry_equiv_pos_site_id
 _symmetry_equiv_pos_as_xyz
  1  'x, y, z'
loop_
 _atom_site_type_symbol
 _atom_site_label
 _atom_site_symmetry_multiplicity
 _atom_site_fract_x
 _atom_site_fract_y
 _atom_site_fract_z
 _atom_site_occupancy
  Li  Li0  1  0.03646300  0.94388500  0.50079600  1
  Li  Li1  1  0.94388500  0.03646300  0.00079600  1
  Li  Li2  1  0.08763300  0.68149300  0.94834700  1
  Li  Li3  1  0.68149300  0.08763300  0.44834700  1
  Li  Li4  1  0.09051700  0.22737500  0.44612000  1
  Li  Li5  1  0.22737500  0.09051700  0.94612000  1
  Bi  Bi6  1  0.43720400  0.56427800  0.25179300  1
  Bi  Bi7  1  0.56427800  0.43720400  0.75179300  1
  Bi  Bi8  1  0.99884000  0.56688100  0.74544600  1
  Bi  Bi9  1  0.99596200  0.43824100  0.25008000  1
  Bi  Bi10  1  0.56688100  0.99884000  0.24544600  1
  Bi  Bi11  1  0.43824100  0.99596200  0.75008000  1
  P  P12  1  0.22300500  0.70190800  0.65317000  1
  P  P13  1  0.08335000  0.69506500  0.15553700  1
  P  P14  1  0.70190800  0.22300500  0.15317000  1
  P  P15  1  0.33117100  0.33284000  0.87986000  1
  P  P16  1  0.33284000  0.33117100  0.37986000  1
  P  P17  1  0.69506500  0.08335000  0.65553700  1
  P  P18  1  0.78212400  0.92092900  0.84499100  1
  P  P19  1  0.08433800  0.22277900  0.65272200  1
  P  P20  1  0.92092900  0.78212400  0.34499100  1
  P  P21  1  0.22277900  0.08433800  0.15272200  1
  P  P22  1  0.30147100  0.91852100  0.34054600  1
  P  P23  1  0.66530000  0.66594400  0.12253000  1
  P  P24  1  0.66594400  0.66530000  0.62253000  1
  P  P25  1  0.29922400  0.77843200  0.84562600  1
  P  P26  1  0.91852100  0.30147100  0.84054600  1
  P  P27  1  0.77843200  0.29922400  0.34562600  1
  O  O28  1  0.21807400  0.78926200  0.74795100  1
  O  O29  1  0.19722200  0.78469600  0.92258600  1
  O  O30  1  0.24383800  0.68038200  0.15981800  1
  O  O31  1  0.98742500  0.79118500  0.24426800  1
  O  O32  1  0.00984600  0.80109300  0.42072400  1
  O  O33  1  0.07842000  0.68315800  0.65376700  1
  O  O34  1  0.36941100  0.54190900  0.65595000  1
  O  O35  1  0.30756200  0.48314100  0.33398300  1
  O  O36  1  0.54190900  0.36941100  0.15595000  1
  O  O37  1  0.78469600  0.19722200  0.42258600  1
  O  O38  1  0.78926200  0.21807400  0.24795100  1
  O  O39  1  0.68038200  0.24383800  0.65981800  1
  O  O40  1  0.19392500  0.49028500  0.84361800  1
  O  O41  1  0.10236700  0.53251100  0.16067100  1
  O  O42  1  0.48314100  0.30756200  0.83398300  1
  O  O43  1  0.32880700  0.33727100  0.98410400  1
  O  O44  1  0.33727100  0.32880700  0.48410400  1
  O  O45  1  0.49028500  0.19392500  0.34361800  1
  O  O46  1  0.10870100  0.36325700  0.65995700  1
  O  O47  1  0.19521400  0.30880100  0.34668800  1
  O  O48  1  0.68315800  0.07842000  0.15376700  1
  O  O49  1  0.79118500  0.98742500  0.74426800  1
  O  O50  1  0.80109300  0.00984600  0.92072400  1
  O  O51  1  0.78064600  0.00636500  0.56865300  1
  O  O52  1  0.53251100  0.10236700  0.66067100  1
  O  O53  1  0.30880100  0.19521400  0.84668800  1
  O  O54  1  0.75495600  0.92411700  0.34674800  1
  O  O55  1  0.36325700  0.10870100  0.15995700  1
  O  O56  1  0.07551600  0.24353800  0.15760800  1
  O  O57  1  0.00636500  0.78064600  0.06865300  1
  O  O58  1  0.01477900  0.19541000  0.91594000  1
  O  O59  1  0.98650300  0.22238000  0.74055300  1
  O  O60  1  0.92411700  0.75495600  0.84674800  1
  O  O61  1  0.63396200  0.91011000  0.84702300  1
  O  O62  1  0.24353800  0.07551600  0.65760800  1
  O  O63  1  0.69576500  0.79472200  0.16125900  1
  O  O64  1  0.46100500  0.90664000  0.33952200  1
  O  O65  1  0.19541000  0.01477900  0.41594000  1
  O  O66  1  0.21732600  0.00812700  0.06513900  1
  O  O67  1  0.22238000  0.98650300  0.24055300  1
  O  O68  1  0.31767100  0.92316400  0.84977000  1
  O  O69  1  0.79472200  0.69576500  0.66125900  1
  O  O70  1  0.91011000  0.63396200  0.34702300  1
  O  O71  1  0.50852200  0.79652300  0.66183400  1
  O  O72  1  0.66428700  0.66554800  0.01862100  1
  O  O73  1  0.66554800  0.66428700  0.51862100  1
  O  O74  1  0.50909300  0.69471300  0.16470000  1
  O  O75  1  0.90664000  0.46100500  0.83952200  1
  O  O76  1  0.79652300  0.50852200  0.16183400  1
  O  O77  1  0.32149900  0.75580300  0.34647500  1
  O  O78  1  0.20777500  0.80258200  0.57341000  1
  O  O79  1  0.46212200  0.63582900  0.84379100  1
  O  O80  1  0.69471300  0.50909300  0.66470000  1
  O  O81  1  0.63582900  0.46212200  0.34379100  1
  O  O82  1  0.92316400  0.31767100  0.34977000  1
  O  O83  1  0.00812700  0.21732600  0.56513900  1
  O  O84  1  0.75580300  0.32149900  0.84647500  1
  O  O85  1  0.80258200  0.20777500  0.07341000  1
