# generated using pymatgen
data_LiFe3SiPO8
_symmetry_space_group_name_H-M   'P 1'
_cell_length_a   7.16567700
_cell_length_b   5.56441500
_cell_length_c   9.83910827
_cell_angle_alpha   57.85268759
_cell_angle_beta   90.00000000
_cell_angle_gamma   90.00000000
_symmetry_Int_Tables_number   1
_chemical_formula_structural   LiFe3SiPO8
_chemical_formula_sum   'Li2 Fe6 Si2 P2 O16'
_cell_volume   332.16451204
_cell_formula_units_Z   2
loop_
 _symmetry_equiv_pos_site_id
 _symmetry_equiv_pos_as_xyz
  1  'x, y, z'
loop_
 _atom_site_type_symbol
 _atom_site_label
 _atom_site_symmetry_multiplicity
 _atom_site_fract_x
 _atom_site_fract_y
 _atom_site_fract_z
 _atom_site_occupancy
  Li  Li0  1  0.30521900  0.81828400  0.99575800  1
  Li  Li1  1  0.69478100  0.81828400  0.49575800  1
  Fe  Fe2  1  0.15382100  0.47218300  0.56452300  1
  Fe  Fe3  1  0.93703500  0.20202200  0.87352300  1
  Fe  Fe4  1  0.44880600  0.51015600  0.80779000  1
  Fe  Fe5  1  0.84617900  0.47218300  0.06452300  1
  Fe  Fe6  1  0.06296500  0.20202200  0.37352300  1
  Fe  Fe7  1  0.55119400  0.51015600  0.30779000  1
  Si  Si8  1  0.98800500  0.77424900  0.26659600  1
  Si  Si9  1  0.01199500  0.77424900  0.76659600  1
  P  P10  1  0.44637000  0.13375300  0.17862700  1
  P  P11  1  0.55363000  0.13375300  0.67862700  1
  O  O12  1  0.85045600  0.53453200  0.26097700  1
  O  O13  1  0.04809600  0.79025900  0.92984000  1
  O  O14  1  0.04939700  0.09122500  0.60690800  1
  O  O15  1  0.42787100  0.87820000  0.79518600  1
  O  O16  1  0.44230700  0.41680400  0.62568500  1
  O  O17  1  0.72534500  0.14397700  0.76559600  1
  O  O18  1  0.59102800  0.12660400  0.52484800  1
  O  O19  1  0.19275100  0.60775000  0.30413900  1
  O  O20  1  0.14954400  0.53453200  0.76097700  1
  O  O21  1  0.95190400  0.79025900  0.42984000  1
  O  O22  1  0.95060300  0.09122500  0.10690800  1
  O  O23  1  0.57212900  0.87820000  0.29518600  1
  O  O24  1  0.55769300  0.41680400  0.12568500  1
  O  O25  1  0.27465500  0.14397700  0.26559600  1
  O  O26  1  0.40897200  0.12660400  0.02484800  1
  O  O27  1  0.80724900  0.60775000  0.80413900  1
