# generated using pymatgen
data_Li16Fe4SiO16
_symmetry_space_group_name_H-M   'P 1'
_cell_length_a   5.48009400
_cell_length_b   6.40739845
_cell_length_c   10.96354330
_cell_angle_alpha   89.04835122
_cell_angle_beta   89.85841109
_cell_angle_gamma   89.55362232
_symmetry_Int_Tables_number   1
_chemical_formula_structural   Li16Fe4SiO16
_chemical_formula_sum   'Li16 Fe4 Si1 O16'
_cell_volume   384.89865823
_cell_formula_units_Z   1
loop_
 _symmetry_equiv_pos_site_id
 _symmetry_equiv_pos_as_xyz
  1  'x, y, z'
loop_
 _atom_site_type_symbol
 _atom_site_label
 _atom_site_symmetry_multiplicity
 _atom_site_fract_x
 _atom_site_fract_y
 _atom_site_fract_z
 _atom_site_occupancy
  Li  Li0  1  0.10900000  0.01982500  0.65911800  1
  Li  Li1  1  0.39908300  0.01553700  0.15773800  1
  Li  Li2  1  0.12518600  0.24290700  0.41096000  1
  Li  Li3  1  0.35650800  0.23238800  0.93377700  1
  Li  Li4  1  0.97519300  0.22152600  0.82430100  1
  Li  Li5  1  0.50980200  0.29435800  0.30885300  1
  Li  Li6  1  0.40270300  0.48480400  0.13054300  1
  Li  Li7  1  0.83489100  0.52241800  0.35034400  1
  Li  Li8  1  0.65817500  0.51495100  0.84496000  1
  Li  Li9  1  0.05932400  0.54987400  0.17395000  1
  Li  Li10  1  0.83549100  0.76050200  0.57208000  1
  Li  Li11  1  0.67263700  0.75381500  0.07713700  1
  Li  Li12  1  0.45820900  0.84370300  0.69927400  1
  Li  Li13  1  0.05533000  0.93881900  0.17706700  1
  Li  Li14  1  0.80325200  0.98016700  0.34778600  1
  Li  Li15  1  0.64577700  0.99296700  0.85360800  1
  Fe  Fe16  1  0.66344400  0.25156600  0.58682800  1
  Fe  Fe17  1  0.83754600  0.25136800  0.08276000  1
  Fe  Fe18  1  0.33829500  0.74004900  0.40359300  1
  Fe  Fe19  1  0.13895200  0.76721400  0.91459900  1
  Si  Si20  1  0.17062800  0.50270600  0.66463700  1
  O  O21  1  0.75249700  0.00574400  0.67211700  1
  O  O22  1  0.73154500  0.01037900  0.17116400  1
  O  O23  1  0.70336300  0.25373100  0.92423200  1
  O  O24  1  0.30039400  0.29936300  0.59734500  1
  O  O25  1  0.76721700  0.24910200  0.42831100  1
  O  O26  1  0.18763700  0.25444600  0.08709600  1
  O  O27  1  0.87197200  0.45750200  0.67754100  1
  O  O28  1  0.72701000  0.48519700  0.17562900  1
  O  O29  1  0.22279600  0.49844500  0.32576100  1
  O  O30  1  0.28593900  0.53234500  0.80351800  1
  O  O31  1  0.67280100  0.74147000  0.42829100  1
  O  O32  1  0.80176900  0.75026800  0.91381500  1
  O  O33  1  0.20752000  0.72675300  0.58815600  1
  O  O34  1  0.26126100  0.75250500  0.07692200  1
  O  O35  1  0.21703300  0.98772900  0.32934300  1
  O  O36  1  0.25803900  0.00404700  0.82264400  1
