# generated using pymatgen
data_Li5Fe11O16
_symmetry_space_group_name_H-M   'P 1'
_cell_length_a   6.04228000
_cell_length_b   6.06178450
_cell_length_c   10.34278076
_cell_angle_alpha   74.03101492
_cell_angle_beta   74.00100702
_cell_angle_gamma   60.51765124
_symmetry_Int_Tables_number   1
_chemical_formula_structural   Li5Fe11O16
_chemical_formula_sum   'Li5 Fe11 O16'
_cell_volume   312.56284470
_cell_formula_units_Z   1
loop_
 _symmetry_equiv_pos_site_id
 _symmetry_equiv_pos_as_xyz
  1  'x, y, z'
loop_
 _atom_site_type_symbol
 _atom_site_label
 _atom_site_symmetry_multiplicity
 _atom_site_fract_x
 _atom_site_fract_y
 _atom_site_fract_z
 _atom_site_occupancy
  Li  Li0  1  0.31270800  0.81106800  0.06219500  1
  Li  Li1  1  0.81304900  0.31383500  0.06237000  1
  Li  Li2  1  0.31291000  0.81143500  0.56389000  1
  Li  Li3  1  0.81481700  0.81289400  0.06042700  1
  Li  Li4  1  0.81358600  0.31389800  0.56380200  1
  Fe  Fe5  1  0.32643700  0.31233600  0.06045000  1
  Fe  Fe6  1  0.06274200  0.06100000  0.31315200  1
  Fe  Fe7  1  0.05321400  0.56723100  0.81761600  1
  Fe  Fe8  1  0.56869400  0.06209300  0.30769000  1
  Fe  Fe9  1  0.06321300  0.56690800  0.30847700  1
  Fe  Fe10  1  0.81059900  0.81454800  0.55912400  1
  Fe  Fe11  1  0.05357900  0.05742300  0.82118600  1
  Fe  Fe12  1  0.31204400  0.30644300  0.56631900  1
  Fe  Fe13  1  0.57137100  0.56899400  0.30889000  1
  Fe  Fe14  1  0.56097200  0.56062900  0.81266900  1
  Fe  Fe15  1  0.56349100  0.05681400  0.81812300  1
  O  O16  1  0.42139800  0.94029900  0.19179900  1
  O  O17  1  0.21075300  0.68374600  0.43276000  1
  O  O18  1  0.18295300  0.21040600  0.94071500  1
  O  O19  1  0.68682100  0.68518400  0.43479500  1
  O  O20  1  0.94074600  0.93787500  0.20208100  1
  O  O21  1  0.42499100  0.42824300  0.69243300  1
  O  O22  1  0.44077400  0.44093900  0.18588500  1
  O  O23  1  0.19585700  0.19568600  0.43197300  1
  O  O24  1  0.95841200  0.43319000  0.68364100  1
  O  O25  1  0.42111800  0.95691900  0.68035300  1
  O  O26  1  0.94076400  0.41774300  0.19499900  1
  O  O27  1  0.18540700  0.66816900  0.94231800  1
  O  O28  1  0.68142600  0.18751500  0.94656500  1
  O  O29  1  0.68471800  0.20820300  0.43475800  1
  O  O30  1  0.94379000  0.91271300  0.69021800  1
  O  O31  1  0.69554500  0.68691300  0.92504200  1
