# generated using pymatgen
data_Li4V3P8O29
_symmetry_space_group_name_H-M   'P 1'
_cell_length_a   9.73979000
_cell_length_b   9.77609119
_cell_length_c   14.34067465
_cell_angle_alpha   89.69340705
_cell_angle_beta   89.50631449
_cell_angle_gamma   60.37268883
_symmetry_Int_Tables_number   1
_chemical_formula_structural   Li4V3P8O29
_chemical_formula_sum   'Li8 V6 P16 O58'
_cell_volume   1186.90878216
_cell_formula_units_Z   2
loop_
 _symmetry_equiv_pos_site_id
 _symmetry_equiv_pos_as_xyz
  1  'x, y, z'
loop_
 _atom_site_type_symbol
 _atom_site_label
 _atom_site_symmetry_multiplicity
 _atom_site_fract_x
 _atom_site_fract_y
 _atom_site_fract_z
 _atom_site_occupancy
  Li  Li0  1  0.23178600  0.09158500  0.55071600  1
  Li  Li1  1  0.09538500  0.66882000  0.55407700  1
  Li  Li2  1  0.23717500  0.66142400  0.06100800  1
  Li  Li3  1  0.66845300  0.09616400  0.06358300  1
  Li  Li4  1  0.67471700  0.23132000  0.55738100  1
  Li  Li5  1  0.32195000  0.91212100  0.94443400  1
  Li  Li6  1  0.96414100  0.06004300  0.00556100  1
  Li  Li7  1  0.00353900  0.99619800  0.48149100  1
  V  V8  1  0.43778400  0.56336600  0.25424500  1
  V  V9  1  0.56627200  0.43582000  0.74989700  1
  V  V10  1  0.43545300  0.00237800  0.74593400  1
  V  V11  1  0.56535900  0.99888200  0.24864000  1
  V  V12  1  0.00041900  0.43440800  0.24638300  1
  V  V13  1  0.99919500  0.56043300  0.75477600  1
  P  P14  1  0.08284600  0.21910200  0.84363600  1
  P  P15  1  0.21823600  0.08865300  0.33763400  1
  P  P16  1  0.08464600  0.68906800  0.34236600  1
  P  P17  1  0.33428700  0.33836200  0.13150600  1
  P  P18  1  0.33094300  0.33790000  0.63322000  1
  P  P19  1  0.22810700  0.68438200  0.84122800  1
  P  P20  1  0.30827900  0.77628800  0.65973700  1
  P  P21  1  0.68626600  0.08872600  0.84419200  1
  P  P22  1  0.31203400  0.90946700  0.15910600  1
  P  P23  1  0.68743900  0.22334000  0.34360600  1
  P  P24  1  0.77993900  0.30665500  0.16443400  1
  P  P25  1  0.67228000  0.66398100  0.36485500  1
  P  P26  1  0.66153000  0.66853300  0.86567800  1
  P  P27  1  0.91836300  0.30438400  0.66014800  1
  P  P28  1  0.78386500  0.91282700  0.66533100  1
  P  P29  1  0.91836900  0.77930800  0.16115600  1
  O  O30  1  0.00769000  0.20663900  0.57847900  1
  O  O31  1  0.07956400  0.25974100  0.32495200  1
  O  O32  1  0.22763800  0.98014300  0.06996200  1
  O  O33  1  0.25727700  0.08444400  0.83395200  1
  O  O34  1  0.07759800  0.38130300  0.82986400  1
  O  O35  1  0.18931100  0.33631800  0.17976400  1
  O  O36  1  0.08027000  0.53516300  0.32961600  1
  O  O37  1  0.01469300  0.78975400  0.08298100  1
  O  O38  1  0.08635200  0.65500500  0.83322900  1
  O  O39  1  0.32408000  0.18925900  0.66846000  1
  O  O40  1  0.37659900  0.08423000  0.32864300  1
  O  O41  1  0.18562800  0.48566300  0.67959100  1
  O  O42  1  0.32162100  0.35788400  0.02835000  1
  O  O43  1  0.32528200  0.35108000  0.52946300  1
  O  O44  1  0.33237700  0.48694000  0.17614700  1
  O  O45  1  0.53195500  0.08731500  0.82954400  1
  O  O46  1  0.48691900  0.18748800  0.16381300  1
  O  O47  1  0.25833000  0.65510400  0.32853000  1
  O  O48  1  0.21190100  0.79982300  0.75753300  1
  O  O49  1  0.20580000  0.78286700  0.58129300  1
  O  O50  1  0.23207200  0.76015600  0.93110700  1
  O  O51  1  0.38336100  0.52636100  0.82366400  1
  O  O52  1  0.48526700  0.33002000  0.67234500  1
  O  O53  1  0.34781500  0.73556200  0.16480700  1
  O  O54  1  0.53159400  0.38138200  0.32917700  1
  O  O55  1  0.65214100  0.08800200  0.32733400  1
  O  O56  1  0.20247600  0.99425700  0.24900800  1
  O  O57  1  0.19325600  0.02186300  0.42642200  1
  O  O58  1  0.79612800  0.00541500  0.58586500  1
  O  O59  1  0.34063000  0.91632300  0.65750500  1
  O  O60  1  0.46379400  0.61772000  0.67211000  1
  O  O61  1  0.65820800  0.25852100  0.82344000  1
  O  O62  1  0.52485500  0.65896400  0.31901100  1
  O  O63  1  0.61794800  0.45755000  0.17270500  1
  O  O64  1  0.79344300  0.19997400  0.08650500  1
  O  O65  1  0.76698300  0.20788900  0.43451500  1
  O  O66  1  0.80458000  0.21125600  0.26112000  1
  O  O67  1  0.74326500  0.34262300  0.65983200  1
  O  O68  1  0.51200200  0.81480000  0.82811700  1
  O  O69  1  0.46588000  0.91620200  0.17174200  1
  O  O70  1  0.66407600  0.52110600  0.81678400  1
  O  O71  1  0.66802400  0.65668800  0.96861500  1
  O  O72  1  0.67062600  0.65115600  0.46743100  1
  O  O73  1  0.81643300  0.51895400  0.31610100  1
  O  O74  1  0.62126600  0.91831600  0.67371200  1
  O  O75  1  0.66987500  0.81013100  0.32238700  1
  O  O76  1  0.91457900  0.34696800  0.16254600  1
  O  O77  1  0.99329900  0.20434300  0.75376300  1
  O  O78  1  0.00703200  0.20117300  0.92893900  1
  O  O79  1  0.92393900  0.45966000  0.67435600  1
  O  O80  1  0.81170500  0.66621200  0.81900900  1
  O  O81  1  0.92382100  0.61885600  0.17139500  1
  O  O82  1  0.74559100  0.91600400  0.15858900  1
  O  O83  1  0.76414700  0.03366000  0.93653100  1
  O  O84  1  0.80650500  0.98192900  0.76271900  1
  O  O85  1  0.91946100  0.73866000  0.66411800  1
  O  O86  1  0.02227000  0.77270400  0.43308600  1
  O  O87  1  0.98660400  0.80472200  0.25904800  1
