# generated using pymatgen
data_LiCo(PO3)5
_symmetry_space_group_name_H-M   'P 1'
_cell_length_a   13.64811400
_cell_length_b   9.00525100
_cell_length_c   10.28499441
_cell_angle_alpha   79.26204732
_cell_angle_beta   90.00000000
_cell_angle_gamma   90.00000000
_symmetry_Int_Tables_number   1
_chemical_formula_structural   LiCo(PO3)5
_chemical_formula_sum   'Li4 Co4 P20 O60'
_cell_volume   1241.93962468
_cell_formula_units_Z   4
loop_
 _symmetry_equiv_pos_site_id
 _symmetry_equiv_pos_as_xyz
  1  'x, y, z'
loop_
 _atom_site_type_symbol
 _atom_site_label
 _atom_site_symmetry_multiplicity
 _atom_site_fract_x
 _atom_site_fract_y
 _atom_site_fract_z
 _atom_site_occupancy
  Li  Li0  1  0.10522500  0.90801300  0.27759800  1
  Li  Li1  1  0.60522500  0.09198700  0.22240200  1
  Li  Li2  1  0.89477500  0.09198700  0.72240200  1
  Li  Li3  1  0.39477500  0.90801300  0.77759800  1
  Co  Co4  1  0.00000000  0.50000000  0.00000000  1
  Co  Co5  1  0.00000000  0.50000000  0.50000000  1
  Co  Co6  1  0.50000000  0.50000000  0.50000000  1
  Co  Co7  1  0.50000000  0.50000000  0.00000000  1
  P  P8  1  0.85788800  0.52137700  0.74813900  1
  P  P9  1  0.75078800  0.00363000  0.97856500  1
  P  P10  1  0.25078800  0.99637000  0.52143500  1
  P  P11  1  0.14211200  0.47862300  0.25186100  1
  P  P12  1  0.42717900  0.19257000  0.41438800  1
  P  P13  1  0.35788800  0.47862300  0.75186100  1
  P  P14  1  0.41736600  0.18706500  0.92589600  1
  P  P15  1  0.91736600  0.81293500  0.57410400  1
  P  P16  1  0.86011700  0.52095900  0.25018700  1
  P  P17  1  0.36011700  0.47904100  0.24981300  1
  P  P18  1  0.07282100  0.19257000  0.91438800  1
  P  P19  1  0.13988300  0.47904100  0.74981300  1
  P  P20  1  0.58263400  0.81293500  0.07410400  1
  P  P21  1  0.57282100  0.80743000  0.58561200  1
  P  P22  1  0.92717900  0.80743000  0.08561200  1
  P  P23  1  0.24921200  0.99637000  0.02143500  1
  P  P24  1  0.63988300  0.52095900  0.75018700  1
  P  P25  1  0.74921200  0.00363000  0.47856500  1
  P  P26  1  0.64211200  0.52137700  0.24813900  1
  P  P27  1  0.08263400  0.18706500  0.42589600  1
  O  O28  1  0.35746100  0.30128200  0.30986900  1
  O  O29  1  0.26306100  0.88730000  0.65128600  1
  O  O30  1  0.87635200  0.50081100  0.39817400  1
  O  O31  1  0.57579900  0.43484200  0.17044000  1
  O  O32  1  0.45855200  0.06788700  0.85914600  1
  O  O33  1  0.01845600  0.29060300  0.99723800  1
  O  O34  1  0.16659000  0.12008400  0.53331900  1
  O  O35  1  0.48553200  0.28068500  0.99438000  1
  O  O36  1  0.98553200  0.71931500  0.50562000  1
  O  O37  1  0.85746100  0.69871800  0.19013100  1
  O  O38  1  0.24838300  0.53278200  0.77567800  1
  O  O39  1  0.34646700  0.10399600  0.51078400  1
  O  O40  1  0.64253900  0.69871800  0.69013100  1
  O  O41  1  0.54144800  0.93211300  0.14085400  1
  O  O42  1  0.83341000  0.87991600  0.46668100  1
  O  O43  1  0.35334100  0.30303900  0.81770200  1
  O  O44  1  0.98889800  0.90440000  0.15432600  1
  O  O45  1  0.51110200  0.90440000  0.65432600  1
  O  O46  1  0.37635200  0.49918900  0.10182600  1
  O  O47  1  0.74838300  0.46721800  0.72432200  1
  O  O48  1  0.92420100  0.43484200  0.67044000  1
  O  O49  1  0.12679000  0.49805000  0.10458900  1
  O  O50  1  0.01110200  0.09560000  0.84567400  1
  O  O51  1  0.25161700  0.53278200  0.27567800  1
  O  O52  1  0.76574500  0.07495000  0.59853800  1
  O  O53  1  0.23425500  0.92505000  0.40146200  1
  O  O54  1  0.48154400  0.29060300  0.49723800  1
  O  O55  1  0.73425500  0.07495000  0.09853800  1
  O  O56  1  0.98154400  0.70939700  0.00276200  1
  O  O57  1  0.64665900  0.69696100  0.18229800  1
  O  O58  1  0.84646700  0.89600400  0.98921600  1
  O  O59  1  0.23693900  0.88730000  0.15128600  1
  O  O60  1  0.37321000  0.49805000  0.60458900  1
  O  O61  1  0.85334100  0.69696100  0.68229800  1
  O  O62  1  0.15353300  0.10399600  0.01078400  1
  O  O63  1  0.07579900  0.56515800  0.32956000  1
  O  O64  1  0.48889800  0.09560000  0.34567400  1
  O  O65  1  0.51446800  0.71931500  0.00562000  1
  O  O66  1  0.62679000  0.50195000  0.39541100  1
  O  O67  1  0.14253900  0.30128200  0.80986900  1
  O  O68  1  0.42420100  0.56515800  0.82956000  1
  O  O69  1  0.95855200  0.93211300  0.64085400  1
  O  O70  1  0.92795900  0.44029300  0.17185700  1
  O  O71  1  0.87321000  0.50195000  0.89541100  1
  O  O72  1  0.12364800  0.49918900  0.60182600  1
  O  O73  1  0.33341000  0.12008400  0.03331900  1
  O  O74  1  0.07204100  0.55970700  0.82814300  1
  O  O75  1  0.73693900  0.11270000  0.34871400  1
  O  O76  1  0.26574500  0.92505000  0.90146200  1
  O  O77  1  0.62364800  0.50081100  0.89817400  1
  O  O78  1  0.76306100  0.11270000  0.84871400  1
  O  O79  1  0.04144800  0.06788700  0.35914600  1
  O  O80  1  0.42795900  0.55970700  0.32814300  1
  O  O81  1  0.75161700  0.46721800  0.22432200  1
  O  O82  1  0.01446800  0.28068500  0.49438000  1
  O  O83  1  0.66659000  0.87991600  0.96668100  1
  O  O84  1  0.51845600  0.70939700  0.50276200  1
  O  O85  1  0.57204100  0.44029300  0.67185700  1
  O  O86  1  0.14665900  0.30303900  0.31770200  1
  O  O87  1  0.65353300  0.89600400  0.48921600  1
