# generated using pymatgen
data_Li2CoP2O7
_symmetry_space_group_name_H-M   'P 1'
_cell_length_a   7.57393500
_cell_length_b   9.75476200
_cell_length_c   15.10952900
_cell_angle_alpha   90.00000000
_cell_angle_beta   90.00000000
_cell_angle_gamma   90.00000000
_symmetry_Int_Tables_number   1
_chemical_formula_structural   Li2CoP2O7
_chemical_formula_sum   'Li16 Co8 P16 O56'
_cell_volume   1116.32121420
_cell_formula_units_Z   8
loop_
 _symmetry_equiv_pos_site_id
 _symmetry_equiv_pos_as_xyz
  1  'x, y, z'
loop_
 _atom_site_type_symbol
 _atom_site_label
 _atom_site_symmetry_multiplicity
 _atom_site_fract_x
 _atom_site_fract_y
 _atom_site_fract_z
 _atom_site_occupancy
  Li  Li0  1  0.16388700  0.77531400  0.80916400  1
  Li  Li1  1  0.16388700  0.72468600  0.30916400  1
  Li  Li2  1  0.24167600  0.28237900  0.76121600  1
  Li  Li3  1  0.24167600  0.21762100  0.26121600  1
  Li  Li4  1  0.30003100  0.72881400  0.51038300  1
  Li  Li5  1  0.30003100  0.77118600  0.01038300  1
  Li  Li6  1  0.40168100  0.24660100  0.55118600  1
  Li  Li7  1  0.40168100  0.25339900  0.05118600  1
  Li  Li8  1  0.66388700  0.27531400  0.69083600  1
  Li  Li9  1  0.66388700  0.22468600  0.19083600  1
  Li  Li10  1  0.74167600  0.78237900  0.73878400  1
  Li  Li11  1  0.74167600  0.71762100  0.23878400  1
  Li  Li12  1  0.80003100  0.22881400  0.98961700  1
  Li  Li13  1  0.80003100  0.27118600  0.48961700  1
  Li  Li14  1  0.90168100  0.74660100  0.94881400  1
  Li  Li15  1  0.90168100  0.75339900  0.44881400  1
  Co  Co16  1  0.00832000  0.00756300  0.63736200  1
  Co  Co17  1  0.00832000  0.49243700  0.13736200  1
  Co  Co18  1  0.04008700  0.50241000  0.61790000  1
  Co  Co19  1  0.04008700  0.99759000  0.11790000  1
  Co  Co20  1  0.50832000  0.50756300  0.86263800  1
  Co  Co21  1  0.50832000  0.99243700  0.36263800  1
  Co  Co22  1  0.54008700  0.00241000  0.88210000  1
  Co  Co23  1  0.54008700  0.49759000  0.38210000  1
  P  P24  1  0.14333900  0.46834400  0.95035400  1
  P  P25  1  0.14333900  0.03165600  0.45035400  1
  P  P26  1  0.17484900  0.05497200  0.93430200  1
  P  P27  1  0.17484900  0.44502800  0.43430200  1
  P  P28  1  0.38468200  0.56463100  0.68737800  1
  P  P29  1  0.38468200  0.93536900  0.18737800  1
  P  P30  1  0.38924100  0.97562400  0.69617800  1
  P  P31  1  0.38924100  0.52437600  0.19617800  1
  P  P32  1  0.64333900  0.53165600  0.04964600  1
  P  P33  1  0.64333900  0.96834400  0.54964600  1
  P  P34  1  0.67484900  0.55497200  0.56569800  1
  P  P35  1  0.67484900  0.94502800  0.06569800  1
  P  P36  1  0.88468200  0.06463100  0.81262200  1
  P  P37  1  0.88468200  0.43536900  0.31262200  1
  P  P38  1  0.88924100  0.47562400  0.80382200  1
  P  P39  1  0.88924100  0.02437600  0.30382200  1
  O  O40  1  0.08127600  0.11561100  0.84467800  1
  O  O41  1  0.08127600  0.38438900  0.34467800  1
  O  O42  1  0.05931300  0.39049800  0.51001500  1
  O  O43  1  0.05931300  0.10950200  0.01001500  1
  O  O44  1  0.13206700  0.10397600  0.54068800  1
  O  O45  1  0.13206700  0.39602400  0.04068800  1
  O  O46  1  0.14071400  0.62450500  0.95729100  1
  O  O47  1  0.14071400  0.87549500  0.45729100  1
  O  O48  1  0.18482400  0.89956900  0.92429900  1
  O  O49  1  0.18482400  0.60043100  0.42429900  1
  O  O50  1  0.20324900  0.91166500  0.70195900  1
  O  O51  1  0.20324900  0.58833500  0.20195900  1
  O  O52  1  0.24980900  0.62819400  0.62277700  1
  O  O53  1  0.24980900  0.87180600  0.12277700  1
  O  O54  1  0.29405800  0.09475400  0.39572400  1
  O  O55  1  0.29405800  0.40524600  0.89572400  1
  O  O56  1  0.35743000  0.12381700  0.93611400  1
  O  O57  1  0.35743000  0.37618300  0.43611400  1
  O  O58  1  0.37965600  0.09094100  0.18532300  1
  O  O59  1  0.37965600  0.40905900  0.68532300  1
  O  O60  1  0.39202300  0.13144600  0.69806300  1
  O  O61  1  0.39202300  0.36855400  0.19806300  1
  O  O62  1  0.37006600  0.62916700  0.78000600  1
  O  O63  1  0.37006600  0.87083300  0.28000600  1
  O  O64  1  0.51283400  0.91007900  0.76580300  1
  O  O65  1  0.51283400  0.58992100  0.26580300  1
  O  O66  1  0.46153600  0.92124500  0.60012200  1
  O  O67  1  0.46153600  0.57875500  0.10012200  1
  O  O68  1  0.58127600  0.61561100  0.65532200  1
  O  O69  1  0.58127600  0.88438900  0.15532200  1
  O  O70  1  0.55931300  0.60950200  0.48998500  1
  O  O71  1  0.55931300  0.89049800  0.98998500  1
  O  O72  1  0.63206700  0.60397600  0.95931200  1
  O  O73  1  0.63206700  0.89602400  0.45931200  1
  O  O74  1  0.64071400  0.12450500  0.54270900  1
  O  O75  1  0.64071400  0.37549500  0.04270900  1
  O  O76  1  0.68482400  0.39956900  0.57570100  1
  O  O77  1  0.68482400  0.10043100  0.07570100  1
  O  O78  1  0.70324900  0.41166500  0.79804100  1
  O  O79  1  0.70324900  0.08833500  0.29804100  1
  O  O80  1  0.74980900  0.12819400  0.87722300  1
  O  O81  1  0.74980900  0.37180600  0.37722300  1
  O  O82  1  0.79405800  0.59475400  0.10427600  1
  O  O83  1  0.79405800  0.90524600  0.60427600  1
  O  O84  1  0.85743000  0.62381700  0.56388600  1
  O  O85  1  0.85743000  0.87618300  0.06388600  1
  O  O86  1  0.87965600  0.59094100  0.31467700  1
  O  O87  1  0.87965600  0.90905900  0.81467700  1
  O  O88  1  0.89202300  0.63144600  0.80193700  1
  O  O89  1  0.89202300  0.86855400  0.30193700  1
  O  O90  1  0.87006600  0.12916700  0.71999400  1
  O  O91  1  0.87006600  0.37083300  0.21999400  1
  O  O92  1  0.01283400  0.41007900  0.73419700  1
  O  O93  1  0.01283400  0.08992100  0.23419700  1
  O  O94  1  0.96153600  0.42124500  0.89987800  1
  O  O95  1  0.96153600  0.07875500  0.39987800  1
