# generated using pymatgen
data_LiMn(PO3)3
_symmetry_space_group_name_H-M   'P 1'
_cell_length_a   8.57620700
_cell_length_b   8.69315900
_cell_length_c   9.00241100
_cell_angle_alpha   90.00000000
_cell_angle_beta   90.00000000
_cell_angle_gamma   90.00000000
_symmetry_Int_Tables_number   1
_chemical_formula_structural   LiMn(PO3)3
_chemical_formula_sum   'Li4 Mn4 P12 O36'
_cell_volume   671.16873010
_cell_formula_units_Z   4
loop_
 _symmetry_equiv_pos_site_id
 _symmetry_equiv_pos_as_xyz
  1  'x, y, z'
loop_
 _atom_site_type_symbol
 _atom_site_label
 _atom_site_symmetry_multiplicity
 _atom_site_fract_x
 _atom_site_fract_y
 _atom_site_fract_z
 _atom_site_occupancy
  Li  Li0  1  0.87245000  0.64437300  0.33376900  1
  Li  Li1  1  0.62755000  0.35562700  0.83376900  1
  Li  Li2  1  0.12755000  0.14437300  0.16623100  1
  Li  Li3  1  0.37245000  0.85562700  0.66623100  1
  Mn  Mn4  1  0.65316800  0.63045100  0.60773500  1
  Mn  Mn5  1  0.84683200  0.36954900  0.10773500  1
  Mn  Mn6  1  0.34683200  0.13045100  0.89226500  1
  Mn  Mn7  1  0.15316800  0.86954900  0.39226500  1
  P  P8  1  0.79998400  0.69453400  0.93215700  1
  P  P9  1  0.02962400  0.68273700  0.68112700  1
  P  P10  1  0.19026800  0.52009600  0.19169700  1
  P  P11  1  0.30973200  0.47990400  0.69169700  1
  P  P12  1  0.47037600  0.31726300  0.18112700  1
  P  P13  1  0.70001600  0.30546600  0.43215700  1
  P  P14  1  0.20001600  0.19453400  0.56784300  1
  P  P15  1  0.97037600  0.18273700  0.81887300  1
  P  P16  1  0.80973200  0.02009600  0.30830300  1
  P  P17  1  0.69026800  0.97990400  0.80830300  1
  P  P18  1  0.52962400  0.81726300  0.31887300  1
  P  P19  1  0.29998400  0.80546600  0.06784300  1
  O  O20  1  0.95924500  0.73112900  0.83988800  1
  O  O21  1  0.63234300  0.68968300  0.37600200  1
  O  O22  1  0.84194800  0.63786800  0.08465200  1
  O  O23  1  0.22918800  0.63398100  0.05313100  1
  O  O24  1  0.90133200  0.62892700  0.57951200  1
  O  O25  1  0.40602400  0.61143700  0.63393400  1
  O  O26  1  0.12773900  0.61346200  0.31950900  1
  O  O27  1  0.69294800  0.59531800  0.84007000  1
  O  O28  1  0.13806600  0.54119600  0.73339300  1
  O  O29  1  0.36193400  0.45880400  0.23339300  1
  O  O30  1  0.80705200  0.40468200  0.34007000  1
  O  O31  1  0.37226100  0.38653800  0.81950900  1
  O  O32  1  0.09397600  0.38856300  0.13393400  1
  O  O33  1  0.59866800  0.37107300  0.07951200  1
  O  O34  1  0.27081200  0.36601900  0.55313100  1
  O  O35  1  0.65805200  0.36213200  0.58465200  1
  O  O36  1  0.86765700  0.31031700  0.87600200  1
  O  O37  1  0.54075500  0.26887100  0.33988800  1
  O  O38  1  0.04075500  0.23112900  0.66011200  1
  O  O39  1  0.36765700  0.18968300  0.12399800  1
  O  O40  1  0.15805200  0.13786800  0.41534800  1
  O  O41  1  0.77081200  0.13398100  0.44686900  1
  O  O42  1  0.09866800  0.12892700  0.92048800  1
  O  O43  1  0.59397600  0.11143700  0.86606600  1
  O  O44  1  0.87226100  0.11346200  0.18049100  1
  O  O45  1  0.30705200  0.09531800  0.65993000  1
  O  O46  1  0.86193400  0.04119600  0.76660700  1
  O  O47  1  0.63806600  0.95880400  0.26660700  1
  O  O48  1  0.19294800  0.90468200  0.15993000  1
  O  O49  1  0.62773900  0.88653800  0.68049100  1
  O  O50  1  0.90602400  0.88856300  0.36606600  1
  O  O51  1  0.40133200  0.87107300  0.42048800  1
  O  O52  1  0.72918800  0.86601900  0.94686900  1
  O  O53  1  0.34194800  0.86213200  0.91534800  1
  O  O54  1  0.13234300  0.81031700  0.62399800  1
  O  O55  1  0.45924500  0.76887100  0.16011200  1
