# generated using pymatgen
data_Li3MnPO5
_symmetry_space_group_name_H-M   'P 1'
_cell_length_a   5.03864900
_cell_length_b   5.50724000
_cell_length_c   16.03113100
_cell_angle_alpha   90.00000000
_cell_angle_beta   90.00000000
_cell_angle_gamma   90.00000000
_symmetry_Int_Tables_number   1
_chemical_formula_structural   Li3MnPO5
_chemical_formula_sum   'Li12 Mn4 P4 O20'
_cell_volume   444.84864475
_cell_formula_units_Z   4
loop_
 _symmetry_equiv_pos_site_id
 _symmetry_equiv_pos_as_xyz
  1  'x, y, z'
loop_
 _atom_site_type_symbol
 _atom_site_label
 _atom_site_symmetry_multiplicity
 _atom_site_fract_x
 _atom_site_fract_y
 _atom_site_fract_z
 _atom_site_occupancy
  Li  Li0  1  0.00811500  0.66228400  0.59368200  1
  Li  Li1  1  0.00811500  0.16228400  0.90631800  1
  Li  Li2  1  0.00799700  0.67030300  0.00452000  1
  Li  Li3  1  0.00799700  0.17030300  0.49548000  1
  Li  Li4  1  0.48320500  0.32724700  0.80397700  1
  Li  Li5  1  0.48320500  0.82724700  0.69602300  1
  Li  Li6  1  0.50811500  0.33771600  0.40631800  1
  Li  Li7  1  0.50811500  0.83771600  0.09368200  1
  Li  Li8  1  0.50799700  0.32969700  0.99548000  1
  Li  Li9  1  0.50799700  0.82969700  0.50452000  1
  Li  Li10  1  0.98320500  0.17275300  0.30397700  1
  Li  Li11  1  0.98320500  0.67275300  0.19602300  1
  Mn  Mn12  1  0.00869400  0.17299900  0.70026500  1
  Mn  Mn13  1  0.00869400  0.67299900  0.79973500  1
  Mn  Mn14  1  0.50869400  0.32700100  0.20026500  1
  Mn  Mn15  1  0.50869400  0.82700100  0.29973500  1
  P  P16  1  0.00097200  0.16458400  0.09681100  1
  P  P17  1  0.00097200  0.66458400  0.40318900  1
  P  P18  1  0.50097200  0.33541600  0.59681100  1
  P  P19  1  0.50097200  0.83541600  0.90318900  1
  O  O20  1  0.10366700  0.32407400  0.80919400  1
  O  O21  1  0.10366700  0.82407400  0.69080600  1
  O  O22  1  0.11260100  0.31067000  0.02131700  1
  O  O23  1  0.11260100  0.81067000  0.47868300  1
  O  O24  1  0.10459600  0.39934500  0.40228300  1
  O  O25  1  0.10459600  0.89934500  0.09771700  1
  O  O26  1  0.08347700  0.29419200  0.18045100  1
  O  O27  1  0.08347700  0.79419200  0.31954900  1
  O  O28  1  0.19047600  0.33380900  0.59137600  1
  O  O29  1  0.19047600  0.83380900  0.90862400  1
  O  O30  1  0.60366700  0.67592600  0.19080600  1
  O  O31  1  0.60366700  0.17592600  0.30919400  1
  O  O32  1  0.61260100  0.18933000  0.52131700  1
  O  O33  1  0.61260100  0.68933000  0.97868300  1
  O  O34  1  0.60459600  0.10065500  0.90228300  1
  O  O35  1  0.60459600  0.60065500  0.59771700  1
  O  O36  1  0.58347700  0.20580800  0.68045100  1
  O  O37  1  0.58347700  0.70580800  0.81954900  1
  O  O38  1  0.69047600  0.16619100  0.09137600  1
  O  O39  1  0.69047600  0.66619100  0.40862400  1
