# generated using pymatgen
data_Li4Cr2C4SO16
_symmetry_space_group_name_H-M   'P 1'
_cell_length_a   9.64607515
_cell_length_b   9.55069831
_cell_length_c   9.25610865
_cell_angle_alpha   61.69129796
_cell_angle_beta   60.65682064
_cell_angle_gamma   57.65188140
_symmetry_Int_Tables_number   1
_chemical_formula_structural   Li4Cr2C4SO16
_chemical_formula_sum   'Li8 Cr4 C8 S2 O32'
_cell_volume   601.38507611
_cell_formula_units_Z   2
loop_
 _symmetry_equiv_pos_site_id
 _symmetry_equiv_pos_as_xyz
  1  'x, y, z'
loop_
 _atom_site_type_symbol
 _atom_site_label
 _atom_site_symmetry_multiplicity
 _atom_site_fract_x
 _atom_site_fract_y
 _atom_site_fract_z
 _atom_site_occupancy
  Li  Li0  1  0.95228500  0.54771500  0.95228500  1
  Li  Li1  1  0.95387200  0.54612800  0.54612800  1
  Li  Li2  1  0.70387200  0.29612800  0.29612800  1
  Li  Li3  1  0.70228500  0.29771500  0.70228500  1
  Li  Li4  1  0.54771500  0.95228500  0.54771500  1
  Li  Li5  1  0.54612800  0.95387200  0.95387200  1
  Li  Li6  1  0.29612800  0.70387200  0.70387200  1
  Li  Li7  1  0.29771500  0.70228500  0.29771500  1
  Cr  Cr8  1  0.12500000  0.62500000  0.12500000  1
  Cr  Cr9  1  0.62500000  0.12500000  0.12500000  1
  Cr  Cr10  1  0.12500000  0.12500000  0.12500000  1
  Cr  Cr11  1  0.12500000  0.12500000  0.62500000  1
  C  C12  1  0.89593600  0.27611200  0.91676500  1
  C  C13  1  0.97388800  0.35406400  0.33881400  1
  C  C14  1  0.91676500  0.91118600  0.89593600  1
  C  C15  1  0.91118600  0.91676500  0.27611200  1
  C  C16  1  0.33881400  0.33323500  0.97388800  1
  C  C17  1  0.33323500  0.33881400  0.35406400  1
  C  C18  1  0.27611200  0.89593600  0.91118600  1
  C  C19  1  0.35406400  0.97388800  0.33323500  1
  S  S20  1  0.50000000  0.50000000  0.50000000  1
  S  S21  1  0.75000000  0.75000000  0.75000000  1
  O  O22  1  0.01776700  0.28186400  0.93469800  1
  O  O23  1  0.55867900  0.55630800  0.30631900  1
  O  O24  1  0.75865500  0.26800400  0.04500300  1
  O  O25  1  0.98199600  0.49134500  0.32166300  1
  O  O26  1  0.04500300  0.92833700  0.75865500  1
  O  O27  1  0.96753600  0.33686100  0.21123800  1
  O  O28  1  0.30631900  0.57869300  0.55867900  1
  O  O29  1  0.55630800  0.55867900  0.57869300  1
  O  O30  1  0.48436500  0.21123800  0.33686100  1
  O  O31  1  0.92833700  0.04500300  0.26800400  1
  O  O32  1  0.96813600  0.23223300  0.48432900  1
  O  O33  1  0.57869300  0.30631900  0.55630800  1
  O  O34  1  0.93469800  0.76567100  0.01776700  1
  O  O35  1  0.76567100  0.93469800  0.28186400  1
  O  O36  1  0.91313900  0.28246400  0.76563500  1
  O  O37  1  0.21123800  0.48436500  0.96753600  1
  O  O38  1  0.03876200  0.76563500  0.28246400  1
  O  O39  1  0.33686100  0.96753600  0.48436500  1
  O  O40  1  0.48432900  0.31530200  0.96813600  1
  O  O41  1  0.31530200  0.48432900  0.23223300  1
  O  O42  1  0.67130700  0.94368100  0.69369200  1
  O  O43  1  0.28186400  0.01776700  0.76567100  1
  O  O44  1  0.32166300  0.20499700  0.98199600  1
  O  O45  1  0.76563500  0.03876200  0.91313900  1
  O  O46  1  0.69369200  0.69132100  0.67130700  1
  O  O47  1  0.94368100  0.67130700  0.69132100  1
  O  O48  1  0.28246400  0.91313900  0.03876200  1
  O  O49  1  0.20499700  0.32166300  0.49134500  1
  O  O50  1  0.26800400  0.75865500  0.92833700  1
  O  O51  1  0.49134500  0.98199600  0.20499700  1
  O  O52  1  0.69132100  0.69369200  0.94368100  1
  O  O53  1  0.23223300  0.96813600  0.31530200  1
