# generated using pymatgen
data_Li5FeO4
_symmetry_space_group_name_H-M   'P 1'
_cell_length_a   5.60540400
_cell_length_b   6.77921355
_cell_length_c   11.01692836
_cell_angle_alpha   89.89365535
_cell_angle_beta   78.17565140
_cell_angle_gamma   89.75784159
_symmetry_Int_Tables_number   1
_chemical_formula_structural   Li5FeO4
_chemical_formula_sum   'Li20 Fe4 O16'
_cell_volume   409.75845233
_cell_formula_units_Z   4
loop_
 _symmetry_equiv_pos_site_id
 _symmetry_equiv_pos_as_xyz
  1  'x, y, z'
loop_
 _atom_site_type_symbol
 _atom_site_label
 _atom_site_symmetry_multiplicity
 _atom_site_fract_x
 _atom_site_fract_y
 _atom_site_fract_z
 _atom_site_occupancy
  Li  Li0  1  0.09760600  0.21267700  0.28919800  1
  Li  Li1  1  0.00752200  0.25405300  0.65882700  1
  Li  Li2  1  0.09662300  0.98006300  0.80142000  1
  Li  Li3  1  0.10882000  0.52861600  0.79763000  1
  Li  Li4  1  0.27722100  0.96730500  0.07978900  1
  Li  Li5  1  0.22156900  0.47332900  0.42430700  1
  Li  Li6  1  0.31416500  0.53393900  0.05921700  1
  Li  Li7  1  0.18003500  0.02533400  0.44743700  1
  Li  Li8  1  0.40491700  0.71332900  0.21783400  1
  Li  Li9  1  0.50666400  0.25726200  0.17131000  1
  Li  Li10  1  0.58725200  0.96677400  0.30771100  1
  Li  Li11  1  0.49196800  0.75473100  0.82411400  1
  Li  Li12  1  0.54456000  0.26193400  0.76594500  1
  Li  Li13  1  0.77199600  0.98318200  0.57100300  1
  Li  Li14  1  0.67769600  0.04158700  0.93637200  1
  Li  Li15  1  0.91128100  0.47142800  0.19607600  1
  Li  Li16  1  0.79979900  0.53025000  0.56222600  1
  Li  Li17  1  0.69749600  0.46910900  0.92912700  1
  Li  Li18  1  0.98762600  0.75541100  0.33508000  1
  Li  Li19  1  0.88988600  0.75316600  0.70140000  1
  Fe  Fe20  1  0.17081800  0.25292000  0.94801000  1
  Fe  Fe21  1  0.68007900  0.26093400  0.43249600  1
  Fe  Fe22  1  0.82606900  0.75934900  0.06027800  1
  Fe  Fe23  1  0.32490900  0.75147800  0.56834800  1
  O  O24  1  0.09514100  0.73100500  0.14202500  1
  O  O25  1  0.16672700  0.26710100  0.11830500  1
  O  O26  1  0.10264200  0.96827400  0.62624600  1
  O  O27  1  0.11011200  0.53464100  0.62242300  1
  O  O28  1  0.33780500  0.76262900  0.39160000  1
  O  O29  1  0.39994500  0.22817900  0.35869600  1
  O  O30  1  0.36298700  0.02658500  0.88856900  1
  O  O31  1  0.37391300  0.47423300  0.88193600  1
  O  O32  1  0.63449600  0.52526800  0.11053700  1
  O  O33  1  0.60009100  0.96341800  0.12300700  1
  O  O34  1  0.60207700  0.75132700  0.64025600  1
  O  O35  1  0.68732400  0.26042300  0.60184800  1
  O  O36  1  0.90496300  0.46648500  0.37137600  1
  O  O37  1  0.86772600  0.02250500  0.38399400  1
  O  O38  1  0.85792700  0.75612800  0.88100000  1
  O  O39  1  0.90965700  0.25184400  0.85862300  1
