# generated using pymatgen
data_Li4V3CrO8
_symmetry_space_group_name_H-M   'P 1'
_cell_length_a   5.18761200
_cell_length_b   5.99604525
_cell_length_c   10.75571427
_cell_angle_alpha   98.09333637
_cell_angle_beta   103.72211165
_cell_angle_gamma   106.97467174
_symmetry_Int_Tables_number   1
_chemical_formula_structural   Li4V3CrO8
_chemical_formula_sum   'Li8 V6 Cr2 O16'
_cell_volume   302.80287730
_cell_formula_units_Z   2
loop_
 _symmetry_equiv_pos_site_id
 _symmetry_equiv_pos_as_xyz
  1  'x, y, z'
loop_
 _atom_site_type_symbol
 _atom_site_label
 _atom_site_symmetry_multiplicity
 _atom_site_fract_x
 _atom_site_fract_y
 _atom_site_fract_z
 _atom_site_occupancy
  Li  Li0  1  0.99915300  0.25020700  0.00026400  1
  Li  Li1  1  0.74787900  0.87189300  0.74843900  1
  Li  Li2  1  0.24710300  0.62259900  0.25032600  1
  Li  Li3  1  0.50000000  0.00000000  0.50000000  1
  Li  Li4  1  0.00084700  0.74979300  0.99973600  1
  Li  Li5  1  0.75289700  0.37740100  0.74967400  1
  Li  Li6  1  0.25212100  0.12810700  0.25156100  1
  Li  Li7  1  0.50000000  0.50000000  0.50000000  1
  V  V8  1  0.37623900  0.06227100  0.87476800  1
  V  V9  1  0.62476400  0.43711500  0.12489700  1
  V  V10  1  0.87414600  0.81286200  0.37461400  1
  V  V11  1  0.37523600  0.56288500  0.87510300  1
  V  V12  1  0.12585400  0.18713800  0.62538600  1
  V  V13  1  0.62376100  0.93772900  0.12523200  1
  Cr  Cr14  1  0.87449900  0.31340100  0.37554200  1
  Cr  Cr15  1  0.12550100  0.68659900  0.62445800  1
  O  O16  1  0.16475900  0.64921900  0.43940000  1
  O  O17  1  0.58479200  0.47264000  0.31109700  1
  O  O18  1  0.67101700  0.40246100  0.93917700  1
  O  O19  1  0.08292000  0.22223200  0.81138000  1
  O  O20  1  0.83553600  0.84593100  0.56052000  1
  O  O21  1  0.41705600  0.02339800  0.68827800  1
  O  O22  1  0.91708000  0.77776800  0.18862000  1
  O  O23  1  0.32898300  0.59753900  0.06082300  1
  O  O24  1  0.16446400  0.15406900  0.43948000  1
  O  O25  1  0.58294400  0.97660200  0.31172200  1
  O  O26  1  0.66819600  0.90182700  0.93869900  1
  O  O27  1  0.08317000  0.72337100  0.80934800  1
  O  O28  1  0.41520800  0.52736000  0.68890300  1
  O  O29  1  0.91683000  0.27662900  0.19065200  1
  O  O30  1  0.83524100  0.35078100  0.56060000  1
  O  O31  1  0.33180400  0.09817300  0.06130100  1
