# generated using pymatgen
data_Na2LiMnPCO7
_symmetry_space_group_name_H-M   'P 1'
_cell_length_a   6.78714500
_cell_length_b   8.88558200
_cell_length_c   10.26288681
_cell_angle_alpha   89.47990915
_cell_angle_beta   90.00000000
_cell_angle_gamma   90.00000000
_symmetry_Int_Tables_number   1
_chemical_formula_structural   Na2LiMnPCO7
_chemical_formula_sum   'Na8 Li4 Mn4 P4 C4 O28'
_cell_volume   618.90594338
_cell_formula_units_Z   4
loop_
 _symmetry_equiv_pos_site_id
 _symmetry_equiv_pos_as_xyz
  1  'x, y, z'
loop_
 _atom_site_type_symbol
 _atom_site_label
 _atom_site_symmetry_multiplicity
 _atom_site_fract_x
 _atom_site_fract_y
 _atom_site_fract_z
 _atom_site_occupancy
  Na  Na0  1  0.50135200  0.08355800  0.87934300  1
  Na  Na1  1  0.49864800  0.08355800  0.37934300  1
  Na  Na2  1  0.24893400  0.25545100  0.62481800  1
  Na  Na3  1  0.75106600  0.25545100  0.12481800  1
  Na  Na4  1  0.75143700  0.74365400  0.87642500  1
  Na  Na5  1  0.24825300  0.74324200  0.87599300  1
  Na  Na6  1  0.75174700  0.74324200  0.37599300  1
  Na  Na7  1  0.24856300  0.74365400  0.37642500  1
  Li  Li8  1  0.73358000  0.27043700  0.61774800  1
  Li  Li9  1  0.26642000  0.27043700  0.11774800  1
  Li  Li10  1  0.99259900  0.91444900  0.62643300  1
  Li  Li11  1  0.00740100  0.91444900  0.12643300  1
  Mn  Mn12  1  0.00170300  0.35997800  0.88912200  1
  Mn  Mn13  1  0.99829700  0.35997800  0.38912200  1
  Mn  Mn14  1  0.49907900  0.63972800  0.61200200  1
  Mn  Mn15  1  0.50092100  0.63972800  0.11200200  1
  P  P16  1  0.50459800  0.40893800  0.85338900  1
  P  P17  1  0.49540200  0.40893800  0.35338900  1
  P  P18  1  0.99507900  0.59071000  0.64911500  1
  P  P19  1  0.00492100  0.59071000  0.14911500  1
  C  C20  1  0.99901500  0.05315600  0.86509800  1
  C  C21  1  0.00098500  0.05315600  0.36509800  1
  C  C22  1  0.50833400  0.94483900  0.63161400  1
  C  C23  1  0.49166600  0.94483900  0.13161400  1
  O  O24  1  0.52512300  0.09048600  0.64064800  1
  O  O25  1  0.47487700  0.09048600  0.14064800  1
  O  O26  1  0.99902400  0.09251100  0.98686000  1
  O  O27  1  0.00097600  0.09251100  0.48686000  1
  O  O28  1  0.99835100  0.15463900  0.77234600  1
  O  O29  1  0.00164900  0.15463900  0.27234600  1
  O  O30  1  0.31952800  0.31679900  0.89552400  1
  O  O31  1  0.68692700  0.31810400  0.89993600  1
  O  O32  1  0.31307300  0.31810400  0.39993600  1
  O  O33  1  0.68047200  0.31679900  0.39552400  1
  O  O34  1  0.51199000  0.42268700  0.70080400  1
  O  O35  1  0.98168900  0.43017900  0.58926700  1
  O  O36  1  0.48801000  0.42268700  0.20080400  1
  O  O37  1  0.01831100  0.43017900  0.08926700  1
  O  O38  1  0.49978300  0.56970100  0.91076300  1
  O  O39  1  0.99880400  0.57150800  0.80023800  1
  O  O40  1  0.50021700  0.56970100  0.41076300  1
  O  O41  1  0.00119600  0.57150800  0.30023800  1
  O  O42  1  0.81691500  0.69195500  0.60955900  1
  O  O43  1  0.18173500  0.67980900  0.60597100  1
  O  O44  1  0.81826500  0.67980900  0.10597100  1
  O  O45  1  0.18308500  0.69195500  0.10955900  1
  O  O46  1  0.49887400  0.86085600  0.73613600  1
  O  O47  1  0.50112600  0.86085600  0.23613600  1
  O  O48  1  0.49972400  0.88062600  0.51858200  1
  O  O49  1  0.50027600  0.88062600  0.01858200  1
  O  O50  1  0.00003000  0.91200000  0.83227000  1
  O  O51  1  0.99997000  0.91200000  0.33227000  1
