# generated using pymatgen
data_LiFe5P3O13
_symmetry_space_group_name_H-M   'P 1'
_cell_length_a   6.38370200
_cell_length_b   8.55378412
_cell_length_c   9.72834725
_cell_angle_alpha   85.76448079
_cell_angle_beta   88.65599473
_cell_angle_gamma   89.88535189
_symmetry_Int_Tables_number   1
_chemical_formula_structural   LiFe5P3O13
_chemical_formula_sum   'Li2 Fe10 P6 O26'
_cell_volume   529.61796990
_cell_formula_units_Z   2
loop_
 _symmetry_equiv_pos_site_id
 _symmetry_equiv_pos_as_xyz
  1  'x, y, z'
loop_
 _atom_site_type_symbol
 _atom_site_label
 _atom_site_symmetry_multiplicity
 _atom_site_fract_x
 _atom_site_fract_y
 _atom_site_fract_z
 _atom_site_occupancy
  Li  Li0  1  0.76120700  0.59301700  0.44624200  1
  Li  Li1  1  0.23879300  0.40698300  0.55375800  1
  Fe  Fe2  1  0.99857500  0.87202900  0.77640700  1
  Fe  Fe3  1  0.74824400  0.15162400  0.90264900  1
  Fe  Fe4  1  0.74385900  0.21359300  0.56487200  1
  Fe  Fe5  1  0.74928200  0.42479800  0.10107500  1
  Fe  Fe6  1  0.49277400  0.87190900  0.77687900  1
  Fe  Fe7  1  0.50722600  0.12809100  0.22312100  1
  Fe  Fe8  1  0.25071800  0.57520200  0.89892500  1
  Fe  Fe9  1  0.25614100  0.78640700  0.43512800  1
  Fe  Fe10  1  0.25175600  0.84837600  0.09735100  1
  Fe  Fe11  1  0.00142500  0.12797100  0.22359300  1
  P  P12  1  0.74595100  0.52754400  0.75384900  1
  P  P13  1  0.75239900  0.89205700  0.48029100  1
  P  P14  1  0.74907400  0.82366500  0.09581100  1
  P  P15  1  0.25092600  0.17633500  0.90418900  1
  P  P16  1  0.24760100  0.10794300  0.51970900  1
  P  P17  1  0.25404900  0.47245600  0.24615100  1
  O  O18  1  0.94680800  0.62954700  0.75663600  1
  O  O19  1  0.94370600  0.78703700  0.45702300  1
  O  O20  1  0.94912100  0.89367700  0.15637100  1
  O  O21  1  0.74328200  0.87476100  0.93798000  1
  O  O22  1  0.74269000  0.40150800  0.87742200  1
  O  O23  1  0.74884700  0.94889300  0.63315700  1
  O  O24  1  0.74820700  0.44469200  0.61454200  1
  O  O25  1  0.75101900  0.04856200  0.38813800  1
  O  O26  1  0.76037700  0.19639100  0.10166400  1
  O  O27  1  0.75152500  0.64721100  0.12673700  1
  O  O28  1  0.54485800  0.62994000  0.76197200  1
  O  O29  1  0.56626900  0.78264700  0.46074200  1
  O  O30  1  0.45179600  0.10872400  0.83568900  1
  O  O31  1  0.54820400  0.89127600  0.16431100  1
  O  O32  1  0.43373100  0.21735300  0.53925800  1
  O  O33  1  0.45514200  0.37006000  0.23802800  1
  O  O34  1  0.24847500  0.35278900  0.87326300  1
  O  O35  1  0.23962300  0.80360900  0.89833600  1
  O  O36  1  0.24898100  0.95143800  0.61186200  1
  O  O37  1  0.25179300  0.55530800  0.38545800  1
  O  O38  1  0.25115300  0.05110700  0.36684300  1
  O  O39  1  0.25731000  0.59849200  0.12257800  1
  O  O40  1  0.25671800  0.12523900  0.06202000  1
  O  O41  1  0.05087900  0.10632300  0.84362900  1
  O  O42  1  0.05629400  0.21296300  0.54297700  1
  O  O43  1  0.05319200  0.37045300  0.24336400  1
