# generated using pymatgen
data_Li5V3P8O29
_symmetry_space_group_name_H-M   'P 1'
_cell_length_a   9.78785900
_cell_length_b   9.80443510
_cell_length_c   14.15109476
_cell_angle_alpha   90.07897718
_cell_angle_beta   90.22170794
_cell_angle_gamma   119.86978618
_symmetry_Int_Tables_number   1
_chemical_formula_structural   Li5V3P8O29
_chemical_formula_sum   'Li10 V6 P16 O58'
_cell_volume   1177.58671391
_cell_formula_units_Z   2
loop_
 _symmetry_equiv_pos_site_id
 _symmetry_equiv_pos_as_xyz
  1  'x, y, z'
loop_
 _atom_site_type_symbol
 _atom_site_label
 _atom_site_symmetry_multiplicity
 _atom_site_fract_x
 _atom_site_fract_y
 _atom_site_fract_z
 _atom_site_occupancy
  Li  Li0  1  0.66290700  0.90094000  0.93472600  1
  Li  Li1  1  0.66821100  0.76574200  0.44452800  1
  Li  Li2  1  0.23070800  0.90263800  0.44553500  1
  Li  Li3  1  0.09521400  0.75995600  0.93808800  1
  Li  Li4  1  0.23623700  0.33740000  0.93662900  1
  Li  Li5  1  0.09677300  0.32984300  0.44284000  1
  Li  Li6  1  0.67687000  0.33750600  0.39649900  1
  Li  Li7  1  0.32946100  0.09471200  0.05666300  1
  Li  Li8  1  0.95759700  0.98233200  0.99913000  1
  Li  Li9  1  0.99479000  0.99019000  0.51266600  1
  V  V10  1  0.99760700  0.56227800  0.74768200  1
  V  V11  1  0.99939300  0.43633300  0.24664700  1
  V  V12  1  0.56627500  0.56717700  0.24673000  1
  V  V13  1  0.43613000  0.43667700  0.75016600  1
  V  V14  1  0.56804400  0.00017800  0.74834900  1
  V  V15  1  0.43428100  0.99880500  0.25216400  1
  P  P16  1  0.68716500  0.91518200  0.15697200  1
  P  P17  1  0.68697700  0.77363400  0.65591000  1
  P  P18  1  0.22248100  0.91037700  0.65920600  1
  P  P19  1  0.33126900  0.66667900  0.87056100  1
  P  P20  1  0.33071400  0.66328800  0.36905200  1
  P  P21  1  0.08672400  0.77323500  0.15449500  1
  P  P22  1  0.91265300  0.69210300  0.33760300  1
  P  P23  1  0.22631700  0.31031000  0.15717800  1
  P  P24  1  0.77899100  0.69431200  0.83820300  1
  P  P25  1  0.08796600  0.31249800  0.65740000  1
  P  P26  1  0.91664600  0.22272000  0.83998300  1
  P  P27  1  0.66552600  0.33042000  0.63195900  1
  P  P28  1  0.66351500  0.33228800  0.13155500  1
  P  P29  1  0.78075700  0.08849100  0.34010900  1
  P  P30  1  0.31264600  0.22456000  0.34092200  1
  P  P31  1  0.31500400  0.08761700  0.84013800  1
  O  O32  1  0.78124700  0.98816300  0.41899700  1
  O  O33  1  0.65896200  0.91470800  0.67147100  1
  O  O34  1  0.79384200  0.80107500  0.91835400  1
  O  O35  1  0.65548500  0.74331900  0.17212900  1
  O  O36  1  0.53200100  0.91571500  0.17153400  1
  O  O37  1  0.48541100  0.81224300  0.83323800  1
  O  O38  1  0.37766600  0.91112500  0.66899500  1
  O  O39  1  0.22862300  0.99921300  0.92817900  1
  O  O40  1  0.25507000  0.92022300  0.16667200  1
  O  O41  1  0.47976500  0.66279600  0.32669000  1
  O  O42  1  0.53168600  0.62075300  0.66918600  1
  O  O43  1  0.32863500  0.81245200  0.33068200  1
  O  O44  1  0.32216700  0.66844800  0.97615900  1
  O  O45  1  0.33251000  0.65857000  0.47404400  1
  O  O46  1  0.18412200  0.67156100  0.82629200  1
  O  O47  1  0.38385200  0.46815300  0.17645000  1
  O  O48  1  0.32381500  0.51206100  0.83380900  1
  O  O49  1  0.08096500  0.73943400  0.67218900  1
  O  O50  1  0.98428600  0.78516100  0.24006600  1
  O  O51  1  0.00616500  0.79581400  0.41785800  1
  O  O52  1  0.01713900  0.78580200  0.06303100  1
  O  O53  1  0.09363100  0.62159100  0.16952900  1
  O  O54  1  0.18150500  0.51535900  0.32664200  1
  O  O55  1  0.91592500  0.65673500  0.84041200  1
  O  O56  1  0.08751900  0.46983900  0.67321200  1
  O  O57  1  0.25807700  0.34497400  0.67093500  1
  O  O58  1  0.80428400  0.78837400  0.74064500  1
  O  O59  1  0.77153600  0.79141200  0.56476300  1
  O  O60  1  0.21196100  0.21927900  0.42074000  1
  O  O61  1  0.73908100  0.66096200  0.33907400  1
  O  O62  1  0.90086200  0.52856500  0.33135500  1
  O  O63  1  0.08841300  0.33890200  0.16328600  1
  O  O64  1  0.81783600  0.47902900  0.67827100  1
  O  O65  1  0.92133100  0.38242500  0.82837100  1
  O  O66  1  0.01039400  0.21291800  0.92096800  1
  O  O67  1  0.01936400  0.23442900  0.56508800  1
  O  O68  1  0.98829300  0.19868100  0.74203100  1
  O  O69  1  0.92150500  0.25739200  0.34252300  1
  O  O70  1  0.66341200  0.48030800  0.18017700  1
  O  O71  1  0.61888200  0.54119200  0.83015000  1
  O  O72  1  0.81155200  0.33593700  0.17812600  1
  O  O73  1  0.66224200  0.33935500  0.02738700  1
  O  O74  1  0.67621000  0.34300400  0.52667900  1
  O  O75  1  0.67209500  0.18789100  0.67205300  1
  O  O76  1  0.47503600  0.37778100  0.33031900  1
  O  O77  1  0.52333600  0.33440800  0.67513100  1
  O  O78  1  0.74540800  0.08486800  0.84217100  1
  O  O79  1  0.80217500  0.01541900  0.24134500  1
  O  O80  1  0.76630100  0.97582300  0.06446100  1
  O  O81  1  0.62808000  0.10118100  0.32965900  1
  O  O82  1  0.51259100  0.18650800  0.17162600  1
  O  O83  1  0.47021700  0.08678500  0.82585400  1
  O  O84  1  0.34142800  0.25641300  0.84201100  1
  O  O85  1  0.23443600  0.23367500  0.06669100  1
  O  O86  1  0.21623300  0.19888300  0.24309900  1
  O  O87  1  0.34528500  0.08419100  0.34388100  1
  O  O88  1  0.19910800  0.97608300  0.56892100  1
  O  O89  1  0.20547700  0.00451000  0.74845900  1
