# generated using pymatgen
data_Li2MnFe(PO4)2
_symmetry_space_group_name_H-M   'P 1'
_cell_length_a   4.77237600
_cell_length_b   10.53094202
_cell_length_c   6.11810301
_cell_angle_alpha   89.99235339
_cell_angle_beta   89.99956856
_cell_angle_gamma   90.00174035
_symmetry_Int_Tables_number   1
_chemical_formula_structural   Li2MnFe(PO4)2
_chemical_formula_sum   'Li4 Mn2 Fe2 P4 O16'
_cell_volume   307.48126279
_cell_formula_units_Z   2
loop_
 _symmetry_equiv_pos_site_id
 _symmetry_equiv_pos_as_xyz
  1  'x, y, z'
loop_
 _atom_site_type_symbol
 _atom_site_label
 _atom_site_symmetry_multiplicity
 _atom_site_fract_x
 _atom_site_fract_y
 _atom_site_fract_z
 _atom_site_occupancy
  Li  Li0  1  0.99929800  0.00059400  0.00110900  1
  Li  Li1  1  0.99925300  0.00056500  0.49889200  1
  Li  Li2  1  0.50074700  0.50060800  0.00111700  1
  Li  Li3  1  0.50079000  0.50058000  0.49888300  1
  Mn  Mn4  1  0.02116200  0.71887500  0.74998300  1
  Mn  Mn5  1  0.47879200  0.21889800  0.74998100  1
  Fe  Fe6  1  0.97637300  0.28141700  0.25000300  1
  Fe  Fe7  1  0.52373400  0.78143100  0.24999500  1
  P  P8  1  0.41155900  0.09349300  0.24994100  1
  P  P9  1  0.08837400  0.59352300  0.24993800  1
  P  P10  1  0.91922300  0.40662600  0.75004400  1
  P  P11  1  0.58080000  0.90659900  0.75004500  1
  O  O12  1  0.70985600  0.04210700  0.74996900  1
  O  O13  1  0.79020100  0.54212800  0.74996700  1
  O  O14  1  0.73389900  0.09826900  0.25005200  1
  O  O15  1  0.76604200  0.59822600  0.25004700  1
  O  O16  1  0.24124300  0.40560500  0.74998900  1
  O  O17  1  0.25877100  0.90556300  0.74999400  1
  O  O18  1  0.20837500  0.45591600  0.25005000  1
  O  O19  1  0.29161700  0.95588800  0.25005200  1
  O  O20  1  0.27576500  0.16259800  0.04823600  1
  O  O21  1  0.27563600  0.16265300  0.45152900  1
  O  O22  1  0.22418700  0.66262000  0.04822800  1
  O  O23  1  0.22430600  0.66268000  0.45152400  1
  O  O24  1  0.78971500  0.33562000  0.54752300  1
  O  O25  1  0.78975800  0.33566800  0.95269400  1
  O  O26  1  0.71028400  0.83560400  0.54753500  1
  O  O27  1  0.71024000  0.83564800  0.95267800  1
