# generated using pymatgen
data_Li2V2OF5
_symmetry_space_group_name_H-M   'P 1'
_cell_length_a   5.32681039
_cell_length_b   5.62702649
_cell_length_c   5.20170446
_cell_angle_alpha   117.73801936
_cell_angle_beta   58.94943493
_cell_angle_gamma   117.90165738
_symmetry_Int_Tables_number   1
_chemical_formula_structural   Li2V2OF5
_chemical_formula_sum   'Li2 V2 O1 F5'
_cell_volume   112.75998603
_cell_formula_units_Z   1
loop_
 _symmetry_equiv_pos_site_id
 _symmetry_equiv_pos_as_xyz
  1  'x, y, z'
loop_
 _atom_site_type_symbol
 _atom_site_label
 _atom_site_symmetry_multiplicity
 _atom_site_fract_x
 _atom_site_fract_y
 _atom_site_fract_z
 _atom_site_occupancy
  Li  Li0  1  0.34492700  0.11261800  0.36909900  1
  Li  Li1  1  0.89195200  0.58180600  0.85081800  1
  V  V2  1  0.14665700  0.44638300  0.16981300  1
  V  V3  1  0.66472300  0.97013500  0.64145000  1
  O  O4  1  0.04249100  0.24775200  0.42870600  1
  F  F5  1  0.55703800  0.71231500  0.23633600  1
  F  F6  1  0.26060700  0.72864200  0.93857700  1
  F  F7  1  0.75236300  0.24080700  0.06242600  1
  F  F8  1  0.39887700  0.22208700  0.75667500  1
  F  F9  1  0.94036400  0.73745600  0.54609900  1
