# generated using pymatgen
data_LiMnF4
_symmetry_space_group_name_H-M   'P 1'
_cell_length_a   5.44152429
_cell_length_b   5.44152429
_cell_length_c   7.69717100
_cell_angle_alpha   90.00000000
_cell_angle_beta   90.00000000
_cell_angle_gamma   138.19992086
_symmetry_Int_Tables_number   1
_chemical_formula_structural   LiMnF4
_chemical_formula_sum   'Li2 Mn2 F8'
_cell_volume   151.91276252
_cell_formula_units_Z   2
loop_
 _symmetry_equiv_pos_site_id
 _symmetry_equiv_pos_as_xyz
  1  'x, y, z'
loop_
 _atom_site_type_symbol
 _atom_site_label
 _atom_site_symmetry_multiplicity
 _atom_site_fract_x
 _atom_site_fract_y
 _atom_site_fract_z
 _atom_site_occupancy
  Li  Li0  1  0.73074900  0.26925100  0.75000000  1
  Li  Li1  1  0.26925100  0.73074900  0.25000000  1
  Mn  Mn2  1  0.00000000  0.00000000  0.00000000  1
  Mn  Mn3  1  0.00000000  0.00000000  0.50000000  1
  F  F4  1  0.50000000  0.50000000  0.00000000  1
  F  F5  1  0.16934000  0.83066000  0.91507500  1
  F  F6  1  0.91852600  0.08147400  0.75000000  1
  F  F7  1  0.16934000  0.83066000  0.58492500  1
  F  F8  1  0.50000000  0.50000000  0.50000000  1
  F  F9  1  0.83066000  0.16934000  0.41507500  1
  F  F10  1  0.08147400  0.91852600  0.25000000  1
  F  F11  1  0.83066000  0.16934000  0.08492500  1
