# generated using pymatgen
data_Li2MnPCO7
_symmetry_space_group_name_H-M   'P 1'
_cell_length_a   5.02371100
_cell_length_b   6.54626770
_cell_length_c   16.73895543
_cell_angle_alpha   90.53747299
_cell_angle_beta   93.98125351
_cell_angle_gamma   90.19186248
_symmetry_Int_Tables_number   1
_chemical_formula_structural   Li2MnPCO7
_chemical_formula_sum   'Li8 Mn4 P4 C4 O28'
_cell_volume   549.12961338
_cell_formula_units_Z   4
loop_
 _symmetry_equiv_pos_site_id
 _symmetry_equiv_pos_as_xyz
  1  'x, y, z'
loop_
 _atom_site_type_symbol
 _atom_site_label
 _atom_site_symmetry_multiplicity
 _atom_site_fract_x
 _atom_site_fract_y
 _atom_site_fract_z
 _atom_site_occupancy
  Li  Li0  1  0.74377800  0.96652600  0.13071200  1
  Li  Li1  1  0.74643700  0.52771100  0.13100400  1
  Li  Li2  1  0.24756600  0.47173600  0.37319100  1
  Li  Li3  1  0.24670300  0.02942500  0.37202400  1
  Li  Li4  1  0.75946000  0.97156200  0.63112500  1
  Li  Li5  1  0.75391900  0.52827900  0.62935000  1
  Li  Li6  1  0.24613000  0.47094400  0.86371300  1
  Li  Li7  1  0.77065900  0.23747200  0.94392400  1
  Mn  Mn8  1  0.19338700  0.24662800  0.16862800  1
  Mn  Mn9  1  0.80259400  0.75005000  0.33377300  1
  Mn  Mn10  1  0.21241400  0.25368000  0.66795300  1
  Mn  Mn11  1  0.80303000  0.75451700  0.83629400  1
  P  P12  1  0.26686600  0.74870900  0.20792600  1
  P  P13  1  0.73016300  0.24937700  0.29384000  1
  P  P14  1  0.26777500  0.74679300  0.70885000  1
  P  P15  1  0.71498300  0.25373000  0.78945400  1
  C  C16  1  0.28759000  0.26203100  0.02043400  1
  C  C17  1  0.72568300  0.75084100  0.47736300  1
  C  C18  1  0.29415000  0.24778400  0.52572100  1
  C  C19  1  0.72163200  0.74196100  0.97850100  1
  O  O20  1  0.03866100  0.25289300  0.03433800  1
  O  O21  1  0.66358100  0.74330600  0.05087000  1
  O  O22  1  0.45907500  0.24780700  0.08561500  1
  O  O23  1  0.15764900  0.93770100  0.16167800  1
  O  O24  1  0.15817800  0.55678600  0.16192900  1
  O  O25  1  0.82447500  0.24762400  0.20557100  1
  O  O26  1  0.57764900  0.74980500  0.21798900  1
  O  O27  1  0.41907000  0.24954400  0.28552800  1
  O  O28  1  0.16679200  0.75090000  0.29461900  1
  O  O29  1  0.84175400  0.06149300  0.33861100  1
  O  O30  1  0.84363600  0.43929300  0.33866300  1
  O  O31  1  0.53811300  0.74931700  0.41549300  1
  O  O32  1  0.32384200  0.25011100  0.45189300  1
  O  O33  1  0.96533700  0.75197800  0.45421500  1
  O  O34  1  0.05858900  0.24244300  0.55574800  1
  O  O35  1  0.66132000  0.75108300  0.54848600  1
  O  O36  1  0.49176300  0.25090300  0.58104000  1
  O  O37  1  0.16746100  0.94031400  0.66529300  1
  O  O38  1  0.16457900  0.56457200  0.65609400  1
  O  O39  1  0.83339100  0.24852000  0.70691500  1
  O  O40  1  0.58022000  0.74494800  0.72104800  1
  O  O41  1  0.40584500  0.28413200  0.77199600  1
  O  O42  1  0.15509700  0.73131500  0.79307900  1
  O  O43  1  0.77478600  0.06535900  0.84077000  1
  O  O44  1  0.82478400  0.43120500  0.84416800  1
  O  O45  1  0.53640700  0.73550400  0.91825300  1
  O  O46  1  0.38047600  0.28497700  0.95291900  1
  O  O47  1  0.96221300  0.75022700  0.95528100  1
