# generated using pymatgen
data_Li3Mn4(BO3)4
_symmetry_space_group_name_H-M   'P 1'
_cell_length_a   5.28839900
_cell_length_b   6.19252448
_cell_length_c   15.67794266
_cell_angle_alpha   79.17068576
_cell_angle_beta   87.44158090
_cell_angle_gamma   87.59347141
_symmetry_Int_Tables_number   1
_chemical_formula_structural   Li3Mn4(BO3)4
_chemical_formula_sum   'Li6 Mn8 B8 O24'
_cell_volume   503.48803261
_cell_formula_units_Z   2
loop_
 _symmetry_equiv_pos_site_id
 _symmetry_equiv_pos_as_xyz
  1  'x, y, z'
loop_
 _atom_site_type_symbol
 _atom_site_label
 _atom_site_symmetry_multiplicity
 _atom_site_fract_x
 _atom_site_fract_y
 _atom_site_fract_z
 _atom_site_occupancy
  Li  Li0  1  0.32382200  0.61854900  0.53181200  1
  Li  Li1  1  0.16213900  0.88879400  0.22822400  1
  Li  Li2  1  0.67617800  0.38145100  0.46818800  1
  Li  Li3  1  0.68078000  0.37829600  0.97001300  1
  Li  Li4  1  0.83786100  0.11120600  0.77177600  1
  Li  Li5  1  0.31922000  0.62170400  0.02998700  1
  Mn  Mn6  1  0.83537200  0.83656300  0.45966700  1
  Mn  Mn7  1  0.16462800  0.16343700  0.54033300  1
  Mn  Mn8  1  0.17154100  0.16634500  0.03990000  1
  Mn  Mn9  1  0.66162500  0.68247800  0.28251600  1
  Mn  Mn10  1  0.82845900  0.83365500  0.96010000  1
  Mn  Mn11  1  0.32880400  0.32478700  0.21790600  1
  Mn  Mn12  1  0.33837500  0.31752200  0.71748400  1
  Mn  Mn13  1  0.67119600  0.67521300  0.78209400  1
  B  B14  1  0.32595600  0.96718700  0.37817200  1
  B  B15  1  0.17550600  0.51298400  0.37467200  1
  B  B16  1  0.67404400  0.03281300  0.62182800  1
  B  B17  1  0.67456300  0.00864000  0.12329300  1
  B  B18  1  0.82408600  0.50290000  0.12727200  1
  B  B19  1  0.82449400  0.48701600  0.62532800  1
  B  B20  1  0.32543700  0.99136000  0.87670700  1
  B  B21  1  0.17591400  0.49710000  0.87272800  1
  O  O22  1  0.08384000  0.44718600  0.61706400  1
  O  O23  1  0.22616000  0.90734700  0.46392600  1
  O  O24  1  0.68245300  0.58670600  0.55670800  1
  O  O25  1  0.77384000  0.09265300  0.53607400  1
  O  O26  1  0.91616000  0.55281400  0.38293600  1
  O  O27  1  0.57499500  0.89077800  0.36216200  1
  O  O28  1  0.82860800  0.89218600  0.18559000  1
  O  O29  1  0.31754700  0.41329400  0.44329200  1
  O  O30  1  0.78117400  0.09179700  0.04069600  1
  O  O31  1  0.29434000  0.59323400  0.29341600  1
  O  O32  1  0.41775600  0.04782500  0.14110100  1
  O  O33  1  0.32187900  0.41478900  0.94334900  1
  O  O34  1  0.18488000  0.08175000  0.31411200  1
  O  O35  1  0.08028900  0.44995300  0.11644500  1
  O  O36  1  0.21882600  0.90820300  0.95930400  1
  O  O37  1  0.70330000  0.45560900  0.21038300  1
  O  O38  1  0.17139200  0.10781400  0.81441000  1
  O  O39  1  0.67812100  0.58521100  0.05665100  1
  O  O40  1  0.91971100  0.55004700  0.88355500  1
  O  O41  1  0.58224400  0.95217500  0.85889900  1
  O  O42  1  0.70566000  0.40676600  0.70658400  1
  O  O43  1  0.81512000  0.91825000  0.68588800  1
  O  O44  1  0.29670000  0.54439100  0.78961700  1
  O  O45  1  0.42500500  0.10922200  0.63783800  1
