# generated using pymatgen
data_LiV4O5F7
_symmetry_space_group_name_H-M   'P 1'
_cell_length_a   5.23879919
_cell_length_b   5.39053197
_cell_length_c   17.24309023
_cell_angle_alpha   95.58655358
_cell_angle_beta   81.28075324
_cell_angle_gamma   119.31707557
_symmetry_Int_Tables_number   1
_chemical_formula_structural   LiV4O5F7
_chemical_formula_sum   'Li2 V8 O10 F14'
_cell_volume   419.51942783
_cell_formula_units_Z   2
loop_
 _symmetry_equiv_pos_site_id
 _symmetry_equiv_pos_as_xyz
  1  'x, y, z'
loop_
 _atom_site_type_symbol
 _atom_site_label
 _atom_site_symmetry_multiplicity
 _atom_site_fract_x
 _atom_site_fract_y
 _atom_site_fract_z
 _atom_site_occupancy
  Li  Li0  1  0.63006100  0.21395200  0.92573100  1
  Li  Li1  1  0.62701700  0.54062700  0.32189100  1
  V  V2  1  0.78026900  0.29015700  0.74580500  1
  V  V3  1  0.84521800  0.12954200  0.37002000  1
  V  V4  1  0.52220000  0.52904800  0.49707700  1
  V  V5  1  0.62484000  0.34400600  0.12831300  1
  V  V6  1  0.32785600  0.64035100  0.87153400  1
  V  V7  1  0.25716100  0.74528200  0.25220100  1
  V  V8  1  0.97817400  0.95451900  0.00431000  1
  V  V9  1  0.13643000  0.91060900  0.61996500  1
  O  O10  1  0.96383800  0.45565300  0.31540400  1
  O  O11  1  0.51487100  0.05013500  0.18316600  1
  O  O12  1  0.76370800  0.80784500  0.43920100  1
  O  O13  1  0.73506000  0.68369000  0.06372500  1
  O  O14  1  0.23351800  0.18633600  0.56160700  1
  O  O15  1  0.48049100  0.92503700  0.81292400  1
  O  O16  1  0.22332400  0.79265900  0.95708100  1
  O  O17  1  0.98327900  0.41061300  0.84077400  1
  O  O18  1  0.50880000  0.91817000  0.33667900  1
  O  O19  1  0.01212100  0.56788200  0.68891400  1
  F  F20  1  0.97429800  0.05290600  0.71205000  1
  F  F21  1  0.51018700  0.07583200  0.66375800  1
  F  F22  1  0.72396300  0.30060600  0.46453000  1
  F  F23  1  0.76135400  0.84401700  0.91399100  1
  F  F24  1  0.78115600  0.20523400  0.02931300  1
  F  F25  1  0.52514400  0.44591100  0.79404400  1
  F  F26  1  0.73323600  0.67545600  0.58973800  1
  F  F27  1  0.30270800  0.31245300  0.93869600  1
  F  F28  1  0.28005400  0.33593500  0.40615400  1
  F  F29  1  0.48758900  0.52787400  0.22071800  1
  F  F30  1  0.23975400  0.17235800  0.08541600  1
  F  F31  1  0.26742200  0.69669300  0.53870200  1
  F  F32  1  0.01945500  0.56450600  0.16122000  1
  F  F33  1  0.02432300  0.95867800  0.28681700  1
