# generated using pymatgen
data_Li3Cr4(PO4)6
_symmetry_space_group_name_H-M   'P 1'
_cell_length_a   10.14327765
_cell_length_b   10.14327765
_cell_length_c   10.14327765
_cell_angle_alpha   109.88241392
_cell_angle_beta   109.41294665
_cell_angle_gamma   109.11921707
_symmetry_Int_Tables_number   1
_chemical_formula_structural   Li3Cr4(PO4)6
_chemical_formula_sum   'Li6 Cr8 P12 O48'
_cell_volume   803.32896772
_cell_formula_units_Z   2
loop_
 _symmetry_equiv_pos_site_id
 _symmetry_equiv_pos_as_xyz
  1  'x, y, z'
loop_
 _atom_site_type_symbol
 _atom_site_label
 _atom_site_symmetry_multiplicity
 _atom_site_fract_x
 _atom_site_fract_y
 _atom_site_fract_z
 _atom_site_occupancy
  Li  Li0  1  0.25000000  0.12739900  0.87739900  1
  Li  Li1  1  0.25000000  0.62525300  0.37525300  1
  Li  Li2  1  0.62798000  0.25000000  0.87798000  1
  Li  Li3  1  0.75000000  0.37260100  0.62260100  1
  Li  Li4  1  0.75000000  0.87474700  0.12474700  1
  Li  Li5  1  0.87202000  0.75000000  0.62202000  1
  Cr  Cr6  1  0.00087000  0.00162700  0.00335600  1
  Cr  Cr7  1  0.00100100  0.00141300  0.49834600  1
  Cr  Cr8  1  0.49899900  0.99734500  0.00041200  1
  Cr  Cr9  1  0.49827100  0.99751400  0.49664400  1
  Cr  Cr10  1  0.00306700  0.50265500  0.00165400  1
  Cr  Cr11  1  0.00172900  0.49837300  0.49924300  1
  Cr  Cr12  1  0.49913000  0.50248600  0.00075700  1
  Cr  Cr13  1  0.49693300  0.49858700  0.49958800  1
  P  P14  1  0.37563700  0.12563700  0.25000000  1
  P  P15  1  0.75000000  0.12586700  0.37586700  1
  P  P16  1  0.25000000  0.37413300  0.12413300  1
  P  P17  1  0.37580500  0.25000000  0.62580500  1
  P  P18  1  0.87225200  0.25000000  0.12225200  1
  P  P19  1  0.12436300  0.37436300  0.75000000  1
  P  P20  1  0.87351900  0.62351900  0.25000000  1
  P  P21  1  0.12419500  0.75000000  0.87419500  1
  P  P22  1  0.62774800  0.75000000  0.37774800  1
  P  P23  1  0.75000000  0.62469200  0.87469200  1
  P  P24  1  0.25000000  0.87530800  0.62530800  1
  P  P25  1  0.62648100  0.87648100  0.75000000  1
  O  O26  1  0.20349600  0.10854600  0.49958200  1
  O  O27  1  0.40665500  0.10986700  0.10700100  1
  O  O28  1  0.38892600  0.00665900  0.80201100  1
  O  O29  1  0.20154400  0.09271200  0.20242400  1
  O  O30  1  0.88654300  0.08542400  0.38357300  1
  O  O31  1  0.90431100  0.10759600  0.11009600  1
  O  O32  1  0.11310200  0.19776300  0.99687200  1
  O  O33  1  0.29814800  0.41457600  0.30111900  1
  O  O34  1  0.38689800  0.38377000  0.08466100  1
  O  O35  1  0.41386100  0.29639100  0.80326800  1
  O  O36  1  0.79910900  0.30223700  0.41533900  1
  O  O37  1  0.60952600  0.00361700  0.70465100  1
  O  O38  1  0.09334500  0.20034600  0.70321200  1
  O  O39  1  0.69633700  0.20069600  0.08383500  1
  O  O40  1  0.00249900  0.39240400  0.29671500  1
  O  O41  1  0.88313900  0.29930400  0.99564100  1
  O  O42  1  0.50286600  0.29965400  0.39299900  1
  O  O43  1  0.70089100  0.11623000  0.50312800  1
  O  O44  1  0.20185200  0.50297000  0.11642700  1
  O  O45  1  0.39103700  0.39145400  0.59495000  1
  O  O46  1  0.29845600  0.50088000  0.89116800  1
  O  O47  1  0.99713400  0.39013300  0.79678800  1
  O  O48  1  0.89047400  0.59512400  0.39409000  1
  O  O49  1  0.50687700  0.20360900  0.61747000  1
  O  O50  1  0.49750100  0.79421600  0.38990400  1
  O  O51  1  0.10971200  0.40728800  0.60883200  1
  O  O52  1  0.00406700  0.61118600  0.20586500  1
  O  O53  1  0.70103400  0.49638300  0.10591000  1
  O  O54  1  0.61686100  0.61250200  0.41616500  1
  O  O55  1  0.79535100  0.49334100  0.88226600  1
  O  O56  1  0.29659100  0.88380000  0.49646300  1
  O  O57  1  0.49593300  0.70179700  0.60711900  1
  O  O58  1  0.10896300  0.70391300  0.00041800  1
  O  O59  1  0.99312300  0.61059400  0.69673200  1
  O  O60  1  0.29650400  0.79608700  0.90505000  1
  O  O61  1  0.90532100  0.79820300  0.29413500  1
  O  O62  1  0.39028800  0.99912000  0.29757600  1
  O  O63  1  0.20340900  0.69987200  0.58720900  1
  O  O64  1  0.59568900  0.70578400  0.20328500  1
  O  O65  1  0.61266400  0.61620000  0.91279100  1
  O  O66  1  0.70464900  0.58691500  0.69798900  1
  O  O67  1  0.88733600  0.80012800  0.00353700  1
  O  O68  1  0.08613900  0.88940600  0.88253000  1
  O  O69  1  0.11107400  0.91308500  0.61773400  1
  O  O70  1  0.79896600  0.90487600  0.79534900  1
  O  O71  1  0.61345700  0.99703000  0.19888100  1
  O  O72  1  0.59467900  0.88881400  0.89288100  1
  O  O73  1  0.80366300  0.88749800  0.50435900  1
