# generated using pymatgen
data_LiMn2(BO3)2
_symmetry_space_group_name_H-M   'P 1'
_cell_length_a   5.30364700
_cell_length_b   11.43960101
_cell_length_c   13.72190045
_cell_angle_alpha   113.12613081
_cell_angle_beta   91.42483123
_cell_angle_gamma   101.70445121
_symmetry_Int_Tables_number   1
_chemical_formula_structural   LiMn2(BO3)2
_chemical_formula_sum   'Li6 Mn12 B12 O36'
_cell_volume   744.64099111
_cell_formula_units_Z   6
loop_
 _symmetry_equiv_pos_site_id
 _symmetry_equiv_pos_as_xyz
  1  'x, y, z'
loop_
 _atom_site_type_symbol
 _atom_site_label
 _atom_site_symmetry_multiplicity
 _atom_site_fract_x
 _atom_site_fract_y
 _atom_site_fract_z
 _atom_site_occupancy
  Li  Li0  1  0.74146200  0.76538200  0.10597700  1
  Li  Li1  1  0.40177400  0.10081000  0.43577800  1
  Li  Li2  1  0.58426700  0.45347700  0.28817700  1
  Li  Li3  1  0.45977800  0.60694600  0.69837800  1
  Li  Li4  1  0.28019400  0.27054300  0.86100300  1
  Li  Li5  1  0.23358900  0.77779900  0.62389500  1
  Mn  Mn6  1  0.67524500  0.02593000  0.14367400  1
  Mn  Mn7  1  0.99688900  0.30471000  0.17144800  1
  Mn  Mn8  1  0.39712800  0.47637400  0.09538600  1
  Mn  Mn9  1  0.94287200  0.20126700  0.56819300  1
  Mn  Mn10  1  0.34498900  0.36223700  0.48354500  1
  Mn  Mn11  1  0.73315200  0.13801300  0.76114400  1
  Mn  Mn12  1  0.28556700  0.86883700  0.23949700  1
  Mn  Mn13  1  0.67181900  0.64553900  0.51512200  1
  Mn  Mn14  1  0.07073900  0.81436600  0.43466400  1
  Mn  Mn15  1  0.60467000  0.52138800  0.89093000  1
  Mn  Mn16  1  0.01549800  0.69778700  0.82249400  1
  Mn  Mn17  1  0.32932400  0.98392800  0.85267600  1
  B  B18  1  0.43350900  0.20964900  0.07225900  1
  B  B19  1  0.23292100  0.13273600  0.25836900  1
  B  B20  1  0.15724200  0.64190800  0.01909300  1
  B  B21  1  0.51244300  0.70080100  0.32194900  1
  B  B22  1  0.90496700  0.47328300  0.59937800  1
  B  B23  1  0.18597900  0.03268400  0.66239600  1
  B  B24  1  0.82719300  0.97654200  0.34536900  1
  B  B25  1  0.10413300  0.52411500  0.40271600  1
  B  B26  1  0.47225500  0.29593100  0.67074400  1
  B  B27  1  0.83943700  0.35714200  0.98469400  1
  B  B28  1  0.75807100  0.86243300  0.73652500  1
  B  B29  1  0.56481000  0.79977000  0.92327400  1
  O  O30  1  0.65756900  0.18414700  0.10416200  1
  O  O31  1  0.02842800  0.16488300  0.21714600  1
  O  O32  1  0.97993700  0.41117000  0.08757000  1
  O  O33  1  0.29248400  0.01300400  0.19489000  1
  O  O34  1  0.37925400  0.33072700  0.14560300  1
  O  O35  1  0.73314700  0.06042000  0.42791500  1
  O  O36  1  0.39314100  0.60098100  0.02903900  1
  O  O37  1  0.93586000  0.44418200  0.31541400  1
  O  O38  1  0.70307100  0.86162400  0.01931200  1
  O  O39  1  0.37082000  0.20936800  0.35481300  1
  O  O40  1  0.99070700  0.09147100  0.64777000  1
  O  O41  1  0.55461800  0.59415400  0.23935600  1
  O  O42  1  0.96175100  0.35607500  0.52906200  1
  O  O43  1  0.08056000  0.72913400  0.10615800  1
  O  O44  1  0.68583600  0.90946900  0.24306200  1
  O  O45  1  0.34055600  0.24854000  0.56479000  1
  O  O46  1  0.34602800  0.49120300  0.42002900  1
  O  O47  1  0.68877800  0.24735100  0.67435600  1
  O  O48  1  0.30747700  0.75730100  0.31305600  1
  O  O49  1  0.65571500  0.49431400  0.58393300  1
  O  O50  1  0.66443000  0.74958300  0.41850900  1
  O  O51  1  0.31871900  0.09349700  0.76850300  1
  O  O52  1  0.93663900  0.28305300  0.89871500  1
  O  O53  1  0.06157900  0.64014100  0.47817000  1
  O  O54  1  0.38400500  0.37187600  0.75840500  1
  O  O55  1  0.07417500  0.95365600  0.35962200  1
  O  O56  1  0.57797300  0.76303100  0.65996800  1
  O  O57  1  0.27467600  0.13046100  0.98383700  1
  O  O58  1  0.08516500  0.56626800  0.67658800  1
  O  O59  1  0.59764000  0.38792100  0.97386500  1
  O  O60  1  0.24774800  0.92995700  0.58652500  1
  O  O61  1  0.61349400  0.68388300  0.84666400  1
  O  O62  1  0.69299000  0.97869100  0.80014300  1
  O  O63  1  0.01665400  0.59095000  0.91997400  1
  O  O64  1  0.00744200  0.84610300  0.75308100  1
  O  O65  1  0.35212900  0.84166300  0.89496400  1
