# generated using pymatgen
data_LiP(WO4)2
_symmetry_space_group_name_H-M   'P 1'
_cell_length_a   5.40501900
_cell_length_b   6.80269600
_cell_length_c   17.98199608
_cell_angle_alpha   89.38970639
_cell_angle_beta   90.00000000
_cell_angle_gamma   90.00000000
_symmetry_Int_Tables_number   1
_chemical_formula_structural   LiP(WO4)2
_chemical_formula_sum   'Li4 P4 W8 O32'
_cell_volume   661.13713259
_cell_formula_units_Z   4
loop_
 _symmetry_equiv_pos_site_id
 _symmetry_equiv_pos_as_xyz
  1  'x, y, z'
loop_
 _atom_site_type_symbol
 _atom_site_label
 _atom_site_symmetry_multiplicity
 _atom_site_fract_x
 _atom_site_fract_y
 _atom_site_fract_z
 _atom_site_occupancy
  Li  Li0  1  0.79317200  0.75809000  0.79719600  1
  Li  Li1  1  0.78204300  0.75208800  0.29452300  1
  Li  Li2  1  0.28204300  0.24791200  0.70547700  1
  Li  Li3  1  0.29317200  0.24191000  0.20280400  1
  P  P4  1  0.22163900  0.80383500  0.69250600  1
  P  P5  1  0.22140400  0.69890500  0.18989300  1
  P  P6  1  0.72140400  0.30109500  0.81010700  1
  P  P7  1  0.72163900  0.19616500  0.30749400  1
  W  W8  1  0.23638500  0.00452300  0.87521600  1
  W  W9  1  0.73119700  0.83956100  0.45348400  1
  W  W10  1  0.72912000  0.66004800  0.95342900  1
  W  W11  1  0.22629400  0.49702600  0.37259500  1
  W  W12  1  0.72629400  0.50297400  0.62740500  1
  W  W13  1  0.22912000  0.33995200  0.04657100  1
  W  W14  1  0.23119700  0.16043900  0.54651600  1
  W  W15  1  0.73638500  0.99547700  0.12478400  1
  O  O16  1  0.23680700  0.99644700  0.64682200  1
  O  O17  1  0.97392800  0.99548600  0.49577500  1
  O  O18  1  0.19034200  0.86465000  0.77475400  1
  O  O19  1  0.52953500  0.84848300  0.88896000  1
  O  O20  1  0.40770500  0.85037800  0.16145500  1
  O  O21  1  0.73551300  0.83735100  0.04267800  1
  O  O22  1  0.01370700  0.79658000  0.91211500  1
  O  O23  1  0.95170500  0.78485400  0.18935600  1
  O  O24  1  0.97951000  0.69340600  0.67699600  1
  O  O25  1  0.48341800  0.67649500  0.40761200  1
  O  O26  1  0.72675500  0.66153800  0.54443600  1
  O  O27  1  0.45492400  0.67708400  0.68464200  1
  O  O28  1  0.96733600  0.67939900  0.39274000  1
  O  O29  1  0.28156100  0.64835200  0.27183800  1
  O  O30  1  0.45680200  0.52445900  0.99026400  1
  O  O31  1  0.23439700  0.50302000  0.14677200  1
  O  O32  1  0.73439700  0.49698000  0.85322800  1
  O  O33  1  0.95680200  0.47554100  0.00973600  1
  O  O34  1  0.78156100  0.35164800  0.72816200  1
  O  O35  1  0.46733600  0.32060100  0.60726000  1
  O  O36  1  0.95492400  0.32291600  0.31535800  1
  O  O37  1  0.22675500  0.33846200  0.45556400  1
  O  O38  1  0.98341800  0.32350500  0.59238800  1
  O  O39  1  0.47951000  0.30659400  0.32300400  1
  O  O40  1  0.45170500  0.21514600  0.81064400  1
  O  O41  1  0.51370700  0.20342000  0.08788500  1
  O  O42  1  0.23551300  0.16264900  0.95732200  1
  O  O43  1  0.90770500  0.14962200  0.83854500  1
  O  O44  1  0.02953500  0.15151700  0.11104000  1
  O  O45  1  0.69034200  0.13535000  0.22524600  1
  O  O46  1  0.47392800  0.00451400  0.50422500  1
  O  O47  1  0.73680700  0.00355300  0.35317800  1
