# generated using pymatgen
data_LiMn(SO4)2
_symmetry_space_group_name_H-M   'P 1'
_cell_length_a   9.04087230
_cell_length_b   8.95994113
_cell_length_c   8.97004733
_cell_angle_alpha   56.76733979
_cell_angle_beta   55.13561631
_cell_angle_gamma   55.66476094
_symmetry_Int_Tables_number   1
_chemical_formula_structural   LiMn(SO4)2
_chemical_formula_sum   'Li3 Mn3 S6 O24'
_cell_volume   464.21631633
_cell_formula_units_Z   3
loop_
 _symmetry_equiv_pos_site_id
 _symmetry_equiv_pos_as_xyz
  1  'x, y, z'
loop_
 _atom_site_type_symbol
 _atom_site_label
 _atom_site_symmetry_multiplicity
 _atom_site_fract_x
 _atom_site_fract_y
 _atom_site_fract_z
 _atom_site_occupancy
  Li  Li0  1  0.35674053  0.35673976  0.34943446  1
  Li  Li1  1  0.17827191  0.43618642  0.76163374  1
  Li  Li2  1  0.75831721  0.17911215  0.43208258  1
  Mn  Mn3  1  0.16585379  0.14663751  0.15341455  1
  Mn  Mn4  1  0.64014584  0.64484390  0.64991531  1
  Mn  Mn5  1  0.84436044  0.84718415  0.85706059  1
  S  S6  1  0.03144065  0.74740916  0.46681341  1
  S  S7  1  0.45100155  0.04782566  0.75254889  1
  S  S8  1  0.75848099  0.45714539  0.04600965  1
  S  S9  1  0.26093726  0.54200750  0.95620498  1
  S  S10  1  0.54318553  0.95613276  0.25063131  1
  S  S11  1  0.95941483  0.24543636  0.54560387  1
  O  O12  1  0.10796160  0.29267239  0.50753389  1
  O  O13  1  0.31182201  0.50383931  0.10215729  1
  O  O14  1  0.99130263  0.95382793  0.35218512  1
  O  O15  1  0.51526019  0.10526122  0.29449560  1
  O  O16  1  0.01446181  0.71010808  0.66477252  1
  O  O17  1  0.22533197  0.62420955  0.38217789  1
  O  O18  1  0.35763648  0.24215333  0.63950369  1
  O  O19  1  0.33135866  0.00845276  0.96419475  1
  O  O20  1  0.64367951  0.36538917  0.24286503  1
  O  O21  1  0.06014460  0.67680833  0.97769711  1
  O  O22  1  0.28934830  0.36305501  0.94823009  1
  O  O23  1  0.35371118  0.96834032  0.28037179  1
  O  O24  1  0.64549595  0.03258185  0.70763684  1
  O  O25  1  0.72041019  0.64924565  0.03364902  1
  O  O26  1  0.97295949  0.33313856  0.00449848  1
  O  O27  1  0.38911679  0.63210096  0.75411652  1
  O  O28  1  0.67527008  0.98586852  0.03994266  1
  O  O29  1  0.62600628  0.76053450  0.37049412  1
  O  O30  1  0.75853253  0.37735450  0.62402242  1
  O  O31  1  0.96805623  0.26704610  0.35700945  1
  O  O32  1  0.47419277  0.90182917  0.70306698  1
  O  O33  1  0.97882876  0.04431486  0.67563125  1
  O  O34  1  0.71259606  0.47892935  0.90103542  1
  O  O35  1  0.88286541  0.69627687  0.49765775  1
