# generated using pymatgen
data_LiSn10(PO4)7
_symmetry_space_group_name_H-M   'P 1'
_cell_length_a   15.26107133
_cell_length_b   15.26107133
_cell_length_c   15.26107146
_cell_angle_alpha   41.72884402
_cell_angle_beta   41.72884402
_cell_angle_gamma   41.72884322
_symmetry_Int_Tables_number   1
_chemical_formula_structural   LiSn10(PO4)7
_chemical_formula_sum   'Li2 Sn20 P14 O56'
_cell_volume   1423.62929069
_cell_formula_units_Z   2
loop_
 _symmetry_equiv_pos_site_id
 _symmetry_equiv_pos_as_xyz
  1  'x, y, z'
loop_
 _atom_site_type_symbol
 _atom_site_label
 _atom_site_symmetry_multiplicity
 _atom_site_fract_x
 _atom_site_fract_y
 _atom_site_fract_z
 _atom_site_occupancy
  Li  Li0  1  0.82866900  0.82866900  0.82866900  1
  Li  Li1  1  0.32866900  0.32866900  0.32866900  1
  Sn  Sn2  1  0.92343300  0.35088300  0.93242800  1
  Sn  Sn3  1  0.93332300  0.56523700  0.50161200  1
  Sn  Sn4  1  0.56523700  0.50161200  0.93332300  1
  Sn  Sn5  1  0.99874100  0.99874100  0.99874100  1
  Sn  Sn6  1  0.93242800  0.92343300  0.35088300  1
  Sn  Sn7  1  0.50161200  0.93332300  0.56523700  1
  Sn  Sn8  1  0.58035000  0.14937400  0.55049700  1
  Sn  Sn9  1  0.35088300  0.93242800  0.92343300  1
  Sn  Sn10  1  0.85088300  0.42343300  0.43242800  1
  Sn  Sn11  1  0.42343300  0.43242800  0.85088300  1
  Sn  Sn12  1  0.49874100  0.49874100  0.49874100  1
  Sn  Sn13  1  0.55049700  0.58035000  0.14937400  1
  Sn  Sn14  1  0.14937400  0.55049700  0.58035000  1
  Sn  Sn15  1  0.43242800  0.85088300  0.42343300  1
  Sn  Sn16  1  0.64937400  0.08035000  0.05049700  1
  Sn  Sn17  1  0.43332300  0.00161200  0.06523700  1
  Sn  Sn18  1  0.08035000  0.05049700  0.64937400  1
  Sn  Sn19  1  0.00161200  0.06523700  0.43332300  1
  Sn  Sn20  1  0.06523700  0.43332300  0.00161200  1
  Sn  Sn21  1  0.05049700  0.64937400  0.08035000  1
  P  P22  1  0.73023900  0.73023900  0.73023900  1
  P  P23  1  0.74431900  0.15454400  0.70157600  1
  P  P24  1  0.80606700  0.31243000  0.77130200  1
  P  P25  1  0.81243000  0.30606700  0.27130200  1
  P  P26  1  0.65454400  0.24431900  0.20157600  1
  P  P27  1  0.30606700  0.27130200  0.81243000  1
  P  P28  1  0.24431900  0.20157600  0.65454400  1
  P  P29  1  0.70157600  0.74431900  0.15454400  1
  P  P30  1  0.77130200  0.80606700  0.31243000  1
  P  P31  1  0.31243000  0.77130200  0.80606700  1
  P  P32  1  0.20157600  0.65454400  0.24431900  1
  P  P33  1  0.15454400  0.70157600  0.74431900  1
  P  P34  1  0.27130200  0.81243000  0.30606700  1
  P  P35  1  0.23023900  0.23023900  0.23023900  1
  O  O36  1  0.81685600  0.37037100  0.81275000  1
  O  O37  1  0.86269200  0.59567500  0.77180500  1
  O  O38  1  0.69314400  0.69314400  0.69314400  1
  O  O39  1  0.81275000  0.81685600  0.37037100  1
  O  O40  1  0.59567500  0.77180500  0.86269200  1
  O  O41  1  0.77180500  0.86269200  0.59567500  1
  O  O42  1  0.89346600  0.16763500  0.60153700  1
  O  O43  1  0.87089900  0.14188800  0.84730700  1
  O  O44  1  0.87785900  0.13795100  0.33008300  1
  O  O45  1  0.81210000  0.13541100  0.14142600  1
  O  O46  1  0.77864800  0.04398100  0.68209200  1
  O  O47  1  0.37037100  0.81275000  0.81685600  1
  O  O48  1  0.88874600  0.36284000  0.60344400  1
  O  O49  1  0.69020500  0.10016700  0.86347700  1
  O  O50  1  0.87037100  0.31685600  0.31275000  1
  O  O51  1  0.60016700  0.19020500  0.36347700  1
  O  O52  1  0.86284000  0.38874600  0.10344400  1
  O  O53  1  0.38874600  0.10344400  0.86284000  1
  O  O54  1  0.39346600  0.10153700  0.66763500  1
  O  O55  1  0.63541100  0.31210000  0.64142600  1
  O  O56  1  0.63795100  0.37785900  0.83008300  1
  O  O57  1  0.64188800  0.37089900  0.34730700  1
  O  O58  1  0.66763500  0.39346600  0.10153700  1
  O  O59  1  0.86347700  0.69020500  0.10016700  1
  O  O60  1  0.83008300  0.63795100  0.37785900  1
  O  O61  1  0.31685600  0.31275000  0.87037100  1
  O  O62  1  0.37089900  0.34730700  0.64188800  1
  O  O63  1  0.13541100  0.14142600  0.81210000  1
  O  O64  1  0.64142600  0.63541100  0.31210000  1
  O  O65  1  0.84730700  0.87089900  0.14188800  1
  O  O66  1  0.68209200  0.77864800  0.04398100  1
  O  O67  1  0.13795100  0.33008300  0.87785900  1
  O  O68  1  0.19020500  0.36347700  0.60016700  1
  O  O69  1  0.36284000  0.60344400  0.88874600  1
  O  O70  1  0.36347700  0.60016700  0.19020500  1
  O  O71  1  0.34730700  0.64188800  0.37089900  1
  O  O72  1  0.31210000  0.64142600  0.63541100  1
  O  O73  1  0.60153700  0.89346600  0.16763500  1
  O  O74  1  0.60344400  0.88874600  0.36284000  1
  O  O75  1  0.16763500  0.60153700  0.89346600  1
  O  O76  1  0.37785900  0.83008300  0.63795100  1
  O  O77  1  0.04398100  0.68209200  0.77864800  1
  O  O78  1  0.33008300  0.87785900  0.13795100  1
  O  O79  1  0.10153700  0.66763500  0.39346600  1
  O  O80  1  0.31275000  0.87037100  0.31685600  1
  O  O81  1  0.54398100  0.27864800  0.18209200  1
  O  O82  1  0.14142600  0.81210000  0.13541100  1
  O  O83  1  0.14188800  0.84730700  0.87089900  1
  O  O84  1  0.10016700  0.86347700  0.69020500  1
  O  O85  1  0.10344400  0.86284000  0.38874600  1
  O  O86  1  0.36269200  0.27180500  0.09567500  1
  O  O87  1  0.27180500  0.09567500  0.36269200  1
  O  O88  1  0.27864800  0.18209200  0.54398100  1
  O  O89  1  0.19314400  0.19314400  0.19314400  1
  O  O90  1  0.09567500  0.36269200  0.27180500  1
  O  O91  1  0.18209200  0.54398100  0.27864800  1
