# generated using pymatgen
data_Li4Mn3(BO3)4
_symmetry_space_group_name_H-M   'P 1'
_cell_length_a   9.14706300
_cell_length_b   5.33982700
_cell_length_c   10.89991355
_cell_angle_alpha   62.69170329
_cell_angle_beta   90.00000000
_cell_angle_gamma   90.00000000
_symmetry_Int_Tables_number   1
_chemical_formula_structural   Li4Mn3(BO3)4
_chemical_formula_sum   'Li8 Mn6 B8 O24'
_cell_volume   473.05776673
_cell_formula_units_Z   2
loop_
 _symmetry_equiv_pos_site_id
 _symmetry_equiv_pos_as_xyz
  1  'x, y, z'
loop_
 _atom_site_type_symbol
 _atom_site_label
 _atom_site_symmetry_multiplicity
 _atom_site_fract_x
 _atom_site_fract_y
 _atom_site_fract_z
 _atom_site_occupancy
  Li  Li0  1  0.23563900  0.50393400  0.34247200  1
  Li  Li1  1  0.90845200  0.45326400  0.36688600  1
  Li  Li2  1  0.42932200  0.54245900  0.12685800  1
  Li  Li3  1  0.74035300  0.06700800  0.61914000  1
  Li  Li4  1  0.76436100  0.50393400  0.84247200  1
  Li  Li5  1  0.09154800  0.45326400  0.86688600  1
  Li  Li6  1  0.25964700  0.06700800  0.11914000  1
  Li  Li7  1  0.57067800  0.54245900  0.62685800  1
  Mn  Mn8  1  0.57310500  0.98577600  0.87511900  1
  Mn  Mn9  1  0.24578700  0.94895900  0.88195800  1
  Mn  Mn10  1  0.06420100  0.01542700  0.62199300  1
  Mn  Mn11  1  0.42689500  0.98577600  0.37511900  1
  Mn  Mn12  1  0.75421300  0.94895900  0.38195800  1
  Mn  Mn13  1  0.93579900  0.01542700  0.12199300  1
  B  B14  1  0.57099600  0.44868900  0.38365500  1
  B  B15  1  0.90711500  0.96426300  0.86726900  1
  B  B16  1  0.07504200  0.54970800  0.11735500  1
  B  B17  1  0.41397200  0.02779700  0.63537400  1
  B  B18  1  0.09288500  0.96426300  0.36726900  1
  B  B19  1  0.42900400  0.44868900  0.88365500  1
  B  B20  1  0.58602800  0.02779700  0.13537400  1
  B  B21  1  0.92495800  0.54970800  0.61735500  1
  O  O22  1  0.56384500  0.86364200  0.06893300  1
  O  O23  1  0.92133800  0.32042100  0.58945100  1
  O  O24  1  0.20296300  0.70013400  0.10716300  1
  O  O25  1  0.54095800  0.11813500  0.67811900  1
  O  O26  1  0.27800700  0.09273300  0.66408400  1
  O  O27  1  0.94363900  0.62487600  0.15455700  1
  O  O28  1  0.43815700  0.38409600  0.34171600  1
  O  O29  1  0.69787500  0.30002700  0.40186600  1
  O  O30  1  0.77831300  0.86294500  0.84765100  1
  O  O31  1  0.03665900  0.87733400  0.82589700  1
  O  O32  1  0.08052600  0.16064500  0.41956500  1
  O  O33  1  0.42783800  0.67666100  0.91313600  1
  O  O34  1  0.07866200  0.32042100  0.08945100  1
  O  O35  1  0.43615500  0.86364200  0.56893300  1
  O  O36  1  0.79703700  0.70013400  0.60716300  1
  O  O37  1  0.45904200  0.11813500  0.17811900  1
  O  O38  1  0.72199300  0.09273300  0.16408400  1
  O  O39  1  0.05636100  0.62487600  0.65455700  1
  O  O40  1  0.56184300  0.38409600  0.84171600  1
  O  O41  1  0.22168700  0.86294500  0.34765100  1
  O  O42  1  0.96334100  0.87733400  0.32589700  1
  O  O43  1  0.30212500  0.30002700  0.90186600  1
  O  O44  1  0.57216200  0.67666100  0.41313600  1
  O  O45  1  0.91947400  0.16064500  0.91956500  1
