# generated using pymatgen
data_LiLa8V8O32
_symmetry_space_group_name_H-M   'P 1'
_cell_length_a   7.19310200
_cell_length_b   7.37184796
_cell_length_c   13.65144746
_cell_angle_alpha   90.45824085
_cell_angle_beta   104.37840044
_cell_angle_gamma   91.84071336
_symmetry_Int_Tables_number   1
_chemical_formula_structural   LiLa8V8O32
_chemical_formula_sum   'Li1 La8 V8 O32'
_cell_volume   700.75616782
_cell_formula_units_Z   1
loop_
 _symmetry_equiv_pos_site_id
 _symmetry_equiv_pos_as_xyz
  1  'x, y, z'
loop_
 _atom_site_type_symbol
 _atom_site_label
 _atom_site_symmetry_multiplicity
 _atom_site_fract_x
 _atom_site_fract_y
 _atom_site_fract_z
 _atom_site_occupancy
  Li  Li0  1  0.00527300  0.30207400  0.86240300  1
  La  La1  1  0.48281300  0.34553500  0.70361000  1
  La  La2  1  0.27264400  0.84459700  0.54812700  1
  La  La3  1  0.97844000  0.34498400  0.19832700  1
  La  La4  1  0.77802500  0.83891200  0.04943600  1
  La  La5  1  0.27401200  0.11884600  0.97248700  1
  La  La6  1  0.01053900  0.67336600  0.79644100  1
  La  La7  1  0.73573200  0.15502500  0.45211000  1
  La  La8  1  0.52049000  0.65394500  0.30023600  1
  V  V9  1  0.72651700  0.33822000  0.94655900  1
  V  V10  1  0.51073900  0.83400600  0.80522700  1
  V  V11  1  0.24735100  0.33399900  0.44273900  1
  V  V12  1  0.00807100  0.83658600  0.30657500  1
  V  V13  1  0.99478500  0.16460600  0.68908300  1
  V  V14  1  0.75700000  0.66770400  0.55569100  1
  V  V15  1  0.50717200  0.16348200  0.20328900  1
  V  V16  1  0.25211000  0.64597900  0.05477500  1
  O  O17  1  0.78697800  0.41843800  0.82922000  1
  O  O18  1  0.75058100  0.78969200  0.86099800  1
  O  O19  1  0.32181200  0.39726900  0.33629600  1
  O  O20  1  0.38917600  0.15531100  0.49884700  1
  O  O21  1  0.46535900  0.00035300  0.71197700  1
  O  O22  1  0.24476100  0.77951000  0.36234200  1
  O  O23  1  0.48469300  0.26947800  0.88341100  1
  O  O24  1  0.28691500  0.50306100  0.53745700  1
  O  O25  1  0.36625200  0.65198500  0.74703100  1
  O  O26  1  0.43951200  0.87850600  0.91605200  1
  O  O27  1  0.90521000  0.16429000  0.99050400  1
  O  O28  1  0.97088200  0.00165500  0.21171900  1
  O  O29  1  0.00676700  0.27839900  0.38637100  1
  O  O30  1  0.07609900  0.10511700  0.58502700  1
  O  O31  1  0.78793500  0.50707000  0.04832900  1
  O  O32  1  0.11719000  0.36129200  0.74384600  1
  O  O33  1  0.85993000  0.65532000  0.24825200  1
  O  O34  1  0.19745500  0.47640300  0.95838400  1
  O  O35  1  0.93157700  0.89542900  0.41285500  1
  O  O36  1  0.99697300  0.72928700  0.61502800  1
  O  O37  1  0.03828500  0.01650100  0.79347700  1
  O  O38  1  0.11298000  0.82769900  0.99927600  1
  O  O39  1  0.58767600  0.10324600  0.09703400  1
  O  O40  1  0.64842200  0.34859800  0.25938100  1
  O  O41  1  0.71569100  0.49757800  0.46198600  1
  O  O42  1  0.48931300  0.71328900  0.11006700  1
  O  O43  1  0.75590300  0.21063200  0.63431100  1
  O  O44  1  0.54180700  0.99642000  0.29488100  1
  O  O45  1  0.61254600  0.84392900  0.50074000  1
  O  O46  1  0.68214300  0.60516100  0.66162100  1
  O  O47  1  0.27005900  0.21007900  0.14488500  1
  O  O48  1  0.18436100  0.59384600  0.16432200  1
