# generated using pymatgen
data_LiMnP3H8O13
_symmetry_space_group_name_H-M   'P 1'
_cell_length_a   7.13654100
_cell_length_b   7.71211204
_cell_length_c   10.01929979
_cell_angle_alpha   84.01389174
_cell_angle_beta   74.37310427
_cell_angle_gamma   78.16618925
_symmetry_Int_Tables_number   1
_chemical_formula_structural   LiMnP3H8O13
_chemical_formula_sum   'Li2 Mn2 P6 H16 O26'
_cell_volume   519.06600218
_cell_formula_units_Z   2
loop_
 _symmetry_equiv_pos_site_id
 _symmetry_equiv_pos_as_xyz
  1  'x, y, z'
loop_
 _atom_site_type_symbol
 _atom_site_label
 _atom_site_symmetry_multiplicity
 _atom_site_fract_x
 _atom_site_fract_y
 _atom_site_fract_z
 _atom_site_occupancy
  Li  Li0  1  0.00000000  0.00000000  0.00000000  1
  Li  Li1  1  0.00000000  0.50000000  0.50000000  1
  Mn  Mn2  1  0.81864000  0.80901200  0.76196500  1
  Mn  Mn3  1  0.18136000  0.19098800  0.23803500  1
  P  P4  1  0.32687900  0.80549800  0.74280900  1
  P  P5  1  0.24065600  0.80463100  0.47749500  1
  P  P6  1  0.59412600  0.46100200  0.73090500  1
  P  P7  1  0.40587400  0.53899800  0.26909500  1
  P  P8  1  0.75934400  0.19536900  0.52250500  1
  P  P9  1  0.67312100  0.19450200  0.25719100  1
  H  H10  1  0.36082700  0.98104700  0.96596200  1
  H  H11  1  0.81845100  0.81863900  0.43034300  1
  H  H12  1  0.30986800  0.86378600  0.10180000  1
  H  H13  1  0.92099900  0.74092600  0.20451200  1
  H  H14  1  0.69039000  0.69462800  0.39823800  1
  H  H15  1  0.85640800  0.66192800  0.01146500  1
  H  H16  1  0.64946500  0.62487000  0.00531100  1
  H  H17  1  0.09924100  0.65814200  0.08493500  1
  H  H18  1  0.90075900  0.34185800  0.91506500  1
  H  H19  1  0.35053500  0.37513000  0.99468900  1
  H  H20  1  0.14359200  0.33807200  0.98853500  1
  H  H21  1  0.30961000  0.30537200  0.60176200  1
  H  H22  1  0.07900100  0.25907400  0.79548800  1
  H  H23  1  0.69013200  0.13621400  0.89820000  1
  H  H24  1  0.18154900  0.18136100  0.56965700  1
  H  H25  1  0.63917300  0.01895300  0.03403800  1
  O  O26  1  0.47613200  0.87803400  0.79130200  1
  O  O27  1  0.27069200  0.98443000  0.06012000  1
  O  O28  1  0.19282300  0.96002900  0.38242000  1
  O  O29  1  0.36248300  0.86039900  0.57675400  1
  O  O30  1  0.11109600  0.85460600  0.81273900  1
  O  O31  1  0.97630000  0.74675800  0.10177300  1
  O  O32  1  0.82653100  0.71456600  0.37988600  1
  O  O33  1  0.78675500  0.62306400  0.94781500  1
  O  O34  1  0.75990300  0.56245900  0.67414300  1
  O  O35  1  0.07989300  0.71086500  0.56341400  1
  O  O36  1  0.41933600  0.65699900  0.39163800  1
  O  O37  1  0.38078000  0.59001500  0.74671800  1
  O  O38  1  0.41414300  0.65198400  0.13697700  1
  O  O39  1  0.58585700  0.34801600  0.86302300  1
  O  O40  1  0.61922000  0.40998500  0.25328200  1
  O  O41  1  0.58066400  0.34300100  0.60836200  1
  O  O42  1  0.92010700  0.28913500  0.43658600  1
  O  O43  1  0.24009700  0.43754100  0.32585700  1
  O  O44  1  0.21324500  0.37693600  0.05218500  1
  O  O45  1  0.17346900  0.28543400  0.62011400  1
  O  O46  1  0.02370000  0.25324200  0.89822700  1
  O  O47  1  0.88890400  0.14539400  0.18726100  1
  O  O48  1  0.63751700  0.13960100  0.42324600  1
  O  O49  1  0.80717700  0.03997100  0.61758000  1
  O  O50  1  0.72930800  0.01557000  0.93988000  1
  O  O51  1  0.52386800  0.12196600  0.20869800  1
