# generated using pymatgen
data_Li2Cu5F12
_symmetry_space_group_name_H-M   'P 1'
_cell_length_a   8.82290600
_cell_length_b   7.15198800
_cell_length_c   10.11438548
_cell_angle_alpha   45.68729821
_cell_angle_beta   90.00000000
_cell_angle_gamma   90.00000000
_symmetry_Int_Tables_number   1
_chemical_formula_structural   Li2Cu5F12
_chemical_formula_sum   'Li4 Cu10 F24'
_cell_volume   456.67849809
_cell_formula_units_Z   2
loop_
 _symmetry_equiv_pos_site_id
 _symmetry_equiv_pos_as_xyz
  1  'x, y, z'
loop_
 _atom_site_type_symbol
 _atom_site_label
 _atom_site_symmetry_multiplicity
 _atom_site_fract_x
 _atom_site_fract_y
 _atom_site_fract_z
 _atom_site_occupancy
  Li  Li0  1  0.00000000  0.00000000  0.00000000  1
  Li  Li1  1  0.91991700  0.00000000  0.75000000  1
  Li  Li2  1  0.00000000  0.00000000  0.50000000  1
  Li  Li3  1  0.08008300  0.00000000  0.25000000  1
  Cu  Cu4  1  0.50000000  0.50000000  0.50000000  1
  Cu  Cu5  1  0.67050800  0.99852600  0.00023900  1
  Cu  Cu6  1  0.16907100  0.47284400  0.50767000  1
  Cu  Cu7  1  0.16907100  0.52715600  0.99233000  1
  Cu  Cu8  1  0.50000000  0.50000000  0.00000000  1
  Cu  Cu9  1  0.67050800  0.00147400  0.49976100  1
  Cu  Cu10  1  0.32949200  0.99852600  0.50023900  1
  Cu  Cu11  1  0.83092900  0.47284400  0.00767000  1
  Cu  Cu12  1  0.83092900  0.52715600  0.49233000  1
  Cu  Cu13  1  0.32949200  0.00147400  0.99976100  1
  F  F14  1  0.33052400  0.67129600  0.32429400  1
  F  F15  1  0.66348700  0.68315500  0.31642900  1
  F  F16  1  0.99651600  0.30729100  0.68122100  1
  F  F17  1  0.16696600  0.83262900  0.98931800  1
  F  F18  1  0.50043200  0.82450300  0.99711600  1
  F  F19  1  0.83320200  0.83529700  0.97859700  1
  F  F20  1  0.83320200  0.16470300  0.52140300  1
  F  F21  1  0.50043200  0.17549700  0.50288400  1
  F  F22  1  0.16696600  0.16737100  0.51068200  1
  F  F23  1  0.99651600  0.69270900  0.81877900  1
  F  F24  1  0.66348700  0.31684500  0.18357100  1
  F  F25  1  0.33052400  0.32870400  0.17570600  1
  F  F26  1  0.33651300  0.68315500  0.81642900  1
  F  F27  1  0.66947600  0.67129600  0.82429400  1
  F  F28  1  0.00348400  0.30729100  0.18122100  1
  F  F29  1  0.83303400  0.83262900  0.48931800  1
  F  F30  1  0.49956800  0.82450300  0.49711600  1
  F  F31  1  0.16679800  0.83529700  0.47859700  1
  F  F32  1  0.16679800  0.16470300  0.02140300  1
  F  F33  1  0.49956800  0.17549700  0.00288400  1
  F  F34  1  0.83303400  0.16737100  0.01068200  1
  F  F35  1  0.00348400  0.69270900  0.31877900  1
  F  F36  1  0.33651300  0.31684500  0.68357100  1
  F  F37  1  0.66947600  0.32870400  0.67570600  1
