# generated using pymatgen
data_Li2CrSiO4
_symmetry_space_group_name_H-M   'P 1'
_cell_length_a   5.39829400
_cell_length_b   10.23588600
_cell_length_c   14.07890800
_cell_angle_alpha   90.00000000
_cell_angle_beta   90.00000000
_cell_angle_gamma   90.00000000
_symmetry_Int_Tables_number   1
_chemical_formula_structural   Li2CrSiO4
_chemical_formula_sum   'Li16 Cr8 Si8 O32'
_cell_volume   777.94867355
_cell_formula_units_Z   8
loop_
 _symmetry_equiv_pos_site_id
 _symmetry_equiv_pos_as_xyz
  1  'x, y, z'
loop_
 _atom_site_type_symbol
 _atom_site_label
 _atom_site_symmetry_multiplicity
 _atom_site_fract_x
 _atom_site_fract_y
 _atom_site_fract_z
 _atom_site_occupancy
  Li  Li0  1  0.89770500  0.91879900  0.57547800  1
  Li  Li1  1  0.50826700  0.95388700  0.95152000  1
  Li  Li2  1  0.90053900  0.24419200  0.21426200  1
  Li  Li3  1  0.45595900  0.18106800  0.29899000  1
  Li  Li4  1  0.90053900  0.25580800  0.71426200  1
  Li  Li5  1  0.45595900  0.31893200  0.79899000  1
  Li  Li6  1  0.50826700  0.54611300  0.45152000  1
  Li  Li7  1  0.89770500  0.58120100  0.07547800  1
  Li  Li8  1  0.49173300  0.45388700  0.95152000  1
  Li  Li9  1  0.10229500  0.41879900  0.57547800  1
  Li  Li10  1  0.54404100  0.68106800  0.29899000  1
  Li  Li11  1  0.09946100  0.74419200  0.21426200  1
  Li  Li12  1  0.54404100  0.81893200  0.79899000  1
  Li  Li13  1  0.09946100  0.75580800  0.71426200  1
  Li  Li14  1  0.10229500  0.08120100  0.07547800  1
  Li  Li15  1  0.49173300  0.04611300  0.45152000  1
  Cr  Cr16  1  0.34794700  0.07505800  0.66966600  1
  Cr  Cr17  1  0.04279100  0.18556200  0.43943700  1
  Cr  Cr18  1  0.04279100  0.31443800  0.93943700  1
  Cr  Cr19  1  0.34794700  0.42494200  0.16966600  1
  Cr  Cr20  1  0.65205300  0.57505800  0.66966600  1
  Cr  Cr21  1  0.95720900  0.68556200  0.43943700  1
  Cr  Cr22  1  0.95720900  0.81443800  0.93943700  1
  Cr  Cr23  1  0.65205300  0.92494200  0.16966600  1
  Si  Si24  1  0.04113600  0.99532900  0.80360600  1
  Si  Si25  1  0.56715100  0.19664500  0.06757800  1
  Si  Si26  1  0.56715100  0.30335500  0.56757800  1
  Si  Si27  1  0.04113600  0.50467100  0.30360600  1
  Si  Si28  1  0.95886400  0.49532900  0.80360600  1
  Si  Si29  1  0.43284900  0.69664500  0.06757800  1
  Si  Si30  1  0.43284900  0.80335500  0.56757800  1
  Si  Si31  1  0.95886400  0.00467100  0.30360600  1
  O  O32  1  0.22313000  0.04522800  0.35292300  1
  O  O33  1  0.94096400  0.05624100  0.19233800  1
  O  O34  1  0.46196800  0.04457400  0.07453400  1
  O  O35  1  0.75879200  0.09502800  0.36534700  1
  O  O36  1  0.12992400  0.14928800  0.78892400  1
  O  O37  1  0.56506900  0.23662300  0.67608200  1
  O  O38  1  0.37207100  0.21836800  0.50333900  1
  O  O39  1  0.85060300  0.19837300  0.02644000  1
  O  O40  1  0.37207100  0.28163200  0.00333900  1
  O  O41  1  0.85060300  0.30162700  0.52644000  1
  O  O42  1  0.56506900  0.26337700  0.17608200  1
  O  O43  1  0.12992400  0.35071200  0.28892400  1
  O  O44  1  0.46196800  0.45542600  0.57453400  1
  O  O45  1  0.75879200  0.40497200  0.86534700  1
  O  O46  1  0.22313000  0.45477200  0.85292300  1
  O  O47  1  0.94096400  0.44375900  0.69233800  1
  O  O48  1  0.05903600  0.55624100  0.19233800  1
  O  O49  1  0.77687000  0.54522800  0.35292300  1
  O  O50  1  0.24120800  0.59502800  0.36534700  1
  O  O51  1  0.53803200  0.54457400  0.07453400  1
  O  O52  1  0.43493100  0.73662300  0.67608200  1
  O  O53  1  0.87007600  0.64928800  0.78892400  1
  O  O54  1  0.14939700  0.69837300  0.02644000  1
  O  O55  1  0.62792900  0.71836800  0.50333900  1
  O  O56  1  0.14939700  0.80162700  0.52644000  1
  O  O57  1  0.62792900  0.78163200  0.00333900  1
  O  O58  1  0.43493100  0.76337700  0.17608200  1
  O  O59  1  0.87007600  0.85071200  0.28892400  1
  O  O60  1  0.24120800  0.90497200  0.86534700  1
  O  O61  1  0.53803200  0.95542600  0.57453400  1
  O  O62  1  0.05903600  0.94375900  0.69233800  1
  O  O63  1  0.77687000  0.95477200  0.85292300  1
