# generated using pymatgen
data_Li4MnCo3(PO4)4
_symmetry_space_group_name_H-M   'P 1'
_cell_length_a   6.01533000
_cell_length_b   4.75988300
_cell_length_c   10.35183156
_cell_angle_alpha   89.95970633
_cell_angle_beta   90.00000000
_cell_angle_gamma   90.00000000
_symmetry_Int_Tables_number   1
_chemical_formula_structural   Li4MnCo3(PO4)4
_chemical_formula_sum   'Li4 Mn1 Co3 P4 O16'
_cell_volume   296.39633193
_cell_formula_units_Z   1
loop_
 _symmetry_equiv_pos_site_id
 _symmetry_equiv_pos_as_xyz
  1  'x, y, z'
loop_
 _atom_site_type_symbol
 _atom_site_label
 _atom_site_symmetry_multiplicity
 _atom_site_fract_x
 _atom_site_fract_y
 _atom_site_fract_z
 _atom_site_occupancy
  Li  Li0  1  0.25035600  0.00037400  0.99872500  1
  Li  Li1  1  0.74964400  0.00037400  0.99872500  1
  Li  Li2  1  0.74886900  0.49961000  0.50084200  1
  Li  Li3  1  0.25113100  0.49961000  0.50084200  1
  Mn  Mn4  1  0.00000000  0.97346100  0.28018400  1
  Co  Co5  1  0.50000000  0.02572200  0.72107000  1
  Co  Co6  1  0.50000000  0.47697700  0.21886000  1
  Co  Co7  1  0.00000000  0.52274500  0.77993100  1
  P  P8  1  0.00000000  0.08639600  0.59609800  1
  P  P9  1  0.00000000  0.41577300  0.09113500  1
  P  P10  1  0.50000000  0.58770000  0.90580300  1
  P  P11  1  0.50000000  0.91028700  0.40732100  1
  O  O12  1  0.00000000  0.21017400  0.45754700  1
  O  O13  1  0.20526400  0.22284600  0.66679700  1
  O  O14  1  0.79473600  0.22284600  0.66679700  1
  O  O15  1  0.50000000  0.23285600  0.40126700  1
  O  O16  1  0.50000000  0.26484800  0.90174800  1
  O  O17  1  0.20601000  0.28174800  0.16200600  1
  O  O18  1  0.79399000  0.28174800  0.16200600  1
  O  O19  1  0.00000000  0.29218100  0.95205300  1
  O  O20  1  0.50000000  0.70771300  0.04535200  1
  O  O21  1  0.70499200  0.72558300  0.83496900  1
  O  O22  1  0.29500800  0.72558300  0.83496900  1
  O  O23  1  0.00000000  0.73788600  0.09421400  1
  O  O24  1  0.00000000  0.76309500  0.59882000  1
  O  O25  1  0.70221700  0.76902500  0.33704700  1
  O  O26  1  0.29778300  0.76902500  0.33704700  1
  O  O27  1  0.50000000  0.79381200  0.54782300  1
