# generated using pymatgen
data_Li3V3(BO5)2
_symmetry_space_group_name_H-M   'P 1'
_cell_length_a   3.03396300
_cell_length_b   9.26259169
_cell_length_c   12.26353828
_cell_angle_alpha   89.84739896
_cell_angle_beta   89.91617417
_cell_angle_gamma   89.58353669
_symmetry_Int_Tables_number   1
_chemical_formula_structural   Li3V3(BO5)2
_chemical_formula_sum   'Li6 V6 B4 O20'
_cell_volume   344.62368763
_cell_formula_units_Z   2
loop_
 _symmetry_equiv_pos_site_id
 _symmetry_equiv_pos_as_xyz
  1  'x, y, z'
loop_
 _atom_site_type_symbol
 _atom_site_label
 _atom_site_symmetry_multiplicity
 _atom_site_fract_x
 _atom_site_fract_y
 _atom_site_fract_z
 _atom_site_occupancy
  Li  Li0  1  0.00059900  0.02377700  0.99457700  1
  Li  Li1  1  0.49923300  0.98828500  0.50968800  1
  Li  Li2  1  0.49992100  0.23295000  0.09883300  1
  Li  Li3  1  0.00046500  0.49814500  0.50431500  1
  Li  Li4  1  0.49954900  0.49047700  0.00059600  1
  Li  Li5  1  0.00177100  0.99047800  0.71205500  1
  V  V6  1  0.00025800  0.00988300  0.28186800  1
  V  V7  1  0.51502900  0.24734000  0.61532900  1
  V  V8  1  0.99741400  0.49814100  0.78466400  1
  V  V9  1  0.99930600  0.49143400  0.21132700  1
  V  V10  1  0.49917300  0.73624100  0.39266000  1
  V  V11  1  0.47719100  0.76636000  0.88963400  1
  B  B12  1  0.49941600  0.22420900  0.85779600  1
  B  B13  1  0.49823200  0.28002300  0.36589800  1
  B  B14  1  0.50069100  0.73106000  0.63592600  1
  B  B15  1  0.50237900  0.77469700  0.13903100  1
  O  O16  1  0.99993100  0.09096700  0.15816600  1
  O  O17  1  0.99200100  0.13383300  0.57365100  1
  O  O18  1  0.49840600  0.12717900  0.35094400  1
  O  O19  1  0.49642700  0.15588200  0.75676900  1
  O  O20  1  0.50064800  0.15346300  0.95240100  1
  O  O21  1  0.49701900  0.34271200  0.46431800  1
  O  O22  1  0.50054500  0.36556800  0.27092200  1
  O  O23  1  0.49731700  0.38087000  0.85359200  1
  O  O24  1  0.00059600  0.39669800  0.08946300  1
  O  O25  1  0.00438600  0.38537700  0.65145200  1
  O  O26  1  0.99939400  0.60768700  0.34211600  1
  O  O27  1  0.98923500  0.62246500  0.92061100  1
  O  O28  1  0.49822100  0.62414200  0.15166600  1
  O  O29  1  0.49659100  0.64705400  0.73831700  1
  O  O30  1  0.49806400  0.64823600  0.54076500  1
  O  O31  1  0.51272500  0.84063800  0.04140800  1
  O  O32  1  0.50136900  0.85713100  0.23764900  1
  O  O33  1  0.50475300  0.87380700  0.64216400  1
  O  O34  1  0.00028800  0.88395700  0.41342100  1
  O  O35  1  0.02145700  0.87883300  0.85600900  1
