# generated using pymatgen
data_Li3La5Ti6Nb2O26
_symmetry_space_group_name_H-M   'P 1'
_cell_length_a   5.54799700
_cell_length_b   11.08620600
_cell_length_c   17.16234702
_cell_angle_alpha   80.95824549
_cell_angle_beta   90.00000000
_cell_angle_gamma   90.00000000
_symmetry_Int_Tables_number   1
_chemical_formula_structural   Li3La5Ti6Nb2O26
_chemical_formula_sum   'Li6 La10 Ti12 Nb4 O52'
_cell_volume   1042.47469564
_cell_formula_units_Z   2
loop_
 _symmetry_equiv_pos_site_id
 _symmetry_equiv_pos_as_xyz
  1  'x, y, z'
loop_
 _atom_site_type_symbol
 _atom_site_label
 _atom_site_symmetry_multiplicity
 _atom_site_fract_x
 _atom_site_fract_y
 _atom_site_fract_z
 _atom_site_occupancy
  Li  Li0  1  0.24253200  0.00716800  0.50055400  1
  Li  Li1  1  0.75746800  0.99283200  0.49944600  1
  Li  Li2  1  0.24253200  0.49283200  0.49944600  1
  Li  Li3  1  0.77759200  0.25000000  0.50000000  1
  Li  Li4  1  0.75746800  0.50716800  0.50055400  1
  Li  Li5  1  0.22240800  0.75000000  0.50000000  1
  La  La6  1  0.50685800  0.05546500  0.76308800  1
  La  La7  1  0.50685800  0.44453500  0.23691200  1
  La  La8  1  0.99379700  0.18942700  0.23559500  1
  La  La9  1  0.98850300  0.25000000  0.00000000  1
  La  La10  1  0.49314200  0.55546500  0.76308800  1
  La  La11  1  0.99379700  0.31057300  0.76440500  1
  La  La12  1  0.49314200  0.94453500  0.23691200  1
  La  La13  1  0.01149700  0.75000000  0.00000000  1
  La  La14  1  0.00620300  0.68942700  0.23559500  1
  La  La15  1  0.00620300  0.81057300  0.76440500  1
  Ti  Ti16  1  0.49745000  0.22153500  0.11444400  1
  Ti  Ti17  1  0.49745000  0.27846500  0.88555600  1
  Ti  Ti18  1  0.00176500  0.02830400  0.88487200  1
  Ti  Ti19  1  0.00412000  0.08950300  0.63687700  1
  Ti  Ti20  1  0.00176500  0.47169600  0.11512800  1
  Ti  Ti21  1  0.50255000  0.72153500  0.11444400  1
  Ti  Ti22  1  0.00412000  0.41049700  0.36312300  1
  Ti  Ti23  1  0.50255000  0.77846500  0.88555600  1
  Ti  Ti24  1  0.99823500  0.52830400  0.88487200  1
  Ti  Ti25  1  0.99588000  0.58950300  0.63687700  1
  Ti  Ti26  1  0.99823500  0.97169600  0.11512800  1
  Ti  Ti27  1  0.99588000  0.91049700  0.36312300  1
  Nb  Nb28  1  0.49592000  0.16214500  0.36501200  1
  Nb  Nb29  1  0.49592000  0.33785500  0.63498800  1
  Nb  Nb30  1  0.50408000  0.66214500  0.36501200  1
  Nb  Nb31  1  0.50408000  0.83785500  0.63498800  1
  O  O32  1  0.23950200  0.10285400  0.11915900  1
  O  O33  1  0.24552000  0.04253600  0.34252600  1
  O  O34  1  0.25040200  0.29449800  0.33398700  1
  O  O35  1  0.24481600  0.34102400  0.12600800  1
  O  O36  1  0.24481600  0.15897600  0.87399200  1
  O  O37  1  0.51183000  0.18614000  0.23099800  1
  O  O38  1  0.25040200  0.20550200  0.66601300  1
  O  O39  1  0.51367800  0.12837300  0.47277700  1
  O  O40  1  0.76047600  0.09985800  0.12010200  1
  O  O41  1  0.50496300  0.25000000  0.00000000  1
  O  O42  1  0.00000000  0.00000000  0.00000000  1
  O  O43  1  0.74608100  0.03854300  0.34121100  1
  O  O44  1  0.76347600  0.33858900  0.12070800  1
  O  O45  1  0.24552000  0.45746400  0.65747400  1
  O  O46  1  0.25391900  0.53854300  0.34121100  1
  O  O47  1  0.23952400  0.59985800  0.12010200  1
  O  O48  1  0.51183000  0.31386000  0.76900200  1
  O  O49  1  0.23950200  0.39714600  0.88084100  1
  O  O50  1  0.76347600  0.16141100  0.87929200  1
  O  O51  1  0.51367800  0.37162700  0.52722300  1
  O  O52  1  0.75085600  0.20803800  0.65827600  1
  O  O53  1  0.75085600  0.29196200  0.34172400  1
  O  O54  1  0.98250900  0.05023900  0.76967400  1
  O  O55  1  0.99258300  0.11092000  0.53399600  1
  O  O56  1  0.48817000  0.68614000  0.23099800  1
  O  O57  1  0.98250900  0.44976100  0.23032600  1
  O  O58  1  0.23652400  0.66141100  0.87929200  1
  O  O59  1  0.48632200  0.62837300  0.47277700  1
  O  O60  1  0.75448000  0.54253600  0.34252600  1
  O  O61  1  0.99258300  0.38908000  0.46600400  1
  O  O62  1  0.76047600  0.40014200  0.87989800  1
  O  O63  1  0.24914400  0.70803800  0.65827600  1
  O  O64  1  0.24914400  0.79196200  0.34172400  1
  O  O65  1  0.23652400  0.83858900  0.12070800  1
  O  O66  1  0.00000000  0.50000000  0.00000000  1
  O  O67  1  0.76049800  0.60285400  0.11915900  1
  O  O68  1  0.74608100  0.46145700  0.65878900  1
  O  O69  1  0.49503700  0.75000000  0.00000000  1
  O  O70  1  0.75518400  0.84102400  0.12600800  1
  O  O71  1  0.23952400  0.90014200  0.87989800  1
  O  O72  1  0.25391900  0.96145700  0.65878900  1
  O  O73  1  0.48817000  0.81386000  0.76900200  1
  O  O74  1  0.01749100  0.55023900  0.76967400  1
  O  O75  1  0.48632200  0.87162700  0.52722300  1
  O  O76  1  0.00741700  0.61092000  0.53399600  1
  O  O77  1  0.75518400  0.65897600  0.87399200  1
  O  O78  1  0.74959800  0.70550200  0.66601300  1
  O  O79  1  0.74959800  0.79449800  0.33398700  1
  O  O80  1  0.76049800  0.89714600  0.88084100  1
  O  O81  1  0.00741700  0.88908000  0.46600400  1
  O  O82  1  0.01749100  0.94976100  0.23032600  1
  O  O83  1  0.75448000  0.95746400  0.65747400  1
