# generated using pymatgen
data_LiCrSnO4
_symmetry_space_group_name_H-M   'P 1'
_cell_length_a   6.09720701
_cell_length_b   6.09669300
_cell_length_c   8.55211701
_cell_angle_alpha   90.00163226
_cell_angle_beta   90.00596019
_cell_angle_gamma   90.00029128
_symmetry_Int_Tables_number   1
_chemical_formula_structural   LiCrSnO4
_chemical_formula_sum   'Li4 Cr4 Sn4 O16'
_cell_volume   317.90612736
_cell_formula_units_Z   4
loop_
 _symmetry_equiv_pos_site_id
 _symmetry_equiv_pos_as_xyz
  1  'x, y, z'
loop_
 _atom_site_type_symbol
 _atom_site_label
 _atom_site_symmetry_multiplicity
 _atom_site_fract_x
 _atom_site_fract_y
 _atom_site_fract_z
 _atom_site_occupancy
  Li  Li0  1  0.99998900  0.23262200  0.00000800  1
  Li  Li1  1  0.99999800  0.76743700  0.50002300  1
  Li  Li2  1  0.23260300  0.00000500  0.24997400  1
  Li  Li3  1  0.76741900  0.00000800  0.75004400  1
  Cr  Cr4  1  0.50000600  0.24312200  0.99997900  1
  Cr  Cr5  1  0.50010700  0.75692500  0.49993300  1
  Cr  Cr6  1  0.24308400  0.50028500  0.24989900  1
  Cr  Cr7  1  0.75715100  0.49998800  0.74992300  1
  Sn  Sn8  1  0.25173400  0.25177800  0.62504600  1
  Sn  Sn9  1  0.25180800  0.74803500  0.87495900  1
  Sn  Sn10  1  0.74819000  0.25172600  0.37501600  1
  Sn  Sn11  1  0.74819100  0.74802900  0.12505800  1
  O  O12  1  0.02024700  0.26195200  0.25100900  1
  O  O13  1  0.02024100  0.73813000  0.24905200  1
  O  O14  1  0.26187100  0.02021000  0.99894000  1
  O  O15  1  0.26188200  0.97968900  0.50098200  1
  O  O16  1  0.73809400  0.02024500  0.00110000  1
  O  O17  1  0.73818800  0.97968400  0.49906900  1
  O  O18  1  0.97969100  0.26193100  0.74900300  1
  O  O19  1  0.97968000  0.73814200  0.75098400  1
  O  O20  1  0.26255200  0.48156800  0.01377300  1
  O  O21  1  0.26260800  0.51839800  0.48631600  1
  O  O22  1  0.48160900  0.26269900  0.23628900  1
  O  O23  1  0.48159100  0.73740300  0.26372600  1
  O  O24  1  0.51834300  0.26263600  0.76375400  1
  O  O25  1  0.51833900  0.73734500  0.73623200  1
  O  O26  1  0.73742200  0.51840100  0.51369100  1
  O  O27  1  0.73736100  0.48160600  0.98621900  1
