# generated using pymatgen
data_Li2P5WO15
_symmetry_space_group_name_H-M   'P 1'
_cell_length_a   13.56228900
_cell_length_b   5.36256500
_cell_length_c   8.98238433
_cell_angle_alpha   77.71870233
_cell_angle_beta   90.00000000
_cell_angle_gamma   90.00000000
_symmetry_Int_Tables_number   1
_chemical_formula_structural   Li2P5WO15
_chemical_formula_sum   'Li4 P10 W2 O30'
_cell_volume   638.32654347
_cell_formula_units_Z   2
loop_
 _symmetry_equiv_pos_site_id
 _symmetry_equiv_pos_as_xyz
  1  'x, y, z'
loop_
 _atom_site_type_symbol
 _atom_site_label
 _atom_site_symmetry_multiplicity
 _atom_site_fract_x
 _atom_site_fract_y
 _atom_site_fract_z
 _atom_site_occupancy
  Li  Li0  1  0.87595200  0.94607800  0.07983600  1
  Li  Li1  1  0.62404800  0.94607800  0.07983600  1
  Li  Li2  1  0.37595200  0.05392200  0.92016400  1
  Li  Li3  1  0.12404800  0.05392200  0.92016400  1
  P  P4  1  0.35778800  0.00694800  0.48327700  1
  P  P5  1  0.14221200  0.00694800  0.48327700  1
  P  P6  1  0.92302300  0.66437000  0.81895300  1
  P  P7  1  0.57697700  0.66437000  0.81895300  1
  P  P8  1  0.25000000  0.54208300  0.98653500  1
  P  P9  1  0.75000000  0.45791700  0.01346500  1
  P  P10  1  0.42302300  0.33563000  0.18104700  1
  P  P11  1  0.07697700  0.33563000  0.18104700  1
  P  P12  1  0.64221200  0.99305200  0.51672300  1
  P  P13  1  0.85778800  0.99305200  0.51672300  1
  W  W14  1  0.00000000  0.50000000  0.50000000  1
  W  W15  1  0.50000000  0.50000000  0.50000000  1
  O  O16  1  0.75000000  0.93356100  0.46231800  1
  O  O17  1  0.96313900  0.81178900  0.92832700  1
  O  O18  1  0.53686100  0.81178900  0.92832700  1
  O  O19  1  0.25000000  0.80392700  0.88593000  1
  O  O20  1  0.85596300  0.85468400  0.69272800  1
  O  O21  1  0.64403700  0.85468400  0.69272800  1
  O  O22  1  0.92655800  0.86313900  0.42478600  1
  O  O23  1  0.57344200  0.86313900  0.42478600  1
  O  O24  1  0.36792300  0.72448400  0.49696600  1
  O  O25  1  0.13207700  0.72448400  0.49696600  1
  O  O26  1  0.84244100  0.45662600  0.89649900  1
  O  O27  1  0.65755900  0.45662600  0.89649900  1
  O  O28  1  0.99344000  0.52311400  0.73615500  1
  O  O29  1  0.50656000  0.52311400  0.73615500  1
  O  O30  1  0.75000000  0.70006900  0.07215400  1
  O  O31  1  0.25000000  0.29993100  0.92784600  1
  O  O32  1  0.49344000  0.47688600  0.26384500  1
  O  O33  1  0.00656000  0.47688600  0.26384500  1
  O  O34  1  0.34244100  0.54337400  0.10350100  1
  O  O35  1  0.15755900  0.54337400  0.10350100  1
  O  O36  1  0.86792300  0.27551600  0.50303400  1
  O  O37  1  0.63207700  0.27551600  0.50303400  1
  O  O38  1  0.42655800  0.13686100  0.57521400  1
  O  O39  1  0.07344200  0.13686100  0.57521400  1
  O  O40  1  0.35596300  0.14531600  0.30727200  1
  O  O41  1  0.14403700  0.14531600  0.30727200  1
  O  O42  1  0.75000000  0.19607300  0.11407000  1
  O  O43  1  0.46313900  0.18821100  0.07167300  1
  O  O44  1  0.03686100  0.18821100  0.07167300  1
  O  O45  1  0.25000000  0.06643900  0.53768200  1
