# generated using pymatgen
data_Li9Co15O28
_symmetry_space_group_name_H-M   'P 1'
_cell_length_a   7.84698000
_cell_length_b   8.25661096
_cell_length_c   8.67027754
_cell_angle_alpha   105.34695709
_cell_angle_beta   104.24673846
_cell_angle_gamma   104.31123091
_symmetry_Int_Tables_number   1
_chemical_formula_structural   Li9Co15O28
_chemical_formula_sum   'Li9 Co15 O28'
_cell_volume   494.87138467
_cell_formula_units_Z   1
loop_
 _symmetry_equiv_pos_site_id
 _symmetry_equiv_pos_as_xyz
  1  'x, y, z'
loop_
 _atom_site_type_symbol
 _atom_site_label
 _atom_site_symmetry_multiplicity
 _atom_site_fract_x
 _atom_site_fract_y
 _atom_site_fract_z
 _atom_site_occupancy
  Li  Li0  1  0.50000000  0.00000000  0.50000000  1
  Li  Li1  1  0.21582700  0.14411200  0.35606900  1
  Li  Li2  1  0.43499200  0.28600700  0.71416300  1
  Li  Li3  1  0.34185700  0.58405100  0.92713300  1
  Li  Li4  1  0.13488200  0.43224200  0.56830700  1
  Li  Li5  1  0.86511800  0.56775800  0.43169300  1
  Li  Li6  1  0.65814300  0.41594900  0.07286700  1
  Li  Li7  1  0.56500800  0.71399300  0.28583700  1
  Li  Li8  1  0.78417300  0.85588800  0.64393100  1
  Co  Co9  1  0.00000000  0.00000000  0.00000000  1
  Co  Co10  1  0.35768400  0.06579500  0.92153100  1
  Co  Co11  1  0.86604900  0.07407900  0.43252400  1
  Co  Co12  1  0.07331900  0.21633600  0.78511000  1
  Co  Co13  1  0.00000000  0.50000000  0.00000000  1
  Co  Co14  1  0.78907100  0.35836900  0.64594900  1
  Co  Co15  1  0.57460000  0.21641300  0.29223000  1
  Co  Co16  1  0.71204900  0.63860000  0.85569400  1
  Co  Co17  1  0.50000000  0.50000000  0.50000000  1
  Co  Co18  1  0.28795100  0.36140000  0.14430600  1
  Co  Co19  1  0.42540000  0.78358700  0.70777000  1
  Co  Co20  1  0.21092900  0.64163100  0.35405100  1
  Co  Co21  1  0.92668100  0.78366400  0.21489000  1
  Co  Co22  1  0.13395100  0.92592100  0.56747600  1
  Co  Co23  1  0.64231600  0.93420500  0.07846900  1
  O  O24  1  0.39301900  0.02319300  0.70261800  1
  O  O25  1  0.92748100  0.01389500  0.22376400  1
  O  O26  1  0.81745000  0.12444800  0.64185600  1
  O  O27  1  0.02852600  0.25958300  0.99545200  1
  O  O28  1  0.12422900  0.16174200  0.57510500  1
  O  O29  1  0.33225900  0.31235200  0.92178000  1
  O  O30  1  0.61857400  0.16945000  0.08127900  1
  O  O31  1  0.84980400  0.30821600  0.44665400  1
  O  O32  1  0.28478600  0.12728800  0.13055100  1
  O  O33  1  0.49897700  0.25854000  0.48985000  1
  O  O34  1  0.72491900  0.41197000  0.84805400  1
  O  O35  1  0.07116400  0.44632700  0.79633600  1
  O  O36  1  0.75625300  0.58428900  0.63464800  1
  O  O37  1  0.55208900  0.45804000  0.28828400  1
  O  O38  1  0.44791100  0.54196000  0.71171600  1
  O  O39  1  0.24374700  0.41571100  0.36535200  1
  O  O40  1  0.92883600  0.55367300  0.20366400  1
  O  O41  1  0.27508100  0.58803000  0.15194600  1
  O  O42  1  0.50102300  0.74146000  0.51015000  1
  O  O43  1  0.71521400  0.87271200  0.86944900  1
  O  O44  1  0.15019600  0.69178400  0.55334600  1
  O  O45  1  0.38142600  0.83055000  0.91872100  1
  O  O46  1  0.66774100  0.68764800  0.07822000  1
  O  O47  1  0.87577100  0.83825800  0.42489500  1
  O  O48  1  0.97147400  0.74041700  0.00454800  1
  O  O49  1  0.18255000  0.87555200  0.35814400  1
  O  O50  1  0.07251900  0.98610500  0.77623600  1
  O  O51  1  0.60698100  0.97680700  0.29738200  1
