# generated using pymatgen
data_Ba14LiY7(Cu10O21)2
_symmetry_space_group_name_H-M   'P 1'
_cell_length_a   8.65340300
_cell_length_b   12.24872821
_cell_length_c   12.73221388
_cell_angle_alpha   95.49831931
_cell_angle_beta   105.74921514
_cell_angle_gamma   98.22050648
_symmetry_Int_Tables_number   1
_chemical_formula_structural   Ba14LiY7(Cu10O21)2
_chemical_formula_sum   'Ba14 Li1 Y7 Cu20 O42'
_cell_volume   1272.61625251
_cell_formula_units_Z   1
loop_
 _symmetry_equiv_pos_site_id
 _symmetry_equiv_pos_as_xyz
  1  'x, y, z'
loop_
 _atom_site_type_symbol
 _atom_site_label
 _atom_site_symmetry_multiplicity
 _atom_site_fract_x
 _atom_site_fract_y
 _atom_site_fract_z
 _atom_site_occupancy
  Ba  Ba0  1  0.05816300  0.18608700  0.80254100  1
  Ba  Ba1  1  0.62797200  0.04307600  0.80243000  1
  Ba  Ba2  1  0.48653700  0.32816800  0.80441900  1
  Ba  Ba3  1  0.08401300  0.52845300  0.19553000  1
  Ba  Ba4  1  0.34571200  0.61605300  0.80450000  1
  Ba  Ba5  1  0.22669900  0.24151800  0.19536600  1
  Ba  Ba6  1  0.20241300  0.90033400  0.80249700  1
  Ba  Ba7  1  0.77288000  0.75727200  0.80261300  1
  Ba  Ba8  1  0.65473800  0.38502800  0.19509000  1
  Ba  Ba9  1  0.79907500  0.09954900  0.19650700  1
  Ba  Ba10  1  0.36875400  0.95666400  0.19650300  1
  Ba  Ba11  1  0.91662100  0.47250800  0.80516700  1
  Ba  Ba12  1  0.51240000  0.67076100  0.19663500  1
  Ba  Ba13  1  0.94239200  0.81405500  0.19644200  1
  Li  Li14  1  0.85439300  0.95141500  0.66012400  1
  Y  Y15  1  0.21556500  0.57148900  0.49948600  1
  Y  Y16  1  0.35541200  0.28553300  0.49948600  1
  Y  Y17  1  0.50619600  0.99882400  0.50235900  1
  Y  Y18  1  0.06727000  0.85894100  0.50237700  1
  Y  Y19  1  0.78533300  0.42843600  0.49913200  1
  Y  Y20  1  0.92669500  0.13927500  0.50245300  1
  Y  Y21  1  0.64680200  0.71862200  0.50251300  1
  Cu  Cu22  1  0.99816100  0.99941100  0.99569800  1
  Cu  Cu23  1  0.14276300  0.71401700  0.99973900  1
  Cu  Cu24  1  0.42902700  0.14297600  0.00063400  1
  Cu  Cu25  1  0.28512200  0.42832600  0.99972800  1
  Cu  Cu26  1  0.01411100  0.33775800  0.36708900  1
  Cu  Cu27  1  0.12769700  0.37684300  0.63310500  1
  Cu  Cu28  1  0.15910900  0.05241200  0.36816800  1
  Cu  Cu29  1  0.26888500  0.08995600  0.62886300  1
  Cu  Cu30  1  0.41300100  0.80404700  0.62867700  1
  Cu  Cu31  1  0.69854100  0.23269200  0.62955100  1
  Cu  Cu32  1  0.29928200  0.76699400  0.36776300  1
  Cu  Cu33  1  0.44335100  0.48144200  0.36723900  1
  Cu  Cu34  1  0.85734000  0.28603500  0.00054400  1
  Cu  Cu35  1  0.57164000  0.85736400  0.00108900  1
  Cu  Cu36  1  0.71465000  0.57143800  0.99954200  1
  Cu  Cu37  1  0.55779200  0.51838500  0.63314000  1
  Cu  Cu38  1  0.58562800  0.19519900  0.36622900  1
  Cu  Cu39  1  0.72632900  0.90874300  0.36166500  1
  Cu  Cu40  1  0.87157000  0.62375300  0.36628300  1
  Cu  Cu41  1  0.98408300  0.66144400  0.62945800  1
  O  O42  1  0.05358600  0.01824300  0.61779600  1
  O  O43  1  0.19321500  0.23388300  0.62048300  1
  O  O44  1  0.36458800  0.12143300  0.85152200  1
  O  O45  1  0.06202600  0.02074800  0.14474900  1
  O  O46  1  0.07920800  0.69329000  0.85173900  1
  O  O47  1  0.05056900  0.51788900  0.61820400  1
  O  O48  1  0.09153300  0.19711900  0.38018800  1
  O  O49  1  0.22215200  0.40729900  0.85131800  1
  O  O50  1  0.09094900  0.69673000  0.38111200  1
  O  O51  1  0.33688400  0.44563700  0.61939300  1
  O  O52  1  0.19841400  0.73216900  0.62113000  1
  O  O53  1  0.47674800  0.15960100  0.62114300  1
  O  O54  1  0.23435300  0.41145400  0.37995100  1
  O  O55  1  0.37808600  0.12624600  0.38110400  1
  O  O56  1  0.33779900  0.94585000  0.62158500  1
  O  O57  1  0.62218300  0.37296800  0.61819200  1
  O  O58  1  0.49249100  0.16430500  0.14966600  1
  O  O59  1  0.76260400  0.09218900  0.61789600  1
  O  O60  1  0.48142100  0.65765000  0.62040200  1
  O  O61  1  0.65013100  0.55021600  0.85066200  1
  O  O62  1  0.51970800  0.33991400  0.37945500  1
  O  O63  1  0.50868000  0.83632600  0.85277200  1
  O  O64  1  0.37732600  0.62566400  0.38020200  1
  O  O65  1  0.66294300  0.05329200  0.37880400  1
  O  O66  1  0.23453900  0.91165600  0.38069200  1
  O  O67  1  0.20672300  0.73547100  0.14878900  1
  O  O68  1  0.79377100  0.26436400  0.85204600  1
  O  O69  1  0.34940700  0.44966000  0.14836600  1
  O  O70  1  0.52055300  0.84029700  0.37889000  1
  O  O71  1  0.61847400  0.87242600  0.61772400  1
  O  O72  1  0.91001400  0.30389200  0.62258500  1
  O  O73  1  0.80629700  0.26914300  0.38191900  1
  O  O74  1  0.76590800  0.58812300  0.62256800  1
  O  O75  1  0.66422200  0.55436900  0.38188200  1
  O  O76  1  0.63537100  0.87852500  0.14909900  1
  O  O77  1  0.90984000  0.79880800  0.61782000  1
  O  O78  1  0.93359600  0.97783600  0.84506200  1
  O  O79  1  0.77795400  0.59257600  0.14865400  1
  O  O80  1  0.92102800  0.30705900  0.14891000  1
  O  O81  1  0.94840500  0.48295200  0.37950700  1
  O  O82  1  0.80472100  0.76904100  0.37875900  1
  O  O83  1  0.94746400  0.98239000  0.37888700  1
