# generated using pymatgen
data_LiMnF4
_symmetry_space_group_name_H-M   'P 1'
_cell_length_a   7.02374063
_cell_length_b   7.02374063
_cell_length_c   10.71111400
_cell_angle_alpha   90.00000000
_cell_angle_beta   90.00000000
_cell_angle_gamma   120.00000596
_symmetry_Int_Tables_number   1
_chemical_formula_structural   LiMnF4
_chemical_formula_sum   'Li6 Mn6 F24'
_cell_volume   457.61703090
_cell_formula_units_Z   6
loop_
 _symmetry_equiv_pos_site_id
 _symmetry_equiv_pos_as_xyz
  1  'x, y, z'
loop_
 _atom_site_type_symbol
 _atom_site_label
 _atom_site_symmetry_multiplicity
 _atom_site_fract_x
 _atom_site_fract_y
 _atom_site_fract_z
 _atom_site_occupancy
  Li  Li0  1  0.15789800  0.74650900  0.32318400  1
  Li  Li1  1  0.25349100  0.41138900  0.65651700  1
  Li  Li2  1  0.58861100  0.84210200  0.98985000  1
  Li  Li3  1  0.45762900  0.32842100  0.08706300  1
  Li  Li4  1  0.87079200  0.54237100  0.75373000  1
  Li  Li5  1  0.67157900  0.12920800  0.42039700  1
  Mn  Mn6  1  0.00978600  0.84263900  0.01158800  1
  Mn  Mn7  1  0.99206200  0.37007300  0.06769700  1
  Mn  Mn8  1  0.37801100  0.00793800  0.73436400  1
  Mn  Mn9  1  0.15736100  0.16714700  0.34492200  1
  Mn  Mn10  1  0.62992700  0.62198900  0.40103100  1
  Mn  Mn11  1  0.83285300  0.99021400  0.67825500  1
  F  F12  1  0.09517900  0.64337800  0.15464300  1
  F  F13  1  0.27724200  0.00479900  0.92991200  1
  F  F14  1  0.18136600  0.71615100  0.68703500  1
  F  F15  1  0.99520100  0.27244300  0.26324600  1
  F  F16  1  0.28384900  0.46521500  0.02036800  1
  F  F17  1  0.18524200  0.09551800  0.66580100  1
  F  F18  1  0.54819800  0.90482100  0.82130900  1
  F  F19  1  0.35662200  0.45180200  0.48797600  1
  F  F20  1  0.53478500  0.81863400  0.35370100  1
  F  F21  1  0.17170000  0.04190700  0.15241200  1
  F  F22  1  0.42751400  0.39685100  0.26122400  1
  F  F23  1  0.31222600  0.03475800  0.40501100  1
  F  F24  1  0.72755700  0.72275800  0.59657900  1
  F  F25  1  0.56708400  0.30740000  0.76366400  1
  F  F26  1  0.72253200  0.68777400  0.07167700  1
  F  F27  1  0.87020700  0.82830000  0.81907900  1
  F  F28  1  0.91027600  0.81475800  0.33246700  1
  F  F29  1  0.74031600  0.43291600  0.43033100  1
  F  F30  1  0.60314900  0.03066300  0.59455800  1
  F  F31  1  0.96933700  0.57248600  0.92789100  1
  F  F32  1  0.69260000  0.25968400  0.09699800  1
  F  F33  1  0.96524200  0.27746800  0.73834400  1
  F  F34  1  0.95809300  0.12979300  0.48574500  1
  F  F35  1  0.90448200  0.08972400  0.99913400  1
