# generated using pymatgen
data_Li2Si2NiO6
_symmetry_space_group_name_H-M   'P 1'
_cell_length_a   5.08918589
_cell_length_b   10.52777913
_cell_length_c   10.17660212
_cell_angle_alpha   103.89035848
_cell_angle_beta   89.55840217
_cell_angle_gamma   76.14521190
_symmetry_Int_Tables_number   1
_chemical_formula_structural   Li2Si2NiO6
_chemical_formula_sum   'Li8 Si8 Ni4 O24'
_cell_volume   512.66538566
_cell_formula_units_Z   4
loop_
 _symmetry_equiv_pos_site_id
 _symmetry_equiv_pos_as_xyz
  1  'x, y, z'
loop_
 _atom_site_type_symbol
 _atom_site_label
 _atom_site_symmetry_multiplicity
 _atom_site_fract_x
 _atom_site_fract_y
 _atom_site_fract_z
 _atom_site_occupancy
  Li  Li0  1  0.53893400  0.83720200  0.45211800  1
  Li  Li1  1  0.53834200  0.83649200  0.95220800  1
  Li  Li2  1  0.12437200  0.66527600  0.40918500  1
  Li  Li3  1  0.12397700  0.66464200  0.90916900  1
  Li  Li4  1  0.81887700  0.33629200  0.06256300  1
  Li  Li5  1  0.81812000  0.33722300  0.56200700  1
  Li  Li6  1  0.90443200  0.16499300  0.26942200  1
  Li  Li7  1  0.90450500  0.16476400  0.76929000  1
  Si  Si8  1  0.17400300  0.83564000  0.19678400  1
  Si  Si9  1  0.17498800  0.83591600  0.69709100  1
  Si  Si10  1  0.75889800  0.66534000  0.15414500  1
  Si  Si11  1  0.75962600  0.66640300  0.65475500  1
  Si  Si12  1  0.30877900  0.33624300  0.37982600  1
  Si  Si13  1  0.30948100  0.33571200  0.88041200  1
  Si  Si14  1  0.39465700  0.16555400  0.08769300  1
  Si  Si15  1  0.39408200  0.16643600  0.58744400  1
  Ni  Ni16  1  0.72777800  0.50019300  0.86406500  1
  Ni  Ni17  1  0.97798600  0.00086000  0.98933200  1
  Ni  Ni18  1  0.72793400  0.50109600  0.36410400  1
  Ni  Ni19  1  0.97838400  0.00126900  0.48921400  1
  O  O20  1  0.04571700  0.98405100  0.29458000  1
  O  O21  1  0.04471100  0.98404100  0.79475500  1
  O  O22  1  0.77881400  0.51703900  0.17776300  1
  O  O23  1  0.77691600  0.51825800  0.67835200  1
  O  O24  1  0.35583800  0.48436000  0.38868500  1
  O  O25  1  0.35521200  0.48424200  0.89000000  1
  O  O26  1  0.58938100  0.01720900  0.02313500  1
  O  O27  1  0.58936500  0.01834700  0.52229500  1
  O  O28  1  0.18182500  0.83054700  0.03499500  1
  O  O29  1  0.18325200  0.83089800  0.53531200  1
  O  O30  1  0.76141200  0.67022800  0.99480500  1
  O  O31  1  0.76301200  0.67150800  0.49558200  1
  O  O32  1  0.99019300  0.33116100  0.38122900  1
  O  O33  1  0.99153200  0.32995600  0.88198700  1
  O  O34  1  0.07103000  0.17093800  0.09188600  1
  O  O35  1  0.07047700  0.17141400  0.59139500  1
  O  O36  1  0.01126100  0.72455500  0.22909100  1
  O  O37  1  0.01366700  0.72424000  0.72931400  1
  O  O38  1  0.48542800  0.77655600  0.24221300  1
  O  O39  1  0.48677900  0.77803400  0.74269500  1
  O  O40  1  0.48526300  0.22428000  0.24361700  1
  O  O41  1  0.48520400  0.22473800  0.74336200  1
  O  O42  1  0.45763300  0.27833700  0.50688900  1
  O  O43  1  0.45974600  0.27683800  0.00663300  1
