# generated using pymatgen
data_LiV2(OF)3
_symmetry_space_group_name_H-M   'P 1'
_cell_length_a   10.17500316
_cell_length_b   10.27958703
_cell_length_c   10.76499443
_cell_angle_alpha   86.18057290
_cell_angle_beta   116.30304174
_cell_angle_gamma   62.12159598
_symmetry_Int_Tables_number   1
_chemical_formula_structural   LiV2(OF)3
_chemical_formula_sum   'Li8 V16 O24 F24'
_cell_volume   837.27858028
_cell_formula_units_Z   8
loop_
 _symmetry_equiv_pos_site_id
 _symmetry_equiv_pos_as_xyz
  1  'x, y, z'
loop_
 _atom_site_type_symbol
 _atom_site_label
 _atom_site_symmetry_multiplicity
 _atom_site_fract_x
 _atom_site_fract_y
 _atom_site_fract_z
 _atom_site_occupancy
  Li  Li0  1  0.26775233  0.12768688  0.67423359  1
  Li  Li1  1  0.77344166  0.12434636  0.68081124  1
  Li  Li2  1  0.80365073  0.34287794  0.43929969  1
  Li  Li3  1  0.22833265  0.64320105  0.09942024  1
  Li  Li4  1  0.27061264  0.62452236  0.67765981  1
  Li  Li5  1  0.30614323  0.84137400  0.43585382  1
  Li  Li6  1  0.76102875  0.62798711  0.66869632  1
  Li  Li7  1  0.79809701  0.84394159  0.43458611  1
  V  V8  1  0.47239607  0.01771224  0.48593633  1
  V  V9  1  0.02186097  0.23439128  0.25278316  1
  V  V10  1  0.51565948  0.99419559  0.00964501  1
  V  V11  1  0.01275517  0.27046433  0.77335107  1
  V  V12  1  0.97045298  0.01180146  0.48273696  1
  V  V13  1  0.52147181  0.23629957  0.25016800  1
  V  V14  1  0.01643260  0.98637559  0.00139606  1
  V  V15  1  0.49805877  0.26068003  0.75691694  1
  V  V16  1  0.47680445  0.50402623  0.48899054  1
  V  V17  1  0.02174355  0.73359317  0.25633794  1
  V  V18  1  0.52016693  0.48437460  0.99347276  1
  V  V19  1  0.00177300  0.76607742  0.76023411  1
  V  V20  1  0.97638399  0.50837202  0.48371964  1
  V  V21  1  0.52131651  0.73366400  0.25487543  1
  V  V22  1  0.00880928  0.49714979  0.00759864  1
  V  V23  1  0.50876416  0.77160969  0.76915879  1
  O  O24  1  0.24671271  0.05645780  0.37662717  1
  O  O25  1  0.04267798  0.33085398  0.12975470  1
  O  O26  1  0.04027631  0.32231281  0.62046328  1
  O  O27  1  0.45433777  0.16196827  0.37463344  1
  O  O28  1  0.45738429  0.16687893  0.86248535  1
  O  O29  1  0.74721234  0.05149150  0.36821619  1
  O  O30  1  0.05401753  0.37870403  0.87436185  1
  O  O31  1  0.54643030  0.33139249  0.13171087  1
  O  O32  1  0.54860462  0.32749506  0.62429625  1
  O  O33  1  0.94830209  0.16831048  0.37813448  1
  O  O34  1  0.96452762  0.16897739  0.86084544  1
  O  O35  1  0.54913282  0.37908238  0.88071630  1
  O  O36  1  0.23779482  0.57122900  0.36975451  1
  O  O37  1  0.05582286  0.82246226  0.12731637  1
  O  O38  1  0.04189458  0.82344575  0.61847967  1
  O  O39  1  0.45096175  0.66277564  0.37771552  1
  O  O40  1  0.46372941  0.66787774  0.86126490  1
  O  O41  1  0.74658876  0.55408001  0.37180229  1
  O  O42  1  0.04995576  0.88232919  0.88077718  1
  O  O43  1  0.53580163  0.83558685  0.12914607  1
  O  O44  1  0.53751553  0.82195859  0.61879271  1
  O  O45  1  0.94527046  0.67040185  0.37999956  1
  O  O46  1  0.96990911  0.66522128  0.87148661  1
  O  O47  1  0.55670126  0.87445056  0.87493730  1
  F  F48  1  0.25231728  0.08107992  0.86146025  1
  F  F49  1  0.43834842  0.13618159  0.11661840  1
  F  F50  1  0.42391022  0.13357223  0.61729828  1
  F  F51  1  0.05964956  0.36629047  0.38160341  1
  F  F52  1  0.75353873  0.08240211  0.86564147  1
  F  F53  1  0.25762361  0.43902655  0.13835535  1
  F  F54  1  0.95031639  0.12574294  0.11358221  1
  F  F55  1  0.24814046  0.44467579  0.63409712  1
  F  F56  1  0.90928430  0.13597225  0.60348498  1
  F  F57  1  0.57310872  0.36409319  0.38467090  1
  F  F58  1  0.25666817  0.58374124  0.86886809  1
  F  F59  1  0.75340575  0.42549380  0.13399690  1
  F  F60  1  0.75526143  0.43730621  0.62976334  1
  F  F61  1  0.43561716  0.62759434  0.11500208  1
  F  F62  1  0.40911988  0.63659488  0.60234488  1
  F  F63  1  0.06795188  0.86940450  0.37761968  1
  F  F64  1  0.74796613  0.58080925  0.85675294  1
  F  F65  1  0.25433615  0.92487095  0.13780771  1
  F  F66  1  0.93654880  0.63713262  0.11725663  1
  F  F67  1  0.25368001  0.93747209  0.63278611  1
  F  F68  1  0.91613161  0.63867164  0.61151936  1
  F  F69  1  0.57597916  0.85838456  0.39027957  1
  F  F70  1  0.76202344  0.92054893  0.13715329  1
  F  F71  1  0.74728373  0.94460680  0.63142883  1
