# generated using pymatgen
data_LiVF5
_symmetry_space_group_name_H-M   'P 1'
_cell_length_a   5.77766100
_cell_length_b   7.71136500
_cell_length_c   17.28556700
_cell_angle_alpha   90.00000000
_cell_angle_beta   90.00000000
_cell_angle_gamma   90.00000000
_symmetry_Int_Tables_number   1
_chemical_formula_structural   LiVF5
_chemical_formula_sum   'Li8 V8 F40'
_cell_volume   770.13515087
_cell_formula_units_Z   8
loop_
 _symmetry_equiv_pos_site_id
 _symmetry_equiv_pos_as_xyz
  1  'x, y, z'
loop_
 _atom_site_type_symbol
 _atom_site_label
 _atom_site_symmetry_multiplicity
 _atom_site_fract_x
 _atom_site_fract_y
 _atom_site_fract_z
 _atom_site_occupancy
  Li  Li0  1  0.73489500  0.38140900  0.35407600  1
  Li  Li1  1  0.73489500  0.88140900  0.14592400  1
  Li  Li2  1  0.54071000  0.26474200  0.96937600  1
  Li  Li3  1  0.54071000  0.76474200  0.53062400  1
  Li  Li4  1  0.23489500  0.61859100  0.64592400  1
  Li  Li5  1  0.23489500  0.11859100  0.85407600  1
  Li  Li6  1  0.04071000  0.23525800  0.46937600  1
  Li  Li7  1  0.04071000  0.73525800  0.03062400  1
  V  V8  1  0.74416200  0.43868500  0.14408100  1
  V  V9  1  0.74750900  0.39084800  0.62557900  1
  V  V10  1  0.74416200  0.93868500  0.35591900  1
  V  V11  1  0.74750900  0.89084800  0.87442100  1
  V  V12  1  0.24750900  0.10915200  0.12557900  1
  V  V13  1  0.24416200  0.06131500  0.64408100  1
  V  V14  1  0.24750900  0.60915200  0.37442100  1
  V  V15  1  0.24416200  0.56131500  0.85591900  1
  F  F16  1  0.99825800  0.73605000  0.83637300  1
  F  F17  1  0.99825800  0.23605000  0.66362700  1
  F  F18  1  0.98249700  0.53598200  0.58796100  1
  F  F19  1  0.98249700  0.03598200  0.91203900  1
  F  F20  1  0.96822600  0.10707500  0.37832300  1
  F  F21  1  0.96822600  0.60707500  0.12167700  1
  F  F22  1  0.76276500  0.26347900  0.53472200  1
  F  F23  1  0.74849500  0.99046400  0.78295700  1
  F  F24  1  0.74645900  0.35952700  0.04340600  1
  F  F25  1  0.75383800  0.46433000  0.24937000  1
  F  F26  1  0.74645900  0.85952700  0.45659400  1
  F  F27  1  0.75383800  0.96433000  0.25063000  1
  F  F28  1  0.74849500  0.49046400  0.71704300  1
  F  F29  1  0.76276500  0.76347900  0.96527800  1
  F  F30  1  0.53154200  0.10994700  0.36860700  1
  F  F31  1  0.53154200  0.60994700  0.13139300  1
  F  F32  1  0.51479000  0.54589200  0.58766300  1
  F  F33  1  0.51479000  0.04589200  0.91233700  1
  F  F34  1  0.49430800  0.73782800  0.83980000  1
  F  F35  1  0.49430800  0.23782800  0.66020000  1
  F  F36  1  0.49825800  0.26395000  0.16362700  1
  F  F37  1  0.49825800  0.76395000  0.33637300  1
  F  F38  1  0.48249700  0.46401800  0.41203900  1
  F  F39  1  0.48249700  0.96401800  0.08796100  1
  F  F40  1  0.46822600  0.89292500  0.62167700  1
  F  F41  1  0.46822600  0.39292500  0.87832300  1
  F  F42  1  0.24645900  0.14047300  0.54340600  1
  F  F43  1  0.26276500  0.23652100  0.03472200  1
  F  F44  1  0.25383800  0.03567000  0.74937000  1
  F  F45  1  0.24849500  0.50953600  0.28295700  1
  F  F46  1  0.26276500  0.73652100  0.46527800  1
  F  F47  1  0.25383800  0.53567000  0.75063000  1
  F  F48  1  0.24849500  0.00953600  0.21704300  1
  F  F49  1  0.24645900  0.64047300  0.95659400  1
  F  F50  1  0.03154200  0.89005300  0.63139300  1
  F  F51  1  0.03154200  0.39005300  0.86860700  1
  F  F52  1  0.01479000  0.45410800  0.41233700  1
  F  F53  1  0.01479000  0.95410800  0.08766300  1
  F  F54  1  0.99430800  0.26217200  0.16020000  1
  F  F55  1  0.99430800  0.76217200  0.33980000  1
