# generated using pymatgen
data_LiSbO3
_symmetry_space_group_name_H-M   'P 1'
_cell_length_a   5.40736284
_cell_length_b   5.40736284
_cell_length_c   5.21453137
_cell_angle_alpha   82.64105637
_cell_angle_beta   82.64105637
_cell_angle_gamma   122.74997193
_symmetry_Int_Tables_number   1
_chemical_formula_structural   LiSbO3
_chemical_formula_sum   'Li2 Sb2 O6'
_cell_volume   123.56573172
_cell_formula_units_Z   2
loop_
 _symmetry_equiv_pos_site_id
 _symmetry_equiv_pos_as_xyz
  1  'x, y, z'
loop_
 _atom_site_type_symbol
 _atom_site_label
 _atom_site_symmetry_multiplicity
 _atom_site_fract_x
 _atom_site_fract_y
 _atom_site_fract_z
 _atom_site_occupancy
  Li  Li0  1  0.65248700  0.34751300  0.00000000  1
  Li  Li1  1  0.34751300  0.65248700  0.00000000  1
  Sb  Sb2  1  0.83806400  0.16193600  0.50000000  1
  Sb  Sb3  1  0.16193600  0.83806400  0.50000000  1
  O  O4  1  0.79519500  0.79519500  0.71357800  1
  O  O5  1  0.20480500  0.20480500  0.28642200  1
  O  O6  1  0.44081000  0.04131000  0.73355600  1
  O  O7  1  0.95869000  0.55919000  0.26644400  1
  O  O8  1  0.55919000  0.95869000  0.26644400  1
  O  O9  1  0.04131000  0.44081000  0.73355600  1
