# generated using pymatgen
data_LiCrPO4
_symmetry_space_group_name_H-M   'P 1'
_cell_length_a   10.14966076
_cell_length_b   10.14966076
_cell_length_c   17.62388565
_cell_angle_alpha   73.42121904
_cell_angle_beta   73.42121904
_cell_angle_gamma   59.62866305
_symmetry_Int_Tables_number   1
_chemical_formula_structural   LiCrPO4
_chemical_formula_sum   'Li16 Cr16 P16 O64'
_cell_volume   1479.25857385
_cell_formula_units_Z   16
loop_
 _symmetry_equiv_pos_site_id
 _symmetry_equiv_pos_as_xyz
  1  'x, y, z'
loop_
 _atom_site_type_symbol
 _atom_site_label
 _atom_site_symmetry_multiplicity
 _atom_site_fract_x
 _atom_site_fract_y
 _atom_site_fract_z
 _atom_site_occupancy
  Li  Li0  1  0.55254700  0.63107900  0.81515900  1
  Li  Li1  1  0.63273500  0.05712600  0.31286700  1
  Li  Li2  1  0.73978300  0.81504500  0.56136300  1
  Li  Li3  1  0.23902600  0.37473100  0.56267300  1
  Li  Li4  1  0.31779100  0.74007600  0.06188900  1
  Li  Li5  1  0.87780700  0.23555000  0.06232700  1
  Li  Li6  1  0.49536600  0.12587700  0.81263400  1
  Li  Li7  1  0.05712600  0.63273500  0.81286700  1
  Li  Li8  1  0.12763800  0.99695900  0.31441200  1
  Li  Li9  1  0.63107900  0.55254700  0.31515900  1
  Li  Li10  1  0.74007600  0.31779100  0.56188900  1
  Li  Li11  1  0.23555000  0.87780700  0.56232700  1
  Li  Li12  1  0.81504500  0.73978300  0.06136300  1
  Li  Li13  1  0.37473100  0.23902600  0.06267300  1
  Li  Li14  1  0.99695900  0.12763800  0.81441200  1
  Li  Li15  1  0.12587700  0.49536600  0.31263400  1
  Cr  Cr16  1  0.87368000  0.49823800  0.69173100  1
  Cr  Cr17  1  0.45713500  0.36614100  0.18328700  1
  Cr  Cr18  1  0.99939300  0.86706800  0.18835000  1
  Cr  Cr19  1  0.62925100  0.75615700  0.93776300  1
  Cr  Cr20  1  0.17565900  0.25782400  0.93843400  1
  Cr  Cr21  1  0.75708300  0.12706400  0.43996000  1
  Cr  Cr22  1  0.25924200  0.67433100  0.43652600  1
  Cr  Cr23  1  0.36614100  0.45713500  0.68328700  1
  Cr  Cr24  1  0.86706800  0.99939300  0.68835000  1
  Cr  Cr25  1  0.95304700  0.36213900  0.18400700  1
  Cr  Cr26  1  0.49823800  0.87368000  0.19173100  1
  Cr  Cr27  1  0.12706400  0.75708300  0.93996000  1
  Cr  Cr28  1  0.67433100  0.25924200  0.93652600  1
  Cr  Cr29  1  0.75615700  0.62925100  0.43776300  1
  Cr  Cr30  1  0.25782400  0.17565900  0.43843400  1
  Cr  Cr31  1  0.36213900  0.95304700  0.68400700  1
  P  P32  1  0.30950800  0.93801500  0.87631800  1
  P  P33  1  0.87023200  0.43378600  0.87563200  1
  P  P34  1  0.93672000  0.80836900  0.37517500  1
  P  P35  1  0.43994300  0.36985100  0.37447700  1
  P  P36  1  0.56113300  0.12603100  0.62860000  1
  P  P37  1  0.06057000  0.68227400  0.62661200  1
  P  P38  1  0.62915500  0.56211100  0.12729100  1
  P  P39  1  0.18355500  0.05792900  0.12744600  1
  P  P40  1  0.80836900  0.93672000  0.87517500  1
  P  P41  1  0.36985100  0.43994300  0.87447700  1
  P  P42  1  0.93801500  0.30950800  0.37631800  1
  P  P43  1  0.43378600  0.87023200  0.37563200  1
  P  P44  1  0.56211100  0.62915500  0.62729100  1
  P  P45  1  0.05792900  0.18355500  0.62744600  1
  P  P46  1  0.12603100  0.56113300  0.12860000  1
  P  P47  1  0.68227400  0.06057000  0.12661200  1
  O  O48  1  0.04896300  0.34344400  0.61612500  1
  O  O49  1  0.83141400  0.33144300  0.95325900  1
  O  O50  1  0.41416000  0.86494500  0.80081700  1
  O  O51  1  0.90564100  0.35547500  0.80283500  1
  O  O52  1  0.38132500  0.82939600  0.95148000  1
  O  O53  1  0.73028200  0.59826400  0.86291100  1
  O  O54  1  0.55432200  0.98277300  0.61724900  1
  O  O55  1  0.84765400  0.04762000  0.11518300  1
  O  O56  1  0.33518300  0.33258900  0.45174300  1
  O  O57  1  0.36470200  0.40673600  0.30102000  1
  O  O58  1  0.85988900  0.91006700  0.29991600  1
  O  O59  1  0.30018700  0.10013200  0.86463300  1
  O  O60  1  0.82945600  0.88093600  0.45009100  1
  O  O61  1  0.89885000  0.69703400  0.63143000  1
  O  O62  1  0.60407100  0.22748400  0.36365800  1
  O  O63  1  0.01042000  0.45270700  0.88031700  1
  O  O64  1  0.48203300  0.55850500  0.11879600  1
  O  O65  1  0.39666000  0.26540100  0.63478200  1
  O  O66  1  0.09890900  0.80087000  0.36195900  1
  O  O67  1  0.17738100  0.60252600  0.55451900  1
  O  O68  1  0.19835300  0.89634700  0.13182200  1
  O  O69  1  0.62798000  0.08892900  0.70577900  1
  O  O70  1  0.12530700  0.57457000  0.70461400  1
  O  O71  1  0.67318700  0.16545600  0.55606700  1
  O  O72  1  0.64043800  0.96154400  0.88472200  1
  O  O73  1  0.45883700  0.50972600  0.37984400  1
  O  O74  1  0.76568100  0.39595300  0.13263500  1
  O  O75  1  0.10186700  0.17551300  0.05628100  1
  O  O76  1  0.04762000  0.84765400  0.61518300  1
  O  O77  1  0.33258900  0.33518300  0.95174300  1
  O  O78  1  0.40673600  0.36470200  0.80102000  1
  O  O79  1  0.91006700  0.85988900  0.79991600  1
  O  O80  1  0.07811300  0.12086900  0.20613200  1
  O  O81  1  0.59935000  0.62972800  0.20304800  1
  O  O82  1  0.96450900  0.13940100  0.38685800  1
  O  O83  1  0.66803500  0.67157600  0.05325300  1
  O  O84  1  0.88093600  0.82945600  0.95009100  1
  O  O85  1  0.22748400  0.60407100  0.86365800  1
  O  O86  1  0.34344400  0.04896300  0.11612500  1
  O  O87  1  0.55850500  0.48203300  0.61879600  1
  O  O88  1  0.33144300  0.83141400  0.45325900  1
  O  O89  1  0.86494500  0.41416000  0.30081700  1
  O  O90  1  0.35547500  0.90564100  0.30283500  1
  O  O91  1  0.80087000  0.09890900  0.86195900  1
  O  O92  1  0.89634700  0.19835300  0.63182200  1
  O  O93  1  0.82939600  0.38132500  0.45148000  1
  O  O94  1  0.50972600  0.45883700  0.87984400  1
  O  O95  1  0.59826400  0.73028200  0.36291100  1
  O  O96  1  0.98277300  0.55432200  0.11724900  1
  O  O97  1  0.39595300  0.76568100  0.63263500  1
  O  O98  1  0.10013200  0.30018700  0.36463300  1
  O  O99  1  0.17551300  0.10186700  0.55628100  1
  O  O100  1  0.69703400  0.89885000  0.13143000  1
  O  O101  1  0.12086900  0.07811300  0.70613200  1
  O  O102  1  0.62972800  0.59935000  0.70304800  1
  O  O103  1  0.13940100  0.96450900  0.88685800  1
  O  O104  1  0.67157600  0.66803500  0.55325300  1
  O  O105  1  0.45270700  0.01042000  0.38031700  1
  O  O106  1  0.26540100  0.39666000  0.13478200  1
  O  O107  1  0.60252600  0.17738100  0.05451900  1
  O  O108  1  0.08892900  0.62798000  0.20577900  1
  O  O109  1  0.57457000  0.12530700  0.20461400  1
  O  O110  1  0.16545600  0.67318700  0.05606700  1
  O  O111  1  0.96154400  0.64043800  0.38472200  1
