# generated using pymatgen
data_Li7Mn(OF)3
_symmetry_space_group_name_H-M   'P 1'
_cell_length_a   6.32145984
_cell_length_b   10.03350181
_cell_length_c   9.37050833
_cell_angle_alpha   102.49095592
_cell_angle_beta   73.80645304
_cell_angle_gamma   93.22415578
_symmetry_Int_Tables_number   1
_chemical_formula_structural   Li7Mn(OF)3
_chemical_formula_sum   'Li28 Mn4 O12 F12'
_cell_volume   557.24213809
_cell_formula_units_Z   4
loop_
 _symmetry_equiv_pos_site_id
 _symmetry_equiv_pos_as_xyz
  1  'x, y, z'
loop_
 _atom_site_type_symbol
 _atom_site_label
 _atom_site_symmetry_multiplicity
 _atom_site_fract_x
 _atom_site_fract_y
 _atom_site_fract_z
 _atom_site_occupancy
  Li  Li0  1  0.35720800  0.98675500  0.11370700  1
  Li  Li1  1  0.85715600  0.48676300  0.11369600  1
  Li  Li2  1  0.60730200  0.23674500  0.61369900  1
  Li  Li3  1  0.10731900  0.73675100  0.61370200  1
  Li  Li4  1  0.65306100  0.00642000  0.23443300  1
  Li  Li5  1  0.15301000  0.50645200  0.23443700  1
  Li  Li6  1  0.90305700  0.25633600  0.73437700  1
  Li  Li7  1  0.40294000  0.75635700  0.73446000  1
  Li  Li8  1  0.03047900  0.01838000  0.33995700  1
  Li  Li9  1  0.53056700  0.51843700  0.33986400  1
  Li  Li10  1  0.28051200  0.26819200  0.83971200  1
  Li  Li11  1  0.78050800  0.76819500  0.83977500  1
  Li  Li12  1  0.70181400  0.71203900  0.17457300  1
  Li  Li13  1  0.20187700  0.21202900  0.17457800  1
  Li  Li14  1  0.95199600  0.96185600  0.67465700  1
  Li  Li15  1  0.45198100  0.46186900  0.67468100  1
  Li  Li16  1  0.12723500  0.73791500  0.25040100  1
  Li  Li17  1  0.62738400  0.23788500  0.25028300  1
  Li  Li18  1  0.37743200  0.98763000  0.75058900  1
  Li  Li19  1  0.87740100  0.48760500  0.75059900  1
  Li  Li20  1  0.33252300  0.99560100  0.45062400  1
  Li  Li21  1  0.83255200  0.49557100  0.45061600  1
  Li  Li22  1  0.58233700  0.24547000  0.95036600  1
  Li  Li23  1  0.08230100  0.74548500  0.95039900  1
  Li  Li24  1  0.36867600  0.75188900  0.38915100  1
  Li  Li25  1  0.86869700  0.25187200  0.38918000  1
  Li  Li26  1  0.61896600  0.00182400  0.88916400  1
  Li  Li27  1  0.11892900  0.50181700  0.88915900  1
  Mn  Mn28  1  0.27829000  0.27726700  0.49007900  1
  Mn  Mn29  1  0.52826300  0.52688600  0.99030200  1
  Mn  Mn30  1  0.77780900  0.77714600  0.49027500  1
  Mn  Mn31  1  0.02813900  0.02716300  0.99040100  1
  O  O32  1  0.35437600  0.11168800  0.30250300  1
  O  O33  1  0.85437000  0.61168700  0.30251600  1
  O  O34  1  0.60439500  0.36167000  0.80245700  1
  O  O35  1  0.10440600  0.86168700  0.80248700  1
  O  O36  1  0.39626800  0.62471200  0.21064300  1
  O  O37  1  0.89622100  0.12472900  0.21069300  1
  O  O38  1  0.64641400  0.87448000  0.71073400  1
  O  O39  1  0.14643300  0.37456400  0.71061600  1
  O  O40  1  0.10015900  0.85927400  0.46198600  1
  O  O41  1  0.60026300  0.35933900  0.46192800  1
  O  O42  1  0.35020800  0.10923800  0.96200100  1
  O  O43  1  0.85020300  0.60923100  0.96199000  1
  F  F44  1  0.64348200  0.90524500  0.03746600  1
  F  F45  1  0.14327600  0.40520700  0.03754600  1
  F  F46  1  0.89354100  0.15532700  0.53746800  1
  F  F47  1  0.39387400  0.65527800  0.53730000  1
  F  F48  1  0.11487900  0.86239000  0.13090700  1
  F  F49  1  0.61489100  0.36240200  0.13088200  1
  F  F50  1  0.36670800  0.11181900  0.63115200  1
  F  F51  1  0.86671100  0.61182400  0.63115500  1
  F  F52  1  0.60507200  0.87741000  0.35791000  1
  F  F53  1  0.10508600  0.37740300  0.35790000  1
  F  F54  1  0.85507500  0.12741500  0.85791500  1
  F  F55  1  0.35506900  0.62741100  0.85790300  1
