# generated using pymatgen
data_Li4NbFe(WO6)2
_symmetry_space_group_name_H-M   'P 1'
_cell_length_a   5.18059717
_cell_length_b   7.57568538
_cell_length_c   10.97773743
_cell_angle_alpha   85.44700634
_cell_angle_beta   89.89018078
_cell_angle_gamma   90.08095200
_symmetry_Int_Tables_number   1
_chemical_formula_structural   Li4NbFe(WO6)2
_chemical_formula_sum   'Li8 Nb2 Fe2 W4 O24'
_cell_volume   429.47768827
_cell_formula_units_Z   2
loop_
 _symmetry_equiv_pos_site_id
 _symmetry_equiv_pos_as_xyz
  1  'x, y, z'
loop_
 _atom_site_type_symbol
 _atom_site_label
 _atom_site_symmetry_multiplicity
 _atom_site_fract_x
 _atom_site_fract_y
 _atom_site_fract_z
 _atom_site_occupancy
  Li  Li0  1  0.00093300  0.27135700  0.29476900  1
  Li  Li1  1  0.00095200  0.27135200  0.79476700  1
  Li  Li2  1  0.49819500  0.80620800  0.53174800  1
  Li  Li3  1  0.49804900  0.80620600  0.03177100  1
  Li  Li4  1  0.99505500  0.80768500  0.29338100  1
  Li  Li5  1  0.99509600  0.80766600  0.79334300  1
  Li  Li6  1  0.50429200  0.25135100  0.01286300  1
  Li  Li7  1  0.50437200  0.25138500  0.51286600  1
  Nb  Nb8  1  0.50139800  0.51332700  0.25839200  1
  Nb  Nb9  1  0.50143200  0.51334300  0.75839700  1
  Fe  Fe10  1  0.99966200  0.00085700  0.50444300  1
  Fe  Fe11  1  0.99959700  0.00075200  0.00436300  1
  W  W12  1  0.99699900  0.49837300  0.00920700  1
  W  W13  1  0.99703400  0.49842800  0.50919600  1
  W  W14  1  0.50561700  0.01041900  0.24854700  1
  W  W15  1  0.50562800  0.01042700  0.74855800  1
  O  O16  1  0.30668600  0.42929900  0.40226600  1
  O  O17  1  0.30670700  0.42932400  0.90222900  1
  O  O18  1  0.11935500  0.73336100  0.49069600  1
  O  O19  1  0.11931400  0.73333400  0.99071600  1
  O  O20  1  0.32132400  0.04578100  0.59267400  1
  O  O21  1  0.32135800  0.04566900  0.09263100  1
  O  O22  1  0.18286100  0.42889900  0.65160600  1
  O  O23  1  0.18296400  0.42893700  0.15159500  1
  O  O24  1  0.79288700  0.92902800  0.65143500  1
  O  O25  1  0.79287100  0.92902500  0.15144600  1
  O  O26  1  0.37250100  0.74745700  0.74378600  1
  O  O27  1  0.37247700  0.74742000  0.24374600  1
  O  O28  1  0.62406700  0.24720000  0.74199000  1
  O  O29  1  0.62405600  0.24719000  0.24197500  1
  O  O30  1  0.19722700  0.04831200  0.83777100  1
  O  O31  1  0.19723000  0.04831200  0.33776800  1
  O  O32  1  0.81906500  0.55525100  0.83989000  1
  O  O33  1  0.81901600  0.55520200  0.33990500  1
  O  O34  1  0.69300500  0.93441400  0.89325500  1
  O  O35  1  0.69299700  0.93441000  0.39323900  1
  O  O36  1  0.88447200  0.25773900  0.98612900  1
  O  O37  1  0.88446900  0.25774600  0.48612300  1
  O  O38  1  0.68439400  0.55496900  0.08646000  1
  O  O39  1  0.68437700  0.55498400  0.58645700  1
