# generated using pymatgen
data_Li4TiMn3Cr2(PO4)6
_symmetry_space_group_name_H-M   'P 1'
_cell_length_a   8.51666100
_cell_length_b   8.73528933
_cell_length_c   8.74856846
_cell_angle_alpha   62.29840416
_cell_angle_beta   62.74874242
_cell_angle_gamma   62.97158386
_symmetry_Int_Tables_number   1
_chemical_formula_structural   Li4TiMn3Cr2(PO4)6
_chemical_formula_sum   'Li4 Ti1 Mn3 Cr2 P6 O24'
_cell_volume   487.56931668
_cell_formula_units_Z   1
loop_
 _symmetry_equiv_pos_site_id
 _symmetry_equiv_pos_as_xyz
  1  'x, y, z'
loop_
 _atom_site_type_symbol
 _atom_site_label
 _atom_site_symmetry_multiplicity
 _atom_site_fract_x
 _atom_site_fract_y
 _atom_site_fract_z
 _atom_site_occupancy
  Li  Li0  1  0.75185000  0.15077300  0.35216000  1
  Li  Li1  1  0.27865600  0.85293300  0.65067500  1
  Li  Li2  1  0.64611300  0.27852300  0.85838400  1
  Li  Li3  1  0.86325700  0.64723700  0.28492300  1
  Ti  Ti4  1  0.84771200  0.84316300  0.84925800  1
  Mn  Mn5  1  0.15445400  0.15104300  0.14931900  1
  Mn  Mn6  1  0.34779500  0.35665400  0.34951100  1
  Mn  Mn7  1  0.65478300  0.65288700  0.65762400  1
  Cr  Cr8  1  0.01193200  0.99928000  0.00007000  1
  Cr  Cr9  1  0.49419100  0.50155200  0.50683000  1
  P  P10  1  0.24282700  0.55797800  0.94568500  1
  P  P11  1  0.57239400  0.95370600  0.24457400  1
  P  P12  1  0.93156100  0.24153500  0.54975500  1
  P  P13  1  0.05555000  0.74507700  0.44871200  1
  P  P14  1  0.43979700  0.04711300  0.74862300  1
  P  P15  1  0.74697400  0.44046200  0.05349300  1
  O  O16  1  0.09802200  0.29390600  0.50724500  1
  O  O17  1  0.29468400  0.53568000  0.10115700  1
  O  O18  1  0.05398100  0.91054200  0.27467800  1
  O  O19  1  0.56414100  0.09993300  0.30069600  1
  O  O20  1  0.98215000  0.80847600  0.62120700  1
  O  O21  1  0.24954600  0.60618000  0.44528600  1
  O  O22  1  0.25224000  0.06985700  0.90139700  1
  O  O23  1  0.46000700  0.22642900  0.59416400  1
  O  O24  1  0.17186500  0.40929400  0.98443800  1
  O  O25  1  0.60510100  0.43442500  0.24532400  1
  O  O26  1  0.09078100  0.75738300  0.90747800  1
  O  O27  1  0.41575100  0.01127200  0.17270800  1
  O  O28  1  0.60910500  0.97298900  0.82375800  1
  O  O29  1  0.89949300  0.25364100  0.07616300  1
  O  O30  1  0.39744500  0.57962600  0.75431500  1
  O  O31  1  0.81270400  0.61173200  0.98672700  1
  O  O32  1  0.58519700  0.76240400  0.39397600  1
  O  O33  1  0.77063300  0.91759500  0.08783400  1
  O  O34  1  0.73975000  0.39765600  0.57937300  1
  O  O35  1  0.94717700  0.18061800  0.40490000  1
  O  O36  1  0.46135600  0.90399300  0.67976500  1
  O  O37  1  0.90751300  0.08865900  0.74491100  1
  O  O38  1  0.67399100  0.46365300  0.91094400  1
  O  O39  1  0.91751900  0.66113800  0.47496200  1
