# generated using pymatgen
data_Li2MnP2O7
_symmetry_space_group_name_H-M   'P 1'
_cell_length_a   7.25341671
_cell_length_b   8.54738719
_cell_length_c   10.21102850
_cell_angle_alpha   89.99033545
_cell_angle_beta   70.11675517
_cell_angle_gamma   89.97576214
_symmetry_Int_Tables_number   1
_chemical_formula_structural   Li2MnP2O7
_chemical_formula_sum   'Li8 Mn4 P8 O28'
_cell_volume   595.32258787
_cell_formula_units_Z   4
loop_
 _symmetry_equiv_pos_site_id
 _symmetry_equiv_pos_as_xyz
  1  'x, y, z'
loop_
 _atom_site_type_symbol
 _atom_site_label
 _atom_site_symmetry_multiplicity
 _atom_site_fract_x
 _atom_site_fract_y
 _atom_site_fract_z
 _atom_site_occupancy
  Li  Li0  1  0.35012400  0.14799700  0.09266900  1
  Li  Li1  1  0.35012500  0.14800000  0.59268700  1
  Li  Li2  1  0.64988500  0.64800500  0.40729400  1
  Li  Li3  1  0.64977000  0.64806400  0.90720300  1
  Li  Li4  1  0.08908500  0.32169200  0.32390900  1
  Li  Li5  1  0.08912200  0.32176300  0.82374700  1
  Li  Li6  1  0.91090000  0.82158400  0.17616300  1
  Li  Li7  1  0.91068600  0.82175500  0.67622300  1
  Mn  Mn8  1  0.27727900  0.50818600  0.59428000  1
  Mn  Mn9  1  0.72315100  0.00836200  0.90592000  1
  Mn  Mn10  1  0.27734200  0.50808700  0.09432300  1
  Mn  Mn11  1  0.72279000  0.00809300  0.40570100  1
  P  P12  1  0.47900400  0.81395400  0.19424700  1
  P  P13  1  0.47902800  0.81398200  0.69418400  1
  P  P14  1  0.52099600  0.31397700  0.30577700  1
  P  P15  1  0.52096600  0.31400400  0.80578700  1
  P  P16  1  0.91768800  0.20545200  0.10954200  1
  P  P17  1  0.91761500  0.20546700  0.60948900  1
  P  P18  1  0.08225800  0.70542400  0.39058000  1
  P  P19  1  0.08241200  0.70555100  0.89055600  1
  O  O20  1  0.09598700  0.68676400  0.03639800  1
  O  O21  1  0.09584500  0.68670300  0.53640000  1
  O  O22  1  0.90399900  0.18678300  0.46365700  1
  O  O23  1  0.90385100  0.18696700  0.96378700  1
  O  O24  1  0.10556800  0.29182900  0.10649400  1
  O  O25  1  0.10544800  0.29188400  0.60641600  1
  O  O26  1  0.89451800  0.79197800  0.39352600  1
  O  O27  1  0.89454300  0.79200300  0.89353100  1
  O  O28  1  0.50285400  0.96354700  0.10741400  1
  O  O29  1  0.50287900  0.96358100  0.60736700  1
  O  O30  1  0.49704900  0.46354800  0.39263200  1
  O  O31  1  0.49698400  0.46357200  0.89267000  1
  O  O32  1  0.49651300  0.66687100  0.10549600  1
  O  O33  1  0.49647300  0.66689000  0.60546800  1
  O  O34  1  0.50362700  0.16684900  0.39442400  1
  O  O35  1  0.50370000  0.16687800  0.89445200  1
  O  O36  1  0.38310300  0.30865100  0.22038600  1
  O  O37  1  0.38292600  0.30858000  0.72060400  1
  O  O38  1  0.61704000  0.80858900  0.27944300  1
  O  O39  1  0.61709200  0.80856500  0.77939800  1
  O  O40  1  0.10055200  0.55062700  0.31213500  1
  O  O41  1  0.10090900  0.55070100  0.81219800  1
  O  O42  1  0.89915000  0.05027500  0.18753500  1
  O  O43  1  0.89924900  0.05066100  0.68793700  1
  O  O44  1  0.25534000  0.82335000  0.30296900  1
  O  O45  1  0.25544300  0.82351400  0.80293600  1
  O  O46  1  0.74463900  0.32361800  0.19702800  1
  O  O47  1  0.74449800  0.32351000  0.69702200  1
