# generated using pymatgen
data_Li8VO6
_symmetry_space_group_name_H-M   'P 1'
_cell_length_a   5.44103454
_cell_length_b   8.07108004
_cell_length_c   11.71214500
_cell_angle_alpha   97.48128883
_cell_angle_beta   88.85110497
_cell_angle_gamma   89.16869710
_symmetry_Int_Tables_number   1
_chemical_formula_structural   Li8VO6
_chemical_formula_sum   'Li32 V4 O24'
_cell_volume   509.78224292
_cell_formula_units_Z   4
loop_
 _symmetry_equiv_pos_site_id
 _symmetry_equiv_pos_as_xyz
  1  'x, y, z'
loop_
 _atom_site_type_symbol
 _atom_site_label
 _atom_site_symmetry_multiplicity
 _atom_site_fract_x
 _atom_site_fract_y
 _atom_site_fract_z
 _atom_site_occupancy
  Li  Li0  1  0.48980000  0.15260800  0.08696800  1
  Li  Li1  1  0.99186200  0.65176500  0.33671100  1
  Li  Li2  1  0.49208700  0.15229300  0.58733100  1
  Li  Li3  1  0.99085100  0.65236900  0.83728200  1
  Li  Li4  1  0.51041400  0.84687800  0.41254000  1
  Li  Li5  1  0.00760400  0.34807400  0.66255200  1
  Li  Li6  1  0.50769000  0.84834000  0.91311600  1
  Li  Li7  1  0.00997700  0.34773100  0.16334200  1
  Li  Li8  1  0.36413700  0.12860000  0.38527300  1
  Li  Li9  1  0.86358500  0.62936100  0.63511400  1
  Li  Li10  1  0.36314000  0.12947700  0.88510200  1
  Li  Li11  1  0.86330100  0.62901400  0.13497600  1
  Li  Li12  1  0.17057900  0.06815900  0.21062800  1
  Li  Li13  1  0.67130800  0.56780500  0.46039500  1
  Li  Li14  1  0.17011200  0.06865600  0.71028300  1
  Li  Li15  1  0.66965000  0.56871200  0.96027300  1
  Li  Li16  1  0.69297200  0.20593000  0.27849200  1
  Li  Li17  1  0.19324200  0.70615800  0.52862900  1
  Li  Li18  1  0.69285200  0.20624000  0.77906700  1
  Li  Li19  1  0.19227200  0.70631000  0.02887600  1
  Li  Li20  1  0.30744600  0.79375500  0.22120300  1
  Li  Li21  1  0.80757300  0.29352900  0.47088200  1
  Li  Li22  1  0.30675400  0.79400600  0.72122600  1
  Li  Li23  1  0.80693200  0.29408400  0.97158600  1
  Li  Li24  1  0.83025900  0.93145600  0.28950900  1
  Li  Li25  1  0.33011700  0.43150500  0.53984700  1
  Li  Li26  1  0.82905100  0.93167800  0.78961600  1
  Li  Li27  1  0.32895200  0.43210000  0.03941800  1
  Li  Li28  1  0.63629100  0.87111000  0.11494700  1
  Li  Li29  1  0.13721900  0.37059100  0.36505100  1
  Li  Li30  1  0.63633700  0.87082900  0.61475800  1
  Li  Li31  1  0.13588300  0.37095400  0.86479400  1
  V  V32  1  0.00032500  0.99990600  0.50003900  1
  V  V33  1  0.49965700  0.50015900  0.75001700  1
  V  V34  1  0.99958200  0.00012200  0.00000100  1
  V  V35  1  0.50039000  0.49992600  0.25000400  1
  O  O36  1  0.35630400  0.26550100  0.24906700  1
  O  O37  1  0.85643000  0.76572100  0.49938500  1
  O  O38  1  0.35661800  0.26605900  0.74928900  1
  O  O39  1  0.85597200  0.76573800  0.99933400  1
  O  O40  1  0.15720100  0.93377500  0.35058700  1
  O  O41  1  0.65714400  0.43422500  0.60031300  1
  O  O42  1  0.15572500  0.93430000  0.85016400  1
  O  O43  1  0.65601300  0.43453900  0.10022800  1
  O  O44  1  0.69311100  0.07495700  0.42011200  1
  O  O45  1  0.19253100  0.57542100  0.67030000  1
  O  O46  1  0.69246800  0.07529000  0.92026200  1
  O  O47  1  0.19241300  0.57544200  0.17027000  1
  O  O48  1  0.30699100  0.92477200  0.07972300  1
  O  O49  1  0.80782600  0.42440800  0.32967100  1
  O  O50  1  0.30717600  0.92493900  0.57993800  1
  O  O51  1  0.80696800  0.42494800  0.82966800  1
  O  O52  1  0.84425500  0.06571500  0.14978100  1
  O  O53  1  0.34400000  0.56546300  0.39972800  1
  O  O54  1  0.84312500  0.06580300  0.64957400  1
  O  O55  1  0.34268500  0.56583200  0.89969400  1
  O  O56  1  0.64423000  0.73440000  0.25099400  1
  O  O57  1  0.14378800  0.23411500  0.50055500  1
  O  O58  1  0.64320500  0.73405400  0.75078000  1
  O  O59  1  0.14361500  0.23439700  0.00073500  1
