# generated using pymatgen
data_LiMnB2O5
_symmetry_space_group_name_H-M   'P 1'
_cell_length_a   7.19837535
_cell_length_b   7.19837535
_cell_length_c   9.50672150
_cell_angle_alpha   73.51549534
_cell_angle_beta   73.51549534
_cell_angle_gamma   96.55578935
_symmetry_Int_Tables_number   1
_chemical_formula_structural   LiMnB2O5
_chemical_formula_sum   'Li4 Mn4 B8 O20'
_cell_volume   442.67298540
_cell_formula_units_Z   4
loop_
 _symmetry_equiv_pos_site_id
 _symmetry_equiv_pos_as_xyz
  1  'x, y, z'
loop_
 _atom_site_type_symbol
 _atom_site_label
 _atom_site_symmetry_multiplicity
 _atom_site_fract_x
 _atom_site_fract_y
 _atom_site_fract_z
 _atom_site_occupancy
  Li  Li0  1  0.83238600  0.16761400  0.25000000  1
  Li  Li1  1  0.39182500  0.60817500  0.25000000  1
  Li  Li2  1  0.60817500  0.39182500  0.75000000  1
  Li  Li3  1  0.16761400  0.83238600  0.75000000  1
  Mn  Mn4  1  0.95396600  0.63882900  0.15213400  1
  Mn  Mn5  1  0.63882900  0.95396600  0.65213400  1
  Mn  Mn6  1  0.36117100  0.04603400  0.34786600  1
  Mn  Mn7  1  0.04603400  0.36117100  0.84786600  1
  B  B8  1  0.75656000  0.77251300  0.40295400  1
  B  B9  1  0.73547700  0.40418000  0.47684800  1
  B  B10  1  0.77251300  0.75656000  0.90295400  1
  B  B11  1  0.40418000  0.73547700  0.97684800  1
  B  B12  1  0.59582000  0.26452300  0.02315200  1
  B  B13  1  0.22748700  0.24344000  0.09704600  1
  B  B14  1  0.26452300  0.59582000  0.52315200  1
  B  B15  1  0.24344000  0.22748700  0.59704600  1
  O  O16  1  0.72452800  0.93383600  0.44767800  1
  O  O17  1  0.82753900  0.80605500  0.24634100  1
  O  O18  1  0.93383600  0.72452800  0.94767800  1
  O  O19  1  0.83352800  0.40579800  0.33052000  1
  O  O20  1  0.35153600  0.76107100  0.39676200  1
  O  O21  1  0.80605500  0.82753900  0.74634100  1
  O  O22  1  0.58181400  0.71638400  0.01321200  1
  O  O23  1  0.28361600  0.41818600  0.48678800  1
  O  O24  1  0.40579800  0.83352800  0.83052000  1
  O  O25  1  0.76107100  0.35153600  0.89676200  1
  O  O26  1  0.23892900  0.64846400  0.10323800  1
  O  O27  1  0.59420200  0.16647200  0.16948000  1
  O  O28  1  0.71638400  0.58181400  0.51321200  1
  O  O29  1  0.41818600  0.28361600  0.98678800  1
  O  O30  1  0.19394500  0.17246100  0.25365900  1
  O  O31  1  0.64846400  0.23892900  0.60323800  1
  O  O32  1  0.16647200  0.59420200  0.66948000  1
  O  O33  1  0.06616400  0.27547200  0.05232200  1
  O  O34  1  0.17246100  0.19394500  0.75365900  1
  O  O35  1  0.27547200  0.06616400  0.55232200  1
