# generated using pymatgen
data_Li2V3CrO8
_symmetry_space_group_name_H-M   'P 1'
_cell_length_a   5.26849100
_cell_length_b   5.90651617
_cell_length_c   10.68784449
_cell_angle_alpha   98.74957716
_cell_angle_beta   102.22087253
_cell_angle_gamma   107.19691933
_symmetry_Int_Tables_number   1
_chemical_formula_structural   Li2V3CrO8
_chemical_formula_sum   'Li4 V6 Cr2 O16'
_cell_volume   302.19847503
_cell_formula_units_Z   2
loop_
 _symmetry_equiv_pos_site_id
 _symmetry_equiv_pos_as_xyz
  1  'x, y, z'
loop_
 _atom_site_type_symbol
 _atom_site_label
 _atom_site_symmetry_multiplicity
 _atom_site_fract_x
 _atom_site_fract_y
 _atom_site_fract_z
 _atom_site_occupancy
  Li  Li0  1  0.99615500  0.24817700  0.00098700  1
  Li  Li1  1  0.50000000  0.00000000  0.50000000  1
  Li  Li2  1  0.00384500  0.75182300  0.99901300  1
  Li  Li3  1  0.50000000  0.50000000  0.50000000  1
  V  V4  1  0.39153600  0.06595000  0.87191500  1
  V  V5  1  0.60014200  0.43188000  0.12931200  1
  V  V6  1  0.89669500  0.81971400  0.36909900  1
  V  V7  1  0.10330500  0.18028600  0.63090100  1
  V  V8  1  0.39985800  0.56812000  0.87068800  1
  V  V9  1  0.60846400  0.93405000  0.12808500  1
  Cr  Cr10  1  0.89050300  0.31651000  0.37415500  1
  Cr  Cr11  1  0.10949700  0.68349000  0.62584500  1
  O  O12  1  0.16541400  0.65795500  0.44464600  1
  O  O13  1  0.38291400  0.02464400  0.68469500  1
  O  O14  1  0.66402600  0.39088300  0.94380300  1
  O  O15  1  0.88391200  0.77427900  0.18220900  1
  O  O16  1  0.15866400  0.13997000  0.44204300  1
  O  O17  1  0.37058100  0.50088700  0.67548200  1
  O  O18  1  0.67078400  0.91064200  0.94559000  1
  O  O19  1  0.87144000  0.25503700  0.17877700  1
  O  O20  1  0.62941900  0.49911300  0.32451800  1
  O  O21  1  0.84133600  0.86003000  0.55795700  1
  O  O22  1  0.11608800  0.22572100  0.81779100  1
  O  O23  1  0.33597400  0.60911700  0.05619700  1
  O  O24  1  0.61708600  0.97535600  0.31530500  1
  O  O25  1  0.83458600  0.34204500  0.55535400  1
  O  O26  1  0.12856000  0.74496300  0.82122300  1
  O  O27  1  0.32921600  0.08935800  0.05441000  1
