# generated using pymatgen
data_Li2MnVP2(HO5)2
_symmetry_space_group_name_H-M   'P 1'
_cell_length_a   5.43381800
_cell_length_b   7.39541530
_cell_length_c   14.44549292
_cell_angle_alpha   93.81879807
_cell_angle_beta   94.31329040
_cell_angle_gamma   105.85566488
_symmetry_Int_Tables_number   1
_chemical_formula_structural   Li2MnVP2(HO5)2
_chemical_formula_sum   'Li6 Mn3 V3 P6 H6 O30'
_cell_volume   554.52638716
_cell_formula_units_Z   3
loop_
 _symmetry_equiv_pos_site_id
 _symmetry_equiv_pos_as_xyz
  1  'x, y, z'
loop_
 _atom_site_type_symbol
 _atom_site_label
 _atom_site_symmetry_multiplicity
 _atom_site_fract_x
 _atom_site_fract_y
 _atom_site_fract_z
 _atom_site_occupancy
  Li  Li0  1  0.85648100  0.41701200  0.24816000  1
  Li  Li1  1  0.81781100  0.24837200  0.41586400  1
  Li  Li2  1  0.51886200  0.09466200  0.91573200  1
  Li  Li3  1  0.48113800  0.90533800  0.08426800  1
  Li  Li4  1  0.18218900  0.75162800  0.58413600  1
  Li  Li5  1  0.14351900  0.58298800  0.75184000  1
  Mn  Mn6  1  0.00000000  0.50000000  0.00000000  1
  Mn  Mn7  1  0.66312600  0.66708500  0.66723400  1
  Mn  Mn8  1  0.33687400  0.33291500  0.33276600  1
  V  V9  1  0.00000000  0.00000000  0.00000000  1
  V  V10  1  0.66437300  0.16835800  0.66769800  1
  V  V11  1  0.33562700  0.83164200  0.33230200  1
  P  P12  1  0.80601200  0.67127100  0.43826600  1
  P  P13  1  0.86485000  0.99513900  0.22639600  1
  P  P14  1  0.47555900  0.34008600  0.10783100  1
  P  P15  1  0.52444100  0.65991400  0.89216900  1
  P  P16  1  0.13515000  0.00486100  0.77360400  1
  P  P17  1  0.19398800  0.32872900  0.56173400  1
  H  H18  1  0.94471100  0.22000700  0.88154800  1
  H  H19  1  0.71818300  0.44267500  0.78657300  1
  H  H20  1  0.38681600  0.10483400  0.45046700  1
  H  H21  1  0.61318400  0.89516600  0.54953300  1
  H  H22  1  0.28181700  0.55732500  0.21342700  1
  H  H23  1  0.05528900  0.77999300  0.11845200  1
  O  O24  1  0.86700000  0.04390000  0.12370800  1
  O  O25  1  0.94478800  0.17732600  0.29367800  1
  O  O26  1  0.95152700  0.13080800  0.75621300  1
  O  O27  1  0.90853800  0.21521800  0.56961400  1
  O  O28  1  0.90131900  0.22128700  0.94715500  1
  O  O29  1  0.76767700  0.43477200  0.09876700  1
  O  O30  1  0.72837000  0.48951500  0.37015300  1
  O  O31  1  0.80356900  0.62311800  0.54041900  1
  O  O32  1  0.76743300  0.44099000  0.72116700  1
  O  O33  1  0.37446300  0.15852600  0.03660200  1
  O  O34  1  0.47556100  0.27771600  0.20783200  1
  O  O35  1  0.44093500  0.10621500  0.38654000  1
  O  O36  1  0.68680500  0.52113100  0.90430700  1
  O  O37  1  0.62007400  0.79555900  0.41995100  1
  O  O38  1  0.42167900  0.11599600  0.76693300  1
  O  O39  1  0.57832100  0.88400400  0.23306700  1
  O  O40  1  0.37992600  0.20444100  0.58004900  1
  O  O41  1  0.31319500  0.47886900  0.09569300  1
  O  O42  1  0.55906500  0.89378500  0.61346000  1
  O  O43  1  0.52443900  0.72228400  0.79216800  1
  O  O44  1  0.62553700  0.84147400  0.96339800  1
  O  O45  1  0.23256700  0.55901000  0.27883300  1
  O  O46  1  0.19643100  0.37688200  0.45958100  1
  O  O47  1  0.27163000  0.51048500  0.62984700  1
  O  O48  1  0.23232300  0.56522800  0.90123300  1
  O  O49  1  0.09868100  0.77871300  0.05284500  1
  O  O50  1  0.09146200  0.78478200  0.43038600  1
  O  O51  1  0.04847300  0.86919200  0.24378700  1
  O  O52  1  0.05521200  0.82267400  0.70632200  1
  O  O53  1  0.13300000  0.95610000  0.87629200  1
