# generated using pymatgen
data_LiNiPO4
_symmetry_space_group_name_H-M   'P 1'
_cell_length_a   10.55372000
_cell_length_b   5.61976000
_cell_length_c   9.95603409
_cell_angle_alpha   88.22576325
_cell_angle_beta   90.00000000
_cell_angle_gamma   90.00000000
_symmetry_Int_Tables_number   1
_chemical_formula_structural   LiNiPO4
_chemical_formula_sum   'Li8 Ni8 P8 O32'
_cell_volume   590.20305552
_cell_formula_units_Z   8
loop_
 _symmetry_equiv_pos_site_id
 _symmetry_equiv_pos_as_xyz
  1  'x, y, z'
loop_
 _atom_site_type_symbol
 _atom_site_label
 _atom_site_symmetry_multiplicity
 _atom_site_fract_x
 _atom_site_fract_y
 _atom_site_fract_z
 _atom_site_occupancy
  Li  Li0  1  0.85839700  0.87188100  0.88706500  1
  Li  Li1  1  0.64160300  0.87188100  0.38706500  1
  Li  Li2  1  0.33669300  0.61127300  0.64162100  1
  Li  Li3  1  0.16330700  0.61127300  0.14162100  1
  Li  Li4  1  0.83669300  0.38872700  0.85837900  1
  Li  Li5  1  0.66330700  0.38872700  0.35837900  1
  Li  Li6  1  0.35839700  0.12811900  0.61293500  1
  Li  Li7  1  0.14160300  0.12811900  0.11293500  1
  Ni  Ni8  1  0.09272500  0.88005100  0.73152100  1
  Ni  Ni9  1  0.40727500  0.88005100  0.23152100  1
  Ni  Ni10  1  0.62332700  0.65382400  0.98573600  1
  Ni  Ni11  1  0.87667300  0.65382400  0.48573600  1
  Ni  Ni12  1  0.12332700  0.34617600  0.51426400  1
  Ni  Ni13  1  0.37667300  0.34617600  0.01426400  1
  Ni  Ni14  1  0.59272500  0.11994900  0.76847900  1
  Ni  Ni15  1  0.90727500  0.11994900  0.26847900  1
  P  P16  1  0.35426600  0.87508000  0.90931300  1
  P  P17  1  0.14573400  0.87508000  0.40931300  1
  P  P18  1  0.60847500  0.62326000  0.66130100  1
  P  P19  1  0.89152500  0.62326000  0.16130100  1
  P  P20  1  0.10847500  0.37674000  0.83869900  1
  P  P21  1  0.39152500  0.37674000  0.33869900  1
  P  P22  1  0.85426600  0.12492000  0.59068700  1
  P  P23  1  0.64573400  0.12492000  0.09068700  1
  O  O24  1  0.21395100  0.91749700  0.54479700  1
  O  O25  1  0.93383300  0.89538600  0.62414300  1
  O  O26  1  0.28604900  0.91749700  0.04479700  1
  O  O27  1  0.56616700  0.89538600  0.12414300  1
  O  O28  1  0.26668600  0.83500500  0.79005000  1
  O  O29  1  0.52685100  0.85582400  0.65026300  1
  O  O30  1  0.23331400  0.83500500  0.29005000  1
  O  O31  1  0.97314900  0.85582400  0.15026300  1
  O  O32  1  0.44128100  0.65275300  0.92409800  1
  O  O33  1  0.69266500  0.62656600  0.79182400  1
  O  O34  1  0.05871900  0.65275300  0.42409800  1
  O  O35  1  0.69245900  0.61053500  0.53248500  1
  O  O36  1  0.01670900  0.59430000  0.83323700  1
  O  O37  1  0.80733500  0.62656600  0.29182400  1
  O  O38  1  0.80754100  0.61053500  0.03248500  1
  O  O39  1  0.48329100  0.59430000  0.33323700  1
  O  O40  1  0.51670900  0.40570000  0.66676300  1
  O  O41  1  0.19245900  0.38946500  0.96751500  1
  O  O42  1  0.19266500  0.37343400  0.70817600  1
  O  O43  1  0.98329100  0.40570000  0.16676300  1
  O  O44  1  0.30754100  0.38946500  0.46751500  1
  O  O45  1  0.94128100  0.34724700  0.57590200  1
  O  O46  1  0.30733500  0.37343400  0.20817600  1
  O  O47  1  0.55871900  0.34724700  0.07590200  1
  O  O48  1  0.02685100  0.14417600  0.84973700  1
  O  O49  1  0.76668600  0.16499500  0.70995000  1
  O  O50  1  0.47314900  0.14417600  0.34973700  1
  O  O51  1  0.73331400  0.16499500  0.20995000  1
  O  O52  1  0.43383300  0.10461400  0.87585700  1
  O  O53  1  0.71395100  0.08250300  0.95520300  1
  O  O54  1  0.06616700  0.10461400  0.37585700  1
  O  O55  1  0.78604900  0.08250300  0.45520300  1
