# generated using pymatgen
data_Li2Cr2O7
_symmetry_space_group_name_H-M   'P 1'
_cell_length_a   8.37054500
_cell_length_b   6.74303300
_cell_length_c   9.62913498
_cell_angle_alpha   78.69505386
_cell_angle_beta   90.00000000
_cell_angle_gamma   90.00000000
_symmetry_Int_Tables_number   1
_chemical_formula_structural   Li2Cr2O7
_chemical_formula_sum   'Li8 Cr8 O28'
_cell_volume   532.95087950
_cell_formula_units_Z   4
loop_
 _symmetry_equiv_pos_site_id
 _symmetry_equiv_pos_as_xyz
  1  'x, y, z'
loop_
 _atom_site_type_symbol
 _atom_site_label
 _atom_site_symmetry_multiplicity
 _atom_site_fract_x
 _atom_site_fract_y
 _atom_site_fract_z
 _atom_site_occupancy
  Li  Li0  1  0.61958100  0.85534100  0.96456700  1
  Li  Li1  1  0.88041900  0.85534100  0.46456700  1
  Li  Li2  1  0.61708500  0.69471600  0.68581400  1
  Li  Li3  1  0.88291500  0.69471600  0.18581400  1
  Li  Li4  1  0.11708500  0.30528400  0.81418600  1
  Li  Li5  1  0.38291500  0.30528400  0.31418600  1
  Li  Li6  1  0.11958100  0.14465900  0.53543300  1
  Li  Li7  1  0.38041900  0.14465900  0.03543300  1
  Cr  Cr8  1  0.98453900  0.81069900  0.81644700  1
  Cr  Cr9  1  0.51546100  0.81069900  0.31644700  1
  Cr  Cr10  1  0.24534800  0.64585400  0.53020000  1
  Cr  Cr11  1  0.25465200  0.64585400  0.03020000  1
  Cr  Cr12  1  0.74534800  0.35414600  0.96980000  1
  Cr  Cr13  1  0.75465200  0.35414600  0.46980000  1
  Cr  Cr14  1  0.48453900  0.18930100  0.68355300  1
  Cr  Cr15  1  0.01546100  0.18930100  0.18355300  1
  O  O16  1  0.57796400  0.97681700  0.74493100  1
  O  O17  1  0.37169500  0.84446200  0.99044500  1
  O  O18  1  0.87407700  0.83352200  0.95226400  1
  O  O19  1  0.92203600  0.97681700  0.24493100  1
  O  O20  1  0.12830500  0.84446200  0.49044500  1
  O  O21  1  0.62592300  0.83352200  0.45226400  1
  O  O22  1  0.87322100  0.74624800  0.69263900  1
  O  O23  1  0.37141600  0.68171000  0.65001000  1
  O  O24  1  0.13167500  0.61712200  0.87993200  1
  O  O25  1  0.63976400  0.55743800  0.90917900  1
  O  O26  1  0.62677900  0.74624800  0.19263900  1
  O  O27  1  0.12858400  0.68171000  0.15001000  1
  O  O28  1  0.36832500  0.61712200  0.37993200  1
  O  O29  1  0.86023600  0.55743800  0.40917900  1
  O  O30  1  0.13976400  0.44256200  0.59082100  1
  O  O31  1  0.63167500  0.38287800  0.62006800  1
  O  O32  1  0.87141600  0.31829000  0.84999000  1
  O  O33  1  0.37322100  0.25375200  0.80736100  1
  O  O34  1  0.36023600  0.44256200  0.09082100  1
  O  O35  1  0.86832500  0.38287800  0.12006800  1
  O  O36  1  0.62858400  0.31829000  0.34999000  1
  O  O37  1  0.12677900  0.25375200  0.30736100  1
  O  O38  1  0.37407700  0.16647800  0.54773600  1
  O  O39  1  0.87169500  0.15553800  0.50955500  1
  O  O40  1  0.07796400  0.02318300  0.75506900  1
  O  O41  1  0.12592300  0.16647800  0.04773600  1
  O  O42  1  0.62830500  0.15553800  0.00955500  1
  O  O43  1  0.42203600  0.02318300  0.25506900  1
