# generated using pymatgen
data_Li4Co2C4SO16
_symmetry_space_group_name_H-M   'P 1'
_cell_length_a   9.14550200
_cell_length_b   9.15633002
_cell_length_c   9.24263428
_cell_angle_alpha   118.92522839
_cell_angle_beta   118.89628031
_cell_angle_gamma   91.29093861
_symmetry_Int_Tables_number   1
_chemical_formula_structural   Li4Co2C4SO16
_chemical_formula_sum   'Li8 Co4 C8 S2 O32'
_cell_volume   558.93355083
_cell_formula_units_Z   2
loop_
 _symmetry_equiv_pos_site_id
 _symmetry_equiv_pos_as_xyz
  1  'x, y, z'
loop_
 _atom_site_type_symbol
 _atom_site_label
 _atom_site_symmetry_multiplicity
 _atom_site_fract_x
 _atom_site_fract_y
 _atom_site_fract_z
 _atom_site_occupancy
  Li  Li0  1  0.33396100  0.66446200  0.74841400  1
  Li  Li1  1  0.67762700  0.91522600  0.24863600  1
  Li  Li2  1  0.91884000  0.67302400  0.76248800  1
  Li  Li3  1  0.32940000  0.08341600  0.17529700  1
  Li  Li4  1  0.07402000  0.33721900  0.25475100  1
  Li  Li5  1  0.91406000  0.08512700  0.74866000  1
  Li  Li6  1  0.32265100  0.07790800  0.73046300  1
  Li  Li7  1  0.68009100  0.33958700  0.25463500  1
  Co  Co8  1  0.50067200  0.99804300  0.49867000  1
  Co  Co9  1  0.50028200  0.49876600  0.99792800  1
  Co  Co10  1  0.99947300  0.49915100  0.99847900  1
  Co  Co11  1  0.49899400  0.49948000  0.49968500  1
  C  C12  1  0.35451900  0.28357300  0.57235400  1
  C  C13  1  0.71602100  0.64344800  0.92420800  1
  C  C14  1  0.71007700  0.27654700  0.92538500  1
  C  C15  1  0.72130800  0.28695200  0.57065600  1
  C  C16  1  0.28692900  0.71809000  0.06795700  1
  C  C17  1  0.28074400  0.71006500  0.42597100  1
  C  C18  1  0.64580700  0.71453800  0.42401000  1
  C  C19  1  0.28314100  0.34930200  0.07090300  1
  S  S20  1  0.12946200  0.88095800  0.76090700  1
  S  S21  1  0.87241700  0.12995500  0.25211900  1
  O  O22  1  0.41560400  0.86974900  0.21358000  1
  O  O23  1  0.34336600  0.41352100  0.54884300  1
  O  O24  1  0.58606600  0.65505300  0.94907000  1
  O  O25  1  0.63842900  0.69809700  0.27416100  1
  O  O26  1  0.69889000  0.64289700  0.77669200  1
  O  O27  1  0.06879900  0.95706500  0.64058900  1
  O  O28  1  0.06029600  0.94294800  0.89091400  1
  O  O29  1  0.85644300  0.63773500  0.04987700  1
  O  O30  1  0.35886600  0.14170900  0.44363400  1
  O  O31  1  0.69346500  0.40178000  0.05793200  1
  O  O32  1  0.59321400  0.30126600  0.43577000  1
  O  O33  1  0.06920200  0.68472900  0.64022700  1
  O  O34  1  0.32787400  0.94845400  0.89111500  1
  O  O35  1  0.13668000  0.70039600  0.04684600  1
  O  O36  1  0.29856800  0.86235500  0.45125500  1
  O  O37  1  0.86237600  0.42002400  0.71961400  1
  O  O38  1  0.13854800  0.57646500  0.27494200  1
  O  O39  1  0.86298200  0.29339700  0.94840700  1
  O  O40  1  0.70577900  0.13490400  0.54869400  1
  O  O41  1  0.67288000  0.06836500  0.12979000  1
  O  O42  1  0.93205500  0.32993700  0.37283800  1
  O  O43  1  0.40494600  0.69229800  0.55989800  1
  O  O44  1  0.30691400  0.59220400  0.93993200  1
  O  O45  1  0.65319800  0.86291000  0.55773800  1
  O  O46  1  0.13787000  0.34879600  0.94283800  1
  O  O47  1  0.94533300  0.07666000  0.12907700  1
  O  O48  1  0.92764300  0.05962500  0.37749100  1
  O  O49  1  0.29889600  0.34198300  0.21529300  1
  O  O50  1  0.35782900  0.29834800  0.71924700  1
  O  O51  1  0.41496300  0.34711300  0.05258900  1
  O  O52  1  0.65323900  0.58482000  0.44684500  1
  O  O53  1  0.57828700  0.13310600  0.77523200  1
