# generated using pymatgen
data_Li4Mn(PO3)6
_symmetry_space_group_name_H-M   'P 1'
_cell_length_a   7.32107200
_cell_length_b   7.38441180
_cell_length_c   7.52746877
_cell_angle_alpha   106.17656302
_cell_angle_beta   114.44162426
_cell_angle_gamma   97.21969128
_symmetry_Int_Tables_number   1
_chemical_formula_structural   Li4Mn(PO3)6
_chemical_formula_sum   'Li4 Mn1 P6 O18'
_cell_volume   342.03362432
_cell_formula_units_Z   1
loop_
 _symmetry_equiv_pos_site_id
 _symmetry_equiv_pos_as_xyz
  1  'x, y, z'
loop_
 _atom_site_type_symbol
 _atom_site_label
 _atom_site_symmetry_multiplicity
 _atom_site_fract_x
 _atom_site_fract_y
 _atom_site_fract_z
 _atom_site_occupancy
  Li  Li0  1  0.37377700  0.15435700  0.55532700  1
  Li  Li1  1  0.48476000  0.52400800  0.99915100  1
  Li  Li2  1  0.62338800  0.83905800  0.43670500  1
  Li  Li3  1  0.24583100  0.88408400  0.08229800  1
  Mn  Mn4  1  0.80696400  0.09988100  0.95779200  1
  P  P5  1  0.02767900  0.23545400  0.70003600  1
  P  P6  1  0.66909500  0.21344600  0.32687800  1
  P  P7  1  0.77028900  0.49887600  0.72710500  1
  P  P8  1  0.21660200  0.49942500  0.26602900  1
  P  P9  1  0.33277100  0.78103900  0.67587100  1
  P  P10  1  0.97655500  0.77892700  0.30200500  1
  O  O11  1  0.91077000  0.07610000  0.73543400  1
  O  O12  1  0.51025400  0.06237800  0.32741400  1
  O  O13  1  0.90153900  0.19352100  0.45143700  1
  O  O14  1  0.25318000  0.26499300  0.76081200  1
  O  O15  1  0.63359400  0.36630900  0.77017300  1
  O  O16  1  0.99421600  0.44539800  0.79740200  1
  O  O17  1  0.65121400  0.21978800  0.12284400  1
  O  O18  1  0.14360500  0.27954500  0.17213700  1
  O  O19  1  0.68397900  0.42834200  0.47132200  1
  O  O20  1  0.30815100  0.56595000  0.51923800  1
  O  O21  1  0.81294300  0.71582700  0.81163900  1
  O  O22  1  0.35558100  0.76437200  0.87632500  1
  O  O23  1  0.00435200  0.56808900  0.19864500  1
  O  O24  1  0.36703800  0.61358200  0.22211000  1
  O  O25  1  0.75148500  0.74706100  0.24770500  1
  O  O26  1  0.10738900  0.81442200  0.55085700  1
  O  O27  1  0.49696200  0.93250600  0.67858100  1
  O  O28  1  0.08603600  0.93326200  0.25672300  1
