# generated using pymatgen
data_LiV2CrO6
_symmetry_space_group_name_H-M   'P 1'
_cell_length_a   7.94014864
_cell_length_b   7.94014864
_cell_length_c   6.06632521
_cell_angle_alpha   77.66975224
_cell_angle_beta   77.66975224
_cell_angle_gamma   68.10580819
_symmetry_Int_Tables_number   1
_chemical_formula_structural   LiV2CrO6
_chemical_formula_sum   'Li3 V6 Cr3 O18'
_cell_volume   342.88223987
_cell_formula_units_Z   3
loop_
 _symmetry_equiv_pos_site_id
 _symmetry_equiv_pos_as_xyz
  1  'x, y, z'
loop_
 _atom_site_type_symbol
 _atom_site_label
 _atom_site_symmetry_multiplicity
 _atom_site_fract_x
 _atom_site_fract_y
 _atom_site_fract_z
 _atom_site_occupancy
  Li  Li0  1  0.33011500  0.33011500  0.34265700  1
  Li  Li1  1  0.00000000  0.00000000  0.00000000  1
  Li  Li2  1  0.66988500  0.66988500  0.65734300  1
  V  V3  1  0.00513900  0.66507500  0.83245300  1
  V  V4  1  0.33492500  0.99486100  0.16754700  1
  V  V5  1  0.34015500  0.34015500  0.83383700  1
  V  V6  1  0.66507500  0.00513900  0.83245300  1
  V  V7  1  0.65984500  0.65984500  0.16616300  1
  V  V8  1  0.99486100  0.33492500  0.16754700  1
  Cr  Cr9  1  0.32815400  0.67184600  0.50000000  1
  Cr  Cr10  1  0.67184600  0.32815400  0.50000000  1
  Cr  Cr11  1  0.00000000  0.00000000  0.50000000  1
  O  O12  1  0.17665900  0.85221700  0.26702100  1
  O  O13  1  0.17941400  0.17941400  0.94663700  1
  O  O14  1  0.51065200  0.84247700  0.94191200  1
  O  O15  1  0.14778300  0.82334100  0.73297900  1
  O  O16  1  0.16280600  0.16280600  0.37417400  1
  O  O17  1  0.49283200  0.82400600  0.38506500  1
  O  O18  1  0.15752300  0.48934800  0.05808800  1
  O  O19  1  0.48934800  0.15752300  0.05808800  1
  O  O20  1  0.82058600  0.82058600  0.05336300  1
  O  O21  1  0.17599400  0.50716800  0.61493500  1
  O  O22  1  0.50716800  0.17599400  0.61493500  1
  O  O23  1  0.83719400  0.83719400  0.62582600  1
  O  O24  1  0.51293000  0.51293000  0.27166100  1
  O  O25  1  0.85221700  0.17665900  0.26702100  1
  O  O26  1  0.84247700  0.51065200  0.94191200  1
  O  O27  1  0.48707000  0.48707000  0.72833900  1
  O  O28  1  0.82334100  0.14778300  0.73297900  1
  O  O29  1  0.82400600  0.49283200  0.38506500  1
