# generated using pymatgen
data_Li4Mn3V3Cr2O16
_symmetry_space_group_name_H-M   'P 1'
_cell_length_a   5.85453100
_cell_length_b   5.91527039
_cell_length_c   9.57788327
_cell_angle_alpha   89.44341794
_cell_angle_beta   91.36025212
_cell_angle_gamma   119.00469585
_symmetry_Int_Tables_number   1
_chemical_formula_structural   Li4Mn3V3Cr2O16
_chemical_formula_sum   'Li4 Mn3 V3 Cr2 O16'
_cell_volume   290.00965659
_cell_formula_units_Z   1
loop_
 _symmetry_equiv_pos_site_id
 _symmetry_equiv_pos_as_xyz
  1  'x, y, z'
loop_
 _atom_site_type_symbol
 _atom_site_label
 _atom_site_symmetry_multiplicity
 _atom_site_fract_x
 _atom_site_fract_y
 _atom_site_fract_z
 _atom_site_occupancy
  Li  Li0  1  0.33459900  0.67733200  0.10550600  1
  Li  Li1  1  0.99419900  0.00976300  0.00454200  1
  Li  Li2  1  0.00363000  0.98295800  0.50399100  1
  Li  Li3  1  0.66710200  0.32952500  0.60348500  1
  Mn  Mn4  1  0.16763000  0.83226100  0.78906900  1
  Mn  Mn5  1  0.83385300  0.65786800  0.28514000  1
  Mn  Mn6  1  0.33760700  0.16983100  0.28763100  1
  V  V7  1  0.66155100  0.83447600  0.78547300  1
  V  V8  1  0.16688900  0.33841900  0.78658200  1
  V  V9  1  0.82753900  0.15917000  0.28823200  1
  Cr  Cr10  1  0.33014700  0.65276800  0.51485800  1
  Cr  Cr11  1  0.66987000  0.34786000  0.01752600  1
  O  O12  1  0.67463000  0.83218300  0.39424900  1
  O  O13  1  0.48452200  0.51459900  0.66414700  1
  O  O14  1  0.33244300  0.67263600  0.89464900  1
  O  O15  1  0.00186800  0.99665700  0.69039900  1
  O  O16  1  0.00115400  0.99082800  0.19161000  1
  O  O17  1  0.14653200  0.31388800  0.39851200  1
  O  O18  1  0.48926200  0.95229600  0.65673000  1
  O  O19  1  0.04071400  0.49929800  0.65732200  1
  O  O20  1  0.83058600  0.17134800  0.89158400  1
  O  O21  1  0.15252400  0.81476200  0.40173200  1
  O  O22  1  0.96450500  0.48312100  0.16506200  1
  O  O23  1  0.53516400  0.05042100  0.16121500  1
  O  O24  1  0.66841000  0.33854900  0.39134400  1
  O  O25  1  0.82272700  0.68295600  0.90071100  1
  O  O26  1  0.53645600  0.50532100  0.15706000  1
  O  O27  1  0.32418700  0.18920200  0.90379900  1
