# generated using pymatgen
data_Li4MnCr3(PO4)4
_symmetry_space_group_name_H-M   'P 1'
_cell_length_a   6.31625300
_cell_length_b   4.77923600
_cell_length_c   10.32667475
_cell_angle_alpha   89.35086502
_cell_angle_beta   90.00000000
_cell_angle_gamma   90.00000000
_symmetry_Int_Tables_number   1
_chemical_formula_structural   Li4MnCr3(PO4)4
_chemical_formula_sum   'Li4 Mn1 Cr3 P4 O16'
_cell_volume   311.70991704
_cell_formula_units_Z   1
loop_
 _symmetry_equiv_pos_site_id
 _symmetry_equiv_pos_as_xyz
  1  'x, y, z'
loop_
 _atom_site_type_symbol
 _atom_site_label
 _atom_site_symmetry_multiplicity
 _atom_site_fract_x
 _atom_site_fract_y
 _atom_site_fract_z
 _atom_site_occupancy
  Li  Li0  1  0.25080100  0.99645200  0.99795400  1
  Li  Li1  1  0.74919900  0.99645200  0.99795400  1
  Li  Li2  1  0.74838700  0.50025700  0.50128500  1
  Li  Li3  1  0.25161300  0.50025700  0.50128500  1
  Mn  Mn4  1  0.50000000  0.96950600  0.28195000  1
  Cr  Cr5  1  0.50000000  0.54865800  0.78446900  1
  Cr  Cr6  1  0.00000000  0.44952100  0.21545900  1
  Cr  Cr7  1  0.00000000  0.05079400  0.71500100  1
  P  P8  1  0.00000000  0.91571100  0.40625800  1
  P  P9  1  0.00000000  0.58010600  0.90576300  1
  P  P10  1  0.50000000  0.41716000  0.09090100  1
  P  P11  1  0.50000000  0.08618600  0.59619300  1
  O  O12  1  0.00000000  0.80674500  0.54951700  1
  O  O13  1  0.19890100  0.78480500  0.34043900  1
  O  O14  1  0.80109900  0.78480500  0.34043900  1
  O  O15  1  0.50000000  0.76134700  0.60167900  1
  O  O16  1  0.50000000  0.73960000  0.09370500  1
  O  O17  1  0.19761300  0.71324500  0.83931400  1
  O  O18  1  0.80238700  0.71324500  0.83931400  1
  O  O19  1  0.00000000  0.68894500  0.04818500  1
  O  O20  1  0.50000000  0.29958600  0.95037300  1
  O  O21  1  0.69539500  0.28298200  0.16111300  1
  O  O22  1  0.30460500  0.28298200  0.16111300  1
  O  O23  1  0.00000000  0.25578300  0.89903300  1
  O  O24  1  0.00000000  0.24002400  0.39775200  1
  O  O25  1  0.69754300  0.21379600  0.66404700  1
  O  O26  1  0.30245700  0.21379600  0.66404700  1
  O  O27  1  0.50000000  0.20725500  0.45545700  1
