# generated using pymatgen
data_Li7V3P8O29
_symmetry_space_group_name_H-M   'P 1'
_cell_length_a   9.85108100
_cell_length_b   9.86801141
_cell_length_c   13.91090140
_cell_angle_alpha   90.37799371
_cell_angle_beta   89.84243220
_cell_angle_gamma   119.89176416
_symmetry_Int_Tables_number   1
_chemical_formula_structural   Li7V3P8O29
_chemical_formula_sum   'Li14 V6 P16 O58'
_cell_volume   1172.36416679
_cell_formula_units_Z   2
loop_
 _symmetry_equiv_pos_site_id
 _symmetry_equiv_pos_as_xyz
  1  'x, y, z'
loop_
 _atom_site_type_symbol
 _atom_site_label
 _atom_site_symmetry_multiplicity
 _atom_site_fract_x
 _atom_site_fract_y
 _atom_site_fract_z
 _atom_site_occupancy
  Li  Li0  1  0.77612600  0.09120000  0.06323900  1
  Li  Li1  1  0.91187200  0.22807500  0.56180500  1
  Li  Li2  1  0.31281200  0.08651400  0.55958600  1
  Li  Li3  1  0.66888100  0.33162000  0.38066900  1
  Li  Li4  1  0.66938400  0.33225800  0.88359800  1
  Li  Li5  1  0.30538600  0.22070400  0.06273800  1
  Li  Li6  1  0.90642800  0.67836800  0.06522900  1
  Li  Li7  1  0.22612600  0.32313700  0.43861000  1
  Li  Li8  1  0.77418800  0.68717400  0.55889900  1
  Li  Li9  1  0.68701100  0.77852200  0.94154000  1
  Li  Li10  1  0.32540000  0.66095700  0.11798300  1
  Li  Li11  1  0.67517300  0.90434800  0.43466800  1
  Li  Li12  1  0.09598600  0.77315500  0.43502900  1
  Li  Li13  1  0.22567300  0.91189700  0.94033700  1
  V  V14  1  0.43019600  0.43198600  0.24967400  1
  V  V15  1  0.56542600  0.56582400  0.74962900  1
  V  V16  1  0.00510700  0.43475600  0.75477000  1
  V  V17  1  0.00027700  0.56722800  0.24943000  1
  V  V18  1  0.56980900  0.00058200  0.24953300  1
  V  V19  1  0.43175300  0.99964200  0.74689300  1
  P  P20  1  0.76941000  0.09278300  0.84266800  1
  P  P21  1  0.91156700  0.23437500  0.34545400  1
  P  P22  1  0.32335700  0.09179500  0.34274500  1
  P  P23  1  0.66507500  0.33537400  0.12280200  1
  P  P24  1  0.66905700  0.33396700  0.62634600  1
  P  P25  1  0.32272200  0.23137300  0.84246300  1
  P  P26  1  0.23221000  0.31865400  0.65892000  1
  P  P27  1  0.90958100  0.68006200  0.84169600  1
  P  P28  1  0.08827800  0.31855800  0.15749200  1
  P  P29  1  0.76637400  0.67739200  0.34319200  1
  P  P30  1  0.67720000  0.76540400  0.15669700  1
  P  P31  1  0.33673600  0.66771100  0.37698000  1
  P  P32  1  0.33445400  0.67008000  0.87369400  1
  P  P33  1  0.68077700  0.91257400  0.65834400  1
  P  P34  1  0.08625200  0.76426100  0.65706200  1
  P  P35  1  0.23357600  0.90936700  0.15653200  1
  O  O36  1  0.75612500  0.00126600  0.56829100  1
  O  O37  1  0.75433800  0.08013800  0.34429100  1
  O  O38  1  0.99003400  0.22672500  0.07454600  1
  O  O39  1  0.91486100  0.25515600  0.84079800  1
  O  O40  1  0.62523800  0.11401300  0.82449500  1
  O  O41  1  0.66725700  0.18742000  0.15837000  1
  O  O42  1  0.49071500  0.12029100  0.32931300  1
  O  O43  1  0.25067100  0.00449400  0.06796500  1
  O  O44  1  0.33780000  0.08055000  0.83650100  1
  O  O45  1  0.81626000  0.33152300  0.66755500  1
  O  O46  1  0.88023600  0.37113000  0.32892500  1
  O  O47  1  0.51424200  0.18584900  0.66287300  1
  O  O48  1  0.65361400  0.33588400  0.01454500  1
  O  O49  1  0.67095400  0.33515200  0.51845400  1
  O  O50  1  0.51403500  0.33494100  0.16696600  1
  O  O51  1  0.88415900  0.51289700  0.82589100  1
  O  O52  1  0.81130100  0.48736400  0.15947200  1
  O  O53  1  0.32852900  0.25082800  0.34346500  1
  O  O54  1  0.21506500  0.21210800  0.75082400  1
  O  O55  1  0.24430500  0.24095400  0.56868200  1
  O  O56  1  0.25029200  0.24033700  0.93367000  1
  O  O57  1  0.48952300  0.37257600  0.82243900  1
  O  O58  1  0.67076700  0.48653800  0.66539000  1
  O  O59  1  0.25098700  0.32927300  0.15787300  1
  O  O60  1  0.62463700  0.51030600  0.32763300  1
  O  O61  1  0.91809000  0.67041700  0.34527800  1
  O  O62  1  0.01048700  0.22550100  0.25675900  1
  O  O63  1  0.00385100  0.25206600  0.43601900  1
  O  O64  1  0.99772200  0.75806200  0.56776100  1
  O  O65  1  0.08424000  0.33327500  0.66100700  1
  O  O66  1  0.38174400  0.47861600  0.67641000  1
  O  O67  1  0.74648300  0.66788200  0.84110900  1
  O  O68  1  0.33615000  0.51569000  0.32967900  1
  O  O69  1  0.50993100  0.62425200  0.17191600  1
  O  O70  1  0.75365900  0.74653900  0.06733000  1
  O  O71  1  0.74831700  0.75524400  0.43210500  1
  O  O72  1  0.78067000  0.77965500  0.24975800  1
  O  O73  1  0.66514100  0.74944100  0.65970600  1
  O  O74  1  0.18595500  0.52220400  0.82934600  1
  O  O75  1  0.11637200  0.48661700  0.16919600  1
  O  O76  1  0.48452000  0.66784700  0.83518200  1
  O  O77  1  0.33260100  0.66944300  0.98108300  1
  O  O78  1  0.33536100  0.65120000  0.48378200  1
  O  O79  1  0.48878700  0.81281400  0.33883400  1
  O  O80  1  0.09674600  0.61675100  0.67329200  1
  O  O81  1  0.18987100  0.67118900  0.33785100  1
  O  O82  1  0.67083200  0.91704500  0.15469300  1
  O  O83  1  0.78703600  0.00130500  0.75024000  1
  O  O84  1  0.75273600  0.99864100  0.93069000  1
  O  O85  1  0.51999700  0.90190600  0.67742600  1
  O  O86  1  0.33107500  0.81660600  0.83472600  1
  O  O87  1  0.37177300  0.88017500  0.17158800  1
  O  O88  1  0.07985400  0.75259300  0.15566300  1
  O  O89  1  0.00051400  0.75718200  0.93139500  1
  O  O90  1  0.99847700  0.78593800  0.75014700  1
  O  O91  1  0.24965900  0.91477000  0.65860700  1
  O  O92  1  0.24267600  0.99814700  0.43138400  1
  O  O93  1  0.22064500  0.00146100  0.24959500  1
