# generated using pymatgen
data_Li7V3P8O29
_symmetry_space_group_name_H-M   'P 1'
_cell_length_a   9.80459225
_cell_length_b   9.80459225
_cell_length_c   13.83506701
_cell_angle_alpha   89.85634812
_cell_angle_beta   89.85634812
_cell_angle_gamma   60.05768696
_symmetry_Int_Tables_number   1
_chemical_formula_structural   Li7V3P8O29
_chemical_formula_sum   'Li14 V6 P16 O58'
_cell_volume   1152.44792433
_cell_formula_units_Z   2
loop_
 _symmetry_equiv_pos_site_id
 _symmetry_equiv_pos_as_xyz
  1  'x, y, z'
loop_
 _atom_site_type_symbol
 _atom_site_label
 _atom_site_symmetry_multiplicity
 _atom_site_fract_x
 _atom_site_fract_y
 _atom_site_fract_z
 _atom_site_occupancy
  Li  Li0  1  0.23633100  0.66287700  0.43837900  1
  Li  Li1  1  0.10126700  0.66291200  0.93918600  1
  Li  Li2  1  0.66287700  0.23633100  0.93837900  1
  Li  Li3  1  0.66291200  0.10126700  0.43918600  1
  Li  Li4  1  0.10214800  0.23649200  0.43945400  1
  Li  Li5  1  0.76350800  0.89785200  0.06054600  1
  Li  Li6  1  0.23649200  0.10214800  0.93945400  1
  Li  Li7  1  0.89785200  0.76350800  0.56054600  1
  Li  Li8  1  0.33708800  0.89873300  0.56081400  1
  Li  Li9  1  0.33712300  0.76366900  0.06162100  1
  Li  Li10  1  0.89873300  0.33708800  0.06081400  1
  Li  Li11  1  0.76366900  0.33712300  0.56162100  1
  Li  Li12  1  0.00000000  0.00000000  0.50000000  1
  Li  Li13  1  0.00000000  0.00000000  0.00000000  1
  V  V14  1  0.56431800  0.99853700  0.25079600  1
  V  V15  1  0.43568200  0.00146300  0.74920400  1
  V  V16  1  0.99853700  0.56431800  0.75079600  1
  V  V17  1  0.00146300  0.43568200  0.24920400  1
  V  V18  1  0.43642800  0.56357200  0.25000000  1
  V  V19  1  0.56357200  0.43642800  0.75000000  1
  P  P20  1  0.22477200  0.68674800  0.65767000  1
  P  P21  1  0.08619900  0.68709000  0.15708400  1
  P  P22  1  0.68674800  0.22477200  0.15767000  1
  P  P23  1  0.33205300  0.33079100  0.37331600  1
  P  P24  1  0.33079100  0.33205300  0.87331600  1
  P  P25  1  0.68709000  0.08619900  0.65708400  1
  P  P26  1  0.77410700  0.91081000  0.84328500  1
  P  P27  1  0.08919000  0.22589300  0.65671500  1
  P  P28  1  0.91081000  0.77410700  0.34328500  1
  P  P29  1  0.22589300  0.08919000  0.15671500  1
  P  P30  1  0.31291000  0.91380100  0.34291600  1
  P  P31  1  0.66920900  0.66794700  0.12668400  1
  P  P32  1  0.66794700  0.66920900  0.62668400  1
  P  P33  1  0.31325200  0.77522800  0.84233000  1
  P  P34  1  0.91380100  0.31291000  0.84291600  1
  P  P35  1  0.77522800  0.31325200  0.34233000  1
  O  O36  1  0.21634900  0.78255400  0.93403900  1
  O  O37  1  0.24889300  0.66893600  0.15549500  1
  O  O38  1  0.99996900  0.77534500  0.43318400  1
  O  O39  1  0.07732400  0.66508700  0.66092200  1
  O  O40  1  0.37461300  0.53077600  0.66500300  1
  O  O41  1  0.32124700  0.48595700  0.33582100  1
  O  O42  1  0.53077600  0.37461300  0.16500300  1
  O  O43  1  0.78255400  0.21634900  0.43403900  1
  O  O44  1  0.66893600  0.24889300  0.65549500  1
  O  O45  1  0.18803200  0.48668200  0.83141000  1
  O  O46  1  0.09047200  0.52873800  0.17218100  1
  O  O47  1  0.48595700  0.32124700  0.83582100  1
  O  O48  1  0.33231600  0.32163200  0.48157700  1
  O  O49  1  0.32163200  0.33231600  0.98157700  1
  O  O50  1  0.48668200  0.18803200  0.33141000  1
  O  O51  1  0.09049100  0.37894700  0.67048700  1
  O  O52  1  0.18767600  0.32312000  0.32897400  1
  O  O53  1  0.66508700  0.07732400  0.16092200  1
  O  O54  1  0.79694400  0.99659800  0.75016500  1
  O  O55  1  0.77534500  0.99996900  0.93318400  1
  O  O56  1  0.77565200  0.99330900  0.56698100  1
  O  O57  1  0.52873800  0.09047200  0.67218100  1
  O  O58  1  0.32312000  0.18767600  0.82897400  1
  O  O59  1  0.74525100  0.91838300  0.34360200  1
  O  O60  1  0.37894700  0.09049100  0.17048700  1
  O  O61  1  0.08161700  0.25474900  0.15639800  1
  O  O62  1  0.99659800  0.79694400  0.25016500  1
  O  O63  1  0.99330900  0.77565200  0.06698100  1
  O  O64  1  0.00669100  0.22434800  0.93301900  1
  O  O65  1  0.91838300  0.74525100  0.84360200  1
  O  O66  1  0.62105300  0.90950900  0.82951300  1
  O  O67  1  0.25474900  0.08161700  0.65639800  1
  O  O68  1  0.67688000  0.81232400  0.17102600  1
  O  O69  1  0.47126200  0.90952800  0.32781900  1
  O  O70  1  0.22434800  0.00669100  0.43301900  1
  O  O71  1  0.22465500  0.00003100  0.06681600  1
  O  O72  1  0.20305600  0.00340200  0.24983500  1
  O  O73  1  0.33491300  0.92267600  0.83907800  1
  O  O74  1  0.81232400  0.67688000  0.67102600  1
  O  O75  1  0.90950900  0.62105300  0.32951300  1
  O  O76  1  0.51331800  0.81196800  0.66859000  1
  O  O77  1  0.66768400  0.67836800  0.51842300  1
  O  O78  1  0.67836800  0.66768400  0.01842300  1
  O  O79  1  0.51404300  0.67875300  0.16417900  1
  O  O80  1  0.90952800  0.47126200  0.82781900  1
  O  O81  1  0.81196800  0.51331800  0.16859000  1
  O  O82  1  0.33106400  0.75110700  0.34450500  1
  O  O83  1  0.20393100  0.79606900  0.75000000  1
  O  O84  1  0.21744600  0.78365100  0.56596100  1
  O  O85  1  0.46922400  0.62538700  0.83499700  1
  O  O86  1  0.67875300  0.51404300  0.66417900  1
  O  O87  1  0.62538700  0.46922400  0.33499700  1
  O  O88  1  0.92267600  0.33491300  0.33907800  1
  O  O89  1  0.00003100  0.22465500  0.56681600  1
  O  O90  1  0.00340200  0.20305600  0.74983500  1
  O  O91  1  0.75110700  0.33106400  0.84450500  1
  O  O92  1  0.78365100  0.21744600  0.06596100  1
  O  O93  1  0.79606900  0.20393100  0.25000000  1
