# generated using pymatgen
data_Li5Mn6(BO3)6
_symmetry_space_group_name_H-M   'P 1'
_cell_length_a   9.03378717
_cell_length_b   7.92961648
_cell_length_c   6.21152059
_cell_angle_alpha   79.85399137
_cell_angle_beta   76.81713418
_cell_angle_gamma   113.63604743
_symmetry_Int_Tables_number   1
_chemical_formula_structural   Li5Mn6(BO3)6
_chemical_formula_sum   'Li5 Mn6 B6 O18'
_cell_volume   378.60813446
_cell_formula_units_Z   1
loop_
 _symmetry_equiv_pos_site_id
 _symmetry_equiv_pos_as_xyz
  1  'x, y, z'
loop_
 _atom_site_type_symbol
 _atom_site_label
 _atom_site_symmetry_multiplicity
 _atom_site_fract_x
 _atom_site_fract_y
 _atom_site_fract_z
 _atom_site_occupancy
  Li  Li0  1  0.06035939  0.17821302  0.49517559  1
  Li  Li1  1  0.71504508  0.49894630  0.16155434  1
  Li  Li2  1  0.27774462  0.48566139  0.83376825  1
  Li  Li3  1  0.94368598  0.81871872  0.50094808  1
  Li  Li4  1  0.38900262  0.84580256  0.83285420  1
  Mn  Mn5  1  0.28312998  0.13419457  0.10525229  1
  Mn  Mn6  1  0.40347557  0.19900267  0.54865145  1
  Mn  Mn7  1  0.06225162  0.53367192  0.22524731  1
  Mn  Mn8  1  0.92342122  0.44752121  0.78928680  1
  Mn  Mn9  1  0.60047218  0.81285240  0.43004288  1
  Mn  Mn10  1  0.73191696  0.87374068  0.88399865  1
  B  B11  1  0.94295856  0.13393201  0.12483845  1
  B  B12  1  0.73230986  0.20163662  0.54074348  1
  B  B13  1  0.39887073  0.53268040  0.20830126  1
  B  B14  1  0.60091787  0.47548074  0.77987430  1
  B  B15  1  0.25917911  0.79849493  0.47194136  1
  B  B16  1  0.06531551  0.86309834  0.87466223  1
  O  O17  1  0.01764693  0.05071538  0.24824473  1
  O  O18  1  0.77553550  0.02550633  0.13038732  1
  O  O19  1  0.63714796  0.00138044  0.65872952  1
  O  O20  1  0.30930853  0.33826158  0.33502658  1
  O  O21  1  0.66428479  0.30257792  0.43668352  1
  O  O22  1  0.32705906  0.61996742  0.08336638  1
  O  O23  1  0.90391356  0.29356584  0.53153936  1
  O  O24  1  0.57004235  0.63900445  0.19751048  1
  O  O25  1  0.97243336  0.66833769  0.00361709  1
  O  O26  1  0.03019733  0.33075787  0.99969198  1
  O  O27  1  0.43015516  0.36617753  0.79063481  1
  O  O28  1  0.09095726  0.68814147  0.47852205  1
  O  O29  1  0.67183455  0.39087329  0.90558800  1
  O  O30  1  0.33725817  0.71152910  0.58646320  1
  O  O31  1  0.68785818  0.67276595  0.65746729  1
  O  O32  1  0.34131121  0.99392445  0.36060601  1
  O  O33  1  0.23650908  0.96674527  0.86306964  1
  O  O34  1  0.99484118  0.95155652  0.74879216  1
