# generated using pymatgen
data_Li3Co2(PO4)3
_symmetry_space_group_name_H-M   'P 1'
_cell_length_a   8.83090003
_cell_length_b   8.83090003
_cell_length_c   8.83090001
_cell_angle_alpha   56.19526902
_cell_angle_beta   56.19526902
_cell_angle_gamma   56.19526582
_symmetry_Int_Tables_number   1
_chemical_formula_structural   Li3Co2(PO4)3
_chemical_formula_sum   'Li6 Co4 P6 O24'
_cell_volume   444.08212210
_cell_formula_units_Z   2
loop_
 _symmetry_equiv_pos_site_id
 _symmetry_equiv_pos_as_xyz
  1  'x, y, z'
loop_
 _atom_site_type_symbol
 _atom_site_label
 _atom_site_symmetry_multiplicity
 _atom_site_fract_x
 _atom_site_fract_y
 _atom_site_fract_z
 _atom_site_occupancy
  Li  Li0  1  0.66836300  0.26412900  0.92074100  1
  Li  Li1  1  0.26412900  0.92074100  0.66836300  1
  Li  Li2  1  0.92074100  0.66836300  0.26412900  1
  Li  Li3  1  0.07925900  0.33163700  0.73587100  1
  Li  Li4  1  0.73587100  0.07925900  0.33163700  1
  Li  Li5  1  0.33163700  0.73587100  0.07925900  1
  Co  Co6  1  0.85234600  0.85234600  0.85234600  1
  Co  Co7  1  0.65278000  0.65278000  0.65278000  1
  Co  Co8  1  0.34722000  0.34722000  0.34722000  1
  Co  Co9  1  0.14765400  0.14765400  0.14765400  1
  P  P10  1  0.25783900  0.53832900  0.95755200  1
  P  P11  1  0.95755200  0.25783900  0.53832900  1
  P  P12  1  0.53832900  0.95755200  0.25783900  1
  P  P13  1  0.46167100  0.04244800  0.74216100  1
  P  P14  1  0.04244800  0.74216100  0.46167100  1
  P  P15  1  0.74216100  0.46167100  0.04244800  1
  O  O16  1  0.78476900  0.46784900  0.83911300  1
  O  O17  1  0.46784900  0.83911300  0.78476900  1
  O  O18  1  0.83911300  0.78476900  0.46784900  1
  O  O19  1  0.47486100  0.50589700  0.82561100  1
  O  O20  1  0.12394500  0.74649000  0.87303600  1
  O  O21  1  0.20494000  0.38433500  0.98674300  1
  O  O22  1  0.87303600  0.12394500  0.74649000  1
  O  O23  1  0.82561100  0.47486100  0.50589700  1
  O  O24  1  0.50589700  0.82561100  0.47486100  1
  O  O25  1  0.61566500  0.01325700  0.79506000  1
  O  O26  1  0.25351000  0.12696400  0.87605500  1
  O  O27  1  0.01325700  0.79506000  0.61566500  1
  O  O28  1  0.98674300  0.20494000  0.38433500  1
  O  O29  1  0.74649000  0.87303600  0.12394500  1
  O  O30  1  0.38433500  0.98674300  0.20494000  1
  O  O31  1  0.49410300  0.17438900  0.52513900  1
  O  O32  1  0.17438900  0.52513900  0.49410300  1
  O  O33  1  0.12696400  0.87605500  0.25351000  1
  O  O34  1  0.79506000  0.61566500  0.01325700  1
  O  O35  1  0.87605500  0.25351000  0.12696400  1
  O  O36  1  0.52513900  0.49410300  0.17438900  1
  O  O37  1  0.16088700  0.21523100  0.53215100  1
  O  O38  1  0.53215100  0.16088700  0.21523100  1
  O  O39  1  0.21523100  0.53215100  0.16088700  1
