# generated using pymatgen
data_Li4Co3Ni3(PO4)6
_symmetry_space_group_name_H-M   'P 1'
_cell_length_a   8.29865100
_cell_length_b   8.41416974
_cell_length_c   8.41654350
_cell_angle_alpha   62.83376733
_cell_angle_beta   63.44748869
_cell_angle_gamma   63.42159530
_symmetry_Int_Tables_number   1
_chemical_formula_structural   Li4Co3Ni3(PO4)6
_chemical_formula_sum   'Li4 Co3 Ni3 P6 O24'
_cell_volume   445.31815054
_cell_formula_units_Z   1
loop_
 _symmetry_equiv_pos_site_id
 _symmetry_equiv_pos_as_xyz
  1  'x, y, z'
loop_
 _atom_site_type_symbol
 _atom_site_label
 _atom_site_symmetry_multiplicity
 _atom_site_fract_x
 _atom_site_fract_y
 _atom_site_fract_z
 _atom_site_occupancy
  Li  Li0  1  0.25228200  0.64254100  0.85342000  1
  Li  Li1  1  0.73954400  0.35302300  0.14738000  1
  Li  Li2  1  0.35274900  0.14493800  0.73941100  1
  Li  Li3  1  0.14408200  0.73784400  0.35360300  1
  Co  Co4  1  0.98926100  0.00476200  0.99834200  1
  Co  Co5  1  0.14304900  0.14402900  0.14595900  1
  Co  Co6  1  0.50924800  0.49886900  0.49720900  1
  Ni  Ni7  1  0.64244100  0.64418500  0.64343100  1
  Ni  Ni8  1  0.85862100  0.85496200  0.85491900  1
  Ni  Ni9  1  0.35412400  0.35151500  0.35348700  1
  P  P10  1  0.94704400  0.54855300  0.25267100  1
  P  P11  1  0.55190500  0.24761600  0.95277600  1
  P  P12  1  0.24962000  0.95175700  0.54940800  1
  P  P13  1  0.75340400  0.04626300  0.45425300  1
  P  P14  1  0.44683300  0.75175700  0.04415600  1
  P  P15  1  0.05419600  0.45612300  0.75389600  1
  O  O16  1  0.52742100  0.31467000  0.10610000  1
  O  O17  1  0.31890800  0.10500900  0.52450100  1
  O  O18  1  0.10269500  0.52125900  0.32272100  1
  O  O19  1  0.94511400  0.73941600  0.08951000  1
  O  O20  1  0.98537900  0.38637600  0.18598100  1
  O  O21  1  0.75003000  0.56576600  0.40259600  1
  O  O22  1  0.74973100  0.09729700  0.92787400  1
  O  O23  1  0.54689300  0.41080100  0.76241200  1
  O  O24  1  0.82243200  0.01084500  0.60822600  1
  O  O25  1  0.39671000  0.75102000  0.56956200  1
  O  O26  1  0.90940100  0.07228300  0.25085400  1
  O  O27  1  0.61182600  0.81295800  0.99521600  1
  O  O28  1  0.38882500  0.17588300  0.99476300  1
  O  O29  1  0.10142500  0.92676100  0.75074100  1
  O  O30  1  0.59957000  0.24689300  0.42992500  1
  O  O31  1  0.18129400  0.98950900  0.38852000  1
  O  O32  1  0.43222200  0.59505100  0.24456200  1
  O  O33  1  0.24514600  0.90962900  0.07552900  1
  O  O34  1  0.25306500  0.42762200  0.59662200  1
  O  O35  1  0.04110100  0.60452800  0.81804400  1
  O  O36  1  0.07241800  0.25306900  0.91079800  1
  O  O37  1  0.89025700  0.49945800  0.69324600  1
  O  O38  1  0.68565800  0.89329600  0.48314900  1
  O  O39  1  0.45407700  0.68886500  0.89722500  1
