# generated using pymatgen
data_LiVPO5
_symmetry_space_group_name_H-M   'P 1'
_cell_length_a   9.69256200
_cell_length_b   5.34874400
_cell_length_c   7.51045889
_cell_angle_alpha   70.55815147
_cell_angle_beta   90.00000000
_cell_angle_gamma   90.00000000
_symmetry_Int_Tables_number   1
_chemical_formula_structural   LiVPO5
_chemical_formula_sum   'Li4 V4 P4 O20'
_cell_volume   367.16329747
_cell_formula_units_Z   4
loop_
 _symmetry_equiv_pos_site_id
 _symmetry_equiv_pos_as_xyz
  1  'x, y, z'
loop_
 _atom_site_type_symbol
 _atom_site_label
 _atom_site_symmetry_multiplicity
 _atom_site_fract_x
 _atom_site_fract_y
 _atom_site_fract_z
 _atom_site_occupancy
  Li  Li0  1  0.60554200  0.44587300  0.71386400  1
  Li  Li1  1  0.10554200  0.55412700  0.78613600  1
  Li  Li2  1  0.89445800  0.44587300  0.21386400  1
  Li  Li3  1  0.39445800  0.55412700  0.28613600  1
  V  V4  1  0.42098100  0.01451000  0.65441700  1
  V  V5  1  0.92098100  0.98549000  0.84558300  1
  V  V6  1  0.07901900  0.01451000  0.15441700  1
  V  V7  1  0.57901900  0.98549000  0.34558300  1
  P  P8  1  0.15464500  0.16382300  0.54307900  1
  P  P9  1  0.34535500  0.16382300  0.04307900  1
  P  P10  1  0.65464500  0.83617700  0.95692100  1
  P  P11  1  0.84535500  0.83617700  0.45692100  1
  O  O12  1  0.71316500  0.66576000  0.49880400  1
  O  O13  1  0.21808700  0.88645100  0.65992000  1
  O  O14  1  0.54911100  0.20782300  0.51467000  1
  O  O15  1  0.91544800  0.82419400  0.64413400  1
  O  O16  1  0.04906500  0.25657300  0.66567200  1
  O  O17  1  0.41544800  0.17580600  0.85586600  1
  O  O18  1  0.71808700  0.11354900  0.84008000  1
  O  O19  1  0.21316500  0.33424000  0.00119600  1
  O  O20  1  0.54906500  0.74342700  0.83432800  1
  O  O21  1  0.95088900  0.20782300  0.01467000  1
  O  O22  1  0.04911100  0.79217700  0.98533000  1
  O  O23  1  0.45093500  0.25657300  0.16567200  1
  O  O24  1  0.78683500  0.66576000  0.99880400  1
  O  O25  1  0.28191300  0.88645100  0.15992000  1
  O  O26  1  0.58455200  0.82419400  0.14413400  1
  O  O27  1  0.95093500  0.74342700  0.33432800  1
  O  O28  1  0.08455200  0.17580600  0.35586600  1
  O  O29  1  0.45088900  0.79217700  0.48533000  1
  O  O30  1  0.78191300  0.11354900  0.34008000  1
  O  O31  1  0.28683500  0.33424000  0.50119600  1
