# generated using pymatgen
data_Li9V3P8O29
_symmetry_space_group_name_H-M   'P 1'
_cell_length_a   9.89118400
_cell_length_b   9.94643169
_cell_length_c   13.78026837
_cell_angle_alpha   89.73276842
_cell_angle_beta   89.81552167
_cell_angle_gamma   60.24634114
_symmetry_Int_Tables_number   1
_chemical_formula_structural   Li9V3P8O29
_chemical_formula_sum   'Li18 V6 P16 O58'
_cell_volume   1176.98692183
_cell_formula_units_Z   2
loop_
 _symmetry_equiv_pos_site_id
 _symmetry_equiv_pos_as_xyz
  1  'x, y, z'
loop_
 _atom_site_type_symbol
 _atom_site_label
 _atom_site_symmetry_multiplicity
 _atom_site_fract_x
 _atom_site_fract_y
 _atom_site_fract_z
 _atom_site_occupancy
  Li  Li0  1  0.33531400  0.90482800  0.06202600  1
  Li  Li1  1  0.33136200  0.77104900  0.56248900  1
  Li  Li2  1  0.76401300  0.90249900  0.57305300  1
  Li  Li3  1  0.67146800  0.66251000  0.37839700  1
  Li  Li4  1  0.66371600  0.68715000  0.87794300  1
  Li  Li5  1  0.89502000  0.77102700  0.06455100  1
  Li  Li6  1  0.75935400  0.34631800  0.06538400  1
  Li  Li7  1  0.09627000  0.66904300  0.43593000  1
  Li  Li8  1  0.89979800  0.33246400  0.56525600  1
  Li  Li9  1  0.09675300  0.22968700  0.93055100  1
  Li  Li10  1  0.35743500  0.30352600  0.61910500  1
  Li  Li11  1  0.33207300  0.33529100  0.12254200  1
  Li  Li12  1  0.23363400  0.09576100  0.43818100  1
  Li  Li13  1  0.67091600  0.22926500  0.43844600  1
  Li  Li14  1  0.56861100  0.98752100  0.74319400  1
  Li  Li15  1  0.67557200  0.09434400  0.93049700  1
  Li  Li16  1  0.96169700  0.06755400  0.99920300  1
  Li  Li17  1  0.99569000  0.01311900  0.51239800  1
  V  V18  1  0.99894300  0.56520700  0.24910900  1
  V  V19  1  0.99754100  0.43309700  0.74664200  1
  V  V20  1  0.24402700  0.63934900  0.93791600  1
  V  V21  1  0.44066600  0.56633700  0.73885300  1
  V  V22  1  0.56803700  0.43143200  0.25340300  1
  V  V23  1  0.43629800  0.00151000  0.25024000  1
  P  P24  1  0.31401700  0.90989700  0.84755500  1
  P  P25  1  0.31887000  0.77280100  0.34258400  1
  P  P26  1  0.77454100  0.90984400  0.34424100  1
  P  P27  1  0.66496600  0.66744400  0.12277700  1
  P  P28  1  0.67551400  0.66006100  0.61926200  1
  P  P29  1  0.91074600  0.76845600  0.83971600  1
  P  P30  1  0.09182700  0.68001000  0.65271600  1
  P  P31  1  0.77053200  0.32001200  0.84324700  1
  P  P32  1  0.23303100  0.67397200  0.15777300  1
  P  P33  1  0.91175700  0.31484100  0.34576400  1
  P  P34  1  0.08882400  0.22682900  0.15613900  1
  P  P35  1  0.33304200  0.33345800  0.37669600  1
  P  P36  1  0.32315300  0.34939800  0.88126400  1
  P  P37  1  0.22618400  0.08762300  0.65631700  1
  P  P38  1  0.68648600  0.22189700  0.65535600  1
  P  P39  1  0.68689200  0.09072300  0.15406600  1
  O  O40  1  0.21736500  0.99763400  0.56823300  1
  O  O41  1  0.32863000  0.92162000  0.34382800  1
  O  O42  1  0.25506700  0.74654100  0.06360700  1
  O  O43  1  0.32065600  0.74592000  0.84737300  1
  O  O44  1  0.47636000  0.88534700  0.84397400  1
  O  O45  1  0.51512800  0.81350400  0.16131400  1
  O  O46  1  0.62920100  0.89105400  0.33371200  1
  O  O47  1  0.78167800  0.99971100  0.06574800  1
  O  O48  1  0.76175400  0.91761300  0.85268900  1
  O  O49  1  0.51643900  0.67409300  0.65797700  1
  O  O50  1  0.48215200  0.62996100  0.33197300  1
  O  O51  1  0.68622900  0.79836200  0.65522100  1
  O  O52  1  0.66674900  0.66348900  0.01332000  1
  O  O53  1  0.67626700  0.64263800  0.51016300  1
  O  O54  1  0.81148000  0.67323500  0.16110300  1
  O  O55  1  0.62375900  0.47985500  0.83474500  1
  O  O56  1  0.67020100  0.51728400  0.16304800  1
  O  O57  1  0.92130300  0.74946300  0.34210100  1
  O  O58  1  0.00657300  0.78110200  0.74940800  1
  O  O59  1  0.99612900  0.77205500  0.56545800  1
  O  O60  1  0.01985600  0.74231900  0.93085600  1
  O  O61  1  0.88696700  0.62878200  0.82902400  1
  O  O62  1  0.81200100  0.50362000  0.66227200  1
  O  O63  1  0.07857400  0.67430500  0.15304400  1
  O  O64  1  0.89144400  0.47755300  0.33283000  1
  O  O65  1  0.75230700  0.32464000  0.34611700  1
  O  O66  1  0.22127500  0.78615800  0.24384400  1
  O  O67  1  0.22610900  0.76773100  0.42891300  1
  O  O68  1  0.77846300  0.22654800  0.56691400  1
  O  O69  1  0.25074600  0.67138700  0.64985600  1
  O  O70  1  0.10937400  0.51828600  0.66538300  1
  O  O71  1  0.91881600  0.33287200  0.84479500  1
  O  O72  1  0.18929400  0.48324800  0.33534800  1
  O  O73  1  0.10750900  0.37121500  0.16463600  1
  O  O74  1  0.99389900  0.23047800  0.06776100  1
  O  O75  1  0.00516400  0.22570200  0.43413800  1
  O  O76  1  0.00169000  0.21232900  0.25085700  1
  O  O77  1  0.07298200  0.24396100  0.66027700  1
  O  O78  1  0.31572600  0.49070700  0.82207700  1
  O  O79  1  0.36899900  0.50978400  0.17405200  1
  O  O80  1  0.18244300  0.33316300  0.84956500  1
  O  O81  1  0.29374600  0.42823800  0.98622500  1
  O  O82  1  0.33054700  0.33686700  0.48590500  1
  O  O83  1  0.32730300  0.18795700  0.33770400  1
  O  O84  1  0.52403400  0.37020000  0.66458100  1
  O  O85  1  0.48805800  0.32304400  0.33900000  1
  O  O86  1  0.25056400  0.08141900  0.15362400  1
  O  O87  1  0.21696500  0.99157700  0.75126800  1
  O  O88  1  0.21210300  0.00080000  0.93449500  1
  O  O89  1  0.36746800  0.10736500  0.66335800  1
  O  O90  1  0.47567400  0.20204600  0.87550500  1
  O  O91  1  0.52234500  0.11008700  0.16115400  1
  O  O92  1  0.67480900  0.25070300  0.15562200  1
  O  O93  1  0.77144100  0.23041400  0.93442300  1
  O  O94  1  0.78625200  0.21539300  0.75108800  1
  O  O95  1  0.66839100  0.08061700  0.65633300  1
  O  O96  1  0.77353600  0.00074900  0.43258900  1
  O  O97  1  0.78571300  0.99980800  0.24878800  1
