# generated using pymatgen
data_Li3VCr3O8
_symmetry_space_group_name_H-M   'P 1'
_cell_length_a   5.94278089
_cell_length_b   10.30879047
_cell_length_c   5.94175635
_cell_angle_alpha   106.43453580
_cell_angle_beta   120.14205174
_cell_angle_gamma   90.22135418
_symmetry_Int_Tables_number   1
_chemical_formula_structural   Li3VCr3O8
_chemical_formula_sum   'Li6 V2 Cr6 O16'
_cell_volume   297.21822371
_cell_formula_units_Z   2
loop_
 _symmetry_equiv_pos_site_id
 _symmetry_equiv_pos_as_xyz
  1  'x, y, z'
loop_
 _atom_site_type_symbol
 _atom_site_label
 _atom_site_symmetry_multiplicity
 _atom_site_fract_x
 _atom_site_fract_y
 _atom_site_fract_z
 _atom_site_occupancy
  Li  Li0  1  0.25038200  0.24992700  0.00052700  1
  Li  Li1  1  0.75062800  0.75010800  0.00047700  1
  Li  Li2  1  0.00091000  0.50011800  0.99976500  1
  Li  Li3  1  0.49981700  0.00053000  0.99991400  1
  Li  Li4  1  0.49963900  0.49989800  0.50082000  1
  Li  Li5  1  0.99942600  0.99950500  0.49935500  1
  V  V6  1  0.75097200  0.25021700  0.50076600  1
  V  V7  1  0.25049100  0.74978900  0.50074100  1
  Cr  Cr8  1  0.25048900  0.75074400  0.00150000  1
  Cr  Cr9  1  0.25078700  0.24923600  0.49974800  1
  Cr  Cr10  1  0.99834800  0.50001300  0.49834400  1
  Cr  Cr11  1  0.75046800  0.25067300  0.00129700  1
  Cr  Cr12  1  0.75055600  0.74930900  0.49974200  1
  Cr  Cr13  1  0.49732500  0.99997500  0.49726300  1
  O  O14  1  0.11391200  0.37158500  0.26034400  1
  O  O15  1  0.61340200  0.87167600  0.25962400  1
  O  O16  1  0.38813000  0.12828300  0.74178800  1
  O  O17  1  0.88888600  0.62842800  0.74248400  1
  O  O18  1  0.64884700  0.36581500  0.26790100  1
  O  O19  1  0.14800100  0.86605100  0.26725500  1
  O  O20  1  0.87491600  0.14073500  0.26593300  1
  O  O21  1  0.37570200  0.64071500  0.26660200  1
  O  O22  1  0.09880200  0.36623300  0.71546900  1
  O  O23  1  0.59801300  0.86560600  0.71395900  1
  O  O24  1  0.40097600  0.13386000  0.28174200  1
  O  O25  1  0.90182500  0.63415300  0.28290200  1
  O  O26  1  0.62582000  0.35929800  0.73499700  1
  O  O27  1  0.12507700  0.85923000  0.73407400  1
  O  O28  1  0.84828200  0.13443900  0.73222500  1
  O  O29  1  0.34919100  0.63385900  0.73242900  1
