# generated using pymatgen
data_Li5V3P8O29
_symmetry_space_group_name_H-M   'P 1'
_cell_length_a   9.83529974
_cell_length_b   9.83539713
_cell_length_c   13.99497163
_cell_angle_alpha   90.15542744
_cell_angle_beta   90.15301121
_cell_angle_gamma   59.87056617
_symmetry_Int_Tables_number   1
_chemical_formula_structural   Li5V3P8O29
_chemical_formula_sum   'Li10 V6 P16 O58'
_cell_volume   1170.87935111
_cell_formula_units_Z   2
loop_
 _symmetry_equiv_pos_site_id
 _symmetry_equiv_pos_as_xyz
  1  'x, y, z'
loop_
 _atom_site_type_symbol
 _atom_site_label
 _atom_site_symmetry_multiplicity
 _atom_site_fract_x
 _atom_site_fract_y
 _atom_site_fract_z
 _atom_site_occupancy
  Li  Li0  1  0.91513833  0.77455929  0.05841779  1
  Li  Li1  1  0.90521112  0.32286363  0.56292302  1
  Li  Li2  1  0.66880788  0.66819303  0.88252715  1
  Li  Li3  1  0.77659196  0.31584003  0.05776373  1
  Li  Li4  1  0.31132507  0.91347683  0.05794306  1
  Li  Li5  1  0.68121893  0.22341807  0.44399075  1
  Li  Li6  1  0.32348443  0.77097278  0.56263207  1
  Li  Li7  1  0.67839213  0.09444031  0.93689315  1
  Li  Li8  1  0.08857282  0.68261375  0.44153950  1
  Li  Li9  1  0.22724952  0.09415471  0.44177886  1
  V  V10  1  0.56512489  0.43252667  0.24958338  1
  V  V11  1  0.42639486  0.56617138  0.75383800  1
  V  V12  1  0.56959521  0.99518891  0.74403919  1
  V  V13  1  0.43289367  0.00102291  0.25125665  1
  V  V14  1  0.99898274  0.56713624  0.24735456  1
  V  V15  1  0.00240095  0.43288653  0.75355973  1
  P  P16  1  0.91050084  0.77229467  0.84289394  1
  P  P17  1  0.76957861  0.91367701  0.34071443  1
  P  P18  1  0.91181198  0.32126521  0.34252658  1
  P  P19  1  0.66486665  0.66682323  0.12646599  1
  P  P20  1  0.66425219  0.66319892  0.62747127  1
  P  P21  1  0.77104994  0.31986952  0.84138955  1
  P  P22  1  0.68150834  0.23054541  0.65863926  1
  P  P23  1  0.32099032  0.91052115  0.84183798  1
  P  P24  1  0.67907396  0.08759005  0.15733359  1
  P  P25  1  0.31934594  0.76783327  0.34242040  1
  P  P26  1  0.22988051  0.68412414  0.15783961  1
  P  P27  1  0.33128772  0.33610485  0.37249668  1
  P  P28  1  0.33690954  0.32758001  0.87238147  1
  P  P29  1  0.08585851  0.68104884  0.65861219  1
  P  P30  1  0.23059167  0.08832502  0.65883194  1
  P  P31  1  0.08585412  0.23030078  0.15921121  1
  O  O32  1  0.01148502  0.75796021  0.56661019  1
  O  O33  1  0.91490347  0.74523891  0.33751416  1
  O  O34  1  0.75761523  0.00482966  0.06627101  1
  O  O35  1  0.74623233  0.92155585  0.83997106  1
  O  O36  1  0.88600171  0.62841042  0.82482306  1
  O  O37  1  0.81310573  0.67195409  0.16403981  1
  O  O38  1  0.89749714  0.48052782  0.32363904  1
  O  O39  1  0.99369212  0.23814239  0.07359517  1
  O  O40  1  0.91280750  0.34278274  0.84088646  1
  O  O41  1  0.66403614  0.81218909  0.67258607  1
  O  O42  1  0.61755820  0.90498775  0.32248741  1
  O  O43  1  0.81497007  0.51410921  0.66783661  1
  O  O44  1  0.66748609  0.66077290  0.01907326  1
  O  O45  1  0.65850931  0.66635476  0.52105904  1
  O  O46  1  0.66927928  0.51242955  0.16726006  1
  O  O47  1  0.48668164  0.88996203  0.82744447  1
  O  O48  1  0.51322503  0.81222938  0.16528215  1
  O  O49  1  0.74523009  0.33723578  0.33783108  1
  O  O50  1  0.79054714  0.21160145  0.75027722  1
  O  O51  1  0.75613553  0.24719292  0.56901061  1
  O  O52  1  0.75326722  0.24512247  0.93053899  1
  O  O53  1  0.62099547  0.48565371  0.82559180  1
  O  O54  1  0.51290137  0.66703539  0.66964995  1
  O  O55  1  0.66333363  0.25433738  0.16246421  1
  O  O56  1  0.48021210  0.61665802  0.32120238  1
  O  O57  1  0.33661091  0.91491804  0.34128714  1
  O  O58  1  0.79283367  0.99392442  0.24529181  1
  O  O59  1  0.76237599  0.00604993  0.42609585  1
  O  O60  1  0.24315176  0.99729732  0.56885135  1
  O  O61  1  0.65815924  0.09006569  0.65982417  1
  O  O62  1  0.52471178  0.38521720  0.67923560  1
  O  O63  1  0.34378874  0.74116562  0.83304458  1
  O  O64  1  0.48655751  0.33159511  0.32870350  1
  O  O65  1  0.38269930  0.52200171  0.17799977  1
  O  O66  1  0.24288566  0.76571793  0.07294305  1
  O  O67  1  0.24773090  0.75206953  0.43307187  1
  O  O68  1  0.20787000  0.78684837  0.25389066  1
  O  O69  1  0.25556680  0.66051576  0.66462778  1
  O  O70  1  0.48575535  0.17884693  0.83151130  1
  O  O71  1  0.51933810  0.10296347  0.17582450  1
  O  O72  1  0.33992031  0.47658805  0.82596163  1
  O  O73  1  0.34160456  0.33576486  0.97812884  1
  O  O74  1  0.34083448  0.33475704  0.47881720  1
  O  O75  1  0.18749916  0.48821715  0.33207501  1
  O  O76  1  0.37707503  0.10264379  0.67487907  1
  O  O77  1  0.32700244  0.18761738  0.33371510  1
  O  O78  1  0.08467752  0.66341869  0.15879974  1
  O  O79  1  0.99967152  0.78894976  0.75065401  1
  O  O80  1  0.99557240  0.75887213  0.93350340  1
  O  O81  1  0.09511726  0.52228541  0.67432894  1
  O  O82  1  0.18597771  0.33574249  0.82881641  1
  O  O83  1  0.09532282  0.38190564  0.17701808  1
  O  O84  1  0.25452515  0.08497208  0.16217955  1
  O  O85  1  0.24544051  0.98932419  0.93275495  1
  O  O86  1  0.21205510  0.99849061  0.75055850  1
  O  O87  1  0.08029742  0.25076744  0.65931745  1
  O  O88  1  0.99637319  0.24278974  0.43342566  1
  O  O89  1  0.00579479  0.20683449  0.25454856  1
