# generated using pymatgen
data_NaLi2NiPCO7
_symmetry_space_group_name_H-M   'P 1'
_cell_length_a   5.06703188
_cell_length_b   10.71423193
_cell_length_c   10.71448651
_cell_angle_alpha   75.68519882
_cell_angle_beta   85.92327787
_cell_angle_gamma   85.92468566
_symmetry_Int_Tables_number   1
_chemical_formula_structural   NaLi2NiPCO7
_chemical_formula_sum   'Na4 Li8 Ni4 P4 C4 O28'
_cell_volume   561.33465034
_cell_formula_units_Z   4
loop_
 _symmetry_equiv_pos_site_id
 _symmetry_equiv_pos_as_xyz
  1  'x, y, z'
loop_
 _atom_site_type_symbol
 _atom_site_label
 _atom_site_symmetry_multiplicity
 _atom_site_fract_x
 _atom_site_fract_y
 _atom_site_fract_z
 _atom_site_occupancy
  Na  Na0  1  0.27174400  0.14475500  0.12245100  1
  Na  Na1  1  0.27168200  0.64470500  0.62249800  1
  Na  Na2  1  0.72831100  0.62755100  0.10528400  1
  Na  Na3  1  0.72823900  0.12751700  0.60523200  1
  Li  Li4  1  0.78831800  0.18787500  0.91469200  1
  Li  Li5  1  0.78829500  0.68787500  0.41472500  1
  Li  Li6  1  0.21167600  0.83531800  0.06211800  1
  Li  Li7  1  0.21168700  0.33525400  0.56212600  1
  Li  Li8  1  0.26507800  0.38614300  0.89142700  1
  Li  Li9  1  0.26499600  0.88612000  0.39144200  1
  Li  Li10  1  0.73497400  0.35857000  0.36386300  1
  Li  Li11  1  0.73495900  0.85856400  0.86386100  1
  Ni  Ni12  1  0.79010300  0.04400400  0.29203000  1
  Ni  Ni13  1  0.21019500  0.95796600  0.70589000  1
  Ni  Ni14  1  0.78984200  0.54371800  0.79226800  1
  Ni  Ni15  1  0.21026500  0.45799300  0.20600500  1
  P  P16  1  0.73032400  0.33412800  0.07772600  1
  P  P17  1  0.73027500  0.83410700  0.57771600  1
  P  P18  1  0.26966700  0.67232500  0.91588300  1
  P  P19  1  0.26970100  0.17229700  0.41584200  1
  C  C20  1  0.68694600  0.40544700  0.64172800  1
  C  C21  1  0.68691800  0.90548500  0.14170200  1
  C  C22  1  0.31305700  0.60829000  0.34454600  1
  C  C23  1  0.31303400  0.10829700  0.84450900  1
  O  O24  1  0.39151400  0.19026800  0.90237800  1
  O  O25  1  0.39141200  0.69025200  0.40241000  1
  O  O26  1  0.60850000  0.84762800  0.05973000  1
  O  O27  1  0.60853300  0.34761500  0.55973900  1
  O  O28  1  0.93551200  0.41844800  0.65521700  1
  O  O29  1  0.93551900  0.91848000  0.15519500  1
  O  O30  1  0.06449200  0.59479500  0.33152000  1
  O  O31  1  0.06447000  0.09482700  0.83151900  1
  O  O32  1  0.51304600  0.45456700  0.71526700  1
  O  O33  1  0.51300300  0.95464600  0.21522600  1
  O  O34  1  0.48699900  0.53478800  0.29539800  1
  O  O35  1  0.48696900  0.03479500  0.79532300  1
  O  O36  1  0.79792100  0.18582500  0.11685900  1
  O  O37  1  0.79788800  0.68578100  0.61688900  1
  O  O38  1  0.20199400  0.63316000  0.06420400  1
  O  O39  1  0.20196300  0.13314400  0.56416200  1
  O  O40  1  0.84379800  0.37378500  0.93496900  1
  O  O41  1  0.84371500  0.87380300  0.43494500  1
  O  O42  1  0.15627400  0.81507700  0.87618900  1
  O  O43  1  0.15625500  0.31506800  0.37617300  1
  O  O44  1  0.14859600  0.58479900  0.84311600  1
  O  O45  1  0.14867100  0.08481200  0.34306800  1
  O  O46  1  0.85140600  0.40692100  0.16520400  1
  O  O47  1  0.85130800  0.90689000  0.66520400  1
  O  O48  1  0.42324500  0.36155200  0.08242200  1
  O  O49  1  0.42314600  0.86148400  0.58243000  1
  O  O50  1  0.57677500  0.66753100  0.88854000  1
  O  O51  1  0.57681000  0.16756500  0.38849500  1
