# generated using pymatgen
data_Li4Ti3Mn4Cr2O18
_symmetry_space_group_name_H-M   'P 1'
_cell_length_a   2.93587100
_cell_length_b   9.10050000
_cell_length_c   25.28868500
_cell_angle_alpha   90.00000000
_cell_angle_beta   90.00000000
_cell_angle_gamma   90.00000000
_symmetry_Int_Tables_number   1
_chemical_formula_structural   Li4Ti3Mn4Cr2O18
_chemical_formula_sum   'Li8 Ti6 Mn8 Cr4 O36'
_cell_volume   675.66040613
_cell_formula_units_Z   2
loop_
 _symmetry_equiv_pos_site_id
 _symmetry_equiv_pos_as_xyz
  1  'x, y, z'
loop_
 _atom_site_type_symbol
 _atom_site_label
 _atom_site_symmetry_multiplicity
 _atom_site_fract_x
 _atom_site_fract_y
 _atom_site_fract_z
 _atom_site_occupancy
  Li  Li0  1  0.00000000  0.93309700  0.99522200  1
  Li  Li1  1  0.00000000  0.94951100  0.20866400  1
  Li  Li2  1  0.00000000  0.05048900  0.70866400  1
  Li  Li3  1  0.00000000  0.06690300  0.49522200  1
  Li  Li4  1  0.00000000  0.43244200  0.49715600  1
  Li  Li5  1  0.00000000  0.44394600  0.30430300  1
  Li  Li6  1  0.00000000  0.55605400  0.80430300  1
  Li  Li7  1  0.00000000  0.56755800  0.99715600  1
  Ti  Ti8  1  0.00000000  0.75464900  0.10486500  1
  Ti  Ti9  1  0.00000000  0.24535100  0.60486500  1
  Ti  Ti10  1  0.00000000  0.24715700  0.39351700  1
  Ti  Ti11  1  0.50000000  0.39670600  0.69532100  1
  Ti  Ti12  1  0.50000000  0.60329400  0.19532100  1
  Ti  Ti13  1  0.00000000  0.75284300  0.89351700  1
  Mn  Mn14  1  0.00000000  0.77389400  0.31312300  1
  Mn  Mn15  1  0.50000000  0.89149900  0.58664100  1
  Mn  Mn16  1  0.50000000  0.10850100  0.08664100  1
  Mn  Mn17  1  0.00000000  0.22610600  0.81312300  1
  Mn  Mn18  1  0.00000000  0.26221900  0.18930500  1
  Mn  Mn19  1  0.50000000  0.39040200  0.91291600  1
  Mn  Mn20  1  0.50000000  0.60959800  0.41291600  1
  Mn  Mn21  1  0.00000000  0.73778100  0.68930500  1
  Cr  Cr22  1  0.00000000  0.75006800  0.49969100  1
  Cr  Cr23  1  0.50000000  0.89701100  0.80549500  1
  Cr  Cr24  1  0.50000000  0.10298900  0.30549500  1
  Cr  Cr25  1  0.00000000  0.24993200  0.99969100  1
  O  O26  1  0.00000000  0.74870300  0.42071800  1
  O  O27  1  0.00000000  0.75317300  0.57888200  1
  O  O28  1  0.50000000  0.78638300  0.94190500  1
  O  O29  1  0.50000000  0.80188700  0.16146300  1
  O  O30  1  0.50000000  0.86135700  0.66173200  1
  O  O31  1  0.00000000  0.86388500  0.75570100  1
  O  O32  1  0.50000000  0.90128800  0.50853300  1
  O  O33  1  0.50000000  0.89021000  0.28435100  1
  O  O34  1  0.00000000  0.93273600  0.85915600  1
  O  O35  1  0.00000000  0.96898500  0.08719800  1
  O  O36  1  0.00000000  0.03101500  0.58719800  1
  O  O37  1  0.00000000  0.06726400  0.35915600  1
  O  O38  1  0.50000000  0.10979000  0.78435100  1
  O  O39  1  0.50000000  0.09871200  0.00853300  1
  O  O40  1  0.00000000  0.13611500  0.25570100  1
  O  O41  1  0.50000000  0.13864300  0.16173200  1
  O  O42  1  0.50000000  0.19811300  0.66146300  1
  O  O43  1  0.50000000  0.21361700  0.44190500  1
  O  O44  1  0.00000000  0.24682700  0.07888200  1
  O  O45  1  0.00000000  0.25129700  0.92071800  1
  O  O46  1  0.50000000  0.28547900  0.55895200  1
  O  O47  1  0.50000000  0.30719000  0.33954400  1
  O  O48  1  0.50000000  0.35601200  0.83810500  1
  O  O49  1  0.00000000  0.36446500  0.74288600  1
  O  O50  1  0.50000000  0.40134900  0.99052300  1
  O  O51  1  0.50000000  0.39196600  0.21022900  1
  O  O52  1  0.00000000  0.42875300  0.64218600  1
  O  O53  1  0.00000000  0.47158500  0.41170100  1
  O  O54  1  0.00000000  0.52841500  0.91170100  1
  O  O55  1  0.00000000  0.57124700  0.14218600  1
  O  O56  1  0.50000000  0.60803400  0.71022900  1
  O  O57  1  0.50000000  0.59865100  0.49052300  1
  O  O58  1  0.00000000  0.63553500  0.24288600  1
  O  O59  1  0.50000000  0.64398800  0.33810500  1
  O  O60  1  0.50000000  0.69281000  0.83954400  1
  O  O61  1  0.50000000  0.71452100  0.05895200  1
