# generated using pymatgen
data_LiMn2(BO3)2
_symmetry_space_group_name_H-M   'P 1'
_cell_length_a   5.28782300
_cell_length_b   5.77864535
_cell_length_c   22.10295574
_cell_angle_alpha   89.30754969
_cell_angle_beta   89.32095401
_cell_angle_gamma   66.29310921
_symmetry_Int_Tables_number   1
_chemical_formula_structural   LiMn2(BO3)2
_chemical_formula_sum   'Li5 Mn10 B10 O30'
_cell_volume   618.33162922
_cell_formula_units_Z   5
loop_
 _symmetry_equiv_pos_site_id
 _symmetry_equiv_pos_as_xyz
  1  'x, y, z'
loop_
 _atom_site_type_symbol
 _atom_site_label
 _atom_site_symmetry_multiplicity
 _atom_site_fract_x
 _atom_site_fract_y
 _atom_site_fract_z
 _atom_site_occupancy
  Li  Li0  1  0.38420500  0.05194700  0.38763400  1
  Li  Li1  1  0.02112700  0.14644600  0.81215500  1
  Li  Li2  1  0.98571700  0.85109400  0.18837100  1
  Li  Li3  1  0.57959600  0.65272000  0.98847100  1
  Li  Li4  1  0.61734300  0.94735300  0.61265100  1
  Mn  Mn5  1  0.52173600  0.13317400  0.87881200  1
  Mn  Mn6  1  0.27207400  0.27751400  0.52354000  1
  Mn  Mn7  1  0.87755700  0.06615300  0.32225000  1
  Mn  Mn8  1  0.32855900  0.52368900  0.27886100  1
  Mn  Mn9  1  0.92893600  0.32257300  0.07764000  1
  Mn  Mn10  1  0.07519600  0.66832700  0.92117700  1
  Mn  Mn11  1  0.67229100  0.47767800  0.72304200  1
  Mn  Mn12  1  0.12321400  0.93459700  0.67827300  1
  Mn  Mn13  1  0.72438400  0.72364400  0.47720700  1
  Mn  Mn14  1  0.47806500  0.86725000  0.12295500  1
  B  B15  1  0.57621700  0.00073000  0.74780400  1
  B  B16  1  0.22365800  0.39809200  0.65434200  1
  B  B17  1  0.82579800  0.19422900  0.45067700  1
  B  B18  1  0.37656400  0.40302300  0.14595400  1
  B  B19  1  0.97162800  0.20423500  0.94444800  1
  B  B20  1  0.02384000  0.79965000  0.05245200  1
  B  B21  1  0.62767400  0.59697000  0.85636300  1
  B  B22  1  0.17370800  0.80598000  0.54961700  1
  B  B23  1  0.77526300  0.60271800  0.34608700  1
  B  B24  1  0.42398300  0.99762400  0.25218400  1
  O  O25  1  0.00383400  0.12242300  0.40194900  1
  O  O26  1  0.40298100  0.05743900  0.79604200  1
  O  O27  1  0.47980200  0.12137200  0.30175000  1
  O  O28  1  0.02711500  0.30102600  0.66822500  1
  O  O29  1  0.60690100  0.11886400  0.45766100  1
  O  O30  1  0.17432300  0.29597700  0.93262400  1
  O  O31  1  0.80126900  0.06833900  0.74337100  1
  O  O32  1  0.35185100  0.22749800  0.10508600  1
  O  O33  1  0.94575900  0.04255500  0.89865800  1
  O  O34  1  0.40154200  0.31346100  0.60629900  1
  O  O35  1  0.20305000  0.48781400  0.19356300  1
  O  O36  1  0.79621500  0.28469500  0.99154900  1
  O  O37  1  0.25117100  0.57144600  0.69490800  1
  O  O38  1  0.87635000  0.33799100  0.49503200  1
  O  O39  1  0.41923800  0.51521600  0.86708000  1
  O  O40  1  0.57346600  0.50089500  0.13130600  1
  O  O41  1  0.13002200  0.65574600  0.50539400  1
  O  O42  1  0.75063700  0.42789100  0.30524100  1
  O  O43  1  0.19582200  0.74231300  0.00341800  1
  O  O44  1  0.80346400  0.51428600  0.80882000  1
  O  O45  1  0.59737300  0.68727600  0.39307000  1
  O  O46  1  0.07796200  0.92402200  0.10232000  1
  O  O47  1  0.66420700  0.74928300  0.90250600  1
  O  O48  1  0.19669100  0.93535100  0.25641500  1
  O  O49  1  0.79934300  0.73222900  0.05716400  1
  O  O50  1  0.39088900  0.88699600  0.54195000  1
  O  O51  1  0.97307600  0.69989200  0.33240500  1
  O  O52  1  0.52447300  0.87610900  0.69751700  1
  O  O53  1  0.60228300  0.93147200  0.20390600  1
  O  O54  1  0.99707200  0.87748500  0.59805900  1
