# generated using pymatgen
data_LiNb(TeO4)3
_symmetry_space_group_name_H-M   'P 1'
_cell_length_a   7.44011900
_cell_length_b   7.44439098
_cell_length_c   7.44633260
_cell_angle_alpha   87.37895866
_cell_angle_beta   87.70350131
_cell_angle_gamma   87.49021435
_symmetry_Int_Tables_number   1
_chemical_formula_structural   LiNb(TeO4)3
_chemical_formula_sum   'Li2 Nb2 Te6 O24'
_cell_volume   411.30494616
_cell_formula_units_Z   2
loop_
 _symmetry_equiv_pos_site_id
 _symmetry_equiv_pos_as_xyz
  1  'x, y, z'
loop_
 _atom_site_type_symbol
 _atom_site_label
 _atom_site_symmetry_multiplicity
 _atom_site_fract_x
 _atom_site_fract_y
 _atom_site_fract_z
 _atom_site_occupancy
  Li  Li0  1  0.77667100  0.26911000  0.27283100  1
  Li  Li1  1  0.28362700  0.79239000  0.78737700  1
  Nb  Nb2  1  0.99512500  0.99827200  0.99982700  1
  Nb  Nb3  1  0.49909400  0.99872000  0.49561500  1
  Te  Te4  1  0.99965100  0.49873600  0.99489400  1
  Te  Te5  1  0.99907700  0.99453100  0.49992400  1
  Te  Te6  1  0.49958900  0.00055900  0.99951100  1
  Te  Te7  1  0.99912800  0.49911100  0.49871300  1
  Te  Te8  1  0.49874200  0.49660000  0.99820200  1
  Te  Te9  1  0.49531200  0.49969600  0.49862200  1
  O  O10  1  0.24954700  0.42921000  0.05901300  1
  O  O11  1  0.05638600  0.94439500  0.25396700  1
  O  O12  1  0.05279700  0.25020100  0.42862200  1
  O  O13  1  0.42589400  0.74457200  0.05091100  1
  O  O14  1  0.43988700  0.05808300  0.24279400  1
  O  O15  1  0.24651800  0.56641600  0.43509500  1
  O  O16  1  0.06149000  0.43005000  0.74636700  1
  O  O17  1  0.56084000  0.43043100  0.24709900  1
  O  O18  1  0.24262600  0.93639900  0.56394200  1
  O  O19  1  0.74251900  0.94462800  0.06242700  1
  O  O20  1  0.44163800  0.25522400  0.55452300  1
  O  O21  1  0.93633200  0.25657300  0.05735900  1
  O  O22  1  0.06090300  0.74011400  0.93428300  1
  O  O23  1  0.55326000  0.74099500  0.44057500  1
  O  O24  1  0.25312600  0.04189700  0.93410100  1
  O  O25  1  0.75427500  0.05541900  0.43440700  1
  O  O26  1  0.43212300  0.56527100  0.74886500  1
  O  O27  1  0.93054100  0.55525900  0.24711800  1
  O  O28  1  0.74766200  0.42610600  0.54871100  1
  O  O29  1  0.54801800  0.93706100  0.75400500  1
  O  O30  1  0.56622100  0.25099900  0.93456600  1
  O  O31  1  0.93102000  0.74379200  0.56348400  1
  O  O32  1  0.93885900  0.05103800  0.74371500  1
  O  O33  1  0.74695300  0.56507300  0.93468800  1
