# generated using pymatgen
data_Li4MnNb(WO6)2
_symmetry_space_group_name_H-M   'P 1'
_cell_length_a   7.47487843
_cell_length_b   9.06210494
_cell_length_c   7.49139193
_cell_angle_alpha   113.21190275
_cell_angle_beta   93.30197957
_cell_angle_gamma   67.76356814
_symmetry_Int_Tables_number   1
_chemical_formula_structural   Li4MnNb(WO6)2
_chemical_formula_sum   'Li8 Mn2 Nb2 W4 O24'
_cell_volume   429.18477792
_cell_formula_units_Z   2
loop_
 _symmetry_equiv_pos_site_id
 _symmetry_equiv_pos_as_xyz
  1  'x, y, z'
loop_
 _atom_site_type_symbol
 _atom_site_label
 _atom_site_symmetry_multiplicity
 _atom_site_fract_x
 _atom_site_fract_y
 _atom_site_fract_z
 _atom_site_occupancy
  Li  Li0  1  0.56829400  0.27263500  0.43492600  1
  Li  Li1  1  0.06830700  0.27262100  0.93489700  1
  Li  Li2  1  0.31617600  0.79969800  0.17965200  1
  Li  Li3  1  0.81613700  0.79969700  0.67959800  1
  Li  Li4  1  0.30301100  0.80177000  0.69471900  1
  Li  Li5  1  0.80292800  0.80179000  0.19480800  1
  Li  Li6  1  0.60464300  0.25650400  0.89368600  1
  Li  Li7  1  0.10462000  0.25652300  0.39368300  1
  Mn  Mn8  1  0.49850900  0.99835500  0.50086900  1
  Mn  Mn9  1  0.99874000  0.99811500  0.00085100  1
  Nb  Nb10  1  0.23345900  0.51826900  0.26496900  1
  Nb  Nb11  1  0.73343800  0.51822900  0.76486000  1
  W  W12  1  0.24133100  0.49692900  0.75418500  1
  W  W13  1  0.99881000  0.01284200  0.50924400  1
  W  W14  1  0.49880200  0.01283600  0.00927300  1
  W  W15  1  0.74131100  0.49690900  0.25416300  1
  O  O16  1  0.53961100  0.42607300  0.76733800  1
  O  O17  1  0.03955100  0.42623700  0.26753700  1
  O  O18  1  0.21448300  0.72499000  0.91584300  1
  O  O19  1  0.71449800  0.72497200  0.41580500  1
  O  O20  1  0.04201300  0.04400700  0.27422100  1
  O  O21  1  0.54202200  0.04403700  0.77426600  1
  O  O22  1  0.22530500  0.42706800  0.95683700  1
  O  O23  1  0.72532500  0.42704100  0.45686300  1
  O  O24  1  0.28098200  0.93401600  0.51746400  1
  O  O25  1  0.78101700  0.93399100  0.01750500  1
  O  O26  1  0.06858500  0.74921800  0.30781400  1
  O  O27  1  0.56857100  0.74921100  0.80782400  1
  O  O28  1  0.94760200  0.24501700  0.67375900  1
  O  O29  1  0.44759700  0.24497600  0.17375500  1
  O  O30  1  0.73259200  0.04720000  0.46444500  1
  O  O31  1  0.23261900  0.04716300  0.96445700  1
  O  O32  1  0.79502300  0.55793800  0.02601400  1
  O  O33  1  0.29513400  0.55804400  0.52617300  1
  O  O34  1  0.98545900  0.93423200  0.71129800  1
  O  O35  1  0.48546900  0.93436500  0.21141300  1
  O  O36  1  0.82140200  0.26639000  0.05323400  1
  O  O37  1  0.32134200  0.26646300  0.55323400  1
  O  O38  1  0.47580100  0.55801100  0.20603900  1
  O  O39  1  0.97588500  0.55802200  0.70608200  1
