# generated using pymatgen
data_Li11Co12(PO4)12
_symmetry_space_group_name_H-M   'P 1'
_cell_length_a   7.60263900
_cell_length_b   11.23531045
_cell_length_c   11.28862358
_cell_angle_alpha   69.23690101
_cell_angle_beta   75.00567895
_cell_angle_gamma   83.52580739
_symmetry_Int_Tables_number   1
_chemical_formula_structural   Li11Co12(PO4)12
_chemical_formula_sum   'Li11 Co12 P12 O48'
_cell_volume   870.69228654
_cell_formula_units_Z   1
loop_
 _symmetry_equiv_pos_site_id
 _symmetry_equiv_pos_as_xyz
  1  'x, y, z'
loop_
 _atom_site_type_symbol
 _atom_site_label
 _atom_site_symmetry_multiplicity
 _atom_site_fract_x
 _atom_site_fract_y
 _atom_site_fract_z
 _atom_site_occupancy
  Li  Li0  1  0.00000000  0.50000000  0.50000000  1
  Li  Li1  1  0.00000000  0.00000000  0.50000000  1
  Li  Li2  1  0.33301500  0.83336300  0.50022200  1
  Li  Li3  1  0.66695000  0.66683400  0.50006100  1
  Li  Li4  1  0.33305000  0.33316600  0.49993900  1
  Li  Li5  1  0.66698500  0.16663700  0.49977800  1
  Li  Li6  1  0.66646400  0.16795000  0.99970800  1
  Li  Li7  1  0.00000000  0.00000000  0.00000000  1
  Li  Li8  1  0.32678000  0.33652800  0.99922200  1
  Li  Li9  1  0.33353600  0.83205000  0.00029200  1
  Li  Li10  1  0.67322000  0.66347200  0.00077800  1
  Co  Co11  1  0.07800400  0.33226100  0.78192500  1
  Co  Co12  1  0.74756200  0.99659200  0.77977300  1
  Co  Co13  1  0.41261500  0.66179600  0.78298300  1
  Co  Co14  1  0.26588800  0.01632700  0.72120100  1
  Co  Co15  1  0.60066000  0.34987200  0.72135100  1
  Co  Co16  1  0.93331000  0.67934500  0.72607700  1
  Co  Co17  1  0.06669000  0.32065500  0.27392300  1
  Co  Co18  1  0.73411200  0.98367300  0.27879900  1
  Co  Co19  1  0.39934000  0.65012800  0.27864900  1
  Co  Co20  1  0.92199600  0.66773900  0.21807500  1
  Co  Co21  1  0.25243800  0.00340800  0.22022700  1
  Co  Co22  1  0.58738500  0.33820400  0.21701700  1
  P  P23  1  0.72644300  0.47437400  0.90535800  1
  P  P24  1  0.39190900  0.14203500  0.90477600  1
  P  P25  1  0.05707200  0.80890100  0.90392800  1
  P  P26  1  0.99553000  0.24531600  0.59458600  1
  P  P27  1  0.66182100  0.91121900  0.59542000  1
  P  P28  1  0.32873400  0.57837400  0.59537300  1
  P  P29  1  0.67126600  0.42162600  0.40462700  1
  P  P30  1  0.33817900  0.08878100  0.40458000  1
  P  P31  1  0.00447000  0.75468400  0.40541400  1
  P  P32  1  0.60809100  0.85796500  0.09522400  1
  P  P33  1  0.94292800  0.19109900  0.09607200  1
  P  P34  1  0.27355700  0.52562600  0.09464200  1
  O  O35  1  0.28965500  0.53240600  0.95325200  1
  O  O36  1  0.61359000  0.86397900  0.95480200  1
  O  O37  1  0.94848100  0.19723500  0.95499800  1
  O  O38  1  0.94774300  0.70753600  0.89740400  1
  O  O39  1  0.61866100  0.36808800  0.90090600  1
  O  O40  1  0.28553200  0.03496100  0.90214700  1
  O  O41  1  0.32380200  0.28020400  0.83232500  1
  O  O42  1  0.59917300  0.14348900  0.83255000  1
  O  O43  1  0.26599600  0.80931600  0.83329800  1
  O  O44  1  0.65850100  0.61417100  0.83331300  1
  O  O45  1  0.99340600  0.94979800  0.83277700  1
  O  O46  1  0.92928300  0.47586900  0.82729000  1
  O  O47  1  0.15453900  0.19886200  0.66725300  1
  O  O48  1  0.48809200  0.53133500  0.66799500  1
  O  O49  1  0.82199600  0.86483400  0.66616800  1
  O  O50  1  0.21542800  0.66993000  0.66687500  1
  O  O51  1  0.54652200  0.00224000  0.66722500  1
  O  O52  1  0.88022800  0.33581400  0.66666200  1
  O  O53  1  0.88628700  0.13662100  0.59779300  1
  O  O54  1  0.55250400  0.80260000  0.59899300  1
  O  O55  1  0.21963100  0.47047100  0.59795200  1
  O  O56  1  0.58309000  0.33420300  0.54514900  1
  O  O57  1  0.91724500  0.66733300  0.54582600  1
  O  O58  1  0.25165800  0.00058900  0.54514400  1
  O  O59  1  0.74834200  0.99941100  0.45485600  1
  O  O60  1  0.41691000  0.66579700  0.45485100  1
  O  O61  1  0.08275500  0.33266700  0.45417400  1
  O  O62  1  0.44749600  0.19740000  0.40100700  1
  O  O63  1  0.11371300  0.86337900  0.40220700  1
  O  O64  1  0.78036900  0.52952900  0.40204800  1
  O  O65  1  0.84546100  0.80113800  0.33274700  1
  O  O66  1  0.51190800  0.46866500  0.33200500  1
  O  O67  1  0.11977200  0.66418600  0.33333800  1
  O  O68  1  0.45347800  0.99776000  0.33277500  1
  O  O69  1  0.17800400  0.13516600  0.33383200  1
  O  O70  1  0.78457200  0.33007000  0.33312500  1
  O  O71  1  0.34149900  0.38582900  0.16668700  1
  O  O72  1  0.07071700  0.52413100  0.17271000  1
  O  O73  1  0.67619800  0.71979600  0.16767500  1
  O  O74  1  0.40082700  0.85651100  0.16745000  1
  O  O75  1  0.00659400  0.05020200  0.16722300  1
  O  O76  1  0.73400400  0.19068400  0.16670200  1
  O  O77  1  0.05225700  0.29246400  0.10259600  1
  O  O78  1  0.71446800  0.96503900  0.09785300  1
  O  O79  1  0.38133900  0.63191200  0.09909400  1
  O  O80  1  0.38641000  0.13602100  0.04519800  1
  O  O81  1  0.71034500  0.46759400  0.04674800  1
  O  O82  1  0.05151900  0.80276500  0.04500200  1
