# generated using pymatgen
data_LiMn2F7
_symmetry_space_group_name_H-M   'P 1'
_cell_length_a   5.03414200
_cell_length_b   7.50026200
_cell_length_c   13.14878277
_cell_angle_alpha   83.59763559
_cell_angle_beta   90.00000000
_cell_angle_gamma   90.00000000
_symmetry_Int_Tables_number   1
_chemical_formula_structural   LiMn2F7
_chemical_formula_sum   'Li4 Mn8 F28'
_cell_volume   493.36735387
_cell_formula_units_Z   4
loop_
 _symmetry_equiv_pos_site_id
 _symmetry_equiv_pos_as_xyz
  1  'x, y, z'
loop_
 _atom_site_type_symbol
 _atom_site_label
 _atom_site_symmetry_multiplicity
 _atom_site_fract_x
 _atom_site_fract_y
 _atom_site_fract_z
 _atom_site_occupancy
  Li  Li0  1  0.24081100  0.16273000  0.07946700  1
  Li  Li1  1  0.25918900  0.66273000  0.07946700  1
  Li  Li2  1  0.74081100  0.33727000  0.92053300  1
  Li  Li3  1  0.75918900  0.83727000  0.92053300  1
  Mn  Mn4  1  0.75181000  0.34855600  0.17898800  1
  Mn  Mn5  1  0.74819000  0.84855600  0.17898800  1
  Mn  Mn6  1  0.24634800  0.27800200  0.39106400  1
  Mn  Mn7  1  0.25365200  0.77800200  0.39106400  1
  Mn  Mn8  1  0.74634800  0.22199800  0.60893600  1
  Mn  Mn9  1  0.75365200  0.72199800  0.60893600  1
  Mn  Mn10  1  0.25181000  0.15144400  0.82101200  1
  Mn  Mn11  1  0.24819000  0.65144400  0.82101200  1
  F  F12  1  0.05132300  0.43095500  0.10795300  1
  F  F13  1  0.56435100  0.31440300  0.05382300  1
  F  F14  1  0.91224500  0.09727700  0.17340300  1
  F  F15  1  0.44867700  0.93095500  0.10795300  1
  F  F16  1  0.93564900  0.81440300  0.05382300  1
  F  F17  1  0.58775500  0.59727700  0.17340300  1
  F  F18  1  0.94555800  0.35850000  0.31175300  1
  F  F19  1  0.45701500  0.25476100  0.25375300  1
  F  F20  1  0.55444200  0.85850000  0.31175300  1
  F  F21  1  0.04298500  0.75476100  0.25375300  1
  F  F22  1  0.36134500  0.52762300  0.38937400  1
  F  F23  1  0.13865500  0.02762300  0.38937400  1
  F  F24  1  0.53662900  0.20327700  0.47302500  1
  F  F25  1  0.03662900  0.29672300  0.52697500  1
  F  F26  1  0.96337100  0.70327700  0.47302500  1
  F  F27  1  0.46337100  0.79672300  0.52697500  1
  F  F28  1  0.86134500  0.97237700  0.61062600  1
  F  F29  1  0.63865500  0.47237700  0.61062600  1
  F  F30  1  0.95701500  0.24523900  0.74624700  1
  F  F31  1  0.44555800  0.14150000  0.68824700  1
  F  F32  1  0.54298500  0.74523900  0.74624700  1
  F  F33  1  0.05444200  0.64150000  0.68824700  1
  F  F34  1  0.41224500  0.40272300  0.82659700  1
  F  F35  1  0.06435100  0.18559700  0.94617700  1
  F  F36  1  0.55132300  0.06904500  0.89204700  1
  F  F37  1  0.08775500  0.90272300  0.82659700  1
  F  F38  1  0.43564900  0.68559700  0.94617700  1
  F  F39  1  0.94867700  0.56904500  0.89204700  1
