# generated using pymatgen
data_Li2V2(PO4)3
_symmetry_space_group_name_H-M   'P 1'
_cell_length_a   8.65231500
_cell_length_b   8.72342769
_cell_length_c   12.18821273
_cell_angle_alpha   90.10200049
_cell_angle_beta   90.02658839
_cell_angle_gamma   90.58627961
_symmetry_Int_Tables_number   1
_chemical_formula_structural   Li2V2(PO4)3
_chemical_formula_sum   'Li8 V8 P12 O48'
_cell_volume   919.89029677
_cell_formula_units_Z   4
loop_
 _symmetry_equiv_pos_site_id
 _symmetry_equiv_pos_as_xyz
  1  'x, y, z'
loop_
 _atom_site_type_symbol
 _atom_site_label
 _atom_site_symmetry_multiplicity
 _atom_site_fract_x
 _atom_site_fract_y
 _atom_site_fract_z
 _atom_site_occupancy
  Li  Li0  1  0.77509100  0.22660500  0.81912400  1
  Li  Li1  1  0.71430500  0.77422700  0.31781600  1
  Li  Li2  1  0.71179500  0.72866600  0.68329300  1
  Li  Li3  1  0.30622500  0.26579700  0.31231800  1
  Li  Li4  1  0.21801100  0.72339000  0.82054300  1
  Li  Li5  1  0.21766000  0.77441400  0.18114900  1
  Li  Li6  1  0.07997900  0.08918900  0.70203100  1
  Li  Li7  1  0.03779300  0.41331400  0.27955900  1
  V  V8  1  0.74552000  0.04042700  0.61374500  1
  V  V9  1  0.74195400  0.45850600  0.38256100  1
  V  V10  1  0.74715600  0.54083600  0.88840000  1
  V  V11  1  0.74913900  0.97048300  0.11562400  1
  V  V12  1  0.25778100  0.04187200  0.88544200  1
  V  V13  1  0.25588000  0.46169800  0.11053700  1
  V  V14  1  0.25119500  0.53203300  0.61702900  1
  V  V15  1  0.24578700  0.95731600  0.38738500  1
  P  P16  1  0.96123100  0.74793600  0.50258600  1
  P  P17  1  0.89508400  0.89730600  0.85623000  1
  P  P18  1  0.89270800  0.60855700  0.14563500  1
  P  P19  1  0.60528100  0.39947700  0.64739300  1
  P  P20  1  0.60405900  0.10249400  0.35262800  1
  P  P21  1  0.54152700  0.25074000  0.00213200  1
  P  P22  1  0.46537900  0.75093600  0.00103700  1
  P  P23  1  0.38829300  0.89327500  0.64620800  1
  P  P24  1  0.38819500  0.60435700  0.35641700  1
  P  P25  1  0.10575100  0.10054100  0.14781100  1
  P  P26  1  0.10092100  0.39419400  0.85207300  1
  P  P27  1  0.04394800  0.25145900  0.49705900  1
  O  O28  1  0.94791800  0.35057800  0.41899500  1
  O  O29  1  0.95088200  0.14300600  0.57235000  1
  O  O30  1  0.92059300  0.40937500  0.84423700  1
  O  O31  1  0.92709200  0.08269400  0.15628200  1
  O  O32  1  0.84274800  0.93995800  0.97158800  1
  O  O33  1  0.84270700  0.56710500  0.02788800  1
  O  O34  1  0.83374500  0.73513400  0.82314800  1
  O  O35  1  0.83659000  0.77133500  0.17655800  1
  O  O36  1  0.85854900  0.83940300  0.58260000  1
  O  O37  1  0.85472700  0.66142000  0.42149600  1
  O  O38  1  0.83671000  0.02066300  0.77360200  1
  O  O39  1  0.83145600  0.48857000  0.22825400  1
  O  O40  1  0.67585500  0.51799200  0.73056100  1
  O  O41  1  0.67522800  0.98547100  0.27047900  1
  O  O42  1  0.65088000  0.34437900  0.92454500  1
  O  O43  1  0.64547800  0.15306100  0.07706600  1
  O  O44  1  0.63846700  0.26972100  0.32419300  1
  O  O45  1  0.65410300  0.23600700  0.68076200  1
  O  O46  1  0.65782300  0.43974400  0.53184800  1
  O  O47  1  0.65620100  0.05650400  0.46724800  1
  O  O48  1  0.56415800  0.60559100  0.33931300  1
  O  O49  1  0.56542500  0.89988800  0.65946700  1
  O  O50  1  0.56456200  0.64121100  0.93044100  1
  O  O51  1  0.57080400  0.85628800  0.07136000  1
  O  O52  1  0.44595300  0.35277000  0.07651900  1
  O  O53  1  0.44712400  0.14851900  0.92410900  1
  O  O54  1  0.42663000  0.41545500  0.65546700  1
  O  O55  1  0.42390200  0.08180700  0.34364200  1
  O  O56  1  0.33952500  0.92959400  0.52734000  1
  O  O57  1  0.34274800  0.56610900  0.47412400  1
  O  O58  1  0.33502100  0.72824600  0.67839100  1
  O  O59  1  0.32898800  0.76698100  0.32340200  1
  O  O60  1  0.36120600  0.83623900  0.92077300  1
  O  O61  1  0.36223500  0.66274900  0.08320300  1
  O  O62  1  0.30507200  0.00882800  0.72207000  1
  O  O63  1  0.30611300  0.48391100  0.28032500  1
  O  O64  1  0.17276900  0.51315900  0.77126500  1
  O  O65  1  0.17596400  0.98286100  0.22934200  1
  O  O66  1  0.14330600  0.34759900  0.57676100  1
  O  O67  1  0.15565000  0.16067700  0.42048000  1
  O  O68  1  0.13897200  0.22809700  0.82024700  1
  O  O69  1  0.14913700  0.26647600  0.18506500  1
  O  O70  1  0.15557700  0.43719900  0.96720000  1
  O  O71  1  0.16104700  0.06643000  0.03275200  1
  O  O72  1  0.07177100  0.60333900  0.15634000  1
  O  O73  1  0.07352500  0.89545900  0.84499100  1
  O  O74  1  0.06626000  0.64411600  0.57074100  1
  O  O75  1  0.06203800  0.85824300  0.43017700  1
