# generated using pymatgen
data_Li4Cr3CoO8
_symmetry_space_group_name_H-M   'P 1'
_cell_length_a   5.10246300
_cell_length_b   5.85750986
_cell_length_c   10.55784067
_cell_angle_alpha   74.02828300
_cell_angle_beta   76.20292951
_cell_angle_gamma   73.31669723
_symmetry_Int_Tables_number   1
_chemical_formula_structural   Li4Cr3CoO8
_chemical_formula_sum   'Li8 Cr6 Co2 O16'
_cell_volume   286.20786973
_cell_formula_units_Z   2
loop_
 _symmetry_equiv_pos_site_id
 _symmetry_equiv_pos_as_xyz
  1  'x, y, z'
loop_
 _atom_site_type_symbol
 _atom_site_label
 _atom_site_symmetry_multiplicity
 _atom_site_fract_x
 _atom_site_fract_y
 _atom_site_fract_z
 _atom_site_occupancy
  Li  Li0  1  0.49823200  0.24959200  0.50128300  1
  Li  Li1  1  0.49959500  0.87190400  0.75255900  1
  Li  Li2  1  0.50409800  0.62150600  0.25055000  1
  Li  Li3  1  0.50000000  0.00000000  0.00000000  1
  Li  Li4  1  0.50176800  0.75040800  0.49871700  1
  Li  Li5  1  0.49590200  0.37849400  0.74945000  1
  Li  Li6  1  0.50040500  0.12809600  0.24744100  1
  Li  Li7  1  0.50000000  0.50000000  0.00000000  1
  Cr  Cr8  1  0.99979700  0.06027500  0.62748300  1
  Cr  Cr9  1  0.00005800  0.43690100  0.37340900  1
  Cr  Cr10  1  0.00020400  0.81122800  0.12277100  1
  Cr  Cr11  1  0.99994200  0.56309900  0.62659100  1
  Cr  Cr12  1  0.99979600  0.18877200  0.87722900  1
  Cr  Cr13  1  0.00020300  0.93972500  0.37251700  1
  Co  Co14  1  0.00024900  0.31386800  0.12341500  1
  Co  Co15  1  0.99975100  0.68613200  0.87658500  1
  O  O16  1  0.78131800  0.64392100  0.05746900  1
  O  O17  1  0.22312000  0.47045300  0.18706300  1
  O  O18  1  0.77284100  0.40084700  0.56127200  1
  O  O19  1  0.22751800  0.22363100  0.69093000  1
  O  O20  1  0.22318500  0.84545900  0.93786800  1
  O  O21  1  0.77535500  0.01986500  0.81428800  1
  O  O22  1  0.77248200  0.77636900  0.30907000  1
  O  O23  1  0.22715900  0.59915300  0.43872800  1
  O  O24  1  0.77681500  0.15454100  0.06213200  1
  O  O25  1  0.22464500  0.98013500  0.18571200  1
  O  O26  1  0.77313100  0.90201800  0.56007100  1
  O  O27  1  0.22393900  0.72138500  0.69474600  1
  O  O28  1  0.77688000  0.52954700  0.81293700  1
  O  O29  1  0.77606100  0.27861500  0.30525400  1
  O  O30  1  0.21868200  0.35607900  0.94253100  1
  O  O31  1  0.22686900  0.09798200  0.43992900  1
