# generated using pymatgen
data_LiV6O7F5
_symmetry_space_group_name_H-M   'P 1'
_cell_length_a   6.59720200
_cell_length_b   7.01101800
_cell_length_c   9.26447791
_cell_angle_alpha   89.48660886
_cell_angle_beta   90.00000000
_cell_angle_gamma   90.00000000
_symmetry_Int_Tables_number   1
_chemical_formula_structural   LiV6O7F5
_chemical_formula_sum   'Li2 V12 O14 F10'
_cell_volume   428.49363949
_cell_formula_units_Z   2
loop_
 _symmetry_equiv_pos_site_id
 _symmetry_equiv_pos_as_xyz
  1  'x, y, z'
loop_
 _atom_site_type_symbol
 _atom_site_label
 _atom_site_symmetry_multiplicity
 _atom_site_fract_x
 _atom_site_fract_y
 _atom_site_fract_z
 _atom_site_occupancy
  Li  Li0  1  0.73984900  0.75960300  0.26157300  1
  Li  Li1  1  0.73984900  0.24039700  0.73842700  1
  V  V2  1  0.96979200  0.00000000  0.00000000  1
  V  V3  1  0.50678400  0.00000000  0.50000000  1
  V  V4  1  0.49766000  0.95441500  0.82856400  1
  V  V5  1  0.01344400  0.00450400  0.32792600  1
  V  V6  1  0.49405800  0.51995400  0.67017700  1
  V  V7  1  0.49405800  0.48004600  0.32982300  1
  V  V8  1  0.47968000  0.50000000  0.00000000  1
  V  V9  1  0.01534100  0.52528200  0.17261700  1
  V  V10  1  0.00099100  0.50000000  0.50000000  1
  V  V11  1  0.49766000  0.04558500  0.17143600  1
  V  V12  1  0.01534100  0.47471800  0.82738300  1
  V  V13  1  0.01344400  0.99549600  0.67207400  1
  O  O14  1  0.70840200  0.99480800  0.66458600  1
  O  O15  1  0.67690200  0.00000000  0.00000000  1
  O  O16  1  0.30876500  0.98818900  0.66482600  1
  O  O17  1  0.80264800  0.51258600  0.33256800  1
  O  O18  1  0.80264800  0.48741400  0.66743200  1
  O  O19  1  0.49904800  0.68342300  0.83740700  1
  O  O20  1  0.99218200  0.81233200  0.16786900  1
  O  O21  1  0.49904800  0.31657700  0.16259300  1
  O  O22  1  0.20439000  0.50104300  0.34068200  1
  O  O23  1  0.20439000  0.49895700  0.65931800  1
  O  O24  1  0.18904800  0.50000000  0.00000000  1
  O  O25  1  0.70840200  0.00519200  0.33541400  1
  O  O26  1  0.30876500  0.01181100  0.33517400  1
  O  O27  1  0.99218200  0.18766800  0.83213100  1
  F  F28  1  0.99830100  0.79325800  0.83695700  1
  F  F29  1  0.28483700  0.00000000  0.00000000  1
  F  F30  1  0.79745300  0.50000000  0.00000000  1
  F  F31  1  0.49757100  0.70089400  0.16864500  1
  F  F32  1  0.50844400  0.69746000  0.49224600  1
  F  F33  1  0.99830100  0.20674200  0.16304300  1
  F  F34  1  0.00469300  0.80528800  0.49913400  1
  F  F35  1  0.50844400  0.30254000  0.50775400  1
  F  F36  1  0.49757100  0.29910600  0.83135500  1
  F  F37  1  0.00469300  0.19471200  0.50086600  1
