# generated using pymatgen
data_Li32Mn3Cr13O48
_symmetry_space_group_name_H-M   'P 1'
_cell_length_a   5.03711500
_cell_length_b   8.72059262
_cell_length_c   19.50966394
_cell_angle_alpha   97.95031795
_cell_angle_beta   94.85397402
_cell_angle_gamma   89.53627888
_symmetry_Int_Tables_number   1
_chemical_formula_structural   Li32Mn3Cr13O48
_chemical_formula_sum   'Li32 Mn3 Cr13 O48'
_cell_volume   845.70699745
_cell_formula_units_Z   1
loop_
 _symmetry_equiv_pos_site_id
 _symmetry_equiv_pos_as_xyz
  1  'x, y, z'
loop_
 _atom_site_type_symbol
 _atom_site_label
 _atom_site_symmetry_multiplicity
 _atom_site_fract_x
 _atom_site_fract_y
 _atom_site_fract_z
 _atom_site_occupancy
  Li  Li0  1  0.98963500  0.16964300  0.25003400  1
  Li  Li1  1  0.87511400  0.37503000  0.37508500  1
  Li  Li2  1  0.75095900  0.25003100  0.00006900  1
  Li  Li3  1  0.74380900  0.92095300  0.99976100  1
  Li  Li4  1  0.99209800  0.16896400  0.74954300  1
  Li  Li5  1  0.76071900  0.57943700  0.49964300  1
  Li  Li6  1  0.87426400  0.37514300  0.87491100  1
  Li  Li7  1  0.75259100  0.24969900  0.50024500  1
  Li  Li8  1  0.74197900  0.92079900  0.49951500  1
  Li  Li9  1  0.62682200  0.12646300  0.12469800  1
  Li  Li10  1  0.75952600  0.57939800  0.99976900  1
  Li  Li11  1  0.51229500  0.33157800  0.25019600  1
  Li  Li12  1  0.62459100  0.12578700  0.62474200  1
  Li  Li13  1  0.50192500  0.00013200  0.25065200  1
  Li  Li14  1  0.48960400  0.66829300  0.24933800  1
  Li  Li15  1  0.50759300  0.32964400  0.74968900  1
  Li  Li16  1  0.37477100  0.87408100  0.37495500  1
  Li  Li17  1  0.50349500  0.00150500  0.75056300  1
  Li  Li18  1  0.25277600  0.74911500  0.99947100  1
  Li  Li19  1  0.48988100  0.66912600  0.74982200  1
  Li  Li20  1  0.23929400  0.42087800  0.00021800  1
  Li  Li21  1  0.37484600  0.87395400  0.87487600  1
  Li  Li22  1  0.25440300  0.08054000  0.50034700  1
  Li  Li23  1  0.25344400  0.74940000  0.49960500  1
  Li  Li24  1  0.12324400  0.62339800  0.12516600  1
  Li  Li25  1  0.24051900  0.41987300  0.50044100  1
  Li  Li26  1  0.00795100  0.83052500  0.25059900  1
  Li  Li27  1  0.25361700  0.07897100  0.99995900  1
  Li  Li28  1  0.12269300  0.62328000  0.62523300  1
  Li  Li29  1  0.99946100  0.50052500  0.24957600  1
  Li  Li30  1  0.00718400  0.83053300  0.75076100  1
  Li  Li31  1  0.99837900  0.50098300  0.74922900  1
  Mn  Mn32  1  0.87461800  0.04208700  0.37452500  1
  Mn  Mn33  1  0.87358500  0.04164900  0.87422700  1
  Mn  Mn34  1  0.12364700  0.29005900  0.62435900  1
  Cr  Cr35  1  0.87451800  0.71231900  0.37529300  1
  Cr  Cr36  1  0.87640800  0.71210100  0.87535600  1
  Cr  Cr37  1  0.62838400  0.79741400  0.12594700  1
  Cr  Cr38  1  0.61956300  0.46167800  0.12534500  1
  Cr  Cr39  1  0.63093900  0.79700600  0.62643900  1
  Cr  Cr40  1  0.61690600  0.45823600  0.62450800  1
  Cr  Cr41  1  0.38086300  0.53849200  0.37559500  1
  Cr  Cr42  1  0.36847700  0.20526600  0.37462500  1
  Cr  Cr43  1  0.38273200  0.53915500  0.87577700  1
  Cr  Cr44  1  0.36610400  0.20612700  0.87462500  1
  Cr  Cr45  1  0.12208200  0.95236900  0.12410400  1
  Cr  Cr46  1  0.13019700  0.28813100  0.12471600  1
  Cr  Cr47  1  0.12710600  0.95393100  0.62510800  1
  O  O48  1  0.96347300  0.10238400  0.06869200  1
  O  O49  1  0.93668000  0.78740600  0.06874600  1
  O  O50  1  0.92619900  0.42682600  0.06797200  1
  O  O51  1  0.96341300  0.10758000  0.56955400  1
  O  O52  1  0.81351600  0.96283900  0.18128300  1
  O  O53  1  0.82395500  0.32375400  0.18210700  1
  O  O54  1  0.93744300  0.79052300  0.56891900  1
  O  O55  1  0.93006100  0.42756600  0.56772600  1
  O  O56  1  0.78584600  0.64788000  0.18140600  1
  O  O57  1  0.71245600  0.85940400  0.31915300  1
  O  O58  1  0.81463800  0.96269300  0.68156700  1
  O  O59  1  0.82330900  0.32419800  0.68165400  1
  O  O60  1  0.67094100  0.53717300  0.31911400  1
  O  O61  1  0.68108100  0.17804000  0.31772500  1
  O  O62  1  0.78331700  0.64564700  0.68149100  1
  O  O63  1  0.71166600  0.85931000  0.81918200  1
  O  O64  1  0.46820900  0.60603700  0.06962000  1
  O  O65  1  0.58133500  0.71457000  0.43139700  1
  O  O66  1  0.57393500  0.07350000  0.43161400  1
  O  O67  1  0.67160300  0.53745900  0.81902800  1
  O  O68  1  0.68052100  0.17836400  0.81796500  1
  O  O69  1  0.43376100  0.92327600  0.06718000  1
  O  O70  1  0.41846500  0.28440700  0.06853600  1
  O  O71  1  0.53250600  0.39285700  0.43130100  1
  O  O72  1  0.47130300  0.60578000  0.56948000  1
  O  O73  1  0.57998500  0.71508400  0.93144700  1
  O  O74  1  0.57365000  0.07369200  0.93163200  1
  O  O75  1  0.31627600  0.82670800  0.18285600  1
  O  O76  1  0.33068200  0.46589800  0.18143600  1
  O  O77  1  0.43476400  0.92270700  0.56727100  1
  O  O78  1  0.42429500  0.28348000  0.56874100  1
  O  O79  1  0.53217400  0.39466000  0.93155000  1
  O  O80  1  0.28175200  0.14370200  0.18044300  1
  O  O81  1  0.21927000  0.35321600  0.31872100  1
  O  O82  1  0.31718900  0.82661500  0.68310200  1
  O  O83  1  0.32074500  0.46286600  0.68056800  1
  O  O84  1  0.17106900  0.67651800  0.31797100  1
  O  O85  1  0.17564700  0.03456800  0.31881600  1
  O  O86  1  0.28519700  0.14293700  0.68053800  1
  O  O87  1  0.21940600  0.35263500  0.81890400  1
  O  O88  1  0.07854900  0.57326200  0.43243100  1
  O  O89  1  0.06812200  0.21355600  0.43038500  1
  O  O90  1  0.17165400  0.67548100  0.81795900  1
  O  O91  1  0.17456600  0.03348300  0.81883700  1
  O  O92  1  0.03733500  0.89559200  0.43099400  1
  O  O93  1  0.07666200  0.57240000  0.93239400  1
  O  O94  1  0.06936400  0.21315500  0.93046100  1
  O  O95  1  0.03640300  0.89461000  0.93086900  1
