# generated using pymatgen
data_Li2Co(PO3)4
_symmetry_space_group_name_H-M   'P 1'
_cell_length_a   10.28333800
_cell_length_b   9.23189700
_cell_length_c   9.42744282
_cell_angle_alpha   87.79130799
_cell_angle_beta   90.00000000
_cell_angle_gamma   90.00000000
_symmetry_Int_Tables_number   1
_chemical_formula_structural   Li2Co(PO3)4
_chemical_formula_sum   'Li8 Co4 P16 O48'
_cell_volume   894.32671267
_cell_formula_units_Z   4
loop_
 _symmetry_equiv_pos_site_id
 _symmetry_equiv_pos_as_xyz
  1  'x, y, z'
loop_
 _atom_site_type_symbol
 _atom_site_label
 _atom_site_symmetry_multiplicity
 _atom_site_fract_x
 _atom_site_fract_y
 _atom_site_fract_z
 _atom_site_occupancy
  Li  Li0  1  0.31726700  0.09870200  0.49386600  1
  Li  Li1  1  0.82170800  0.59562200  0.00426800  1
  Li  Li2  1  0.32170800  0.40437800  0.49573200  1
  Li  Li3  1  0.67829200  0.59562200  0.50426800  1
  Li  Li4  1  0.81726700  0.90129800  0.00613400  1
  Li  Li5  1  0.18273300  0.09870200  0.99386600  1
  Li  Li6  1  0.68273300  0.90129800  0.50613400  1
  Li  Li7  1  0.17829200  0.40437800  0.99573200  1
  Co  Co8  1  0.30229000  0.74813400  0.51740500  1
  Co  Co9  1  0.19771000  0.74813400  0.01740500  1
  Co  Co10  1  0.69771000  0.25186600  0.48259500  1
  Co  Co11  1  0.80229000  0.25186600  0.98259500  1
  P  P12  1  0.89360000  0.73114900  0.30247100  1
  P  P13  1  0.38865900  0.94895000  0.79212500  1
  P  P14  1  0.39360000  0.26885100  0.19752900  1
  P  P15  1  0.61134100  0.05105000  0.20787500  1
  P  P16  1  0.47065300  0.75791700  0.23031900  1
  P  P17  1  0.97065300  0.24208300  0.26968100  1
  P  P18  1  0.02934700  0.75791700  0.73031900  1
  P  P19  1  0.39624100  0.52227500  0.79358400  1
  P  P20  1  0.60640000  0.73114900  0.80247100  1
  P  P21  1  0.89624100  0.47772500  0.70641600  1
  P  P22  1  0.88865900  0.05105000  0.70787500  1
  P  P23  1  0.10375900  0.52227500  0.29358400  1
  P  P24  1  0.11134100  0.94895000  0.29212500  1
  P  P25  1  0.60375900  0.47772500  0.20641600  1
  P  P26  1  0.52934700  0.24208300  0.76968100  1
  P  P27  1  0.10640000  0.26885100  0.69752900  1
  O  O28  1  0.28008900  0.25186500  0.10060000  1
  O  O29  1  0.72920600  0.06327400  0.11291700  1
  O  O30  1  0.62617500  0.74768100  0.64515200  1
  O  O31  1  0.12615500  0.93629600  0.13375600  1
  O  O32  1  0.77079400  0.06327400  0.61291700  1
  O  O33  1  0.46285500  0.74985000  0.39030500  1
  O  O34  1  0.37382500  0.25231900  0.35484800  1
  O  O35  1  0.46126100  0.09586300  0.82740700  1
  O  O36  1  0.99123800  0.16557000  0.64460200  1
  O  O37  1  0.14926000  0.73701000  0.64584700  1
  O  O38  1  0.53895100  0.57659300  0.84201800  1
  O  O39  1  0.96126100  0.90413700  0.67259300  1
  O  O40  1  0.41690300  0.35150300  0.81944800  1
  O  O41  1  0.37865600  0.55795000  0.63644400  1
  O  O42  1  0.79138000  0.43559700  0.60469200  1
  O  O43  1  0.46104900  0.42340700  0.15798200  1
  O  O44  1  0.22920600  0.93672600  0.38708300  1
  O  O45  1  0.87384500  0.06370400  0.86624400  1
  O  O46  1  0.03714500  0.74985000  0.89030500  1
  O  O47  1  0.03895100  0.42340700  0.65798200  1
  O  O48  1  0.91690300  0.64849700  0.68055200  1
  O  O49  1  0.62615500  0.06370400  0.36624400  1
  O  O50  1  0.50876200  0.16557000  0.14460200  1
  O  O51  1  0.12617500  0.25231900  0.85484800  1
  O  O52  1  0.53873900  0.90413700  0.17259300  1
  O  O53  1  0.71991100  0.74813500  0.89940000  1
  O  O54  1  0.37384500  0.93629600  0.63375600  1
  O  O55  1  0.64926000  0.26299000  0.85415300  1
  O  O56  1  0.27079400  0.93672600  0.88708300  1
  O  O57  1  0.96104900  0.57659300  0.34201800  1
  O  O58  1  0.03873900  0.09586300  0.32740700  1
  O  O59  1  0.29138000  0.56440300  0.89530800  1
  O  O60  1  0.53714500  0.25015000  0.60969500  1
  O  O61  1  0.85074000  0.26299000  0.35415300  1
  O  O62  1  0.87865600  0.44205000  0.86355600  1
  O  O63  1  0.58309700  0.64849700  0.18055200  1
  O  O64  1  0.87382500  0.74768100  0.14515200  1
  O  O65  1  0.70862000  0.43559700  0.10469200  1
  O  O66  1  0.20862000  0.56440300  0.39530800  1
  O  O67  1  0.21991100  0.25186500  0.60060000  1
  O  O68  1  0.00876200  0.83443000  0.35539800  1
  O  O69  1  0.96285500  0.25015000  0.10969500  1
  O  O70  1  0.08309700  0.35150300  0.31944800  1
  O  O71  1  0.12134400  0.55795000  0.13644400  1
  O  O72  1  0.35074000  0.73701000  0.14584700  1
  O  O73  1  0.62134400  0.44205000  0.36355600  1
  O  O74  1  0.78008900  0.74813500  0.39940000  1
  O  O75  1  0.49123800  0.83443000  0.85539800  1
