# generated using pymatgen
data_LiNi2(PO4)2
_symmetry_space_group_name_H-M   'P 1'
_cell_length_a   4.97831300
_cell_length_b   10.01811000
_cell_length_c   14.02993100
_cell_angle_alpha   90.00000000
_cell_angle_beta   90.00000000
_cell_angle_gamma   90.00000000
_symmetry_Int_Tables_number   1
_chemical_formula_structural   LiNi2(PO4)2
_chemical_formula_sum   'Li4 Ni8 P8 O32'
_cell_volume   699.71877884
_cell_formula_units_Z   4
loop_
 _symmetry_equiv_pos_site_id
 _symmetry_equiv_pos_as_xyz
  1  'x, y, z'
loop_
 _atom_site_type_symbol
 _atom_site_label
 _atom_site_symmetry_multiplicity
 _atom_site_fract_x
 _atom_site_fract_y
 _atom_site_fract_z
 _atom_site_occupancy
  Li  Li0  1  0.54989300  0.22601500  0.24916400  1
  Li  Li1  1  0.54989300  0.27398500  0.74916400  1
  Li  Li2  1  0.45010700  0.72601500  0.24916400  1
  Li  Li3  1  0.45010700  0.77398500  0.74916400  1
  Ni  Ni4  1  0.05795500  0.03570500  0.24799700  1
  Ni  Ni5  1  0.54278100  0.23101800  0.99931600  1
  Ni  Ni6  1  0.54278100  0.26898200  0.49931600  1
  Ni  Ni7  1  0.05795500  0.46429500  0.74799700  1
  Ni  Ni8  1  0.94204500  0.53570500  0.24799700  1
  Ni  Ni9  1  0.45721900  0.73101800  0.99931600  1
  Ni  Ni10  1  0.45721900  0.76898200  0.49931600  1
  Ni  Ni11  1  0.94204500  0.96429500  0.74799700  1
  P  P12  1  0.43818100  0.02503000  0.62405500  1
  P  P13  1  0.05377600  0.21412900  0.87153400  1
  P  P14  1  0.05377600  0.28587100  0.37153400  1
  P  P15  1  0.43818100  0.47497000  0.12405500  1
  P  P16  1  0.56181900  0.52503000  0.62405500  1
  P  P17  1  0.94622400  0.71412900  0.87153400  1
  P  P18  1  0.94622400  0.78587100  0.37153400  1
  P  P19  1  0.56181900  0.97497000  0.12405500  1
  O  O20  1  0.86996000  0.99581500  0.13950300  1
  O  O21  1  0.48459700  0.04100400  0.03043600  1
  O  O22  1  0.42342200  0.04400700  0.21232300  1
  O  O23  1  0.98943300  0.06309200  0.85525100  1
  O  O24  1  0.50644800  0.17541000  0.62547200  1
  O  O25  1  0.93760100  0.20977300  0.28250800  1
  O  O26  1  0.92203500  0.24573500  0.46492200  1
  O  O27  1  0.36009500  0.23920300  0.87247600  1
  O  O28  1  0.36009500  0.26079700  0.37247600  1
  O  O29  1  0.92203500  0.25426500  0.96492200  1
  O  O30  1  0.93760100  0.29022700  0.78250800  1
  O  O31  1  0.50644800  0.32459000  0.12547200  1
  O  O32  1  0.98943300  0.43690800  0.35525100  1
  O  O33  1  0.42342200  0.45599300  0.71232300  1
  O  O34  1  0.48459700  0.45899600  0.53043600  1
  O  O35  1  0.86996000  0.50418500  0.63950300  1
  O  O36  1  0.13004000  0.49581500  0.13950300  1
  O  O37  1  0.51540300  0.54100400  0.03043600  1
  O  O38  1  0.57657800  0.54400700  0.21232300  1
  O  O39  1  0.01056700  0.56309200  0.85525100  1
  O  O40  1  0.49355200  0.67541000  0.62547200  1
  O  O41  1  0.06239900  0.70977300  0.28250800  1
  O  O42  1  0.07796500  0.74573500  0.46492200  1
  O  O43  1  0.63990500  0.73920300  0.87247600  1
  O  O44  1  0.63990500  0.76079700  0.37247600  1
  O  O45  1  0.07796500  0.75426500  0.96492200  1
  O  O46  1  0.06239900  0.79022700  0.78250800  1
  O  O47  1  0.49355200  0.82459000  0.12547200  1
  O  O48  1  0.01056700  0.93690800  0.35525100  1
  O  O49  1  0.57657800  0.95599300  0.71232300  1
  O  O50  1  0.51540300  0.95899600  0.53043600  1
  O  O51  1  0.13004000  0.00418500  0.63950300  1
