# generated using pymatgen
data_Li2Mn3(BO3)3
_symmetry_space_group_name_H-M   'P 1'
_cell_length_a   6.20586400
_cell_length_b   7.82164675
_cell_length_c   9.10000410
_cell_angle_alpha   109.23152497
_cell_angle_beta   107.50501077
_cell_angle_gamma   100.17338313
_symmetry_Int_Tables_number   1
_chemical_formula_structural   Li2Mn3(BO3)3
_chemical_formula_sum   'Li4 Mn6 B6 O18'
_cell_volume   378.64893738
_cell_formula_units_Z   2
loop_
 _symmetry_equiv_pos_site_id
 _symmetry_equiv_pos_as_xyz
  1  'x, y, z'
loop_
 _atom_site_type_symbol
 _atom_site_label
 _atom_site_symmetry_multiplicity
 _atom_site_fract_x
 _atom_site_fract_y
 _atom_site_fract_z
 _atom_site_occupancy
  Li  Li0  1  0.01626000  0.32940200  0.28560300  1
  Li  Li1  1  0.33687200  0.99525700  0.39410600  1
  Li  Li2  1  0.65489900  0.34202500  0.05231200  1
  Li  Li3  1  0.00410800  0.65976400  0.71853200  1
  Mn  Mn4  1  0.39894500  0.63762200  0.61900900  1
  Mn  Mn5  1  0.29877100  0.04715900  0.72665600  1
  Mn  Mn6  1  0.04044000  0.29492300  0.92982000  1
  Mn  Mn7  1  0.96673300  0.71475500  0.05847400  1
  Mn  Mn8  1  0.70739500  0.94463100  0.27458800  1
  Mn  Mn9  1  0.61087300  0.36427200  0.38562100  1
  B  B10  1  0.71505600  0.97862900  0.95594600  1
  B  B11  1  0.61902700  0.37080300  0.71959000  1
  B  B12  1  0.96139000  0.69484900  0.38635400  1
  B  B13  1  0.05790800  0.29355300  0.60362900  1
  B  B14  1  0.35423400  0.63312200  0.28227200  1
  B  B15  1  0.28292300  0.02667700  0.04826700  1
  O  O16  1  0.54174700  0.92066800  0.79410200  1
  O  O17  1  0.33136900  0.50108800  0.35428600  1
  O  O18  1  0.85833000  0.16286100  0.04613900  1
  O  O19  1  0.32894700  0.15677500  0.97601600  1
  O  O20  1  0.74490000  0.43004300  0.89181800  1
  O  O21  1  0.09188600  0.76543900  0.55926400  1
  O  O22  1  0.46090100  0.19053500  0.62172900  1
  O  O23  1  0.81193900  0.51168500  0.29260100  1
  O  O24  1  0.99779000  0.81588300  0.30450600  1
  O  O25  1  0.05146100  0.16927400  0.68830500  1
  O  O26  1  0.18786900  0.47980900  0.69549100  1
  O  O27  1  0.51363200  0.80895300  0.37200700  1
  O  O28  1  0.91375300  0.22473600  0.43298400  1
  O  O29  1  0.19524700  0.57640300  0.11380200  1
  O  O30  1  0.72218700  0.84340800  0.02653900  1
  O  O31  1  0.11906500  0.85043600  0.94761200  1
  O  O32  1  0.66771200  0.49501600  0.64397400  1
  O  O33  1  0.40891700  0.08005700  0.21951600  1
