# generated using pymatgen
data_Li3VOF4
_symmetry_space_group_name_H-M   'P 1'
_cell_length_a   7.68066400
_cell_length_b   10.22067888
_cell_length_c   10.77929357
_cell_angle_alpha   90.52018380
_cell_angle_beta   109.11422744
_cell_angle_gamma   90.64013060
_symmetry_Int_Tables_number   1
_chemical_formula_structural   Li3VOF4
_chemical_formula_sum   'Li24 V8 O8 F32'
_cell_volume   799.41668259
_cell_formula_units_Z   8
loop_
 _symmetry_equiv_pos_site_id
 _symmetry_equiv_pos_as_xyz
  1  'x, y, z'
loop_
 _atom_site_type_symbol
 _atom_site_label
 _atom_site_symmetry_multiplicity
 _atom_site_fract_x
 _atom_site_fract_y
 _atom_site_fract_z
 _atom_site_occupancy
  Li  Li0  1  0.11002800  0.77926900  0.86618700  1
  Li  Li1  1  0.18669000  0.39186100  0.91171700  1
  Li  Li2  1  0.09176900  0.06363000  0.66200800  1
  Li  Li3  1  0.09800700  0.44170700  0.64973800  1
  Li  Li4  1  0.40725400  0.94643000  0.84217300  1
  Li  Li5  1  0.41373800  0.57248700  0.84034700  1
  Li  Li6  1  0.38126400  0.75380100  0.61870300  1
  Li  Li7  1  0.83841700  0.43993400  0.90927100  1
  Li  Li8  1  0.84896400  0.06026800  0.90366000  1
  Li  Li9  1  0.38776100  0.22483900  0.62854300  1
  Li  Li10  1  0.34656900  0.05596400  0.40408500  1
  Li  Li11  1  0.35738200  0.44360400  0.41618900  1
  Li  Li12  1  0.67310400  0.95412900  0.60123400  1
  Li  Li13  1  0.66519400  0.56272300  0.59436700  1
  Li  Li14  1  0.61463800  0.75095800  0.37453500  1
  Li  Li15  1  0.15555600  0.94692600  0.09607800  1
  Li  Li16  1  0.15567100  0.57344600  0.10275500  1
  Li  Li17  1  0.63575000  0.26795200  0.38366900  1
  Li  Li18  1  0.90104300  0.94282300  0.34216000  1
  Li  Li19  1  0.89391500  0.55380900  0.33806800  1
  Li  Li20  1  0.59268400  0.05285000  0.15842100  1
  Li  Li21  1  0.58858800  0.43560500  0.15520700  1
  Li  Li22  1  0.86627900  0.75152900  0.12220700  1
  Li  Li23  1  0.87525700  0.23072200  0.12864600  1
  V  V24  1  0.50575800  0.25402500  0.90334900  1
  V  V25  1  0.99679800  0.75049500  0.59670900  1
  V  V26  1  0.74329900  0.74829100  0.84513500  1
  V  V27  1  0.76377200  0.25257800  0.65864500  1
  V  V28  1  0.24294200  0.75179300  0.34681800  1
  V  V29  1  0.25138800  0.25282700  0.15240500  1
  V  V30  1  0.00873900  0.24876300  0.40454600  1
  V  V31  1  0.48892600  0.74166000  0.09362600  1
  O  O32  1  0.61389200  0.74156400  0.96779400  1
  O  O33  1  0.63981700  0.25662500  0.78364000  1
  O  O34  1  0.12703700  0.75430500  0.47658000  1
  O  O35  1  0.12732900  0.25020600  0.27740000  1
  O  O36  1  0.86561800  0.74938700  0.71810300  1
  O  O37  1  0.89234200  0.25020800  0.53486500  1
  O  O38  1  0.35783900  0.74397700  0.21577300  1
  O  O39  1  0.37880000  0.26535700  0.02784400  1
  F  F40  1  0.17683600  0.88434100  0.71637100  1
  F  F41  1  0.18456900  0.62360800  0.71124000  1
  F  F42  1  0.67230200  0.10591200  0.00774200  1
  F  F43  1  0.69513800  0.38698600  0.01874800  1
  F  F44  1  0.32796400  0.12213900  0.78050600  1
  F  F45  1  0.32648700  0.39230700  0.79410700  1
  F  F46  1  0.93444700  0.88049100  0.95911600  1
  F  F47  1  0.93411000  0.62272700  0.95976300  1
  F  F48  1  0.18177600  0.10474300  0.50695700  1
  F  F49  1  0.19531300  0.38796000  0.51203600  1
  F  F50  1  0.56136600  0.88674100  0.73770200  1
  F  F51  1  0.56604400  0.60796800  0.73403000  1
  F  F52  1  0.44106100  0.88184600  0.45723400  1
  F  F53  1  0.43908600  0.62506200  0.45926900  1
  F  F54  1  0.05277900  0.61395600  0.24110000  1
  F  F55  1  0.06357000  0.89121900  0.24061300  1
  F  F56  1  0.94490800  0.40103000  0.76557000  1
  F  F57  1  0.89009400  0.07860300  0.73554800  1
  F  F58  1  0.58661600  0.38664700  0.54211100  1
  F  F59  1  0.55741200  0.12992900  0.53896700  1
  F  F60  1  0.42256600  0.10473800  0.25092800  1
  F  F61  1  0.43632500  0.38934500  0.26812900  1
  F  F62  1  0.81401400  0.88571100  0.48508100  1
  F  F63  1  0.82345200  0.60576200  0.48887600  1
  F  F64  1  0.05612700  0.12142300  0.04514200  1
  F  F65  1  0.07464800  0.39344800  0.04591700  1
  F  F66  1  0.67927300  0.87620300  0.20555200  1
  F  F67  1  0.67529500  0.61597700  0.21040700  1
  F  F68  1  0.32045900  0.58609200  0.99228600  1
  F  F69  1  0.31486400  0.88692700  0.98851800  1
  F  F70  1  0.81491200  0.11825900  0.28886600  1
  F  F71  1  0.81050200  0.37559300  0.29688700  1
