# generated using pymatgen
data_LiV2F7
_symmetry_space_group_name_H-M   'P 1'
_cell_length_a   5.40283400
_cell_length_b   7.45877800
_cell_length_c   11.71867000
_cell_angle_alpha   90.00000000
_cell_angle_beta   90.00000000
_cell_angle_gamma   90.00000000
_symmetry_Int_Tables_number   1
_chemical_formula_structural   LiV2F7
_chemical_formula_sum   'Li4 V8 F28'
_cell_volume   472.24528444
_cell_formula_units_Z   4
loop_
 _symmetry_equiv_pos_site_id
 _symmetry_equiv_pos_as_xyz
  1  'x, y, z'
loop_
 _atom_site_type_symbol
 _atom_site_label
 _atom_site_symmetry_multiplicity
 _atom_site_fract_x
 _atom_site_fract_y
 _atom_site_fract_z
 _atom_site_occupancy
  Li  Li0  1  0.38445500  0.25000000  0.65021700  1
  Li  Li1  1  0.88445500  0.75000000  0.84978300  1
  Li  Li2  1  0.11554500  0.25000000  0.15021700  1
  Li  Li3  1  0.61554500  0.75000000  0.34978300  1
  V  V4  1  0.87497200  0.47758200  0.62565600  1
  V  V5  1  0.87497200  0.02241800  0.62565600  1
  V  V6  1  0.37497200  0.52241800  0.87434400  1
  V  V7  1  0.37497200  0.97758200  0.87434400  1
  V  V8  1  0.62502800  0.47758200  0.12565600  1
  V  V9  1  0.62502800  0.02241800  0.12565600  1
  V  V10  1  0.12502800  0.52241800  0.37434400  1
  V  V11  1  0.12502800  0.97758200  0.37434400  1
  F  F12  1  0.20425800  0.02405600  0.54210300  1
  F  F13  1  0.20425800  0.47594400  0.54210300  1
  F  F14  1  0.68975900  0.25000000  0.56598000  1
  F  F15  1  0.82609400  0.75000000  0.62585600  1
  F  F16  1  0.03510900  0.25000000  0.68420200  1
  F  F17  1  0.55883600  0.45203500  0.72780700  1
  F  F18  1  0.55883600  0.04796500  0.72780700  1
  F  F19  1  0.05883600  0.54796500  0.77219300  1
  F  F20  1  0.05883600  0.95203500  0.77219300  1
  F  F21  1  0.53510900  0.75000000  0.81579800  1
  F  F22  1  0.32609400  0.25000000  0.87414400  1
  F  F23  1  0.18975900  0.75000000  0.93402000  1
  F  F24  1  0.70425800  0.97594400  0.95789700  1
  F  F25  1  0.70425800  0.52405600  0.95789700  1
  F  F26  1  0.29574200  0.02405600  0.04210300  1
  F  F27  1  0.29574200  0.47594400  0.04210300  1
  F  F28  1  0.81024100  0.25000000  0.06598000  1
  F  F29  1  0.67390600  0.75000000  0.12585600  1
  F  F30  1  0.46489100  0.25000000  0.18420200  1
  F  F31  1  0.94116400  0.45203500  0.22780700  1
  F  F32  1  0.94116400  0.04796500  0.22780700  1
  F  F33  1  0.44116400  0.54796500  0.27219300  1
  F  F34  1  0.44116400  0.95203500  0.27219300  1
  F  F35  1  0.96489100  0.75000000  0.31579800  1
  F  F36  1  0.17390600  0.25000000  0.37414400  1
  F  F37  1  0.31024100  0.75000000  0.43402000  1
  F  F38  1  0.79574200  0.97594400  0.45789700  1
  F  F39  1  0.79574200  0.52405600  0.45789700  1
