# generated using pymatgen
data_Li3Fe4(Si3O10)2
_symmetry_space_group_name_H-M   'P 1'
_cell_length_a   5.49530700
_cell_length_b   5.51151718
_cell_length_c   16.64361879
_cell_angle_alpha   86.14323983
_cell_angle_beta   86.76361332
_cell_angle_gamma   60.62101636
_symmetry_Int_Tables_number   1
_chemical_formula_structural   Li3Fe4(Si3O10)2
_chemical_formula_sum   'Li3 Fe4 Si6 O20'
_cell_volume   438.10940318
_cell_formula_units_Z   1
loop_
 _symmetry_equiv_pos_site_id
 _symmetry_equiv_pos_as_xyz
  1  'x, y, z'
loop_
 _atom_site_type_symbol
 _atom_site_label
 _atom_site_symmetry_multiplicity
 _atom_site_fract_x
 _atom_site_fract_y
 _atom_site_fract_z
 _atom_site_occupancy
  Li  Li0  1  0.35412900  0.15324700  0.55195600  1
  Li  Li1  1  0.81703100  0.56790900  0.26747200  1
  Li  Li2  1  0.85013600  0.64007600  0.94932600  1
  Fe  Fe3  1  0.99352300  0.19390000  0.41628300  1
  Fe  Fe4  1  0.18801800  0.99376500  0.92315800  1
  Fe  Fe5  1  0.80749900  0.00382600  0.08158700  1
  Fe  Fe6  1  0.00308300  0.81723300  0.57882500  1
  Si  Si7  1  0.13292900  0.87025800  0.24905500  1
  Si  Si8  1  0.31436500  0.53553700  0.40271600  1
  Si  Si9  1  0.47238200  0.67664900  0.09904500  1
  Si  Si10  1  0.51953000  0.32354100  0.90129100  1
  Si  Si11  1  0.67523100  0.48237000  0.59914800  1
  Si  Si12  1  0.85490900  0.14431900  0.75058900  1
  O  O13  1  0.05736100  0.14342900  0.29858800  1
  O  O14  1  0.11424400  0.04580700  0.81128300  1
  O  O15  1  0.17369000  0.61004500  0.31293600  1
  O  O16  1  0.51776500  0.36576100  0.09400700  1
  O  O17  1  0.10674100  0.81244000  0.45547200  1
  O  O18  1  0.19221600  0.90401000  0.04827800  1
  O  O19  1  0.29036500  0.26657300  0.43932700  1
  O  O20  1  0.23383600  0.31778700  0.93327200  1
  O  O21  1  0.37449300  0.49335500  0.58916600  1
  O  O22  1  0.43049300  0.76264300  0.19534100  1
  O  O23  1  0.57548900  0.22445900  0.80815400  1
  O  O24  1  0.62903500  0.49383100  0.39448400  1
  O  O25  1  0.73498200  0.70827500  0.06090600  1
  O  O26  1  0.67862200  0.76973400  0.56689600  1
  O  O27  1  0.79750700  0.07394700  0.95106500  1
  O  O28  1  0.91735100  0.21047700  0.54864900  1
  O  O29  1  0.50794000  0.62238400  0.91293600  1
  O  O30  1  0.78039000  0.42318400  0.69241400  1
  O  O31  1  0.89167300  0.89365400  0.19209000  1
  O  O32  1  0.95077200  0.88641700  0.69146500  1
