# generated using pymatgen
data_Li2P4WO13
_symmetry_space_group_name_H-M   'P 1'
_cell_length_a   5.18531600
_cell_length_b   8.05876460
_cell_length_c   13.67821657
_cell_angle_alpha   78.07331285
_cell_angle_beta   83.93490932
_cell_angle_gamma   79.99529858
_symmetry_Int_Tables_number   1
_chemical_formula_structural   Li2P4WO13
_chemical_formula_sum   'Li4 P8 W2 O26'
_cell_volume   549.28711084
_cell_formula_units_Z   2
loop_
 _symmetry_equiv_pos_site_id
 _symmetry_equiv_pos_as_xyz
  1  'x, y, z'
loop_
 _atom_site_type_symbol
 _atom_site_label
 _atom_site_symmetry_multiplicity
 _atom_site_fract_x
 _atom_site_fract_y
 _atom_site_fract_z
 _atom_site_occupancy
  Li  Li0  1  0.37661200  0.32864300  0.98222600  1
  Li  Li1  1  0.06943900  0.31722200  0.51058900  1
  Li  Li2  1  0.93056100  0.68277800  0.48941100  1
  Li  Li3  1  0.62338800  0.67135700  0.01777400  1
  P  P4  1  0.11921700  0.79529900  0.13384400  1
  P  P5  1  0.00980600  0.90362100  0.64393300  1
  P  P6  1  0.33588000  0.57182900  0.31941500  1
  P  P7  1  0.30603900  0.66188700  0.80098100  1
  P  P8  1  0.69396100  0.33811300  0.19901900  1
  P  P9  1  0.66412000  0.42817100  0.68058500  1
  P  P10  1  0.99019400  0.09637900  0.35606700  1
  P  P11  1  0.88078300  0.20470100  0.86615600  1
  W  W12  1  0.44499500  0.05324700  0.75892800  1
  W  W13  1  0.55500500  0.94675300  0.24107200  1
  O  O14  1  0.12963100  0.64624200  0.23739800  1
  O  O15  1  0.24411900  0.71492300  0.04809500  1
  O  O16  1  0.28889300  0.03188800  0.34548200  1
  O  O17  1  0.16261700  0.04454200  0.65818800  1
  O  O18  1  0.19367800  0.52404500  0.41902400  1
  O  O19  1  0.04926500  0.75121000  0.74657500  1
  O  O20  1  0.08975500  0.82093000  0.55566600  1
  O  O21  1  0.18246700  0.14365600  0.86937600  1
  O  O22  1  0.24997900  0.94104700  0.15368300  1
  O  O23  1  0.56495200  0.19803600  0.16967300  1
  O  O24  1  0.49459000  0.39958100  0.28877700  1
  O  O25  1  0.24950000  0.51951800  0.88308800  1
  O  O26  1  0.46872900  0.30259600  0.68702300  1
  O  O27  1  0.53127100  0.69740400  0.31297700  1
  O  O28  1  0.75050000  0.48048200  0.11691200  1
  O  O29  1  0.50541000  0.60041900  0.71122300  1
  O  O30  1  0.43504800  0.80196400  0.83032700  1
  O  O31  1  0.75002100  0.05895300  0.84631700  1
  O  O32  1  0.81753300  0.85634400  0.13062400  1
  O  O33  1  0.91024500  0.17907000  0.44433400  1
  O  O34  1  0.95073500  0.24879000  0.25342500  1
  O  O35  1  0.80632200  0.47595500  0.58097600  1
  O  O36  1  0.83738300  0.95545800  0.34181200  1
  O  O37  1  0.71110700  0.96811200  0.65451800  1
  O  O38  1  0.75588100  0.28507700  0.95190500  1
  O  O39  1  0.87036900  0.35375800  0.76260200  1
