# generated using pymatgen
data_LiMnF5
_symmetry_space_group_name_H-M   'P 1'
_cell_length_a   5.66396900
_cell_length_b   7.88090700
_cell_length_c   8.22196400
_cell_angle_alpha   90.00000000
_cell_angle_beta   90.00000000
_cell_angle_gamma   90.00000000
_symmetry_Int_Tables_number   1
_chemical_formula_structural   LiMnF5
_chemical_formula_sum   'Li4 Mn4 F20'
_cell_volume   367.00555785
_cell_formula_units_Z   4
loop_
 _symmetry_equiv_pos_site_id
 _symmetry_equiv_pos_as_xyz
  1  'x, y, z'
loop_
 _atom_site_type_symbol
 _atom_site_label
 _atom_site_symmetry_multiplicity
 _atom_site_fract_x
 _atom_site_fract_y
 _atom_site_fract_z
 _atom_site_occupancy
  Li  Li0  1  0.76236600  0.77456200  0.15395000  1
  Li  Li1  1  0.23763400  0.27456200  0.34605000  1
  Li  Li2  1  0.26236600  0.72543800  0.84605000  1
  Li  Li3  1  0.73763400  0.22543800  0.65395000  1
  Mn  Mn4  1  0.98067700  0.40107000  0.99633100  1
  Mn  Mn5  1  0.01932300  0.90107000  0.50366900  1
  Mn  Mn6  1  0.48067700  0.09893000  0.00366900  1
  Mn  Mn7  1  0.51932300  0.59893000  0.49633100  1
  F  F8  1  0.75068900  0.02027600  0.51605500  1
  F  F9  1  0.82852900  0.60240800  0.99620400  1
  F  F10  1  0.83463700  0.69808700  0.50509300  1
  F  F11  1  0.95674800  0.37429400  0.77635100  1
  F  F12  1  0.99511900  0.38794000  0.21732900  1
  F  F13  1  0.00488100  0.88794000  0.28267100  1
  F  F14  1  0.04325200  0.87429400  0.72364900  1
  F  F15  1  0.16536300  0.19808700  0.99490700  1
  F  F16  1  0.17147100  0.10240800  0.50379600  1
  F  F17  1  0.24931100  0.52027600  0.98394500  1
  F  F18  1  0.25068900  0.47972400  0.48394500  1
  F  F19  1  0.32852900  0.89759200  0.00379600  1
  F  F20  1  0.33463700  0.80191300  0.49490700  1
  F  F21  1  0.45674800  0.12570600  0.22364900  1
  F  F22  1  0.49511900  0.11206000  0.78267100  1
  F  F23  1  0.50488100  0.61206000  0.71732900  1
  F  F24  1  0.54325200  0.62570600  0.27635100  1
  F  F25  1  0.66536300  0.30191300  0.00509300  1
  F  F26  1  0.67147100  0.39759200  0.49620400  1
  F  F27  1  0.74931100  0.97972400  0.01605500  1
