# generated using pymatgen
data_Li2NiBO4
_symmetry_space_group_name_H-M   'P 1'
_cell_length_a   4.75154900
_cell_length_b   6.10060000
_cell_length_c   10.05795700
_cell_angle_alpha   90.00000000
_cell_angle_beta   90.00000000
_cell_angle_gamma   90.00000000
_symmetry_Int_Tables_number   1
_chemical_formula_structural   Li2NiBO4
_chemical_formula_sum   'Li8 Ni4 B4 O16'
_cell_volume   291.55301523
_cell_formula_units_Z   4
loop_
 _symmetry_equiv_pos_site_id
 _symmetry_equiv_pos_as_xyz
  1  'x, y, z'
loop_
 _atom_site_type_symbol
 _atom_site_label
 _atom_site_symmetry_multiplicity
 _atom_site_fract_x
 _atom_site_fract_y
 _atom_site_fract_z
 _atom_site_occupancy
  Li  Li0  1  0.75784600  0.50591200  0.65968300  1
  Li  Li1  1  0.75437200  0.73896200  0.42317700  1
  Li  Li2  1  0.75437200  0.76103800  0.92317700  1
  Li  Li3  1  0.75784600  0.99408800  0.15968300  1
  Li  Li4  1  0.25784600  0.00591200  0.84031700  1
  Li  Li5  1  0.25437200  0.23896200  0.07682300  1
  Li  Li6  1  0.25437200  0.26103800  0.57682300  1
  Li  Li7  1  0.25784600  0.49408800  0.34031700  1
  Ni  Ni8  1  0.25993200  0.51572400  0.83830400  1
  Ni  Ni9  1  0.25993200  0.98427600  0.33830400  1
  Ni  Ni10  1  0.75993200  0.01572400  0.66169600  1
  Ni  Ni11  1  0.75993200  0.48427600  0.16169600  1
  B  B12  1  0.26467600  0.73937400  0.09139600  1
  B  B13  1  0.26467600  0.76062600  0.59139600  1
  B  B14  1  0.76467600  0.23937400  0.40860400  1
  B  B15  1  0.76467600  0.26062600  0.90860400  1
  O  O16  1  0.15028900  0.53905100  0.15636000  1
  O  O17  1  0.16573800  0.55601300  0.65863300  1
  O  O18  1  0.17319200  0.74913900  0.44887200  1
  O  O19  1  0.57710300  0.73191600  0.09950300  1
  O  O20  1  0.57710300  0.76808400  0.59950300  1
  O  O21  1  0.17319200  0.75086100  0.94887200  1
  O  O22  1  0.16573800  0.94398700  0.15863300  1
  O  O23  1  0.15028900  0.96094900  0.65636000  1
  O  O24  1  0.65028900  0.03905100  0.34364000  1
  O  O25  1  0.66573800  0.05601300  0.84136700  1
  O  O26  1  0.67319200  0.24913900  0.05112800  1
  O  O27  1  0.07710300  0.23191600  0.40049700  1
  O  O28  1  0.07710300  0.26808400  0.90049700  1
  O  O29  1  0.67319200  0.25086100  0.55112800  1
  O  O30  1  0.66573800  0.44398700  0.34136700  1
  O  O31  1  0.65028900  0.46094900  0.84364000  1
