# generated using pymatgen
data_Li15Mn8P8(O4F)8
_symmetry_space_group_name_H-M   'P 1'
_cell_length_a   5.15563800
_cell_length_b   12.99517549
_cell_length_c   13.30190202
_cell_angle_alpha   118.86929051
_cell_angle_beta   90.27891412
_cell_angle_gamma   90.45150872
_symmetry_Int_Tables_number   1
_chemical_formula_structural   Li15Mn8P8(O4F)8
_chemical_formula_sum   'Li15 Mn8 P8 O32 F8'
_cell_volume   780.38784331
_cell_formula_units_Z   1
loop_
 _symmetry_equiv_pos_site_id
 _symmetry_equiv_pos_as_xyz
  1  'x, y, z'
loop_
 _atom_site_type_symbol
 _atom_site_label
 _atom_site_symmetry_multiplicity
 _atom_site_fract_x
 _atom_site_fract_y
 _atom_site_fract_z
 _atom_site_occupancy
  Li  Li0  1  0.27936200  0.17814600  0.35957300  1
  Li  Li1  1  0.78079800  0.08959800  0.41326900  1
  Li  Li2  1  0.27815000  0.41508400  0.59403700  1
  Li  Li3  1  0.78831900  0.31809100  0.63109500  1
  Li  Li4  1  0.29880200  0.67526200  0.83978500  1
  Li  Li5  1  0.20339800  0.17833000  0.85444400  1
  Li  Li6  1  0.78130200  0.82708700  0.15469500  1
  Li  Li7  1  0.22943400  0.67287600  0.09235000  1
  Li  Li8  1  0.76817500  0.32949700  0.91615800  1
  Li  Li9  1  0.27209300  0.16985900  0.07828800  1
  Li  Li10  1  0.70500100  0.32395800  0.14839600  1
  Li  Li11  1  0.22394000  0.68309700  0.37089800  1
  Li  Li12  1  0.73049800  0.59007000  0.41437600  1
  Li  Li13  1  0.23899400  0.91141400  0.58707700  1
  Li  Li14  1  0.72707300  0.83614900  0.66921300  1
  Mn  Mn15  1  0.24510200  0.17026700  0.57767800  1
  Mn  Mn16  1  0.22824700  0.40580200  0.07437600  1
  Mn  Mn17  1  0.76834900  0.83159300  0.42507700  1
  Mn  Mn18  1  0.27226100  0.66974200  0.58110400  1
  Mn  Mn19  1  0.73778200  0.33093100  0.42059200  1
  Mn  Mn20  1  0.77470100  0.60706700  0.93039600  1
  Mn  Mn21  1  0.26959600  0.88998900  0.06319900  1
  Mn  Mn22  1  0.72749300  0.09240400  0.92351500  1
  P  P23  1  0.77067900  0.07701300  0.16434600  1
  P  P24  1  0.77620300  0.58212400  0.67030800  1
  P  P25  1  0.73325600  0.08246700  0.66518200  1
  P  P26  1  0.28654200  0.42362200  0.83773700  1
  P  P27  1  0.71983400  0.58142100  0.16597600  1
  P  P28  1  0.27936900  0.91941000  0.33111700  1
  P  P29  1  0.22830300  0.41607600  0.33178800  1
  P  P30  1  0.21048800  0.91987300  0.83062800  1
  O  O31  1  0.06369300  0.05498900  0.13299300  1
  O  O32  1  0.33743800  0.34253400  0.38521800  1
  O  O33  1  0.74305800  0.14934100  0.29659000  1
  O  O34  1  0.08163900  0.58382100  0.66586800  1
  O  O35  1  0.67352800  0.45308900  0.60125400  1
  O  O36  1  0.17771100  0.04707500  0.39179400  1
  O  O37  1  0.29612300  0.85375300  0.89626000  1
  O  O38  1  0.67536300  0.63362700  0.79390400  1
  O  O39  1  0.24482300  0.35301000  0.70605800  1
  O  O40  1  0.84659100  0.14947900  0.60501100  1
  O  O41  1  0.43008600  0.07528400  0.64990100  1
  O  O42  1  0.15901800  0.54564800  0.88374600  1
  O  O43  1  0.58480800  0.44031900  0.86674300  1
  O  O44  1  0.62194600  0.95840300  0.12549500  1
  O  O45  1  0.80979200  0.14834800  0.79395800  1
  O  O46  1  0.16171600  0.35488400  0.89443400  1
  O  O47  1  0.84689200  0.64734700  0.10681100  1
  O  O48  1  0.18772300  0.85847900  0.20322600  1
  O  O49  1  0.41944600  0.57348200  0.14577400  1
  O  O50  1  0.33129100  0.04578500  0.88853200  1
  O  O51  1  0.83261000  0.45599400  0.11472300  1
  O  O52  1  0.58320000  0.91872500  0.34020700  1
  O  O53  1  0.16267700  0.85086300  0.38919300  1
  O  O54  1  0.78138600  0.64889700  0.29634800  1
  O  O55  1  0.65005900  0.14465400  0.10617200  1
  O  O56  1  0.31175300  0.35767600  0.20420100  1
  O  O57  1  0.84351200  0.95537800  0.60756700  1
  O  O58  1  0.34152200  0.54334700  0.39698100  1
  O  O59  1  0.92475700  0.42069100  0.34222300  1
  O  O60  1  0.31380600  0.85204500  0.70575900  1
  O  O61  1  0.66976400  0.65416800  0.61440600  1
  O  O62  1  0.91120800  0.92958900  0.82658800  1
  F  F63  1  0.03091500  0.27919400  0.50405900  1
  F  F64  1  0.53132500  0.22427400  0.49765800  1
  F  F65  1  0.97614400  0.77451900  0.00208000  1
  F  F66  1  0.47010500  0.72644100  0.01638300  1
  F  F67  1  0.52213300  0.27019100  0.99112800  1
  F  F68  1  0.02005900  0.22841500  0.00878900  1
  F  F69  1  0.47701800  0.77361200  0.49663600  1
  F  F70  1  0.98512800  0.72231800  0.49966200  1
