# generated using pymatgen
data_Li8Nb2S9
_symmetry_space_group_name_H-M   'P 1'
_cell_length_a   7.25302000
_cell_length_b   10.91950029
_cell_length_c   18.70398679
_cell_angle_alpha   85.71428183
_cell_angle_beta   79.00565118
_cell_angle_gamma   70.79695210
_symmetry_Int_Tables_number   1
_chemical_formula_structural   Li8Nb2S9
_chemical_formula_sum   'Li32 Nb8 S36'
_cell_volume   1373.12917069
_cell_formula_units_Z   4
loop_
 _symmetry_equiv_pos_site_id
 _symmetry_equiv_pos_as_xyz
  1  'x, y, z'
loop_
 _atom_site_type_symbol
 _atom_site_label
 _atom_site_symmetry_multiplicity
 _atom_site_fract_x
 _atom_site_fract_y
 _atom_site_fract_z
 _atom_site_occupancy
  Li  Li0  1  0.08658500  0.12527200  0.04128100  1
  Li  Li1  1  0.78185400  0.62746100  0.04894300  1
  Li  Li2  1  0.28668700  0.62587600  0.05274800  1
  Li  Li3  1  0.50332000  0.12312500  0.03945100  1
  Li  Li4  1  0.59014000  0.40041600  0.15781200  1
  Li  Li5  1  0.86816400  0.85177000  0.15834000  1
  Li  Li6  1  0.16269700  0.62636800  0.23950700  1
  Li  Li7  1  0.71244900  0.63434900  0.24084000  1
  Li  Li8  1  0.95759600  0.12549300  0.25703100  1
  Li  Li9  1  0.41377500  0.11849200  0.25780600  1
  Li  Li10  1  0.53339800  0.34297800  0.33941300  1
  Li  Li11  1  0.26006700  0.89157000  0.34346900  1
  Li  Li12  1  0.03581200  0.63064800  0.46051700  1
  Li  Li13  1  0.82805100  0.12207700  0.44578400  1
  Li  Li14  1  0.62353900  0.62439100  0.45808500  1
  Li  Li15  1  0.65737600  0.86981800  0.54843200  1
  Li  Li16  1  0.34262400  0.13018200  0.45156800  1
  Li  Li17  1  0.37646100  0.37560900  0.54191500  1
  Li  Li18  1  0.17194900  0.87792300  0.55421600  1
  Li  Li19  1  0.96418800  0.36935200  0.53948300  1
  Li  Li20  1  0.73993300  0.10843000  0.65653100  1
  Li  Li21  1  0.46660200  0.65702200  0.66058700  1
  Li  Li22  1  0.58622500  0.88150800  0.74219400  1
  Li  Li23  1  0.04240400  0.87450700  0.74296900  1
  Li  Li24  1  0.28755100  0.36565100  0.75916000  1
  Li  Li25  1  0.83730300  0.37363200  0.76049300  1
  Li  Li26  1  0.13183600  0.14823000  0.84166000  1
  Li  Li27  1  0.40986000  0.59958400  0.84218800  1
  Li  Li28  1  0.49668000  0.87687500  0.96054900  1
  Li  Li29  1  0.71331300  0.37412400  0.94725200  1
  Li  Li30  1  0.21814600  0.37253900  0.95105700  1
  Li  Li31  1  0.91341500  0.87472800  0.95871900  1
  Nb  Nb32  1  0.34450500  0.86475200  0.14423700  1
  Nb  Nb33  1  0.12345400  0.37507600  0.13609900  1
  Nb  Nb34  1  0.73044800  0.87158500  0.36473900  1
  Nb  Nb35  1  0.00598400  0.35620600  0.35638400  1
  Nb  Nb36  1  0.99401600  0.64379400  0.64361600  1
  Nb  Nb37  1  0.26955200  0.12841500  0.63526100  1
  Nb  Nb38  1  0.87654600  0.62492400  0.86390100  1
  Nb  Nb39  1  0.65549500  0.13524800  0.85576300  1
  S  S40  1  0.16280900  0.88063000  0.05284900  1
  S  S41  1  0.64430900  0.88786900  0.06721800  1
  S  S42  1  0.90673600  0.36055600  0.05994400  1
  S  S43  1  0.41453600  0.36778700  0.05442800  1
  S  S44  1  0.47774000  0.63797100  0.15254900  1
  S  S45  1  0.99520600  0.60672200  0.14166100  1
  S  S46  1  0.23476500  0.12677100  0.15313700  1
  S  S47  1  0.07755700  0.87805600  0.24693800  1
  S  S48  1  0.56825400  0.87501600  0.25402900  1
  S  S49  1  0.82819600  0.37776600  0.25137500  1
  S  S50  1  0.28474400  0.37623100  0.24877400  1
  S  S51  1  0.64894900  0.10348700  0.34445700  1
  S  S52  1  0.88042000  0.63638100  0.34636600  1
  S  S53  1  0.12810400  0.13306400  0.35835500  1
  S  S54  1  0.95793700  0.86991600  0.44207500  1
  S  S55  1  0.21610400  0.39353900  0.43226900  1
  S  S56  1  0.45812600  0.86688400  0.45029900  1
  S  S57  1  0.71535800  0.38596400  0.44262200  1
  S  S58  1  0.28464200  0.61403600  0.55737800  1
  S  S59  1  0.54187400  0.13311600  0.54970100  1
  S  S60  1  0.78389600  0.60646100  0.56773100  1
  S  S61  1  0.04206300  0.13008400  0.55792500  1
  S  S62  1  0.87189600  0.86693600  0.64164500  1
  S  S63  1  0.11958000  0.36361900  0.65363400  1
  S  S64  1  0.35105100  0.89651300  0.65554300  1
  S  S65  1  0.71525600  0.62376900  0.75122600  1
  S  S66  1  0.17180400  0.62223400  0.74862500  1
  S  S67  1  0.43174600  0.12498400  0.74597100  1
  S  S68  1  0.92244300  0.12194400  0.75306200  1
  S  S69  1  0.76523500  0.87322900  0.84686300  1
  S  S70  1  0.00479400  0.39327800  0.85833900  1
  S  S71  1  0.52226000  0.36202900  0.84745100  1
  S  S72  1  0.58546400  0.63221300  0.94557200  1
  S  S73  1  0.09326400  0.63944400  0.94005600  1
  S  S74  1  0.35569100  0.11213100  0.93278200  1
  S  S75  1  0.83719100  0.11937000  0.94715100  1
