# generated using pymatgen
data_Li9V6(P8O29)2
_symmetry_space_group_name_H-M   'P 1'
_cell_length_a   9.77950400
_cell_length_b   9.78634117
_cell_length_c   14.03718462
_cell_angle_alpha   90.08845505
_cell_angle_beta   90.00171432
_cell_angle_gamma   119.72689957
_symmetry_Int_Tables_number   1
_chemical_formula_structural   Li9V6(P8O29)2
_chemical_formula_sum   'Li9 V6 P16 O58'
_cell_volume   1166.63690601
_cell_formula_units_Z   1
loop_
 _symmetry_equiv_pos_site_id
 _symmetry_equiv_pos_as_xyz
  1  'x, y, z'
loop_
 _atom_site_type_symbol
 _atom_site_label
 _atom_site_symmetry_multiplicity
 _atom_site_fract_x
 _atom_site_fract_y
 _atom_site_fract_z
 _atom_site_occupancy
  Li  Li0  1  0.90817800  0.67330000  0.06020300  1
  Li  Li1  1  0.91219400  0.22836300  0.55982000  1
  Li  Li2  1  0.66155700  0.33056600  0.88558500  1
  Li  Li3  1  0.77036700  0.09194400  0.06133100  1
  Li  Li4  1  0.32571000  0.23381400  0.06238500  1
  Li  Li5  1  0.68164700  0.90890100  0.44138600  1
  Li  Li6  1  0.32097100  0.09387100  0.55842100  1
  Li  Li7  1  0.08480400  0.77650000  0.43972400  1
  Li  Li8  1  0.00263400  0.00604200  0.99389400  1
  V  V9  1  0.56736400  0.00091200  0.24606400  1
  V  V10  1  0.42745300  0.99800000  0.75200700  1
  V  V11  1  0.56948400  0.57233100  0.74642800  1
  V  V12  1  0.43279100  0.43596700  0.25275900  1
  V  V13  1  0.99875700  0.56534400  0.24952800  1
  V  V14  1  0.00818700  0.43527600  0.75156800  1
  P  P15  1  0.90925100  0.68464300  0.84101300  1
  P  P16  1  0.76857900  0.68470100  0.34369400  1
  P  P17  1  0.91166800  0.23155500  0.34324600  1
  P  P18  1  0.66536700  0.33444300  0.12580200  1
  P  P19  1  0.66682400  0.33212300  0.62873700  1
  P  P20  1  0.77685900  0.09306500  0.84339700  1
  P  P21  1  0.68230100  0.91499100  0.66074300  1
  P  P22  1  0.31622000  0.22932700  0.84549300  1
  P  P23  1  0.68964100  0.77060700  0.15677000  1
  P  P24  1  0.32052200  0.08888500  0.34102400  1
  P  P25  1  0.22438100  0.91436700  0.15840800  1
  P  P26  1  0.33582000  0.67149800  0.37063900  1
  P  P27  1  0.33504200  0.66629500  0.87150600  1
  P  P28  1  0.08532700  0.76912200  0.65744000  1
  P  P29  1  0.23024300  0.31300000  0.65995800  1
  P  P30  1  0.08558300  0.30873400  0.16025700  1
  O  O31  1  0.00266400  0.75370400  0.56625500  1
  O  O32  1  0.91397500  0.66212800  0.34164100  1
  O  O33  1  0.78593000  0.77803300  0.07249400  1
  O  O34  1  0.73819400  0.65543000  0.83253000  1
  O  O35  1  0.89850300  0.52057600  0.82923700  1
  O  O36  1  0.81036200  0.48914800  0.16263000  1
  O  O37  1  0.90102500  0.38204000  0.31916200  1
  O  O38  1  0.99738800  0.20312100  0.07857700  1
  O  O39  1  0.92121600  0.26184600  0.83196600  1
  O  O40  1  0.66110000  0.47686500  0.67706300  1
  O  O41  1  0.61704600  0.52285700  0.32243300  1
  O  O42  1  0.81791500  0.33436100  0.67244200  1
  O  O43  1  0.65857300  0.33246300  0.01818200  1
  O  O44  1  0.67208100  0.33779100  0.52315100  1
  O  O45  1  0.67656400  0.18887000  0.16218200  1
  O  O46  1  0.47943300  0.37822500  0.83158300  1
  O  O47  1  0.51063400  0.32536600  0.16693600  1
  O  O48  1  0.74562100  0.08395000  0.33540300  1
  O  O49  1  0.79260200  0.00145900  0.75162700  1
  O  O50  1  0.75868300  0.00136600  0.57102300  1
  O  O51  1  0.79107900  0.01912100  0.93268100  1
  O  O52  1  0.62741000  0.10757900  0.83234200  1
  O  O53  1  0.51547200  0.18365000  0.66716400  1
  O  O54  1  0.65869800  0.91252900  0.15813800  1
  O  O55  1  0.48064200  0.09763500  0.32089700  1
  O  O56  1  0.34363000  0.25648800  0.33286700  1
  O  O57  1  0.79126700  0.79282900  0.25161200  1
  O  O58  1  0.75368700  0.76321100  0.43035400  1
  O  O59  1  0.23485700  0.22579800  0.57480800  1
  O  O60  1  0.65878000  0.74623700  0.66404100  1
  O  O61  1  0.52424800  0.90816100  0.67990400  1
  O  O62  1  0.34374200  0.08610000  0.83387700  1
  O  O63  1  0.48745500  0.81776400  0.32996400  1
  O  O64  1  0.37924200  0.91263400  0.16895900  1
  O  O65  1  0.21093300  0.00451700  0.07691100  1
  O  O66  1  0.24786500  0.00651100  0.43283300  1
  O  O67  1  0.20249200  0.99000600  0.25694400  1
  O  O68  1  0.25186300  0.91655500  0.66077000  1
  O  O69  1  0.47804600  0.65917300  0.82312600  1
  O  O70  1  0.53235700  0.61494200  0.17114200  1
  O  O71  1  0.33278200  0.81037800  0.82922100  1
  O  O72  1  0.33137800  0.65194600  0.97590300  1
  O  O73  1  0.33925600  0.66499500  0.47625100  1
  O  O74  1  0.18582700  0.67241100  0.33166700  1
  O  O75  1  0.38215900  0.47198900  0.67723200  1
  O  O76  1  0.33707500  0.52314900  0.32116400  1
  O  O77  1  0.08297100  0.74257600  0.16136500  1
  O  O78  1  0.99704900  0.79044600  0.74924900  1
  O  O79  1  0.98484700  0.76831400  0.93130300  1
  O  O80  1  0.09507200  0.61925100  0.68211800  1
  O  O81  1  0.18348900  0.51681500  0.82449000  1
  O  O82  1  0.08593600  0.46479000  0.16917300  1
  O  O83  1  0.25867300  0.33959300  0.16257100  1
  O  O84  1  0.23235400  0.21837800  0.93599400  1
  O  O85  1  0.20528000  0.21376100  0.75667300  1
  O  O86  1  0.08499900  0.33934300  0.65994900  1
  O  O87  1  0.98810600  0.24320400  0.43611400  1
  O  O88  1  0.01013300  0.21223100  0.25801200  1
