# generated using pymatgen
data_Li3FePCO7
_symmetry_space_group_name_H-M   'P 1'
_cell_length_a   6.59650800
_cell_length_b   8.46757425
_cell_length_c   10.14243540
_cell_angle_alpha   87.47039018
_cell_angle_beta   89.99799566
_cell_angle_gamma   89.99996167
_symmetry_Int_Tables_number   1
_chemical_formula_structural   Li3FePCO7
_chemical_formula_sum   'Li12 Fe4 P4 C4 O28'
_cell_volume   565.96809640
_cell_formula_units_Z   4
loop_
 _symmetry_equiv_pos_site_id
 _symmetry_equiv_pos_as_xyz
  1  'x, y, z'
loop_
 _atom_site_type_symbol
 _atom_site_label
 _atom_site_symmetry_multiplicity
 _atom_site_fract_x
 _atom_site_fract_y
 _atom_site_fract_z
 _atom_site_occupancy
  Li  Li0  1  0.51887000  0.99925800  0.01674400  1
  Li  Li1  1  0.51922600  0.99983700  0.51724300  1
  Li  Li2  1  0.01861400  0.00076300  0.48331200  1
  Li  Li3  1  0.01940600  0.00021900  0.98273000  1
  Li  Li4  1  0.20593400  0.17595000  0.21338500  1
  Li  Li5  1  0.20634100  0.17693000  0.71328200  1
  Li  Li6  1  0.70590600  0.82394200  0.28660400  1
  Li  Li7  1  0.70616600  0.82307900  0.78664500  1
  Li  Li8  1  0.39221400  0.52105800  0.21939300  1
  Li  Li9  1  0.39087600  0.52192900  0.71888100  1
  Li  Li10  1  0.89216400  0.47889700  0.28056800  1
  Li  Li11  1  0.89099400  0.47811800  0.78106600  1
  Fe  Fe12  1  0.74989500  0.28232100  0.51630100  1
  Fe  Fe13  1  0.25006400  0.71788700  0.98383200  1
  Fe  Fe14  1  0.74982900  0.28052700  0.01643700  1
  Fe  Fe15  1  0.24966300  0.71892700  0.48359100  1
  P  P16  1  0.24835900  0.33016000  0.47448800  1
  P  P17  1  0.24838500  0.32999600  0.97442700  1
  P  P18  1  0.74856400  0.66982500  0.02549600  1
  P  P19  1  0.74817400  0.67005500  0.52553300  1
  C  C20  1  0.74108300  0.13230800  0.26449600  1
  C  C21  1  0.74132000  0.13148600  0.76438900  1
  C  C22  1  0.24108000  0.86768800  0.23554900  1
  C  C23  1  0.24128800  0.86854800  0.73561500  1
  O  O24  1  0.71618200  0.02770900  0.17651500  1
  O  O25  1  0.71643300  0.02663100  0.67659700  1
  O  O26  1  0.21613300  0.97224500  0.32355100  1
  O  O27  1  0.21655800  0.97338100  0.82343700  1
  O  O28  1  0.76073400  0.08556200  0.38846100  1
  O  O29  1  0.76091100  0.08472300  0.88843900  1
  O  O30  1  0.26093200  0.91450400  0.11162800  1
  O  O31  1  0.26069700  0.91532600  0.61155100  1
  O  O32  1  0.06855000  0.23347500  0.03857100  1
  O  O33  1  0.06826600  0.23405500  0.53871200  1
  O  O34  1  0.56832800  0.76656800  0.46144100  1
  O  O35  1  0.56846700  0.76598900  0.96125600  1
  O  O36  1  0.43884500  0.22895000  0.00646300  1
  O  O37  1  0.43891000  0.22957000  0.50746200  1
  O  O38  1  0.93865300  0.77108300  0.49352100  1
  O  O39  1  0.93908800  0.77053200  0.99260500  1
  O  O40  1  0.74897700  0.28137000  0.23055800  1
  O  O41  1  0.74941800  0.28057300  0.73057600  1
  O  O42  1  0.24904200  0.71862300  0.26939200  1
  O  O43  1  0.24929400  0.71943700  0.76942700  1
  O  O44  1  0.21328100  0.36171500  0.32440800  1
  O  O45  1  0.21255400  0.36252100  0.82448600  1
  O  O46  1  0.71337000  0.63825800  0.17560000  1
  O  O47  1  0.71234500  0.63744200  0.67545800  1
  O  O48  1  0.27217100  0.48983300  0.04378600  1
  O  O49  1  0.27182100  0.49044100  0.54307300  1
  O  O50  1  0.77191800  0.51022800  0.45614000  1
  O  O51  1  0.77211000  0.50954900  0.95687700  1
