# generated using pymatgen
data_Li5Mn2P2(CO7)2
_symmetry_space_group_name_H-M   'P 1'
_cell_length_a   8.18005500
_cell_length_b   8.21585609
_cell_length_c   8.53392651
_cell_angle_alpha   92.19989418
_cell_angle_beta   92.70676849
_cell_angle_gamma   103.46468415
_symmetry_Int_Tables_number   1
_chemical_formula_structural   Li5Mn2P2(CO7)2
_chemical_formula_sum   'Li10 Mn4 P4 C4 O28'
_cell_volume   556.42542383
_cell_formula_units_Z   2
loop_
 _symmetry_equiv_pos_site_id
 _symmetry_equiv_pos_as_xyz
  1  'x, y, z'
loop_
 _atom_site_type_symbol
 _atom_site_label
 _atom_site_symmetry_multiplicity
 _atom_site_fract_x
 _atom_site_fract_y
 _atom_site_fract_z
 _atom_site_occupancy
  Li  Li0  1  0.01105900  0.75630300  0.90200200  1
  Li  Li1  1  0.15276500  0.13852300  0.75024000  1
  Li  Li2  1  0.62330900  0.61017300  0.75581300  1
  Li  Li3  1  0.86139000  0.38280600  0.75073700  1
  Li  Li4  1  0.38322800  0.89313400  0.75208900  1
  Li  Li5  1  0.13861000  0.61719400  0.24926300  1
  Li  Li6  1  0.61677200  0.10686600  0.24791100  1
  Li  Li7  1  0.37669100  0.38982700  0.24418700  1
  Li  Li8  1  0.84723500  0.86147700  0.24976000  1
  Li  Li9  1  0.98894100  0.24369700  0.09799800  1
  Mn  Mn10  1  0.77073900  0.02127400  0.65447600  1
  Mn  Mn11  1  0.27144900  0.52260500  0.65613000  1
  Mn  Mn12  1  0.72855100  0.47739500  0.34387000  1
  Mn  Mn13  1  0.22926100  0.97872600  0.34552400  1
  P  P14  1  0.48949900  0.23667200  0.57918900  1
  P  P15  1  0.98548900  0.73968200  0.58778900  1
  P  P16  1  0.01451100  0.26031800  0.41221100  1
  P  P17  1  0.51050100  0.76332800  0.42081100  1
  C  C18  1  0.22558000  0.47089000  0.95263200  1
  C  C19  1  0.73874100  0.99555000  0.95625600  1
  C  C20  1  0.26125900  0.00445000  0.04374400  1
  C  C21  1  0.77442000  0.52911000  0.04736800  1
  O  O22  1  0.34283300  0.59246000  0.91566900  1
  O  O23  1  0.86304900  0.11400300  0.91866600  1
  O  O24  1  0.29239200  0.03920400  0.90267300  1
  O  O25  1  0.13185900  0.37336100  0.83892800  1
  O  O26  1  0.80976500  0.56121300  0.90197900  1
  O  O27  1  0.64434700  0.90685900  0.83688300  1
  O  O28  1  0.46028300  0.39243500  0.66854900  1
  O  O29  1  0.13315400  0.70571200  0.69127100  1
  O  O30  1  0.64514800  0.19658900  0.66970200  1
  O  O31  1  0.93524500  0.88196700  0.68872300  1
  O  O32  1  0.33230500  0.08560300  0.57823000  1
  O  O33  1  0.47099400  0.72985300  0.59466300  1
  O  O34  1  0.96413000  0.20209700  0.57797300  1
  O  O35  1  0.83813000  0.58154200  0.56912400  1
  O  O36  1  0.16187000  0.41845800  0.43087600  1
  O  O37  1  0.52900600  0.27014700  0.40533700  1
  O  O38  1  0.03587000  0.79790300  0.42202700  1
  O  O39  1  0.66769500  0.91439700  0.42177000  1
  O  O40  1  0.06475500  0.11803300  0.31127700  1
  O  O41  1  0.35485200  0.80341100  0.33029800  1
  O  O42  1  0.53971700  0.60756500  0.33145100  1
  O  O43  1  0.86684600  0.29428800  0.30872900  1
  O  O44  1  0.35565300  0.09314100  0.16311700  1
  O  O45  1  0.19023500  0.43878700  0.09802100  1
  O  O46  1  0.86814100  0.62663900  0.16107200  1
  O  O47  1  0.70760800  0.96079600  0.09732700  1
  O  O48  1  0.65716700  0.40754000  0.08433100  1
  O  O49  1  0.13695100  0.88599700  0.08133400  1
