# generated using pymatgen
data_LiFeSiO4
_symmetry_space_group_name_H-M   'P 1'
_cell_length_a   5.39956200
_cell_length_b   7.99540300
_cell_length_c   8.52603239
_cell_angle_alpha   74.37799369
_cell_angle_beta   90.00000000
_cell_angle_gamma   90.00000000
_symmetry_Int_Tables_number   1
_chemical_formula_structural   LiFeSiO4
_chemical_formula_sum   'Li4 Fe4 Si4 O16'
_cell_volume   354.48581167
_cell_formula_units_Z   4
loop_
 _symmetry_equiv_pos_site_id
 _symmetry_equiv_pos_as_xyz
  1  'x, y, z'
loop_
 _atom_site_type_symbol
 _atom_site_label
 _atom_site_symmetry_multiplicity
 _atom_site_fract_x
 _atom_site_fract_y
 _atom_site_fract_z
 _atom_site_occupancy
  Li  Li0  1  0.34400600  0.13371300  0.20056000  1
  Li  Li1  1  0.83463600  0.63275500  0.39385400  1
  Li  Li2  1  0.65599400  0.13371300  0.70056000  1
  Li  Li3  1  0.16536400  0.63275500  0.89385400  1
  Fe  Fe4  1  0.84994200  0.02733200  0.06953400  1
  Fe  Fe5  1  0.33056500  0.50629100  0.27674400  1
  Fe  Fe6  1  0.15005800  0.02733200  0.56953400  1
  Fe  Fe7  1  0.66943500  0.50629100  0.77674400  1
  Si  Si8  1  0.66126900  0.74731200  0.01711000  1
  Si  Si9  1  0.82658700  0.26127200  0.32205400  1
  Si  Si10  1  0.33873100  0.74731200  0.51711000  1
  Si  Si11  1  0.17341300  0.26127200  0.82205400  1
  O  O12  1  0.16743500  0.11722000  0.00239000  1
  O  O13  1  0.38180500  0.66901600  0.06843500  1
  O  O14  1  0.70510100  0.17568700  0.18444600  1
  O  O15  1  0.11984400  0.31601000  0.27516600  1
  O  O16  1  0.81039200  0.78207800  0.17605300  1
  O  O17  1  0.65862800  0.42702700  0.33704300  1
  O  O18  1  0.83256500  0.11722000  0.50239000  1
  O  O19  1  0.19551600  0.61495600  0.42956200  1
  O  O20  1  0.32336600  0.95056200  0.40086800  1
  O  O21  1  0.61819500  0.66901600  0.56843500  1
  O  O22  1  0.29489900  0.17568700  0.68444600  1
  O  O23  1  0.88015600  0.31601000  0.77516600  1
  O  O24  1  0.18960800  0.78207800  0.67605300  1
  O  O25  1  0.34137200  0.42702700  0.83704300  1
  O  O26  1  0.80448400  0.61495600  0.92956200  1
  O  O27  1  0.67663400  0.95056200  0.90086800  1
