# generated using pymatgen
data_Li6V3P8O29
_symmetry_space_group_name_H-M   'P 1'
_cell_length_a   9.79465900
_cell_length_b   9.82863705
_cell_length_c   13.96246206
_cell_angle_alpha   90.04214144
_cell_angle_beta   90.23147005
_cell_angle_gamma   119.87779090
_symmetry_Int_Tables_number   1
_chemical_formula_structural   Li6V3P8O29
_chemical_formula_sum   'Li12 V6 P16 O58'
_cell_volume   1165.47518526
_cell_formula_units_Z   2
loop_
 _symmetry_equiv_pos_site_id
 _symmetry_equiv_pos_as_xyz
  1  'x, y, z'
loop_
 _atom_site_type_symbol
 _atom_site_label
 _atom_site_symmetry_multiplicity
 _atom_site_fract_x
 _atom_site_fract_y
 _atom_site_fract_z
 _atom_site_occupancy
  Li  Li0  1  0.22677400  0.90908900  0.44195100  1
  Li  Li1  1  0.08932900  0.31685100  0.44223800  1
  Li  Li2  1  0.33343800  0.66976600  0.11290500  1
  Li  Li3  1  0.23343400  0.32654400  0.93611800  1
  Li  Li4  1  0.67048500  0.90029400  0.93781400  1
  Li  Li5  1  0.32280300  0.22939300  0.56236400  1
  Li  Li6  1  0.68049300  0.77132600  0.43820900  1
  Li  Li7  1  0.33220900  0.09660100  0.05892900  1
  Li  Li8  1  0.90425700  0.67524600  0.56317700  1
  Li  Li9  1  0.77160200  0.09423900  0.56159300  1
  Li  Li10  1  0.90002800  0.23055200  0.05688200  1
  Li  Li11  1  0.98785300  0.92951800  0.99046100  1
  V  V12  1  0.43562100  0.43621900  0.75015900  1
  V  V13  1  0.57041000  0.56517600  0.24523800  1
  V  V14  1  0.43191000  0.00138100  0.25302800  1
  V  V15  1  0.56768200  0.00015500  0.75089900  1
  V  V16  1  0.00261700  0.57151300  0.75518400  1
  V  V17  1  0.99819900  0.43726700  0.24799300  1
  P  P18  1  0.08773900  0.77907900  0.15876500  1
  P  P19  1  0.23096700  0.91228500  0.66054300  1
  P  P20  1  0.08691400  0.32111100  0.65895800  1
  P  P21  1  0.33547700  0.66699800  0.87287400  1
  P  P22  1  0.33441700  0.66552400  0.37043200  1
  P  P23  1  0.22603700  0.31618700  0.15737200  1
  P  P24  1  0.32018300  0.23482200  0.34286100  1
  P  P25  1  0.68209100  0.90935900  0.15725900  1
  P  P26  1  0.31525400  0.08899400  0.84378900  1
  P  P27  1  0.67917100  0.76726500  0.65581200  1
  P  P28  1  0.77584900  0.69094000  0.84035200  1
  P  P29  1  0.66752600  0.33363100  0.62983300  1
  P  P30  1  0.66321200  0.33008000  0.12684100  1
  P  P31  1  0.91469400  0.68398500  0.34401900  1
  P  P32  1  0.77068100  0.08826200  0.34178800  1
  P  P33  1  0.91378100  0.22906000  0.84206700  1
  O  O34  1  0.00237500  0.75707100  0.43567800  1
  O  O35  1  0.08352800  0.74848700  0.65895100  1
  O  O36  1  0.22549500  0.01489800  0.93385300  1
  O  O37  1  0.26040700  0.92182400  0.16170500  1
  O  O38  1  0.10149300  0.62794500  0.16695200  1
  O  O39  1  0.19591000  0.67881000  0.82942200  1
  O  O40  1  0.09381200  0.47803600  0.67820100  1
  O  O41  1  0.99985700  0.22420600  0.93140000  1
  O  O42  1  0.07748100  0.33233500  0.15488100  1
  O  O43  1  0.32633900  0.81315600  0.33307400  1
  O  O44  1  0.38118100  0.90127200  0.67955300  1
  O  O45  1  0.18409400  0.51588900  0.32531300  1
  O  O46  1  0.33702800  0.66368900  0.98106900  1
  O  O47  1  0.33232700  0.65895600  0.47700300  1
  O  O48  1  0.32287800  0.51027800  0.83435200  1
  O  O49  1  0.51796800  0.89423300  0.17110400  1
  O  O50  1  0.49310300  0.81078300  0.83619600  1
  O  O51  1  0.25252600  0.33910600  0.65730500  1
  O  O52  1  0.20762600  0.21274700  0.25126800  1
  O  O53  1  0.24011700  0.24359100  0.43280800  1
  O  O54  1  0.23564100  0.23229900  0.06939400  1
  O  O55  1  0.37230800  0.48222900  0.17014600  1
  O  O56  1  0.48442800  0.66886100  0.32714500  1
  O  O57  1  0.33961000  0.25761800  0.83649100  1
  O  O58  1  0.51840100  0.62074200  0.67669000  1
  O  O59  1  0.66354400  0.91631900  0.65673200  1
  O  O60  1  0.20744000  0.00018800  0.75080500  1
  O  O61  1  0.24675200  0.00315900  0.57021500  1
  O  O62  1  0.75453500  0.99759300  0.43178500  1
  O  O63  1  0.33268700  0.08327400  0.34260300  1
  O  O64  1  0.47920100  0.38126800  0.32608500  1
  O  O65  1  0.66281400  0.74602200  0.15852700  1
  O  O66  1  0.51267600  0.32676100  0.67044100  1
  O  O67  1  0.61832300  0.53827700  0.83438600  1
  O  O68  1  0.79395100  0.79869700  0.92184100  1
  O  O69  1  0.75137600  0.75131500  0.56466900  1
  O  O70  1  0.79590000  0.78903500  0.74250500  1
  O  O71  1  0.75151700  0.67032800  0.34100900  1
  O  O72  1  0.51229300  0.18592100  0.16775100  1
  O  O73  1  0.47071400  0.09004300  0.83170300  1
  O  O74  1  0.66588400  0.47933700  0.17208200  1
  O  O75  1  0.66539100  0.32789600  0.02050800  1
  O  O76  1  0.66094800  0.32548100  0.52268500  1
  O  O77  1  0.81356400  0.48779700  0.66790900  1
  O  O78  1  0.61879600  0.09650600  0.32160000  1
  O  O79  1  0.67501000  0.18687500  0.67124100  1
  O  O80  1  0.91527700  0.65944900  0.83706300  1
  O  O81  1  0.01205000  0.79847900  0.25658700  1
  O  O82  1  0.00151000  0.79030500  0.07519500  1
  O  O83  1  0.90088100  0.52328900  0.32447100  1
  O  O84  1  0.81504700  0.32985400  0.16907700  1
  O  O85  1  0.90641500  0.37863900  0.83062300  1
  O  O86  1  0.74650100  0.08129100  0.83976200  1
  O  O87  1  0.76655800  0.00102300  0.06868100  1
  O  O88  1  0.79018800  0.00003100  0.25014400  1
  O  O89  1  0.91615800  0.25281600  0.34276900  1
  O  O90  1  0.99633400  0.24248700  0.56874900  1
  O  O91  1  0.99983200  0.20764200  0.74929900  1
