# generated using pymatgen
data_Li8MnFe7(BO3)8
_symmetry_space_group_name_H-M   'P 1'
_cell_length_a   5.23984800
_cell_length_b   5.96811297
_cell_length_c   17.70913080
_cell_angle_alpha   89.69182509
_cell_angle_beta   98.00625130
_cell_angle_gamma   114.28704247
_symmetry_Int_Tables_number   1
_chemical_formula_structural   Li8MnFe7(BO3)8
_chemical_formula_sum   'Li8 Mn1 Fe7 B8 O24'
_cell_volume   499.03916328
_cell_formula_units_Z   1
loop_
 _symmetry_equiv_pos_site_id
 _symmetry_equiv_pos_as_xyz
  1  'x, y, z'
loop_
 _atom_site_type_symbol
 _atom_site_label
 _atom_site_symmetry_multiplicity
 _atom_site_fract_x
 _atom_site_fract_y
 _atom_site_fract_z
 _atom_site_occupancy
  Li  Li0  1  0.14644900  0.91247400  0.23174700  1
  Li  Li1  1  0.35488200  0.58881800  0.26661000  1
  Li  Li2  1  0.10050200  0.83393300  0.51827000  1
  Li  Li3  1  0.39773900  0.66203200  0.98283900  1
  Li  Li4  1  0.60016300  0.33663200  0.01637300  1
  Li  Li5  1  0.89631800  0.16307100  0.48302400  1
  Li  Li6  1  0.64881600  0.41274500  0.73356300  1
  Li  Li7  1  0.85156000  0.08763700  0.76706400  1
  Mn  Mn8  1  0.35770300  0.16683100  0.39688000  1
  Fe  Fe9  1  0.59835900  0.90837000  0.14495100  1
  Fe  Fe10  1  0.64843300  0.84111400  0.60557400  1
  Fe  Fe11  1  0.14430800  0.33809400  0.10499700  1
  Fe  Fe12  1  0.90635500  0.59415300  0.35281400  1
  Fe  Fe13  1  0.10237500  0.40977600  0.64527700  1
  Fe  Fe14  1  0.84943300  0.65922300  0.89494400  1
  Fe  Fe15  1  0.39649500  0.08917900  0.85555800  1
  B  B16  1  0.48776900  0.69486400  0.43519800  1
  B  B17  1  0.23536000  0.94185500  0.68494100  1
  B  B18  1  0.01468100  0.80861200  0.06511500  1
  B  B19  1  0.73347200  0.44025000  0.18353700  1
  B  B20  1  0.26464600  0.55894000  0.81564300  1
  B  B21  1  0.98473600  0.19181900  0.93434600  1
  B  B22  1  0.76570400  0.05478300  0.31440900  1
  B  B23  1  0.51471700  0.30894400  0.56695600  1
  O  O24  1  0.54011700  0.96114400  0.25581000  1
  O  O25  1  0.25493600  0.76056700  0.06662500  1
  O  O26  1  0.00059700  0.00062100  0.31525800  1
  O  O27  1  0.99755400  0.94751600  0.12650700  1
  O  O28  1  0.70924800  0.79001800  0.49404600  1
  O  O29  1  0.79350400  0.71085300  0.00607300  1
  O  O30  1  0.50374600  0.55770600  0.37310300  1
  O  O31  1  0.25152800  0.80167500  0.62367100  1
  O  O32  1  0.49458100  0.48958000  0.18211100  1
  O  O33  1  0.24450000  0.73841600  0.43437900  1
  O  O34  1  0.24883400  0.69767400  0.87744600  1
  O  O35  1  0.95593500  0.53598100  0.24247900  1
  O  O36  1  0.04338600  0.46135300  0.75686900  1
  O  O37  1  0.74841700  0.30027300  0.12209900  1
  O  O38  1  0.75381200  0.26006800  0.56767900  1
  O  O39  1  0.50575500  0.51218000  0.81664900  1
  O  O40  1  0.75691000  0.19858600  0.37559300  1
  O  O41  1  0.50150100  0.45054600  0.62807300  1
  O  O42  1  0.20643600  0.28891800  0.99345100  1
  O  O43  1  0.28950900  0.21054100  0.50855100  1
  O  O44  1  0.00095600  0.05257300  0.87284900  1
  O  O45  1  0.99619600  0.99140500  0.68293200  1
  O  O46  1  0.74428100  0.23897600  0.93297500  1
  O  O47  1  0.45678400  0.03868100  0.74413900  1
