# generated using pymatgen
data_Li4TiCo2Ni3(PO4)6
_symmetry_space_group_name_H-M   'P 1'
_cell_length_a   8.41454000
_cell_length_b   8.50778713
_cell_length_c   8.52599093
_cell_angle_alpha   62.09020290
_cell_angle_beta   62.45929705
_cell_angle_gamma   62.31374491
_symmetry_Int_Tables_number   1
_chemical_formula_structural   Li4TiCo2Ni3(PO4)6
_chemical_formula_sum   'Li4 Ti1 Co2 Ni3 P6 O24'
_cell_volume   453.62538891
_cell_formula_units_Z   1
loop_
 _symmetry_equiv_pos_site_id
 _symmetry_equiv_pos_as_xyz
  1  'x, y, z'
loop_
 _atom_site_type_symbol
 _atom_site_label
 _atom_site_symmetry_multiplicity
 _atom_site_fract_x
 _atom_site_fract_y
 _atom_site_fract_z
 _atom_site_occupancy
  Li  Li0  1  0.25472000  0.64108500  0.84786400  1
  Li  Li1  1  0.71057600  0.35164200  0.15236900  1
  Li  Li2  1  0.35425400  0.14731800  0.71062100  1
  Li  Li3  1  0.14638900  0.70896400  0.35371000  1
  Ti  Ti4  1  0.14764300  0.14891800  0.15331100  1
  Co  Co5  1  0.98892100  0.00181300  0.99823100  1
  Co  Co6  1  0.50936100  0.49824800  0.49577400  1
  Ni  Ni7  1  0.85705200  0.85508400  0.85282100  1
  Ni  Ni8  1  0.64168700  0.64592700  0.64351000  1
  Ni  Ni9  1  0.35542200  0.35175300  0.35292500  1
  P  P10  1  0.75392700  0.04205200  0.45462600  1
  P  P11  1  0.44658900  0.75115800  0.04046000  1
  P  P12  1  0.05303000  0.45817300  0.75466000  1
  P  P13  1  0.94724200  0.55487200  0.25641900  1
  P  P14  1  0.55686400  0.24996800  0.95241100  1
  P  P15  1  0.25191000  0.95249600  0.55605700  1
  O  O16  1  0.88338900  0.50058900  0.70692200  1
  O  O17  1  0.69325600  0.88925500  0.47831000  1
  O  O18  1  0.94001100  0.74073400  0.09203200  1
  O  O19  1  0.44685100  0.69710500  0.89298400  1
  O  O20  1  0.00877200  0.38548400  0.18684400  1
  O  O21  1  0.75359100  0.55562800  0.40763400  1
  O  O22  1  0.74944000  0.09585200  0.92626600  1
  O  O23  1  0.53662200  0.41252900  0.76819200  1
  O  O24  1  0.83289700  0.00211500  0.59960000  1
  O  O25  1  0.39841400  0.75439500  0.56313300  1
  O  O26  1  0.90450500  0.08245200  0.24615800  1
  O  O27  1  0.60606200  0.81988900  0.98238100  1
  O  O28  1  0.38791100  0.17575600  0.01775100  1
  O  O29  1  0.10032700  0.92649300  0.75154700  1
  O  O30  1  0.59565400  0.24173600  0.43745800  1
  O  O31  1  0.18181000  0.01233000  0.38842600  1
  O  O32  1  0.43915700  0.59169900  0.23694900  1
  O  O33  1  0.24188700  0.90556800  0.08675100  1
  O  O34  1  0.24852300  0.43477200  0.59164500  1
  O  O35  1  0.04183400  0.60065200  0.82223700  1
  O  O36  1  0.52950900  0.31526800  0.10459900  1
  O  O37  1  0.08396000  0.25120500  0.90625100  1
  O  O38  1  0.32000600  0.10431300  0.52560800  1
  O  O39  1  0.10003100  0.52171200  0.32755600  1
