# generated using pymatgen
data_Li3V5O10
_symmetry_space_group_name_H-M   'P 1'
_cell_length_a   7.94438175
_cell_length_b   7.94438175
_cell_length_c   10.05100582
_cell_angle_alpha   86.60288690
_cell_angle_beta   86.60288690
_cell_angle_gamma   142.62614555
_symmetry_Int_Tables_number   1
_chemical_formula_structural   Li3V5O10
_chemical_formula_sum   'Li6 V10 O20'
_cell_volume   378.41679119
_cell_formula_units_Z   2
loop_
 _symmetry_equiv_pos_site_id
 _symmetry_equiv_pos_as_xyz
  1  'x, y, z'
loop_
 _atom_site_type_symbol
 _atom_site_label
 _atom_site_symmetry_multiplicity
 _atom_site_fract_x
 _atom_site_fract_y
 _atom_site_fract_z
 _atom_site_occupancy
  Li  Li0  1  0.35299300  0.64700700  0.75000000  1
  Li  Li1  1  0.44865800  0.55134200  0.25000000  1
  Li  Li2  1  0.84887100  0.15112900  0.25000000  1
  Li  Li3  1  0.15112900  0.84887100  0.75000000  1
  Li  Li4  1  0.55134200  0.44865800  0.75000000  1
  Li  Li5  1  0.64700700  0.35299300  0.25000000  1
  V  V6  1  0.09680000  0.39853200  0.50742200  1
  V  V7  1  0.19010000  0.28488000  0.00184900  1
  V  V8  1  0.28488000  0.19010000  0.50184900  1
  V  V9  1  0.71512000  0.80990000  0.49815100  1
  V  V10  1  0.60146800  0.90320000  0.99257800  1
  V  V11  1  0.39853200  0.09680000  0.00742200  1
  V  V12  1  0.90320000  0.60146800  0.49257800  1
  V  V13  1  0.80990000  0.71512000  0.99815100  1
  V  V14  1  0.00000000  0.50000000  0.00000000  1
  V  V15  1  0.50000000  0.00000000  0.50000000  1
  O  O16  1  0.48101500  0.77580100  0.39409300  1
  O  O17  1  0.22419900  0.51898500  0.10590700  1
  O  O18  1  0.44196900  0.34473000  0.10860700  1
  O  O19  1  0.98267500  0.28014700  0.89560700  1
  O  O20  1  0.34473000  0.44196900  0.60860700  1
  O  O21  1  0.07233300  0.18225600  0.38954700  1
  O  O22  1  0.81774400  0.92766700  0.11045300  1
  O  O23  1  0.28014700  0.98267500  0.39560700  1
  O  O24  1  0.71985300  0.01732500  0.60439300  1
  O  O25  1  0.18225600  0.07233300  0.88954700  1
  O  O26  1  0.92766700  0.81774400  0.61045300  1
  O  O27  1  0.01732500  0.71985300  0.10439300  1
  O  O28  1  0.55803100  0.65527000  0.89139300  1
  O  O29  1  0.65527000  0.55803100  0.39139300  1
  O  O30  1  0.34816100  0.84871500  0.89171000  1
  O  O31  1  0.15128500  0.65183900  0.60829000  1
  O  O32  1  0.77580100  0.48101500  0.89409300  1
  O  O33  1  0.84871500  0.34816100  0.39171000  1
  O  O34  1  0.51898500  0.22419900  0.60590700  1
  O  O35  1  0.65183900  0.15128500  0.10829000  1
