# generated using pymatgen
data_Li2Si2Ni3O8
_symmetry_space_group_name_H-M   'P 1'
_cell_length_a   5.00135200
_cell_length_b   8.69597982
_cell_length_c   13.22332934
_cell_angle_alpha   109.16955565
_cell_angle_beta   100.06999017
_cell_angle_gamma   89.74843350
_symmetry_Int_Tables_number   1
_chemical_formula_structural   Li2Si2Ni3O8
_chemical_formula_sum   'Li6 Si6 Ni9 O24'
_cell_volume   533.97718622
_cell_formula_units_Z   3
loop_
 _symmetry_equiv_pos_site_id
 _symmetry_equiv_pos_as_xyz
  1  'x, y, z'
loop_
 _atom_site_type_symbol
 _atom_site_label
 _atom_site_symmetry_multiplicity
 _atom_site_fract_x
 _atom_site_fract_y
 _atom_site_fract_z
 _atom_site_occupancy
  Li  Li0  1  0.33262500  0.40818400  0.76858100  1
  Li  Li1  1  0.29401600  0.05488600  0.68994100  1
  Li  Li2  1  0.19955500  0.94007100  0.46648000  1
  Li  Li3  1  0.37589900  0.76243400  0.85320600  1
  Li  Li4  1  0.63116400  0.01467000  0.35864400  1
  Li  Li5  1  0.48949900  0.87281800  0.09229900  1
  Si  Si6  1  0.91431200  0.62102200  0.93418600  1
  Si  Si7  1  0.44221100  0.14164400  0.93941400  1
  Si  Si8  1  0.06036200  0.10432600  0.25297200  1
  Si  Si9  1  0.21804400  0.66294800  0.59833800  1
  Si  Si10  1  0.75882400  0.18172200  0.59785900  1
  Si  Si11  1  0.52580300  0.64365900  0.28064300  1
  Ni  Ni12  1  0.98167600  0.99199300  0.00138400  1
  Ni  Ni13  1  0.22000000  0.27593500  0.50007900  1
  Ni  Ni14  1  0.99367500  0.74108500  0.18617600  1
  Ni  Ni15  1  0.06012400  0.48527900  0.34309200  1
  Ni  Ni16  1  0.90362100  0.24482500  0.84296400  1
  Ni  Ni17  1  0.44182600  0.51158900  0.03010700  1
  Ni  Ni18  1  0.50836600  0.26290800  0.19246500  1
  Ni  Ni19  1  0.76529200  0.55735400  0.68612900  1
  Ni  Ni20  1  0.67978600  0.81672100  0.53155600  1
  O  O21  1  0.54012500  0.03526900  0.58726200  1
  O  O22  1  0.56522900  0.34094500  0.61037100  1
  O  O23  1  0.66330600  0.58679200  0.83035000  1
  O  O24  1  0.54780100  0.69890000  0.61880700  1
  O  O25  1  0.58799300  0.98135100  0.96041000  1
  O  O26  1  0.29483300  0.12669700  0.36000800  1
  O  O27  1  0.52502800  0.19049500  0.83848000  1
  O  O28  1  0.12114500  0.49327000  0.49498100  1
  O  O29  1  0.82908700  0.95342500  0.22684900  1
  O  O30  1  0.07662300  0.81969100  0.57016900  1
  O  O31  1  0.14387600  0.63562800  0.70832100  1
  O  O32  1  0.88596800  0.26723200  0.26423700  1
  O  O33  1  0.76120200  0.65302500  0.04081200  1
  O  O34  1  0.85132700  0.62986300  0.27395800  1
  O  O35  1  0.11281600  0.09655400  0.90714600  1
  O  O36  1  0.90845400  0.12697700  0.48989800  1
  O  O37  1  0.01251700  0.22767900  0.70338700  1
  O  O38  1  0.10699900  0.46082700  0.91713200  1
  O  O39  1  0.13285800  0.77484200  0.96109900  1
  O  O40  1  0.51254000  0.30116300  0.05242200  1
  O  O41  1  0.47552100  0.80139700  0.38312800  1
  O  O42  1  0.36239700  0.67121300  0.16699800  1
  O  O43  1  0.41010900  0.47383600  0.28942000  1
  O  O44  1  0.22926100  0.06975600  0.14863600  1
