# generated using pymatgen
data_Li3Fe2(CoO4)2
_symmetry_space_group_name_H-M   'P 1'
_cell_length_a   5.72766063
_cell_length_b   5.76961940
_cell_length_c   5.75296303
_cell_angle_alpha   60.44428583
_cell_angle_beta   60.17990007
_cell_angle_gamma   89.56512358
_symmetry_Int_Tables_number   1
_chemical_formula_structural   Li3Fe2(CoO4)2
_chemical_formula_sum   'Li3 Fe2 Co2 O8'
_cell_volume   136.17654244
_cell_formula_units_Z   1
loop_
 _symmetry_equiv_pos_site_id
 _symmetry_equiv_pos_as_xyz
  1  'x, y, z'
loop_
 _atom_site_type_symbol
 _atom_site_label
 _atom_site_symmetry_multiplicity
 _atom_site_fract_x
 _atom_site_fract_y
 _atom_site_fract_z
 _atom_site_occupancy
  Li  Li0  1  0.00000000  0.50000000  0.00000000  1
  Li  Li1  1  0.50000000  0.00000000  0.50000000  1
  Li  Li2  1  0.50000000  0.50000000  0.50000000  1
  Fe  Fe3  1  0.00000000  0.50000000  0.50000000  1
  Fe  Fe4  1  0.50000000  0.00000000  0.00000000  1
  Co  Co5  1  0.00000000  0.00000000  0.00000000  1
  Co  Co6  1  0.00000000  0.00000000  0.50000000  1
  O  O7  1  0.23048070  0.21025624  0.02964181  1
  O  O8  1  0.24735733  0.77464463  0.00675202  1
  O  O9  1  0.21644618  0.22583372  0.53494173  1
  O  O10  1  0.24875627  0.76906509  0.47706696  1
  O  O11  1  0.75124373  0.23093491  0.52293304  1
  O  O12  1  0.78355382  0.77416628  0.46505827  1
  O  O13  1  0.75264267  0.22535537  0.99324798  1
  O  O14  1  0.76951930  0.78974376  0.97035819  1
