# generated using pymatgen
data_Li3MnSiBO7
_symmetry_space_group_name_H-M   'P 1'
_cell_length_a   8.07585352
_cell_length_b   8.07644264
_cell_length_c   8.33879874
_cell_angle_alpha   86.47739246
_cell_angle_beta   86.47007234
_cell_angle_gamma   102.07073556
_symmetry_Int_Tables_number   1
_chemical_formula_structural   Li3MnSiBO7
_chemical_formula_sum   'Li12 Mn4 Si4 B4 O28'
_cell_volume   529.31568936
_cell_formula_units_Z   4
loop_
 _symmetry_equiv_pos_site_id
 _symmetry_equiv_pos_as_xyz
  1  'x, y, z'
loop_
 _atom_site_type_symbol
 _atom_site_label
 _atom_site_symmetry_multiplicity
 _atom_site_fract_x
 _atom_site_fract_y
 _atom_site_fract_z
 _atom_site_occupancy
  Li  Li0  1  0.50415900  0.25412400  0.10402600  1
  Li  Li1  1  0.00419000  0.75424800  0.10398700  1
  Li  Li2  1  0.49584500  0.74588400  0.89597000  1
  Li  Li3  1  0.99580700  0.24575900  0.89601400  1
  Li  Li4  1  0.62534100  0.62563400  0.24770000  1
  Li  Li5  1  0.12528200  0.12553800  0.24762400  1
  Li  Li6  1  0.37562900  0.87542200  0.24770300  1
  Li  Li7  1  0.87556500  0.37526900  0.24770600  1
  Li  Li8  1  0.62437600  0.12458200  0.75229500  1
  Li  Li9  1  0.12442200  0.62472800  0.75228300  1
  Li  Li10  1  0.37465400  0.37437700  0.75228900  1
  Li  Li11  1  0.87471200  0.87447300  0.75236500  1
  Mn  Mn12  1  0.27304300  0.52305700  0.31897200  1
  Mn  Mn13  1  0.72693800  0.47692400  0.68102500  1
  Mn  Mn14  1  0.77302800  0.02305000  0.31922200  1
  Mn  Mn15  1  0.22698600  0.97692200  0.68078800  1
  Si  Si16  1  0.48828300  0.23832000  0.42836400  1
  Si  Si17  1  0.98824400  0.73816500  0.42835200  1
  Si  Si18  1  0.51171500  0.76167600  0.57163700  1
  Si  Si19  1  0.01176100  0.26183300  0.57165900  1
  B  B20  1  0.73045500  0.98047000  0.03995400  1
  B  B21  1  0.23042700  0.48042700  0.03971900  1
  B  B22  1  0.26955900  0.01954100  0.96004900  1
  B  B23  1  0.76956400  0.51957600  0.96026600  1
  O  O24  1  0.30379400  0.05377400  0.11153200  1
  O  O25  1  0.80383100  0.55382900  0.11177700  1
  O  O26  1  0.69621100  0.94624500  0.88848700  1
  O  O27  1  0.19616700  0.44617700  0.88821200  1
  O  O28  1  0.85830100  0.10830300  0.08976800  1
  O  O29  1  0.35826200  0.60827200  0.08949700  1
  O  O30  1  0.14171000  0.89170200  0.91024400  1
  O  O31  1  0.64173200  0.39173000  0.91050100  1
  O  O32  1  0.63579400  0.88582200  0.17549600  1
  O  O33  1  0.13579500  0.38576300  0.17524900  1
  O  O34  1  0.36422000  0.11418100  0.82452400  1
  O  O35  1  0.86419100  0.61423600  0.82473300  1
  O  O36  1  0.32675800  0.07647500  0.47427900  1
  O  O37  1  0.82671700  0.57640600  0.47450000  1
  O  O38  1  0.67325000  0.92351900  0.52572600  1
  O  O39  1  0.17328300  0.42359700  0.52549300  1
  O  O40  1  0.44205500  0.69200700  0.40412700  1
  O  O41  1  0.94203800  0.19210100  0.40419800  1
  O  O42  1  0.55793200  0.30798900  0.59587400  1
  O  O43  1  0.05798100  0.80790100  0.59580300  1
  O  O44  1  0.43682200  0.38269700  0.30356100  1
  O  O45  1  0.93675900  0.88267500  0.30372700  1
  O  O46  1  0.63279300  0.18695700  0.30362800  1
  O  O47  1  0.13270300  0.68687500  0.30348900  1
  O  O48  1  0.36721200  0.81303700  0.69638000  1
  O  O49  1  0.86728600  0.31311400  0.69651300  1
  O  O50  1  0.56316000  0.61728600  0.69643000  1
  O  O51  1  0.06325500  0.11733100  0.69628100  1
