# generated using pymatgen
data_LiVSiO4
_symmetry_space_group_name_H-M   'P 1'
_cell_length_a   4.85527102
_cell_length_b   5.16752416
_cell_length_c   16.48533826
_cell_angle_alpha   86.26566313
_cell_angle_beta   89.99305589
_cell_angle_gamma   61.97016680
_symmetry_Int_Tables_number   1
_chemical_formula_structural   LiVSiO4
_chemical_formula_sum   'Li4 V4 Si4 O16'
_cell_volume   364.10371829
_cell_formula_units_Z   4
loop_
 _symmetry_equiv_pos_site_id
 _symmetry_equiv_pos_as_xyz
  1  'x, y, z'
loop_
 _atom_site_type_symbol
 _atom_site_label
 _atom_site_symmetry_multiplicity
 _atom_site_fract_x
 _atom_site_fract_y
 _atom_site_fract_z
 _atom_site_occupancy
  Li  Li0  1  0.87498600  0.24999500  0.62495700  1
  Li  Li1  1  0.62502300  0.74997300  0.87499600  1
  Li  Li2  1  0.37509000  0.24994400  0.12509600  1
  Li  Li3  1  0.12506900  0.74997800  0.37500200  1
  V  V4  1  0.25002200  0.50006100  0.75001000  1
  V  V5  1  0.00011700  0.99990900  0.99996600  1
  V  V6  1  0.74999200  0.49999900  0.24994100  1
  V  V7  1  0.49995700  0.99998500  0.50006700  1
  Si  Si8  1  0.56243700  0.87499400  0.68748100  1
  Si  Si9  1  0.31246500  0.37504300  0.93749100  1
  Si  Si10  1  0.06247400  0.87505200  0.18762600  1
  Si  Si11  1  0.81257500  0.37493100  0.43739100  1
  O  O12  1  0.65138800  0.28217200  0.51411800  1
  O  O13  1  0.40151700  0.78210300  0.76424900  1
  O  O14  1  0.15147200  0.28223800  0.01425700  1
  O  O15  1  0.90124500  0.78241800  0.26435900  1
  O  O16  1  0.33801900  0.95594000  0.60485200  1
  O  O17  1  0.08806400  0.45609500  0.85484500  1
  O  O18  1  0.83832800  0.95632300  0.10492600  1
  O  O19  1  0.58816700  0.45595400  0.35477500  1
  O  O20  1  0.90824900  0.59852300  0.67221800  1
  O  O21  1  0.65819800  0.09829900  0.92232800  1
  O  O22  1  0.40809300  0.59817600  0.17245400  1
  O  O23  1  0.15845600  0.09835900  0.42230100  1
  O  O24  1  0.60189800  0.16352400  0.70851300  1
  O  O25  1  0.35210100  0.66347900  0.95852200  1
  O  O26  1  0.10251500  0.16312700  0.20881600  1
  O  O27  1  0.85208200  0.66340600  0.45844000  1
