# generated using pymatgen
data_Li3Mn2(PO4)3
_symmetry_space_group_name_H-M   'P 1'
_cell_length_a   8.65827900
_cell_length_b   8.93564500
_cell_length_c   12.12054200
_cell_angle_alpha   90.00000000
_cell_angle_beta   90.00000000
_cell_angle_gamma   90.00000000
_symmetry_Int_Tables_number   1
_chemical_formula_structural   Li3Mn2(PO4)3
_chemical_formula_sum   'Li12 Mn8 P12 O48'
_cell_volume   937.73369943
_cell_formula_units_Z   4
loop_
 _symmetry_equiv_pos_site_id
 _symmetry_equiv_pos_as_xyz
  1  'x, y, z'
loop_
 _atom_site_type_symbol
 _atom_site_label
 _atom_site_symmetry_multiplicity
 _atom_site_fract_x
 _atom_site_fract_y
 _atom_site_fract_z
 _atom_site_occupancy
  Li  Li0  1  0.52330200  0.53173300  0.18174500  1
  Li  Li1  1  0.47669800  0.53173300  0.81825500  1
  Li  Li2  1  0.97669800  0.46826700  0.68174500  1
  Li  Li3  1  0.02330200  0.46826700  0.31825500  1
  Li  Li4  1  0.18400200  0.19715800  0.21447900  1
  Li  Li5  1  0.81599800  0.19715800  0.78552100  1
  Li  Li6  1  0.51937400  0.05335400  0.31516000  1
  Li  Li7  1  0.48062600  0.05335400  0.68484000  1
  Li  Li8  1  0.01937400  0.94664600  0.18484000  1
  Li  Li9  1  0.98062600  0.94664600  0.81516000  1
  Li  Li10  1  0.68400200  0.80284200  0.28552100  1
  Li  Li11  1  0.31599800  0.80284200  0.71447900  1
  Mn  Mn12  1  0.20996200  0.50179200  0.11238600  1
  Mn  Mn13  1  0.79003800  0.50179200  0.88761400  1
  Mn  Mn14  1  0.70996200  0.49820800  0.38761400  1
  Mn  Mn15  1  0.29003800  0.49820800  0.61238600  1
  Mn  Mn16  1  0.20597000  0.98822400  0.38943800  1
  Mn  Mn17  1  0.79403000  0.98822400  0.61056200  1
  Mn  Mn18  1  0.70597000  0.01177600  0.11056200  1
  Mn  Mn19  1  0.29403000  0.01177600  0.88943800  1
  P  P20  1  0.00000000  0.69849400  0.50000000  1
  P  P21  1  0.14254100  0.64320600  0.85404800  1
  P  P22  1  0.85745900  0.64320600  0.14595200  1
  P  P23  1  0.35745900  0.35679400  0.35404800  1
  P  P24  1  0.64254100  0.35679400  0.64595200  1
  P  P25  1  0.50000000  0.30150600  0.00000000  1
  P  P26  1  0.00000000  0.19562200  0.00000000  1
  P  P27  1  0.86138900  0.14335300  0.35403100  1
  P  P28  1  0.13861100  0.14335300  0.64596900  1
  P  P29  1  0.36138900  0.85664700  0.14596900  1
  P  P30  1  0.63861100  0.85664700  0.85403100  1
  P  P31  1  0.50000000  0.80437800  0.50000000  1
  O  O32  1  0.39397000  0.71449500  0.57600100  1
  O  O33  1  0.60603000  0.71449500  0.42399900  1
  O  O34  1  0.36045200  0.68783500  0.16586200  1
  O  O35  1  0.63954800  0.68783500  0.83413800  1
  O  O36  1  0.81504400  0.59801300  0.02926100  1
  O  O37  1  0.18495600  0.59801300  0.97073900  1
  O  O38  1  0.90720500  0.59174200  0.42077300  1
  O  O39  1  0.09279500  0.59174200  0.57922700  1
  O  O40  1  0.01918800  0.58225500  0.17905700  1
  O  O41  1  0.98081200  0.58225500  0.82094300  1
  O  O42  1  0.73153700  0.58267200  0.22835300  1
  O  O43  1  0.26846300  0.58267200  0.77164700  1
  O  O44  1  0.23153700  0.41732800  0.27164700  1
  O  O45  1  0.76846300  0.41732800  0.72835300  1
  O  O46  1  0.48081200  0.41774500  0.67905700  1
  O  O47  1  0.51918800  0.41774500  0.32094300  1
  O  O48  1  0.40720500  0.40825800  0.07922700  1
  O  O49  1  0.59279500  0.40825800  0.92077300  1
  O  O50  1  0.31504400  0.40198700  0.47073900  1
  O  O51  1  0.68495600  0.40198700  0.52926100  1
  O  O52  1  0.86045200  0.31216500  0.33413800  1
  O  O53  1  0.13954800  0.31216500  0.66586200  1
  O  O54  1  0.10603000  0.28550500  0.07600100  1
  O  O55  1  0.89397000  0.28550500  0.92399900  1
  O  O56  1  0.39540000  0.21107600  0.92466500  1
  O  O57  1  0.60460000  0.21107600  0.07533500  1
  O  O58  1  0.35372600  0.18608500  0.33577000  1
  O  O59  1  0.64627400  0.18608500  0.66423000  1
  O  O60  1  0.82930400  0.09992900  0.47299800  1
  O  O61  1  0.17069600  0.09992900  0.52700200  1
  O  O62  1  0.90914200  0.08772000  0.07896800  1
  O  O63  1  0.09085800  0.08772000  0.92103200  1
  O  O64  1  0.02682200  0.08526300  0.31616300  1
  O  O65  1  0.97317800  0.08526300  0.68383700  1
  O  O66  1  0.73940300  0.05899000  0.28095000  1
  O  O67  1  0.26059700  0.05899000  0.71905000  1
  O  O68  1  0.23940300  0.94101000  0.21905000  1
  O  O69  1  0.76059700  0.94101000  0.78095000  1
  O  O70  1  0.52682200  0.91473700  0.18383700  1
  O  O71  1  0.47317800  0.91473700  0.81616300  1
  O  O72  1  0.40914200  0.91228000  0.42103200  1
  O  O73  1  0.59085800  0.91228000  0.57896800  1
  O  O74  1  0.32930400  0.90007100  0.02700200  1
  O  O75  1  0.67069600  0.90007100  0.97299800  1
  O  O76  1  0.85372600  0.81391500  0.16423000  1
  O  O77  1  0.14627400  0.81391500  0.83577000  1
  O  O78  1  0.10460000  0.78892400  0.42466500  1
  O  O79  1  0.89540000  0.78892400  0.57533500  1
