# generated using pymatgen
data_Li5Mn2(PO4)3
_symmetry_space_group_name_H-M   'P 1'
_cell_length_a   8.94775300
_cell_length_b   8.99869879
_cell_length_c   12.50760971
_cell_angle_alpha   86.64414273
_cell_angle_beta   89.35433510
_cell_angle_gamma   89.80005298
_symmetry_Int_Tables_number   1
_chemical_formula_structural   Li5Mn2(PO4)3
_chemical_formula_sum   'Li20 Mn8 P12 O48'
_cell_volume   1005.29458790
_cell_formula_units_Z   4
loop_
 _symmetry_equiv_pos_site_id
 _symmetry_equiv_pos_as_xyz
  1  'x, y, z'
loop_
 _atom_site_type_symbol
 _atom_site_label
 _atom_site_symmetry_multiplicity
 _atom_site_fract_x
 _atom_site_fract_y
 _atom_site_fract_z
 _atom_site_occupancy
  Li  Li0  1  0.48101400  0.05126600  0.65312800  1
  Li  Li1  1  0.96590100  0.08528600  0.31355100  1
  Li  Li2  1  0.27414800  0.16040400  0.22952100  1
  Li  Li3  1  0.22041200  0.19859700  0.82574300  1
  Li  Li4  1  0.72099000  0.28374200  0.66053700  1
  Li  Li5  1  0.77154700  0.33567600  0.27005200  1
  Li  Li6  1  0.46821800  0.40832200  0.19051400  1
  Li  Li7  1  0.74461000  0.41603000  0.81188300  1
  Li  Li8  1  0.03215800  0.46174300  0.82616800  1
  Li  Li9  1  0.97919600  0.53166800  0.16428600  1
  Li  Li10  1  0.24923800  0.57800800  0.18812400  1
  Li  Li11  1  0.54066800  0.59658300  0.80032000  1
  Li  Li12  1  0.22785700  0.65755500  0.73307700  1
  Li  Li13  1  0.26944500  0.66586000  0.37257200  1
  Li  Li14  1  0.79702800  0.78246400  0.15110900  1
  Li  Li15  1  0.40932900  0.84549600  0.25811000  1
  Li  Li16  1  0.72227000  0.86127600  0.76091700  1
  Li  Li17  1  0.08907000  0.94215700  0.69473600  1
  Li  Li18  1  0.76014700  0.91454000  0.30325400  1
  Li  Li19  1  0.50946400  0.04072300  0.33807100  1
  Mn  Mn20  1  0.96099700  0.23529800  0.09211000  1
  Mn  Mn21  1  0.44128800  0.28629300  0.41981200  1
  Mn  Mn22  1  0.05108400  0.26007600  0.60404100  1
  Mn  Mn23  1  0.53024900  0.22590100  0.90270400  1
  Mn  Mn24  1  0.47642400  0.73211900  0.06802000  1
  Mn  Mn25  1  0.96140000  0.74199000  0.40832500  1
  Mn  Mn26  1  0.55158100  0.74513900  0.58714200  1
  Mn  Mn27  1  0.03545300  0.76088500  0.90548400  1
  P  P28  1  0.74952600  0.05868800  0.50910100  1
  P  P29  1  0.61968800  0.09941600  0.15523100  1
  P  P30  1  0.90054300  0.10556700  0.84013700  1
  P  P31  1  0.11675500  0.39623000  0.34615800  1
  P  P32  1  0.40173400  0.40535900  0.67173800  1
  P  P33  1  0.24995300  0.44764200  0.99564500  1
  P  P34  1  0.75695900  0.53414300  0.00380300  1
  P  P35  1  0.59221400  0.60735400  0.32992200  1
  P  P36  1  0.88133900  0.60408400  0.66005500  1
  P  P37  1  0.08693200  0.88975500  0.16504200  1
  P  P38  1  0.37898100  0.90133500  0.84409600  1
  P  P39  1  0.25305200  0.95609800  0.48840600  1
  O  O40  1  0.14089300  0.04496100  0.55334700  1
  O  O41  1  0.11421800  0.06096200  0.15549700  1
  O  O42  1  0.31184400  0.05014500  0.38497900  1
  O  O43  1  0.40147700  0.06925900  0.80703700  1
  O  O44  1  0.61867400  0.12053500  0.43798900  1
  O  O45  1  0.61866000  0.10928700  0.03419800  1
  O  O46  1  0.77603800  0.13970900  0.20097300  1
  O  O47  1  0.02586500  0.13300100  0.75284500  1
  O  O48  1  0.75033900  0.18203100  0.80574900  1
  O  O49  1  0.83250700  0.19100300  0.55278700  1
  O  O50  1  0.49509100  0.19279600  0.20826600  1
  O  O51  1  0.96121300  0.17796700  0.93928300  1
  O  O52  1  0.99383000  0.30276600  0.29540400  1
  O  O53  1  0.46216000  0.31943400  0.57627900  1
  O  O54  1  0.27595600  0.35931200  0.29743700  1
  O  O55  1  0.30848900  0.30050100  0.95408300  1
  O  O56  1  0.12751500  0.37974600  0.46740600  1
  O  O57  1  0.24386300  0.35085300  0.70610100  1
  O  O58  1  0.52396500  0.37618800  0.75919100  1
  O  O59  1  0.11954200  0.41932100  0.07920500  1
  O  O60  1  0.80604700  0.43716900  0.10597300  1
  O  O61  1  0.60366600  0.43436900  0.33873900  1
  O  O62  1  0.89623300  0.43357100  0.69611700  1
  O  O63  1  0.63553700  0.45750900  0.93990500  1
  O  O64  1  0.37052700  0.52380000  0.06441800  1
  O  O65  1  0.08997700  0.56440800  0.30732700  1
  O  O66  1  0.39654900  0.57811400  0.65230800  1
  O  O67  1  0.19961200  0.55495200  0.90063600  1
  O  O68  1  0.89123000  0.56487800  0.92610700  1
  O  O69  1  0.47115400  0.64151600  0.23994700  1
  O  O70  1  0.74496600  0.67749500  0.29873500  1
  O  O71  1  0.87992000  0.62649700  0.53820500  1
  O  O72  1  0.69748400  0.68440100  0.04338600  1
  O  O73  1  0.72540400  0.65412900  0.70503100  1
  O  O74  1  0.52104100  0.67584200  0.42905700  1
  O  O75  1  0.01076500  0.68644000  0.71377500  1
  O  O76  1  0.01886800  0.81669600  0.06790500  1
  O  O77  1  0.50483200  0.81108300  0.79095600  1
  O  O78  1  0.18046400  0.81291300  0.44870100  1
  O  O79  1  0.23258200  0.80654500  0.19765500  1
  O  O80  1  0.96313800  0.86817000  0.25461200  1
  O  O81  1  0.22293400  0.85175800  0.80342600  1
  O  O82  1  0.38028800  0.88037100  0.96675200  1
  O  O83  1  0.38664300  0.91371100  0.56158500  1
  O  O84  1  0.59048200  0.93483300  0.20485400  1
  O  O85  1  0.68528400  0.95698800  0.60444800  1
  O  O86  1  0.87912600  0.93386400  0.85294900  1
  O  O87  1  0.85033100  0.96814100  0.43339500  1
