# generated using pymatgen
data_LiSn(PO3)4
_symmetry_space_group_name_H-M   'P 1'
_cell_length_a   7.75158749
_cell_length_b   7.75158749
_cell_length_c   17.76934800
_cell_angle_alpha   90.00000000
_cell_angle_beta   90.00000000
_cell_angle_gamma   98.95254351
_symmetry_Int_Tables_number   1
_chemical_formula_structural   LiSn(PO3)4
_chemical_formula_sum   'Li4 Sn4 P16 O48'
_cell_volume   1054.70145882
_cell_formula_units_Z   4
loop_
 _symmetry_equiv_pos_site_id
 _symmetry_equiv_pos_as_xyz
  1  'x, y, z'
loop_
 _atom_site_type_symbol
 _atom_site_label
 _atom_site_symmetry_multiplicity
 _atom_site_fract_x
 _atom_site_fract_y
 _atom_site_fract_z
 _atom_site_occupancy
  Li  Li0  1  0.19260200  0.09923600  0.64597300  1
  Li  Li1  1  0.90076400  0.80739800  0.85402700  1
  Li  Li2  1  0.80739800  0.90076400  0.14597300  1
  Li  Li3  1  0.09923600  0.19260200  0.35402700  1
  Sn  Sn4  1  0.57114700  0.97811000  0.86993500  1
  Sn  Sn5  1  0.02189000  0.42885300  0.63006500  1
  Sn  Sn6  1  0.42885300  0.02189000  0.36993500  1
  Sn  Sn7  1  0.97811000  0.57114700  0.13006500  1
  P  P8  1  0.03633600  0.75293800  0.34565500  1
  P  P9  1  0.24706200  0.96366400  0.15434500  1
  P  P10  1  0.30317600  0.78263800  0.01045800  1
  P  P11  1  0.21736200  0.69682400  0.48954200  1
  P  P12  1  0.36169400  0.63830600  0.75000000  1
  P  P13  1  0.27429900  0.32791900  0.19026600  1
  P  P14  1  0.67208100  0.72570100  0.30973400  1
  P  P15  1  0.35085000  0.35085000  0.50000000  1
  P  P16  1  0.64915000  0.64915000  0.00000000  1
  P  P17  1  0.32791900  0.27429900  0.80973400  1
  P  P18  1  0.72570100  0.67208100  0.69026600  1
  P  P19  1  0.63830600  0.36169400  0.25000000  1
  P  P20  1  0.78263800  0.30317600  0.98954200  1
  P  P21  1  0.69682400  0.21736200  0.51045800  1
  P  P22  1  0.75293800  0.03633600  0.65434500  1
  P  P23  1  0.96366400  0.24706200  0.84565500  1
  O  O24  1  0.05684600  0.87758000  0.14604600  1
  O  O25  1  0.12242000  0.94315400  0.35395400  1
  O  O26  1  0.05183000  0.64898700  0.27702400  1
  O  O27  1  0.35101300  0.94817000  0.22297600  1
  O  O28  1  0.12335900  0.67804500  0.01802400  1
  O  O29  1  0.32195500  0.87664100  0.48197600  1
  O  O30  1  0.09876100  0.64423200  0.41642900  1
  O  O31  1  0.35576800  0.90123900  0.08357100  1
  O  O32  1  0.10279700  0.66416500  0.55844900  1
  O  O33  1  0.33583500  0.89720300  0.94155100  1
  O  O34  1  0.38874900  0.80680300  0.79388400  1
  O  O35  1  0.19319700  0.61125100  0.70611600  1
  O  O36  1  0.21937300  0.48000300  0.14784100  1
  O  O37  1  0.51999700  0.78062700  0.35215900  1
  O  O38  1  0.44389200  0.64808500  0.01236400  1
  O  O39  1  0.35191500  0.55610800  0.48763600  1
  O  O40  1  0.75796900  0.83350400  0.63188800  1
  O  O41  1  0.16649600  0.24203100  0.86811200  1
  O  O42  1  0.51463700  0.62544400  0.69061900  1
  O  O43  1  0.37455600  0.48536300  0.80938100  1
  O  O44  1  0.70886400  0.74591000  0.92835000  1
  O  O45  1  0.25409000  0.29113600  0.57165000  1
  O  O46  1  0.71983100  0.79800300  0.23421700  1
  O  O47  1  0.20199700  0.28016900  0.26578300  1
  O  O48  1  0.28016900  0.20199700  0.73421700  1
  O  O49  1  0.79800300  0.71983100  0.76578300  1
  O  O50  1  0.29113600  0.25409000  0.42835000  1
  O  O51  1  0.74591000  0.70886400  0.07165000  1
  O  O52  1  0.62544400  0.51463700  0.30938100  1
  O  O53  1  0.48536300  0.37455600  0.19061900  1
  O  O54  1  0.24203100  0.16649600  0.13188800  1
  O  O55  1  0.83350400  0.75796900  0.36811200  1
  O  O56  1  0.64808500  0.44389200  0.98763600  1
  O  O57  1  0.55610800  0.35191500  0.51236400  1
  O  O58  1  0.78062700  0.51999700  0.64784100  1
  O  O59  1  0.48000300  0.21937300  0.85215900  1
  O  O60  1  0.80680300  0.38874900  0.20611600  1
  O  O61  1  0.61125100  0.19319700  0.29388400  1
  O  O62  1  0.66416500  0.10279700  0.44155100  1
  O  O63  1  0.89720300  0.33583500  0.05844900  1
  O  O64  1  0.64423200  0.09876100  0.58357100  1
  O  O65  1  0.90123900  0.35576800  0.91642900  1
  O  O66  1  0.87664100  0.32195500  0.51802400  1
  O  O67  1  0.67804500  0.12335900  0.98197600  1
  O  O68  1  0.64898700  0.05183000  0.72297600  1
  O  O69  1  0.94817000  0.35101300  0.77702400  1
  O  O70  1  0.94315400  0.12242000  0.64604600  1
  O  O71  1  0.87758000  0.05684600  0.85395400  1
