# generated using pymatgen
data_LiNb7O12
_symmetry_space_group_name_H-M   'P 1'
_cell_length_a   9.60351900
_cell_length_b   10.40786600
_cell_length_c   10.87106144
_cell_angle_alpha   75.23812623
_cell_angle_beta   90.00000000
_cell_angle_gamma   90.00000000
_symmetry_Int_Tables_number   1
_chemical_formula_structural   LiNb7O12
_chemical_formula_sum   'Li4 Nb28 O48'
_cell_volume   1050.72107233
_cell_formula_units_Z   4
loop_
 _symmetry_equiv_pos_site_id
 _symmetry_equiv_pos_as_xyz
  1  'x, y, z'
loop_
 _atom_site_type_symbol
 _atom_site_label
 _atom_site_symmetry_multiplicity
 _atom_site_fract_x
 _atom_site_fract_y
 _atom_site_fract_z
 _atom_site_occupancy
  Li  Li0  1  0.93071800  0.52764400  0.58048900  1
  Li  Li1  1  0.56928200  0.02764400  0.58048900  1
  Li  Li2  1  0.43071800  0.97235600  0.41951100  1
  Li  Li3  1  0.06928200  0.47235600  0.41951100  1
  Nb  Nb4  1  0.10942500  0.65838600  0.99927600  1
  Nb  Nb5  1  0.12959600  0.96225700  0.85454900  1
  Nb  Nb6  1  0.39057500  0.15838600  0.99927600  1
  Nb  Nb7  1  0.63160600  0.61785900  0.85020900  1
  Nb  Nb8  1  0.37040400  0.46225700  0.85454900  1
  Nb  Nb9  1  0.88088200  0.90741300  0.72164100  1
  Nb  Nb10  1  0.37734000  0.74484700  0.71754600  1
  Nb  Nb11  1  0.86839400  0.11785900  0.85020900  1
  Nb  Nb12  1  0.61911800  0.40741300  0.72164100  1
  Nb  Nb13  1  0.12266000  0.24484700  0.71754600  1
  Nb  Nb14  1  0.62262800  0.68963100  0.57827700  1
  Nb  Nb15  1  0.37016300  0.53684600  0.58730800  1
  Nb  Nb16  1  0.87016300  0.96315400  0.41269200  1
  Nb  Nb17  1  0.87737200  0.18963100  0.57827700  1
  Nb  Nb18  1  0.12262800  0.81036900  0.42172300  1
  Nb  Nb19  1  0.12983700  0.03684600  0.58730800  1
  Nb  Nb20  1  0.62983700  0.46315400  0.41269200  1
  Nb  Nb21  1  0.37737200  0.31036900  0.42172300  1
  Nb  Nb22  1  0.87734000  0.75515300  0.28245400  1
  Nb  Nb23  1  0.38088200  0.59258700  0.27835900  1
  Nb  Nb24  1  0.13160600  0.88214100  0.14979100  1
  Nb  Nb25  1  0.62266000  0.25515300  0.28245400  1
  Nb  Nb26  1  0.11911800  0.09258700  0.27835900  1
  Nb  Nb27  1  0.62959600  0.53774300  0.14545100  1
  Nb  Nb28  1  0.36839400  0.38214100  0.14979100  1
  Nb  Nb29  1  0.60942500  0.84161400  0.00072400  1
  Nb  Nb30  1  0.87040400  0.03774300  0.14545100  1
  Nb  Nb31  1  0.89057500  0.34161400  0.00072400  1
  O  O32  1  0.73400100  0.67785900  0.99969800  1
  O  O33  1  0.00000000  0.50000000  0.00000000  1
  O  O34  1  0.50000000  0.50000000  0.00000000  1
  O  O35  1  0.74929700  0.94720200  0.86043300  1
  O  O36  1  0.00530500  0.78537300  0.86192600  1
  O  O37  1  0.76599900  0.17785900  0.99969800  1
  O  O38  1  0.50791000  0.78858700  0.85988900  1
  O  O39  1  0.25160200  0.62572400  0.86453800  1
  O  O40  1  0.00000000  0.00000000  0.00000000  1
  O  O41  1  0.50000000  0.00000000  0.00000000  1
  O  O42  1  0.75070300  0.44720200  0.86043300  1
  O  O43  1  0.25072400  0.91226900  0.72000200  1
  O  O44  1  0.49469500  0.28537300  0.86192600  1
  O  O45  1  0.99209000  0.28858700  0.85988900  1
  O  O46  1  0.24839800  0.12572400  0.86453800  1
  O  O47  1  0.75180800  0.73365900  0.71391500  1
  O  O48  1  0.24927600  0.41226900  0.72000200  1
  O  O49  1  0.50208300  0.85401900  0.57623400  1
  O  O50  1  0.00301000  0.86620100  0.56974900  1
  O  O51  1  0.74819200  0.23365900  0.71391500  1
  O  O52  1  0.25465700  0.70314700  0.57436600  1
  O  O53  1  0.73780300  0.51831200  0.57108600  1
  O  O54  1  0.99791700  0.35401900  0.57623400  1
  O  O55  1  0.49699000  0.36620100  0.56974900  1
  O  O56  1  0.23780300  0.98168800  0.42891400  1
  O  O57  1  0.24534300  0.20314700  0.57436600  1
  O  O58  1  0.75465700  0.79685300  0.42563400  1
  O  O59  1  0.76219700  0.01831200  0.57108600  1
  O  O60  1  0.50301000  0.63379900  0.43025100  1
  O  O61  1  0.00208300  0.64598100  0.42376600  1
  O  O62  1  0.26219700  0.48168800  0.42891400  1
  O  O63  1  0.74534300  0.29685300  0.42563400  1
  O  O64  1  0.25180800  0.76634100  0.28608500  1
  O  O65  1  0.99699000  0.13379900  0.43025100  1
  O  O66  1  0.49791700  0.14598100  0.42376600  1
  O  O67  1  0.75072400  0.58773100  0.27999800  1
  O  O68  1  0.24819200  0.26634100  0.28608500  1
  O  O69  1  0.75160200  0.87427600  0.13546200  1
  O  O70  1  0.00791000  0.71141300  0.14011100  1
  O  O71  1  0.50530500  0.71462700  0.13807400  1
  O  O72  1  0.74927600  0.08773100  0.27999800  1
  O  O73  1  0.24929700  0.55279800  0.13956700  1
  O  O74  1  0.74839800  0.37427600  0.13546200  1
  O  O75  1  0.49209000  0.21141300  0.14011100  1
  O  O76  1  0.23400100  0.82214100  0.00030200  1
  O  O77  1  0.99469500  0.21462700  0.13807400  1
  O  O78  1  0.25070300  0.05279800  0.13956700  1
  O  O79  1  0.26599900  0.32214100  0.00030200  1
