# generated using pymatgen
data_LiV2(CO4)2
_symmetry_space_group_name_H-M   'P 1'
_cell_length_a   9.46930800
_cell_length_b   6.28782900
_cell_length_c   11.24251521
_cell_angle_alpha   56.87768010
_cell_angle_beta   90.00000000
_cell_angle_gamma   90.00000000
_symmetry_Int_Tables_number   1
_chemical_formula_structural   LiV2(CO4)2
_chemical_formula_sum   'Li4 V8 C8 O32'
_cell_volume   560.62225305
_cell_formula_units_Z   4
loop_
 _symmetry_equiv_pos_site_id
 _symmetry_equiv_pos_as_xyz
  1  'x, y, z'
loop_
 _atom_site_type_symbol
 _atom_site_label
 _atom_site_symmetry_multiplicity
 _atom_site_fract_x
 _atom_site_fract_y
 _atom_site_fract_z
 _atom_site_occupancy
  Li  Li0  1  0.31238100  0.46294700  0.90237400  1
  Li  Li1  1  0.68761900  0.53705300  0.09762600  1
  Li  Li2  1  0.18761900  0.46294700  0.40237400  1
  Li  Li3  1  0.81238100  0.53705300  0.59762600  1
  V  V4  1  0.55545800  0.00578600  0.36553600  1
  V  V5  1  0.93077500  0.48408400  0.88739500  1
  V  V6  1  0.06922500  0.51591600  0.11260500  1
  V  V7  1  0.44454200  0.99421400  0.63446400  1
  V  V8  1  0.56922500  0.48408400  0.38739500  1
  V  V9  1  0.94454200  0.00578600  0.86553600  1
  V  V10  1  0.05545800  0.99421400  0.13446400  1
  V  V11  1  0.43077500  0.51591600  0.61260500  1
  C  C12  1  0.86262600  0.04667000  0.33173800  1
  C  C13  1  0.63499300  0.53115000  0.83865000  1
  C  C14  1  0.36500700  0.46885000  0.16135000  1
  C  C15  1  0.13737400  0.95333000  0.66826200  1
  C  C16  1  0.86500700  0.53115000  0.33865000  1
  C  C17  1  0.63737400  0.04667000  0.83173800  1
  C  C18  1  0.36262600  0.95333000  0.16826200  1
  C  C19  1  0.13499300  0.46885000  0.66135000  1
  O  O20  1  0.74103200  0.13833600  0.26730300  1
  O  O21  1  0.97614400  0.14464700  0.24048100  1
  O  O22  1  0.75542500  0.58991600  0.76747700  1
  O  O23  1  0.11126600  0.37677100  0.00835600  1
  O  O24  1  0.51580600  0.60388100  0.75749200  1
  O  O25  1  0.39567700  0.85686600  0.51153200  1
  O  O26  1  0.87945700  0.89006100  0.45875200  1
  O  O27  1  0.62813500  0.42295100  0.96828800  1
  O  O28  1  0.37186500  0.57704900  0.03171200  1
  O  O29  1  0.12054300  0.10993900  0.54124800  1
  O  O30  1  0.60432300  0.14313400  0.48846800  1
  O  O31  1  0.48419400  0.39611900  0.24250800  1
  O  O32  1  0.88873400  0.62322900  0.99164400  1
  O  O33  1  0.24457500  0.41008400  0.23252300  1
  O  O34  1  0.02385600  0.85535300  0.75951900  1
  O  O35  1  0.25896800  0.86166400  0.73269700  1
  O  O36  1  0.74457500  0.58991600  0.26747700  1
  O  O37  1  0.98419400  0.60388100  0.25749200  1
  O  O38  1  0.75896800  0.13833600  0.76730300  1
  O  O39  1  0.10432300  0.85686600  0.01153200  1
  O  O40  1  0.52385600  0.14464700  0.74048100  1
  O  O41  1  0.38873400  0.37677100  0.50835600  1
  O  O42  1  0.87186500  0.42295100  0.46828800  1
  O  O43  1  0.62054300  0.89006100  0.95875200  1
  O  O44  1  0.37945700  0.10993900  0.04124800  1
  O  O45  1  0.12813500  0.57704900  0.53171200  1
  O  O46  1  0.61126600  0.62322900  0.49164400  1
  O  O47  1  0.47614400  0.85535300  0.25951900  1
  O  O48  1  0.89567700  0.14313400  0.98846800  1
  O  O49  1  0.24103200  0.86166400  0.23269700  1
  O  O50  1  0.01580600  0.39611900  0.74250800  1
  O  O51  1  0.25542500  0.41008400  0.73252300  1
