# generated using pymatgen
data_Li3Mn2V3O12
_symmetry_space_group_name_H-M   'P 1'
_cell_length_a   9.19689400
_cell_length_b   8.82642100
_cell_length_c   15.08404303
_cell_angle_alpha   56.99579524
_cell_angle_beta   90.00000000
_cell_angle_gamma   90.00000000
_symmetry_Int_Tables_number   1
_chemical_formula_structural   Li3Mn2V3O12
_chemical_formula_sum   'Li12 Mn8 V12 O48'
_cell_volume   1026.86720742
_cell_formula_units_Z   4
loop_
 _symmetry_equiv_pos_site_id
 _symmetry_equiv_pos_as_xyz
  1  'x, y, z'
loop_
 _atom_site_type_symbol
 _atom_site_label
 _atom_site_symmetry_multiplicity
 _atom_site_fract_x
 _atom_site_fract_y
 _atom_site_fract_z
 _atom_site_occupancy
  Li  Li0  1  0.91046100  0.37748700  0.69672500  1
  Li  Li1  1  0.48755300  0.71678000  0.34225500  1
  Li  Li2  1  0.22359500  0.99805900  0.18035500  1
  Li  Li3  1  0.72359500  0.00194100  0.31964500  1
  Li  Li4  1  0.41046100  0.62251300  0.80327500  1
  Li  Li5  1  0.98755300  0.28322000  0.15774500  1
  Li  Li6  1  0.01244700  0.71678000  0.84225500  1
  Li  Li7  1  0.58953900  0.37748700  0.19672500  1
  Li  Li8  1  0.27640500  0.99805900  0.68035500  1
  Li  Li9  1  0.77640500  0.00194100  0.81964500  1
  Li  Li10  1  0.51244700  0.28322000  0.65774500  1
  Li  Li11  1  0.08953900  0.62251300  0.30327500  1
  Mn  Mn12  1  0.97224000  0.35448700  0.89391800  1
  Mn  Mn13  1  0.47224000  0.64551300  0.60608200  1
  Mn  Mn14  1  0.03325200  0.87128500  0.38216300  1
  Mn  Mn15  1  0.53325200  0.12871500  0.11783700  1
  Mn  Mn16  1  0.46674800  0.87128500  0.88216300  1
  Mn  Mn17  1  0.96674800  0.12871500  0.61783700  1
  Mn  Mn18  1  0.52776000  0.35448700  0.39391800  1
  Mn  Mn19  1  0.02776000  0.64551300  0.10608200  1
  V  V20  1  0.75013800  0.55458400  0.48930800  1
  V  V21  1  0.62207500  0.26128400  0.85728600  1
  V  V22  1  0.88557500  0.96446800  0.14776000  1
  V  V23  1  0.12207500  0.73871600  0.64271400  1
  V  V24  1  0.38557500  0.03553200  0.35224000  1
  V  V25  1  0.25013800  0.44541600  0.01069200  1
  V  V26  1  0.74986200  0.55458400  0.98930800  1
  V  V27  1  0.61442500  0.96446800  0.64776000  1
  V  V28  1  0.87792500  0.26128400  0.35728600  1
  V  V29  1  0.11442500  0.03553200  0.85224000  1
  V  V30  1  0.37792500  0.73871600  0.14271400  1
  V  V31  1  0.24986200  0.44541600  0.51069200  1
  O  O32  1  0.12393600  0.61024800  0.44125400  1
  O  O33  1  0.10375100  0.16708500  0.90419600  1
  O  O34  1  0.34546700  0.46219900  0.60642300  1
  O  O35  1  0.41791700  0.87083600  0.19418600  1
  O  O36  1  0.63037800  0.51771400  0.59006100  1
  O  O37  1  0.81494100  0.28248700  0.84027300  1
  O  O38  1  0.58102600  0.14819800  0.99011600  1
  O  O39  1  0.01298200  0.87059900  0.25364400  1
  O  O40  1  0.71233800  0.98122600  0.19080400  1
  O  O41  1  0.82995300  0.76899000  0.42692000  1
  O  O42  1  0.53106500  0.46201900  0.78542500  1
  O  O43  1  0.03106500  0.53798100  0.71457500  1
  O  O44  1  0.94778200  0.18269700  0.06428100  1
  O  O45  1  0.44778200  0.81730300  0.43571900  1
  O  O46  1  0.32995300  0.23101000  0.07308000  1
  O  O47  1  0.21233800  0.01877400  0.30919600  1
  O  O48  1  0.08102600  0.85180200  0.50988400  1
  O  O49  1  0.51298200  0.12940100  0.24635600  1
  O  O50  1  0.31494100  0.71751300  0.65972700  1
  O  O51  1  0.13037800  0.48228600  0.90993900  1
  O  O52  1  0.84546700  0.53780100  0.89357700  1
  O  O53  1  0.60375100  0.83291500  0.59580400  1
  O  O54  1  0.91791700  0.12916400  0.30581400  1
  O  O55  1  0.62393600  0.38975200  0.05874600  1
  O  O56  1  0.37606400  0.61024800  0.94125400  1
  O  O57  1  0.08208300  0.87083600  0.69418600  1
  O  O58  1  0.39624900  0.16708500  0.40419600  1
  O  O59  1  0.15453300  0.46219900  0.10642300  1
  O  O60  1  0.86962200  0.51771400  0.09006100  1
  O  O61  1  0.68505900  0.28248700  0.34027300  1
  O  O62  1  0.48701800  0.87059900  0.75364400  1
  O  O63  1  0.91897400  0.14819800  0.49011600  1
  O  O64  1  0.78766200  0.98122600  0.69080400  1
  O  O65  1  0.67004700  0.76899000  0.92692000  1
  O  O66  1  0.55221800  0.18269700  0.56428100  1
  O  O67  1  0.05221800  0.81730300  0.93571900  1
  O  O68  1  0.96893500  0.46201900  0.28542500  1
  O  O69  1  0.46893500  0.53798100  0.21457500  1
  O  O70  1  0.17004700  0.23101000  0.57308000  1
  O  O71  1  0.28766200  0.01877400  0.80919600  1
  O  O72  1  0.98701800  0.12940100  0.74635600  1
  O  O73  1  0.41897400  0.85180200  0.00988400  1
  O  O74  1  0.18505900  0.71751300  0.15972700  1
  O  O75  1  0.36962200  0.48228600  0.40993900  1
  O  O76  1  0.58208300  0.12916400  0.80581400  1
  O  O77  1  0.65453300  0.53780100  0.39357700  1
  O  O78  1  0.89624900  0.83291500  0.09580400  1
  O  O79  1  0.87606400  0.38975200  0.55874600  1
