# generated using pymatgen
data_Li3Bi2(PO4)3
_symmetry_space_group_name_H-M   'P 1'
_cell_length_a   9.44990200
_cell_length_b   8.81363600
_cell_length_c   12.85301105
_cell_angle_alpha   81.95434423
_cell_angle_beta   90.00000000
_cell_angle_gamma   90.00000000
_symmetry_Int_Tables_number   1
_chemical_formula_structural   Li3Bi2(PO4)3
_chemical_formula_sum   'Li12 Bi8 P12 O48'
_cell_volume   1059.96443713
_cell_formula_units_Z   4
loop_
 _symmetry_equiv_pos_site_id
 _symmetry_equiv_pos_as_xyz
  1  'x, y, z'
loop_
 _atom_site_type_symbol
 _atom_site_label
 _atom_site_symmetry_multiplicity
 _atom_site_fract_x
 _atom_site_fract_y
 _atom_site_fract_z
 _atom_site_occupancy
  Li  Li0  1  0.18408300  0.72025600  0.94291000  1
  Li  Li1  1  0.60970400  0.50000000  0.75000000  1
  Li  Li2  1  0.18408300  0.27974400  0.55709000  1
  Li  Li3  1  0.50000000  0.50000000  0.50000000  1
  Li  Li4  1  0.00000000  0.00000000  0.50000000  1
  Li  Li5  1  0.81591700  0.72025600  0.44291000  1
  Li  Li6  1  0.88836800  0.00000000  0.75000000  1
  Li  Li7  1  0.39029600  0.50000000  0.25000000  1
  Li  Li8  1  0.11163200  0.00000000  0.25000000  1
  Li  Li9  1  0.00000000  0.00000000  0.00000000  1
  Li  Li10  1  0.50000000  0.50000000  0.00000000  1
  Li  Li11  1  0.81591700  0.27974400  0.05709000  1
  Bi  Bi12  1  0.50494300  0.80937600  0.83893600  1
  Bi  Bi13  1  0.00266400  0.68596200  0.65999400  1
  Bi  Bi14  1  0.00266400  0.31403800  0.84000600  1
  Bi  Bi15  1  0.50494300  0.19062400  0.66106400  1
  Bi  Bi16  1  0.99733600  0.68596200  0.15999400  1
  Bi  Bi17  1  0.99733600  0.31403800  0.34000600  1
  Bi  Bi18  1  0.49505700  0.80937600  0.33893600  1
  Bi  Bi19  1  0.49505700  0.19062400  0.16106400  1
  P  P20  1  0.33127500  0.50000000  0.75000000  1
  P  P21  1  0.83557900  0.67758100  0.91750200  1
  P  P22  1  0.66150500  0.81433000  0.59014500  1
  P  P23  1  0.16166300  0.00000000  0.75000000  1
  P  P24  1  0.16442100  0.67758100  0.41750200  1
  P  P25  1  0.66150500  0.18567000  0.90985500  1
  P  P26  1  0.83557900  0.32241900  0.58249800  1
  P  P27  1  0.33849500  0.81433000  0.09014500  1
  P  P28  1  0.33849500  0.18567000  0.40985500  1
  P  P29  1  0.16442100  0.32241900  0.08249800  1
  P  P30  1  0.66872500  0.50000000  0.25000000  1
  P  P31  1  0.83833700  0.00000000  0.25000000  1
  O  O32  1  0.24778400  0.87383000  0.81582700  1
  O  O33  1  0.59564200  0.02953700  0.90110900  1
  O  O34  1  0.05858800  0.93451200  0.66967100  1
  O  O35  1  0.43289500  0.55962200  0.83358800  1
  O  O36  1  0.24147000  0.37049400  0.80821000  1
  O  O37  1  0.67194300  0.67909700  0.93677900  1
  O  O38  1  0.91901500  0.76383400  0.99803300  1
  O  O39  1  0.24147000  0.62950600  0.69179000  1
  O  O40  1  0.05858800  0.06548800  0.83032900  1
  O  O41  1  0.08098500  0.76383400  0.49803300  1
  O  O42  1  0.60519000  0.26558800  0.00449300  1
  O  O43  1  0.63672100  0.70408700  0.69173000  1
  O  O44  1  0.40435800  0.02953700  0.40110900  1
  O  O45  1  0.87941300  0.50719600  0.92890100  1
  O  O46  1  0.87458100  0.77050500  0.81034000  1
  O  O47  1  0.43289500  0.44037800  0.66641200  1
  O  O48  1  0.12541900  0.77050500  0.31034000  1
  O  O49  1  0.63672100  0.29591300  0.80827000  1
  O  O50  1  0.82539400  0.83442200  0.56661300  1
  O  O51  1  0.60519000  0.73441200  0.49550700  1
  O  O52  1  0.24778400  0.12617000  0.68417300  1
  O  O53  1  0.12058700  0.50719600  0.42890100  1
  O  O54  1  0.32805700  0.67909700  0.43677900  1
  O  O55  1  0.82539400  0.16557800  0.93338700  1
  O  O56  1  0.67194300  0.32090300  0.56322100  1
  O  O57  1  0.17460600  0.83442200  0.06661300  1
  O  O58  1  0.75221600  0.87383000  0.31582700  1
  O  O59  1  0.87941300  0.49280400  0.57109900  1
  O  O60  1  0.17460600  0.16557800  0.43338700  1
  O  O61  1  0.39481000  0.26558800  0.50449300  1
  O  O62  1  0.87458100  0.22949500  0.68966000  1
  O  O63  1  0.36327900  0.70408700  0.19173000  1
  O  O64  1  0.56710500  0.55962200  0.33358800  1
  O  O65  1  0.12541900  0.22949500  0.18966000  1
  O  O66  1  0.59564200  0.97046300  0.59889100  1
  O  O67  1  0.12058700  0.49280400  0.07109900  1
  O  O68  1  0.36327900  0.29591300  0.30827000  1
  O  O69  1  0.39481000  0.73441200  0.99550700  1
  O  O70  1  0.91901500  0.23616600  0.50196700  1
  O  O71  1  0.94141200  0.93451200  0.16967100  1
  O  O72  1  0.75853000  0.37049400  0.30821000  1
  O  O73  1  0.32805700  0.32090300  0.06322100  1
  O  O74  1  0.08098500  0.23616600  0.00196700  1
  O  O75  1  0.75853000  0.62950600  0.19179000  1
  O  O76  1  0.56710500  0.44037800  0.16641200  1
  O  O77  1  0.94141200  0.06548800  0.33032900  1
  O  O78  1  0.40435800  0.97046300  0.09889100  1
  O  O79  1  0.75221600  0.12617000  0.18417300  1
