# generated using pymatgen
data_Li5LaO4
_symmetry_space_group_name_H-M   'P 1'
_cell_length_a   13.84296200
_cell_length_b   13.84296200
_cell_length_c   4.86188800
_cell_angle_alpha   90.00000000
_cell_angle_beta   90.00000000
_cell_angle_gamma   90.00000000
_symmetry_Int_Tables_number   1
_chemical_formula_structural   Li5LaO4
_chemical_formula_sum   'Li40 La8 O32'
_cell_volume   931.67191400
_cell_formula_units_Z   8
loop_
 _symmetry_equiv_pos_site_id
 _symmetry_equiv_pos_as_xyz
  1  'x, y, z'
loop_
 _atom_site_type_symbol
 _atom_site_label
 _atom_site_symmetry_multiplicity
 _atom_site_fract_x
 _atom_site_fract_y
 _atom_site_fract_z
 _atom_site_occupancy
  Li  Li0  1  0.75645900  0.24354100  0.00000000  1
  Li  Li1  1  0.74354100  0.25645900  0.50000000  1
  Li  Li2  1  0.24354100  0.24354100  0.00000000  1
  Li  Li3  1  0.25645900  0.25645900  0.50000000  1
  Li  Li4  1  0.11023700  0.35882000  0.56819300  1
  Li  Li5  1  0.88976300  0.35882000  0.56819300  1
  Li  Li6  1  0.37211500  0.37211500  0.00000000  1
  Li  Li7  1  0.62788500  0.37211500  0.00000000  1
  Li  Li8  1  0.85882000  0.38976300  0.06819300  1
  Li  Li9  1  0.14118000  0.38976300  0.06819300  1
  Li  Li10  1  0.00000000  0.50000000  0.08926300  1
  Li  Li11  1  0.50000000  0.50000000  0.50000000  1
  Li  Li12  1  0.50000000  0.50000000  0.00000000  1
  Li  Li13  1  0.00000000  0.50000000  0.58926300  1
  Li  Li14  1  0.85882000  0.61023700  0.06819300  1
  Li  Li15  1  0.14118000  0.61023700  0.06819300  1
  Li  Li16  1  0.37211500  0.62788500  0.00000000  1
  Li  Li17  1  0.62788500  0.62788500  0.00000000  1
  Li  Li18  1  0.88976300  0.64118000  0.56819300  1
  Li  Li19  1  0.11023700  0.64118000  0.56819300  1
  Li  Li20  1  0.24354100  0.75645900  0.00000000  1
  Li  Li21  1  0.25645900  0.74354100  0.50000000  1
  Li  Li22  1  0.75645900  0.75645900  0.00000000  1
  Li  Li23  1  0.74354100  0.74354100  0.50000000  1
  Li  Li24  1  0.38976300  0.85882000  0.93180700  1
  Li  Li25  1  0.61023700  0.85882000  0.93180700  1
  Li  Li26  1  0.87211500  0.87211500  0.50000000  1
  Li  Li27  1  0.12788500  0.87211500  0.50000000  1
  Li  Li28  1  0.35882000  0.88976300  0.43180700  1
  Li  Li29  1  0.64118000  0.88976300  0.43180700  1
  Li  Li30  1  0.00000000  0.00000000  0.00000000  1
  Li  Li31  1  0.00000000  0.00000000  0.50000000  1
  Li  Li32  1  0.50000000  0.00000000  0.91073700  1
  Li  Li33  1  0.50000000  0.00000000  0.41073700  1
  Li  Li34  1  0.35882000  0.11023700  0.43180700  1
  Li  Li35  1  0.64118000  0.11023700  0.43180700  1
  Li  Li36  1  0.87211500  0.12788500  0.50000000  1
  Li  Li37  1  0.12788500  0.12788500  0.50000000  1
  Li  Li38  1  0.38976300  0.14118000  0.93180700  1
  Li  Li39  1  0.61023700  0.14118000  0.93180700  1
  La  La40  1  0.50000000  0.27376700  0.45475600  1
  La  La41  1  0.27376700  0.50000000  0.54524400  1
  La  La42  1  0.72623300  0.50000000  0.54524400  1
  La  La43  1  0.50000000  0.72623300  0.45475600  1
  La  La44  1  0.00000000  0.77376700  0.04524400  1
  La  La45  1  0.77376700  0.00000000  0.95475600  1
  La  La46  1  0.22623300  0.00000000  0.95475600  1
  La  La47  1  0.00000000  0.22623300  0.04524400  1
  O  O48  1  0.86229400  0.26124700  0.28441500  1
  O  O49  1  0.13770600  0.26124700  0.28441500  1
  O  O50  1  0.76124700  0.36229400  0.78441500  1
  O  O51  1  0.23875300  0.36229400  0.78441500  1
  O  O52  1  0.00000000  0.38195200  0.83349500  1
  O  O53  1  0.50000000  0.38812800  0.77863900  1
  O  O54  1  0.88195200  0.50000000  0.33349500  1
  O  O55  1  0.38812800  0.50000000  0.22136100  1
  O  O56  1  0.61187200  0.50000000  0.22136100  1
  O  O57  1  0.11804800  0.50000000  0.33349500  1
  O  O58  1  0.50000000  0.61187200  0.77863900  1
  O  O59  1  0.00000000  0.61804800  0.83349500  1
  O  O60  1  0.23875300  0.63770600  0.78441500  1
  O  O61  1  0.76124700  0.63770600  0.78441500  1
  O  O62  1  0.86229400  0.73875300  0.28441500  1
  O  O63  1  0.13770600  0.73875300  0.28441500  1
  O  O64  1  0.36229400  0.76124700  0.21558500  1
  O  O65  1  0.63770600  0.76124700  0.21558500  1
  O  O66  1  0.73875300  0.86229400  0.71558500  1
  O  O67  1  0.26124700  0.86229400  0.71558500  1
  O  O68  1  0.50000000  0.88195200  0.66650500  1
  O  O69  1  0.00000000  0.88812800  0.72136100  1
  O  O70  1  0.88812800  0.00000000  0.27863900  1
  O  O71  1  0.11187200  0.00000000  0.27863900  1
  O  O72  1  0.38195200  0.00000000  0.16650500  1
  O  O73  1  0.61804800  0.00000000  0.16650500  1
  O  O74  1  0.00000000  0.11187200  0.72136100  1
  O  O75  1  0.50000000  0.11804800  0.66650500  1
  O  O76  1  0.73875300  0.13770600  0.71558500  1
  O  O77  1  0.26124700  0.13770600  0.71558500  1
  O  O78  1  0.36229400  0.23875300  0.21558500  1
  O  O79  1  0.63770600  0.23875300  0.21558500  1
