# generated using pymatgen
data_Li2VCrO4
_symmetry_space_group_name_H-M   'P 1'
_cell_length_a   9.90193538
_cell_length_b   9.90193538
_cell_length_c   5.22363252
_cell_angle_alpha   84.44479419
_cell_angle_beta   84.44479419
_cell_angle_gamma   17.25484446
_symmetry_Int_Tables_number   1
_chemical_formula_structural   Li2VCrO4
_chemical_formula_sum   'Li4 V2 Cr2 O8'
_cell_volume   151.19060739
_cell_formula_units_Z   2
loop_
 _symmetry_equiv_pos_site_id
 _symmetry_equiv_pos_as_xyz
  1  'x, y, z'
loop_
 _atom_site_type_symbol
 _atom_site_label
 _atom_site_symmetry_multiplicity
 _atom_site_fract_x
 _atom_site_fract_y
 _atom_site_fract_z
 _atom_site_occupancy
  Li  Li0  1  0.00000000  0.00000000  0.00000000  1
  Li  Li1  1  0.74954300  0.74954300  0.74639900  1
  Li  Li2  1  0.50000000  0.50000000  0.50000000  1
  Li  Li3  1  0.25045700  0.25045700  0.25360100  1
  V  V4  1  0.37489900  0.37489900  0.87502700  1
  V  V5  1  0.62510100  0.62510100  0.12497300  1
  Cr  Cr6  1  0.87515900  0.87515900  0.37493400  1
  Cr  Cr7  1  0.12484100  0.12484100  0.62506600  1
  O  O8  1  0.93150600  0.93150600  0.68729600  1
  O  O9  1  0.18166900  0.18166900  0.93655500  1
  O  O10  1  0.56823700  0.56823700  0.80679400  1
  O  O11  1  0.68156700  0.68156700  0.44379800  1
  O  O12  1  0.31843300  0.31843300  0.55620200  1
  O  O13  1  0.81833100  0.81833100  0.06344500  1
  O  O14  1  0.06849400  0.06849400  0.31270400  1
  O  O15  1  0.43176300  0.43176300  0.19320600  1
