# generated using pymatgen
data_Li2Mn3O6
_symmetry_space_group_name_H-M   'P 1'
_cell_length_a   6.55275600
_cell_length_b   6.63409452
_cell_length_c   15.96365720
_cell_angle_alpha   82.94172191
_cell_angle_beta   84.46109185
_cell_angle_gamma   82.29566871
_symmetry_Int_Tables_number   1
_chemical_formula_structural   Li2Mn3O6
_chemical_formula_sum   'Li12 Mn18 O36'
_cell_volume   680.22523810
_cell_formula_units_Z   6
loop_
 _symmetry_equiv_pos_site_id
 _symmetry_equiv_pos_as_xyz
  1  'x, y, z'
loop_
 _atom_site_type_symbol
 _atom_site_label
 _atom_site_symmetry_multiplicity
 _atom_site_fract_x
 _atom_site_fract_y
 _atom_site_fract_z
 _atom_site_occupancy
  Li  Li0  1  0.91253200  0.58657500  0.41619400  1
  Li  Li1  1  0.75582500  0.74650600  0.91714800  1
  Li  Li2  1  0.74979600  0.75026000  0.58315700  1
  Li  Li3  1  0.74810800  0.74954900  0.24902900  1
  Li  Li4  1  0.58727000  0.91336500  0.75047900  1
  Li  Li5  1  0.57814800  0.92111500  0.08339900  1
  Li  Li6  1  0.41121600  0.08711200  0.91560900  1
  Li  Li7  1  0.41482500  0.08730600  0.57962300  1
  Li  Li8  1  0.41401000  0.08270400  0.25425700  1
  Li  Li9  1  0.08346900  0.41674800  0.91634300  1
  Li  Li10  1  0.08558000  0.41271000  0.58637100  1
  Li  Li11  1  0.08457000  0.41606800  0.24642600  1
  Mn  Mn12  1  0.99565300  0.99614700  0.66615500  1
  Mn  Mn13  1  0.99618200  0.99714400  0.33475700  1
  Mn  Mn14  1  0.84838900  0.18034000  0.83193900  1
  Mn  Mn15  1  0.84001600  0.17626200  0.49842700  1
  Mn  Mn16  1  0.84042200  0.17568400  0.16493100  1
  Mn  Mn17  1  0.65993600  0.32378200  0.66792800  1
  Mn  Mn18  1  0.65452800  0.32198300  0.33423500  1
  Mn  Mn19  1  0.50267100  0.50257400  0.83210800  1
  Mn  Mn20  1  0.66420500  0.32884600  0.00171100  1
  Mn  Mn21  1  0.50399400  0.50471300  0.50009300  1
  Mn  Mn22  1  0.50490000  0.50911300  0.16586500  1
  Mn  Mn23  1  0.32510900  0.65747800  0.66828800  1
  Mn  Mn24  1  0.33033300  0.65608500  0.33517100  1
  Mn  Mn25  1  0.16981600  0.84491300  0.83158600  1
  Mn  Mn26  1  0.31763500  0.65282500  0.00177200  1
  Mn  Mn27  1  0.17468500  0.84156600  0.49855100  1
  Mn  Mn28  1  0.17287500  0.83950800  0.16720500  1
  Mn  Mn29  1  0.99730100  0.98812800  0.00164500  1
  O  O30  1  0.89067800  0.90189100  0.79932300  1
  O  O31  1  0.93646100  0.27143800  0.69804000  1
  O  O32  1  0.90598900  0.89640500  0.45337500  1
  O  O33  1  0.93544700  0.27081200  0.36588100  1
  O  O34  1  0.89179500  0.90299800  0.13295800  1
  O  O35  1  0.77166100  0.43883600  0.88708500  1
  O  O36  1  0.93066200  0.26700500  0.04512700  1
  O  O37  1  0.78464400  0.45805000  0.53625800  1
  O  O38  1  0.71384500  0.05119900  0.96943300  1
  O  O39  1  0.77940900  0.44173700  0.20449300  1
  O  O40  1  0.71417600  0.04231100  0.62993300  1
  O  O41  1  0.59394700  0.60284400  0.71331100  1
  O  O42  1  0.72941700  0.06012000  0.28103700  1
  O  O43  1  0.60960600  0.60123600  0.36775700  1
  O  O44  1  0.56637600  0.22876500  0.80126300  1
  O  O45  1  0.45406500  0.78081000  0.86369900  1
  O  O46  1  0.59736300  0.60144100  0.03553200  1
  O  O47  1  0.56457100  0.22937900  0.46702300  1
  O  O48  1  0.43797900  0.77135600  0.55233300  1
  O  O49  1  0.39490000  0.39541800  0.94646600  1
  O  O50  1  0.57500500  0.22457700  0.11848400  1
  O  O51  1  0.45075600  0.79965900  0.20355700  1
  O  O52  1  0.38645800  0.39096600  0.62807100  1
  O  O53  1  0.27713100  0.92933900  0.70103800  1
  O  O54  1  0.38859200  0.38971900  0.28703900  1
  O  O55  1  0.23624400  0.56630000  0.78819700  1
  O  O56  1  0.26519700  0.93074200  0.37824600  1
  O  O57  1  0.27667900  0.93201900  0.03310300  1
  O  O58  1  0.22063600  0.56865100  0.46801500  1
  O  O59  1  0.05496900  0.71616400  0.95367700  1
  O  O60  1  0.11172000  0.11665700  0.87927800  1
  O  O61  1  0.22889900  0.56452800  0.13565200  1
  O  O62  1  0.06158400  0.73070600  0.61403400  1
  O  O63  1  0.11416200  0.10885500  0.53797500  1
  O  O64  1  0.04611700  0.71946300  0.30221400  1
  O  O65  1  0.10535500  0.10299200  0.22055600  1
