# generated using pymatgen
data_Li4Ti2Co3O10
_symmetry_space_group_name_H-M   'P 1'
_cell_length_a   6.55718200
_cell_length_b   7.70525315
_cell_length_c   7.76809904
_cell_angle_alpha   94.31203650
_cell_angle_beta   91.59098290
_cell_angle_gamma   114.69728607
_symmetry_Int_Tables_number   1
_chemical_formula_structural   Li4Ti2Co3O10
_chemical_formula_sum   'Li8 Ti4 Co6 O20'
_cell_volume   354.81139697
_cell_formula_units_Z   2
loop_
 _symmetry_equiv_pos_site_id
 _symmetry_equiv_pos_as_xyz
  1  'x, y, z'
loop_
 _atom_site_type_symbol
 _atom_site_label
 _atom_site_symmetry_multiplicity
 _atom_site_fract_x
 _atom_site_fract_y
 _atom_site_fract_z
 _atom_site_occupancy
  Li  Li0  1  0.09194300  0.40529500  0.59435900  1
  Li  Li1  1  0.19173100  0.80376000  0.70088100  1
  Li  Li2  1  0.74258500  0.49328600  0.75406300  1
  Li  Li3  1  0.25741500  0.50671400  0.24593700  1
  Li  Li4  1  0.80826900  0.19624000  0.29911900  1
  Li  Li5  1  0.90805700  0.59470500  0.40564100  1
  Li  Li6  1  0.58071500  0.39732100  0.08763700  1
  Li  Li7  1  0.41928500  0.60267900  0.91236300  1
  Ti  Ti8  1  0.45460500  0.30140200  0.46693200  1
  Ti  Ti9  1  0.54539500  0.69859800  0.53306800  1
  Ti  Ti10  1  0.97298500  0.30659500  0.94458400  1
  Ti  Ti11  1  0.02701500  0.69340500  0.05541600  1
  Co  Co12  1  0.64600000  0.09923900  0.65319600  1
  Co  Co13  1  0.35400000  0.90076100  0.34680400  1
  Co  Co14  1  0.00000000  0.00000000  0.50000000  1
  Co  Co15  1  0.50000000  0.00000000  0.00000000  1
  Co  Co16  1  0.14705600  0.09749100  0.15178200  1
  Co  Co17  1  0.85294400  0.90250900  0.84821800  1
  O  O18  1  0.65815000  0.95518100  0.43942100  1
  O  O19  1  0.24761100  0.66718500  0.46968800  1
  O  O20  1  0.75238900  0.33281500  0.53031200  1
  O  O21  1  0.86389100  0.76341900  0.63074900  1
  O  O22  1  0.34185000  0.04481900  0.56057900  1
  O  O23  1  0.42807300  0.46229400  0.65166900  1
  O  O24  1  0.35327100  0.76618000  0.12746000  1
  O  O25  1  0.05487300  0.86010700  0.27338500  1
  O  O26  1  0.94512700  0.13989300  0.72661500  1
  O  O27  1  0.92328200  0.45367800  0.15482300  1
  O  O28  1  0.57192700  0.53770600  0.34833100  1
  O  O29  1  0.55254700  0.86164900  0.76434800  1
  O  O30  1  0.44745300  0.13835100  0.23565200  1
  O  O31  1  0.13610900  0.23658100  0.36925100  1
  O  O32  1  0.07671800  0.54632200  0.84517700  1
  O  O33  1  0.15088300  0.94348800  0.94076500  1
  O  O34  1  0.64672900  0.23382000  0.87254000  1
  O  O35  1  0.74759700  0.66701100  0.96190500  1
  O  O36  1  0.25240300  0.33298900  0.03809500  1
  O  O37  1  0.84911700  0.05651200  0.05923500  1
