# generated using pymatgen
data_Li2Co2(SO4)3
_symmetry_space_group_name_H-M   'P 1'
_cell_length_a   7.84148235
_cell_length_b   7.84148235
_cell_length_c   8.80678064
_cell_angle_alpha   68.61643884
_cell_angle_beta   68.61643884
_cell_angle_gamma   66.81512436
_symmetry_Int_Tables_number   1
_chemical_formula_structural   Li2Co2(SO4)3
_chemical_formula_sum   'Li4 Co4 S6 O24'
_cell_volume   447.79294328
_cell_formula_units_Z   2
loop_
 _symmetry_equiv_pos_site_id
 _symmetry_equiv_pos_as_xyz
  1  'x, y, z'
loop_
 _atom_site_type_symbol
 _atom_site_label
 _atom_site_symmetry_multiplicity
 _atom_site_fract_x
 _atom_site_fract_y
 _atom_site_fract_z
 _atom_site_occupancy
  Li  Li0  1  0.67140500  0.86291200  0.05530400  1
  Li  Li1  1  0.86291200  0.67140500  0.55530400  1
  Li  Li2  1  0.13708800  0.32859500  0.44469600  1
  Li  Li3  1  0.32859500  0.13708800  0.94469600  1
  Co  Co4  1  0.36886500  0.87348200  0.48322600  1
  Co  Co5  1  0.87348200  0.36886500  0.98322600  1
  Co  Co6  1  0.12651800  0.63113500  0.01677400  1
  Co  Co7  1  0.63113500  0.12651800  0.51677400  1
  S  S8  1  0.74982900  0.53923500  0.32293900  1
  S  S9  1  0.53923500  0.74982900  0.82293900  1
  S  S10  1  0.05886400  0.94113600  0.25000000  1
  S  S11  1  0.94113600  0.05886400  0.75000000  1
  S  S12  1  0.46076500  0.25017100  0.17706100  1
  S  S13  1  0.25017100  0.46076500  0.67706100  1
  O  O14  1  0.87244800  0.95112900  0.38490100  1
  O  O15  1  0.95112900  0.87244800  0.88490100  1
  O  O16  1  0.87595300  0.50210300  0.42830100  1
  O  O17  1  0.61224500  0.73815300  0.31137300  1
  O  O18  1  0.86762500  0.54294200  0.13994700  1
  O  O19  1  0.50210300  0.87595300  0.92830100  1
  O  O20  1  0.21581100  0.90361300  0.32229600  1
  O  O21  1  0.65131900  0.39512200  0.38291600  1
  O  O22  1  0.73815300  0.61224500  0.81137300  1
  O  O23  1  0.54294200  0.86762500  0.63994700  1
  O  O24  1  0.90361300  0.21581100  0.82229600  1
  O  O25  1  0.60487800  0.34868100  0.11708400  1
  O  O26  1  0.39512200  0.65131900  0.88291600  1
  O  O27  1  0.09638700  0.78418900  0.17770400  1
  O  O28  1  0.45705800  0.13237500  0.36005300  1
  O  O29  1  0.26184700  0.38775500  0.18862700  1
  O  O30  1  0.34868100  0.60487800  0.61708400  1
  O  O31  1  0.78418900  0.09638700  0.67770400  1
  O  O32  1  0.49789700  0.12404700  0.07169900  1
  O  O33  1  0.13237500  0.45705800  0.86005300  1
  O  O34  1  0.38775500  0.26184700  0.68862700  1
  O  O35  1  0.12404700  0.49789700  0.57169900  1
  O  O36  1  0.04887100  0.12755200  0.11509900  1
  O  O37  1  0.12755200  0.04887100  0.61509900  1
