# generated using pymatgen
data_Li4CoO4
_symmetry_space_group_name_H-M   'P 1'
_cell_length_a   6.31184900
_cell_length_b   6.71208000
_cell_length_c   9.21639200
_cell_angle_alpha   90.00000000
_cell_angle_beta   90.00000000
_cell_angle_gamma   90.00000000
_symmetry_Int_Tables_number   1
_chemical_formula_structural   Li4CoO4
_chemical_formula_sum   'Li16 Co4 O16'
_cell_volume   390.45830351
_cell_formula_units_Z   4
loop_
 _symmetry_equiv_pos_site_id
 _symmetry_equiv_pos_as_xyz
  1  'x, y, z'
loop_
 _atom_site_type_symbol
 _atom_site_label
 _atom_site_symmetry_multiplicity
 _atom_site_fract_x
 _atom_site_fract_y
 _atom_site_fract_z
 _atom_site_occupancy
  Li  Li0  1  0.00000000  0.68096400  0.08769700  1
  Li  Li1  1  0.25331300  0.96196900  0.13045400  1
  Li  Li2  1  0.74668700  0.96196900  0.13045400  1
  Li  Li3  1  0.00000000  0.24931800  0.18035400  1
  Li  Li4  1  0.50000000  0.74931800  0.31964600  1
  Li  Li5  1  0.24668700  0.46196900  0.36954600  1
  Li  Li6  1  0.75331300  0.46196900  0.36954600  1
  Li  Li7  1  0.50000000  0.18096400  0.41230300  1
  Li  Li8  1  0.50000000  0.81903600  0.58769700  1
  Li  Li9  1  0.24668700  0.53803100  0.63045400  1
  Li  Li10  1  0.75331300  0.53803100  0.63045400  1
  Li  Li11  1  0.50000000  0.25068200  0.68035400  1
  Li  Li12  1  0.00000000  0.75068200  0.81964600  1
  Li  Li13  1  0.25331300  0.03803100  0.86954600  1
  Li  Li14  1  0.74668700  0.03803100  0.86954600  1
  Li  Li15  1  0.00000000  0.31903600  0.91230300  1
  Co  Co16  1  0.50000000  0.25834300  0.12553200  1
  Co  Co17  1  0.00000000  0.75834300  0.37446800  1
  Co  Co18  1  0.00000000  0.24165700  0.62553200  1
  Co  Co19  1  0.50000000  0.74165700  0.87446800  1
  O  O20  1  0.24973100  0.22976000  0.03143500  1
  O  O21  1  0.75026900  0.22976000  0.03143500  1
  O  O22  1  0.50000000  0.45042000  0.26117200  1
  O  O23  1  0.00000000  0.52540100  0.26328700  1
  O  O24  1  0.50000000  0.02540100  0.23671300  1
  O  O25  1  0.00000000  0.95042000  0.23882800  1
  O  O26  1  0.25026900  0.72976000  0.46856500  1
  O  O27  1  0.74973100  0.72976000  0.46856500  1
  O  O28  1  0.74973100  0.27024000  0.53143500  1
  O  O29  1  0.25026900  0.27024000  0.53143500  1
  O  O30  1  0.00000000  0.04958000  0.76117200  1
  O  O31  1  0.50000000  0.97459900  0.76328700  1
  O  O32  1  0.00000000  0.47459900  0.73671300  1
  O  O33  1  0.50000000  0.54958000  0.73882800  1
  O  O34  1  0.24973100  0.77024000  0.96856500  1
  O  O35  1  0.75026900  0.77024000  0.96856500  1
