# generated using pymatgen
data_LiSnPO4
_symmetry_space_group_name_H-M   'P 1'
_cell_length_a   7.39082000
_cell_length_b   7.72109800
_cell_length_c   13.56622700
_cell_angle_alpha   90.00000000
_cell_angle_beta   90.00000000
_cell_angle_gamma   90.00000000
_symmetry_Int_Tables_number   1
_chemical_formula_structural   LiSnPO4
_chemical_formula_sum   'Li8 Sn8 P8 O32'
_cell_volume   774.16007454
_cell_formula_units_Z   8
loop_
 _symmetry_equiv_pos_site_id
 _symmetry_equiv_pos_as_xyz
  1  'x, y, z'
loop_
 _atom_site_type_symbol
 _atom_site_label
 _atom_site_symmetry_multiplicity
 _atom_site_fract_x
 _atom_site_fract_y
 _atom_site_fract_z
 _atom_site_occupancy
  Li  Li0  1  0.16482600  0.16245600  0.23064700  1
  Li  Li1  1  0.66482600  0.16245600  0.26935300  1
  Li  Li2  1  0.16482600  0.33754400  0.73064700  1
  Li  Li3  1  0.66482600  0.33754400  0.76935300  1
  Li  Li4  1  0.33517400  0.66245600  0.23064700  1
  Li  Li5  1  0.83517400  0.66245600  0.26935300  1
  Li  Li6  1  0.33517400  0.83754400  0.73064700  1
  Li  Li7  1  0.83517400  0.83754400  0.76935300  1
  Sn  Sn8  1  0.43547800  0.19056800  0.54975600  1
  Sn  Sn9  1  0.93547800  0.19056800  0.95024400  1
  Sn  Sn10  1  0.43547800  0.30943200  0.04975600  1
  Sn  Sn11  1  0.93547800  0.30943200  0.45024400  1
  Sn  Sn12  1  0.06452200  0.69056800  0.54975600  1
  Sn  Sn13  1  0.56452200  0.69056800  0.95024400  1
  Sn  Sn14  1  0.06452200  0.80943200  0.04975600  1
  Sn  Sn15  1  0.56452200  0.80943200  0.45024400  1
  P  P16  1  0.90382200  0.09922400  0.63737300  1
  P  P17  1  0.40382200  0.09922400  0.86262700  1
  P  P18  1  0.90382200  0.40077600  0.13737300  1
  P  P19  1  0.40382200  0.40077600  0.36262700  1
  P  P20  1  0.59617800  0.59922400  0.63737300  1
  P  P21  1  0.09617800  0.59922400  0.86262700  1
  P  P22  1  0.59617800  0.90077600  0.13737300  1
  P  P23  1  0.09617800  0.90077600  0.36262700  1
  O  O24  1  0.73263500  0.88429300  0.04860800  1
  O  O25  1  0.23263500  0.88429300  0.45139200  1
  O  O26  1  0.31517700  0.13305300  0.76260600  1
  O  O27  1  0.81517700  0.13305300  0.73739400  1
  O  O28  1  0.52018200  0.09046700  0.14278300  1
  O  O29  1  0.02018200  0.09046700  0.35721700  1
  O  O30  1  0.05456600  0.23370800  0.60970600  1
  O  O31  1  0.55456600  0.23370800  0.89029400  1
  O  O32  1  0.05456600  0.26629200  0.10970600  1
  O  O33  1  0.55456600  0.26629200  0.39029400  1
  O  O34  1  0.52018200  0.40953300  0.64278300  1
  O  O35  1  0.02018200  0.40953300  0.85721700  1
  O  O36  1  0.81517700  0.36694700  0.23739400  1
  O  O37  1  0.31517700  0.36694700  0.26260600  1
  O  O38  1  0.73263500  0.61570700  0.54860800  1
  O  O39  1  0.23263500  0.61570700  0.95139200  1
  O  O40  1  0.26736500  0.38429300  0.45139200  1
  O  O41  1  0.76736500  0.38429300  0.04860800  1
  O  O42  1  0.68482300  0.63305300  0.73739400  1
  O  O43  1  0.18482300  0.63305300  0.76260600  1
  O  O44  1  0.97981800  0.59046700  0.14278300  1
  O  O45  1  0.47981800  0.59046700  0.35721700  1
  O  O46  1  0.44543400  0.73370800  0.60970600  1
  O  O47  1  0.94543400  0.73370800  0.89029400  1
  O  O48  1  0.44543400  0.76629200  0.10970600  1
  O  O49  1  0.94543400  0.76629200  0.39029400  1
  O  O50  1  0.97981800  0.90953300  0.64278300  1
  O  O51  1  0.47981800  0.90953300  0.85721700  1
  O  O52  1  0.68482300  0.86694700  0.23739400  1
  O  O53  1  0.18482300  0.86694700  0.26260600  1
  O  O54  1  0.76736500  0.11570700  0.54860800  1
  O  O55  1  0.26736500  0.11570700  0.95139200  1
