# generated using pymatgen
data_Li6(NiO2)13
_symmetry_space_group_name_H-M   'P 1'
_cell_length_a   4.89469100
_cell_length_b   9.86070339
_cell_length_c   9.92459947
_cell_angle_alpha   67.50877141
_cell_angle_beta   82.22024082
_cell_angle_gamma   85.22474847
_symmetry_Int_Tables_number   1
_chemical_formula_structural   Li6(NiO2)13
_chemical_formula_sum   'Li6 Ni13 O26'
_cell_volume   438.24451032
_cell_formula_units_Z   1
loop_
 _symmetry_equiv_pos_site_id
 _symmetry_equiv_pos_as_xyz
  1  'x, y, z'
loop_
 _atom_site_type_symbol
 _atom_site_label
 _atom_site_symmetry_multiplicity
 _atom_site_fract_x
 _atom_site_fract_y
 _atom_site_fract_z
 _atom_site_occupancy
  Li  Li0  1  0.04046500  0.57611500  0.34660900  1
  Li  Li1  1  0.80200300  0.10893700  0.28409300  1
  Li  Li2  1  0.11956700  0.72968100  0.03680000  1
  Li  Li3  1  0.88043300  0.27031900  0.96320000  1
  Li  Li4  1  0.19799700  0.89106300  0.71590700  1
  Li  Li5  1  0.95953500  0.42388500  0.65339100  1
  Ni  Ni6  1  0.11483500  0.73173200  0.53929100  1
  Ni  Ni7  1  0.88516500  0.26826800  0.46070900  1
  Ni  Ni8  1  0.65359000  0.80401900  0.38514400  1
  Ni  Ni9  1  0.42253700  0.34833400  0.30699100  1
  Ni  Ni10  1  0.96154300  0.42328000  0.15381300  1
  Ni  Ni11  1  0.19210700  0.88674400  0.23112200  1
  Ni  Ni12  1  0.50000000  0.50000000  0.00000000  1
  Ni  Ni13  1  0.73192300  0.95665400  0.07610200  1
  Ni  Ni14  1  0.26807700  0.04334600  0.92389800  1
  Ni  Ni15  1  0.80789300  0.11325600  0.76887800  1
  Ni  Ni16  1  0.03845700  0.57672000  0.84618700  1
  Ni  Ni17  1  0.57746300  0.65166600  0.69300900  1
  Ni  Ni18  1  0.34641000  0.19598100  0.61485600  1
  O  O19  1  0.41389500  0.81840100  0.56671000  1
  O  O20  1  0.17895700  0.36402200  0.48404500  1
  O  O21  1  0.82104300  0.63597800  0.51595500  1
  O  O22  1  0.58610500  0.18159900  0.43329000  1
  O  O23  1  0.75499000  0.44051500  0.32096800  1
  O  O24  1  0.97157000  0.90143900  0.39445400  1
  O  O25  1  0.50656200  0.97359800  0.25079400  1
  O  O26  1  0.32677800  0.71536900  0.37143000  1
  O  O27  1  0.09220200  0.25122800  0.29505600  1
  O  O28  1  0.66500200  0.33140200  0.12942500  1
  O  O29  1  0.25529100  0.51698500  0.17760500  1
  O  O30  1  0.02746400  0.05524300  0.09956600  1
  O  O31  1  0.90611400  0.78913300  0.20503000  1
  O  O32  1  0.59561400  0.12956400  0.93654300  1
  O  O33  1  0.83003000  0.59522100  0.01194400  1
  O  O34  1  0.16997000  0.40477900  0.98805600  1
  O  O35  1  0.40438600  0.87043600  0.06345700  1
  O  O36  1  0.49343800  0.02640200  0.74920600  1
  O  O37  1  0.33499800  0.66859800  0.87057500  1
  O  O38  1  0.09388600  0.21086700  0.79497000  1
  O  O39  1  0.97253600  0.94475700  0.90043400  1
  O  O40  1  0.74470900  0.48301500  0.82239500  1
  O  O41  1  0.67322200  0.28463100  0.62857000  1
  O  O42  1  0.24501000  0.55948500  0.67903200  1
  O  O43  1  0.02843000  0.09856100  0.60554600  1
  O  O44  1  0.90779800  0.74877200  0.70494400  1
