# generated using pymatgen
data_Li2Sn(SO4)2
_symmetry_space_group_name_H-M   'P 1'
_cell_length_a   10.01087900
_cell_length_b   10.04275700
_cell_length_c   14.68668600
_cell_angle_alpha   90.00000000
_cell_angle_beta   90.00000000
_cell_angle_gamma   90.00000000
_symmetry_Int_Tables_number   1
_chemical_formula_structural   Li2Sn(SO4)2
_chemical_formula_sum   'Li16 Sn8 S16 O64'
_cell_volume   1476.55278246
_cell_formula_units_Z   8
loop_
 _symmetry_equiv_pos_site_id
 _symmetry_equiv_pos_as_xyz
  1  'x, y, z'
loop_
 _atom_site_type_symbol
 _atom_site_label
 _atom_site_symmetry_multiplicity
 _atom_site_fract_x
 _atom_site_fract_y
 _atom_site_fract_z
 _atom_site_occupancy
  Li  Li0  1  0.01609700  0.23596500  0.37242600  1
  Li  Li1  1  0.01609700  0.26403500  0.87242600  1
  Li  Li2  1  0.21338800  0.95022500  0.36603800  1
  Li  Li3  1  0.21338800  0.54977500  0.86603800  1
  Li  Li4  1  0.28661200  0.04977500  0.86603800  1
  Li  Li5  1  0.28661200  0.45022500  0.36603800  1
  Li  Li6  1  0.48390300  0.73596500  0.37242600  1
  Li  Li7  1  0.48390300  0.76403500  0.87242600  1
  Li  Li8  1  0.51609700  0.23596500  0.12757400  1
  Li  Li9  1  0.51609700  0.26403500  0.62757400  1
  Li  Li10  1  0.71338800  0.54977500  0.63396200  1
  Li  Li11  1  0.71338800  0.95022500  0.13396200  1
  Li  Li12  1  0.78661200  0.45022500  0.13396200  1
  Li  Li13  1  0.78661200  0.04977500  0.63396200  1
  Li  Li14  1  0.98390300  0.76403500  0.62757400  1
  Li  Li15  1  0.98390300  0.73596500  0.12757400  1
  Sn  Sn16  1  0.14525600  0.10193000  0.12327900  1
  Sn  Sn17  1  0.14525600  0.39807000  0.62327900  1
  Sn  Sn18  1  0.35474400  0.60193000  0.12327900  1
  Sn  Sn19  1  0.35474400  0.89807000  0.62327900  1
  Sn  Sn20  1  0.64525600  0.10193000  0.37672100  1
  Sn  Sn21  1  0.64525600  0.39807000  0.87672100  1
  Sn  Sn22  1  0.85474400  0.60193000  0.37672100  1
  Sn  Sn23  1  0.85474400  0.89807000  0.87672100  1
  S  S24  1  0.06665800  0.08024300  0.74025000  1
  S  S25  1  0.06665800  0.41975700  0.24025000  1
  S  S26  1  0.43334200  0.91975700  0.24025000  1
  S  S27  1  0.43334200  0.58024300  0.74025000  1
  S  S28  1  0.56665800  0.41975700  0.25975000  1
  S  S29  1  0.56665800  0.08024300  0.75975000  1
  S  S30  1  0.93334200  0.58024300  0.75975000  1
  S  S31  1  0.93334200  0.91975700  0.25975000  1
  S  S32  1  0.16317900  0.69017500  0.48384700  1
  S  S33  1  0.16317900  0.80982500  0.98384700  1
  S  S34  1  0.33682100  0.19017500  0.48384700  1
  S  S35  1  0.33682100  0.30982500  0.98384700  1
  S  S36  1  0.66317900  0.69017500  0.01615300  1
  S  S37  1  0.66317900  0.80982500  0.51615300  1
  S  S38  1  0.83682100  0.19017500  0.01615300  1
  S  S39  1  0.83682100  0.30982500  0.51615300  1
  O  O40  1  0.01492200  0.70409400  0.47011400  1
  O  O41  1  0.01492200  0.79590600  0.97011400  1
  O  O42  1  0.01501400  0.99882700  0.32452100  1
  O  O43  1  0.01501400  0.50117300  0.82452100  1
  O  O44  1  0.02534000  0.44363400  0.33769200  1
  O  O45  1  0.02534000  0.05636600  0.83769200  1
  O  O46  1  0.04762300  0.22729700  0.72721700  1
  O  O47  1  0.04762300  0.27270300  0.22721700  1
  O  O48  1  0.18251000  0.76130600  0.07989400  1
  O  O49  1  0.18251000  0.73869400  0.57989400  1
  O  O50  1  0.20769800  0.95112900  0.97703600  1
  O  O51  1  0.20769800  0.54887100  0.47703600  1
  O  O52  1  0.21058900  0.04397400  0.73487500  1
  O  O53  1  0.21058900  0.45602600  0.23487500  1
  O  O54  1  0.24016100  0.77006600  0.41768500  1
  O  O55  1  0.24016100  0.72993400  0.91768500  1
  O  O56  1  0.25983900  0.27006600  0.41768500  1
  O  O57  1  0.25983900  0.22993400  0.91768500  1
  O  O58  1  0.28941100  0.95602600  0.23487500  1
  O  O59  1  0.28941100  0.54397400  0.73487500  1
  O  O60  1  0.29230200  0.04887100  0.47703600  1
  O  O61  1  0.29230200  0.45112900  0.97703600  1
  O  O62  1  0.31749000  0.26130600  0.07989400  1
  O  O63  1  0.31749000  0.23869400  0.57989400  1
  O  O64  1  0.45237700  0.77270300  0.22721700  1
  O  O65  1  0.45237700  0.72729700  0.72721700  1
  O  O66  1  0.47466000  0.55636600  0.83769200  1
  O  O67  1  0.47466000  0.94363400  0.33769200  1
  O  O68  1  0.48498600  0.49882700  0.32452100  1
  O  O69  1  0.48498600  0.00117300  0.82452100  1
  O  O70  1  0.48507800  0.20409400  0.47011400  1
  O  O71  1  0.48507800  0.29590600  0.97011400  1
  O  O72  1  0.51492200  0.70409400  0.02988600  1
  O  O73  1  0.51492200  0.79590600  0.52988600  1
  O  O74  1  0.51501400  0.50117300  0.67547900  1
  O  O75  1  0.51501400  0.99882700  0.17547900  1
  O  O76  1  0.52534000  0.44363400  0.16230800  1
  O  O77  1  0.52534000  0.05636600  0.66230800  1
  O  O78  1  0.54762300  0.27270300  0.27278300  1
  O  O79  1  0.54762300  0.22729700  0.77278300  1
  O  O80  1  0.68251000  0.76130600  0.42010600  1
  O  O81  1  0.68251000  0.73869400  0.92010600  1
  O  O82  1  0.70769800  0.54887100  0.02296400  1
  O  O83  1  0.70769800  0.95112900  0.52296400  1
  O  O84  1  0.71058900  0.45602600  0.26512500  1
  O  O85  1  0.71058900  0.04397400  0.76512500  1
  O  O86  1  0.74016100  0.77006600  0.08231500  1
  O  O87  1  0.74016100  0.72993400  0.58231500  1
  O  O88  1  0.75983900  0.27006600  0.08231500  1
  O  O89  1  0.75983900  0.22993400  0.58231500  1
  O  O90  1  0.78941100  0.54397400  0.76512500  1
  O  O91  1  0.78941100  0.95602600  0.26512500  1
  O  O92  1  0.79230200  0.45112900  0.52296400  1
  O  O93  1  0.79230200  0.04887100  0.02296400  1
  O  O94  1  0.81749000  0.26130600  0.42010600  1
  O  O95  1  0.81749000  0.23869400  0.92010600  1
  O  O96  1  0.95237700  0.72729700  0.77278300  1
  O  O97  1  0.95237700  0.77270300  0.27278300  1
  O  O98  1  0.97466000  0.55636600  0.66230800  1
  O  O99  1  0.97466000  0.94363400  0.16230800  1
  O  O100  1  0.98498600  0.00117300  0.67547900  1
  O  O101  1  0.98498600  0.49882700  0.17547900  1
  O  O102  1  0.98507800  0.20409400  0.02988600  1
  O  O103  1  0.98507800  0.29590600  0.52988600  1
