# generated using pymatgen
data_Li2P5WO15
_symmetry_space_group_name_H-M   'P 1'
_cell_length_a   6.87444030
_cell_length_b   6.87444030
_cell_length_c   13.92492318
_cell_angle_alpha   83.15575700
_cell_angle_beta   83.15575700
_cell_angle_gamma   112.71184372
_symmetry_Int_Tables_number   1
_chemical_formula_structural   Li2P5WO15
_chemical_formula_sum   'Li4 P10 W2 O30'
_cell_volume   592.82662791
_cell_formula_units_Z   2
loop_
 _symmetry_equiv_pos_site_id
 _symmetry_equiv_pos_as_xyz
  1  'x, y, z'
loop_
 _atom_site_type_symbol
 _atom_site_label
 _atom_site_symmetry_multiplicity
 _atom_site_fract_x
 _atom_site_fract_y
 _atom_site_fract_z
 _atom_site_occupancy
  Li  Li0  1  0.76629400  0.24770700  0.70499400  1
  Li  Li1  1  0.24770700  0.76629400  0.20499400  1
  Li  Li2  1  0.20070000  0.46086900  0.56573800  1
  Li  Li3  1  0.46086900  0.20070000  0.06573800  1
  P  P4  1  0.34903200  0.95400400  0.52786100  1
  P  P5  1  0.71097900  0.57775200  0.55736400  1
  P  P6  1  0.61291600  0.82090200  0.83601300  1
  P  P7  1  0.95400400  0.34903200  0.02786100  1
  P  P8  1  0.57775200  0.71097900  0.05736400  1
  P  P9  1  0.82090200  0.61291600  0.33601300  1
  P  P10  1  0.82445000  0.07464400  0.52989100  1
  P  P11  1  0.07464400  0.82445000  0.02989100  1
  P  P12  1  0.22729200  0.43722600  0.82804800  1
  P  P13  1  0.43722600  0.22729200  0.32804800  1
  W  W14  1  0.18182300  0.92728700  0.77562500  1
  W  W15  1  0.92728700  0.18182300  0.27562500  1
  O  O16  1  0.84295500  0.87042000  0.79990800  1
  O  O17  1  0.87042000  0.84295500  0.29990800  1
  O  O18  1  0.82286100  0.51784300  0.63343200  1
  O  O19  1  0.51784300  0.82286100  0.13343200  1
  O  O20  1  0.78302100  0.83220300  0.54413600  1
  O  O21  1  0.83220300  0.78302100  0.04413600  1
  O  O22  1  0.56462500  0.83317100  0.94897400  1
  O  O23  1  0.83317100  0.56462500  0.44897400  1
  O  O24  1  0.52655300  0.96571700  0.77848400  1
  O  O25  1  0.96571700  0.52655300  0.27848400  1
  O  O26  1  0.75250300  0.31087900  0.99009500  1
  O  O27  1  0.31087900  0.75250300  0.49009500  1
  O  O28  1  0.18031900  0.93017900  0.92574200  1
  O  O29  1  0.47643500  0.46504000  0.56579000  1
  O  O30  1  0.93017900  0.18031900  0.42574200  1
  O  O31  1  0.47889600  0.57429500  0.82774300  1
  O  O32  1  0.46504000  0.47643500  0.06579000  1
  O  O33  1  0.57429500  0.47889600  0.32774300  1
  O  O34  1  0.94157200  0.18507000  0.60471500  1
  O  O35  1  0.18507000  0.94157200  0.10471500  1
  O  O36  1  0.58904000  0.07392600  0.55000500  1
  O  O37  1  0.07392600  0.58904000  0.05000500  1
  O  O38  1  0.13094100  0.58686600  0.78777900  1
  O  O39  1  0.58686600  0.13094100  0.28777900  1
  O  O40  1  0.13121200  0.33794500  0.94194800  1
  O  O41  1  0.33794500  0.13121200  0.44194800  1
  O  O42  1  0.21583000  0.26074700  0.77239700  1
  O  O43  1  0.26074700  0.21583000  0.27239700  1
  O  O44  1  0.20749500  0.95235000  0.61911800  1
  O  O45  1  0.95235000  0.20749500  0.11911800  1
