# generated using pymatgen
data_LiTi2(PO4)3
_symmetry_space_group_name_H-M   'P 1'
_cell_length_a   8.64471800
_cell_length_b   8.70349200
_cell_length_c   12.03365600
_cell_angle_alpha   90.00000000
_cell_angle_beta   90.00000000
_cell_angle_gamma   90.00000000
_symmetry_Int_Tables_number   1
_chemical_formula_structural   LiTi2(PO4)3
_chemical_formula_sum   'Li4 Ti8 P12 O48'
_cell_volume   905.40305912
_cell_formula_units_Z   4
loop_
 _symmetry_equiv_pos_site_id
 _symmetry_equiv_pos_as_xyz
  1  'x, y, z'
loop_
 _atom_site_type_symbol
 _atom_site_label
 _atom_site_symmetry_multiplicity
 _atom_site_fract_x
 _atom_site_fract_y
 _atom_site_fract_z
 _atom_site_occupancy
  Li  Li0  1  0.03843800  0.97148100  0.67963500  1
  Li  Li1  1  0.03843800  0.02851900  0.32036500  1
  Li  Li2  1  0.96156200  0.47148100  0.82036500  1
  Li  Li3  1  0.96156200  0.52851900  0.17963500  1
  Ti  Ti4  1  0.49965900  0.71505700  0.12018700  1
  Ti  Ti5  1  0.49965900  0.28494300  0.87981300  1
  Ti  Ti6  1  0.50034100  0.78494300  0.62018700  1
  Ti  Ti7  1  0.50034100  0.21505700  0.37981300  1
  Ti  Ti8  1  0.99716100  0.28886700  0.61159700  1
  Ti  Ti9  1  0.99716100  0.71113300  0.38840300  1
  Ti  Ti10  1  0.00283900  0.78886700  0.88840300  1
  Ti  Ti11  1  0.00283900  0.21113300  0.11159700  1
  P  P12  1  0.70848100  0.50000000  0.50000000  1
  P  P13  1  0.29151900  0.00000000  0.00000000  1
  P  P14  1  0.21440900  0.50000000  0.00000000  1
  P  P15  1  0.78559100  0.00000000  0.50000000  1
  P  P16  1  0.64324700  0.64178300  0.85479500  1
  P  P17  1  0.64324700  0.35821700  0.14520500  1
  P  P18  1  0.35675300  0.14178300  0.64520500  1
  P  P19  1  0.35675300  0.85821700  0.35479500  1
  P  P20  1  0.14670100  0.64211200  0.64801700  1
  P  P21  1  0.14670100  0.35788800  0.35198300  1
  P  P22  1  0.85329900  0.14211200  0.85198300  1
  P  P23  1  0.85329900  0.85788800  0.14801700  1
  O  O24  1  0.69015400  0.89427300  0.57374100  1
  O  O25  1  0.69015400  0.10572700  0.42625900  1
  O  O26  1  0.67799800  0.15202500  0.84520700  1
  O  O27  1  0.67799800  0.84797500  0.15479300  1
  O  O28  1  0.60892100  0.59897400  0.57571700  1
  O  O29  1  0.60892100  0.40102600  0.42428300  1
  O  O30  1  0.59787500  0.47364500  0.82862900  1
  O  O31  1  0.59787500  0.52635500  0.17137100  1
  O  O32  1  0.58854000  0.68619000  0.97174200  1
  O  O33  1  0.58854000  0.31381000  0.02825800  1
  O  O34  1  0.57460000  0.75466800  0.76934100  1
  O  O35  1  0.57460000  0.24533200  0.23065900  1
  O  O36  1  0.42540000  0.25466800  0.73065900  1
  O  O37  1  0.42540000  0.74533200  0.26934100  1
  O  O38  1  0.41146000  0.18619000  0.52825800  1
  O  O39  1  0.41146000  0.81381000  0.47174200  1
  O  O40  1  0.40212500  0.02635500  0.32862900  1
  O  O41  1  0.40212500  0.97364500  0.67137100  1
  O  O42  1  0.39107900  0.09897400  0.92428300  1
  O  O43  1  0.39107900  0.90102600  0.07571700  1
  O  O44  1  0.32200200  0.65202500  0.65479300  1
  O  O45  1  0.32200200  0.34797500  0.34520700  1
  O  O46  1  0.30984600  0.39427300  0.92625900  1
  O  O47  1  0.30984600  0.60572700  0.07374100  1
  O  O48  1  0.18416800  0.10302400  0.07297600  1
  O  O49  1  0.18416800  0.89697600  0.92702400  1
  O  O50  1  0.17626100  0.15078600  0.65344400  1
  O  O51  1  0.17626100  0.84921400  0.34655600  1
  O  O52  1  0.10160800  0.59130800  0.92221100  1
  O  O53  1  0.10160800  0.40869200  0.07778900  1
  O  O54  1  0.08932600  0.47897200  0.67969400  1
  O  O55  1  0.08932600  0.52102800  0.32030600  1
  O  O56  1  0.08844200  0.68210700  0.52914100  1
  O  O57  1  0.08844200  0.31789300  0.47085900  1
  O  O58  1  0.07215200  0.76153700  0.72757200  1
  O  O59  1  0.07215200  0.23846300  0.27242800  1
  O  O60  1  0.92784800  0.26153700  0.77242800  1
  O  O61  1  0.92784800  0.73846300  0.22757200  1
  O  O62  1  0.91155800  0.18210700  0.97085900  1
  O  O63  1  0.91155800  0.81789300  0.02914100  1
  O  O64  1  0.91067400  0.97897200  0.82030600  1
  O  O65  1  0.91067400  0.02102800  0.17969400  1
  O  O66  1  0.89839200  0.09130800  0.57778900  1
  O  O67  1  0.89839200  0.90869200  0.42221100  1
  O  O68  1  0.82373900  0.65078600  0.84655600  1
  O  O69  1  0.82373900  0.34921400  0.15344400  1
  O  O70  1  0.81583200  0.39697600  0.57297600  1
  O  O71  1  0.81583200  0.60302400  0.42702400  1
