# generated using pymatgen
data_Li2Mn3SnO8
_symmetry_space_group_name_H-M   'P 1'
_cell_length_a   8.34768000
_cell_length_b   8.70900900
_cell_length_c   8.74354000
_cell_angle_alpha   90.00000000
_cell_angle_beta   90.00000000
_cell_angle_gamma   90.00000000
_symmetry_Int_Tables_number   1
_chemical_formula_structural   Li2Mn3SnO8
_chemical_formula_sum   'Li8 Mn12 Sn4 O32'
_cell_volume   635.65553505
_cell_formula_units_Z   4
loop_
 _symmetry_equiv_pos_site_id
 _symmetry_equiv_pos_as_xyz
  1  'x, y, z'
loop_
 _atom_site_type_symbol
 _atom_site_label
 _atom_site_symmetry_multiplicity
 _atom_site_fract_x
 _atom_site_fract_y
 _atom_site_fract_z
 _atom_site_occupancy
  Li  Li0  1  0.24978900  0.74889800  0.74627300  1
  Li  Li1  1  0.00015300  0.50374900  0.50137500  1
  Li  Li2  1  0.49984700  0.49625100  0.00137500  1
  Li  Li3  1  0.25021100  0.25110200  0.24627300  1
  Li  Li4  1  0.75021100  0.24889800  0.75372700  1
  Li  Li5  1  0.99984700  0.00374900  0.99862500  1
  Li  Li6  1  0.50015300  0.99625100  0.49862500  1
  Li  Li7  1  0.74978900  0.75110200  0.25372700  1
  Mn  Mn8  1  0.11669300  0.62722400  0.12673900  1
  Mn  Mn9  1  0.86665300  0.62399600  0.87712500  1
  Mn  Mn10  1  0.62507300  0.62151400  0.62840400  1
  Mn  Mn11  1  0.87492700  0.37848600  0.12840400  1
  Mn  Mn12  1  0.63334700  0.37600400  0.37712500  1
  Mn  Mn13  1  0.38330700  0.37277600  0.62673900  1
  Mn  Mn14  1  0.88330700  0.12722400  0.37326100  1
  Mn  Mn15  1  0.13334700  0.12399600  0.62287500  1
  Mn  Mn16  1  0.37492700  0.12151400  0.87159600  1
  Mn  Mn17  1  0.12507300  0.87848600  0.37159600  1
  Mn  Mn18  1  0.36665300  0.87600400  0.12287500  1
  Mn  Mn19  1  0.61669300  0.87277600  0.87326100  1
  Sn  Sn20  1  0.37495300  0.62467300  0.37443300  1
  Sn  Sn21  1  0.12504700  0.37532700  0.87443300  1
  Sn  Sn22  1  0.62504700  0.12467300  0.12556700  1
  Sn  Sn23  1  0.87495300  0.87532700  0.62556700  1
  O  O24  1  0.12785200  0.65314000  0.37198600  1
  O  O25  1  0.35056500  0.62949600  0.13497700  1
  O  O26  1  0.63441200  0.63521400  0.85472500  1
  O  O27  1  0.09995800  0.61580900  0.87910800  1
  O  O28  1  0.85689000  0.63166700  0.64023000  1
  O  O29  1  0.88424200  0.60515000  0.11581300  1
  O  O30  1  0.62238100  0.62099600  0.40342000  1
  O  O31  1  0.39302600  0.60923300  0.61814400  1
  O  O32  1  0.10697400  0.39076700  0.11814400  1
  O  O33  1  0.87761900  0.37900400  0.90342000  1
  O  O34  1  0.61575800  0.39485000  0.61581300  1
  O  O35  1  0.64311000  0.36833300  0.14023000  1
  O  O36  1  0.40004200  0.38419100  0.37910800  1
  O  O37  1  0.86558800  0.36478600  0.35472500  1
  O  O38  1  0.14943500  0.37050400  0.63497700  1
  O  O39  1  0.37214800  0.34686000  0.87198600  1
  O  O40  1  0.87214800  0.15314000  0.12801400  1
  O  O41  1  0.64943500  0.12949600  0.36502300  1
  O  O42  1  0.36558800  0.13521400  0.64527500  1
  O  O43  1  0.90004200  0.11580900  0.62089200  1
  O  O44  1  0.14311000  0.13166700  0.85977000  1
  O  O45  1  0.11575800  0.10515000  0.38418700  1
  O  O46  1  0.37761900  0.12099600  0.09658000  1
  O  O47  1  0.60697400  0.10923300  0.88185600  1
  O  O48  1  0.89302600  0.89076700  0.38185600  1
  O  O49  1  0.12238100  0.87900400  0.59658000  1
  O  O50  1  0.38424200  0.89485000  0.88418700  1
  O  O51  1  0.35689000  0.86833300  0.35977000  1
  O  O52  1  0.59995800  0.88419100  0.12089200  1
  O  O53  1  0.13441200  0.86478600  0.14527500  1
  O  O54  1  0.85056500  0.87050400  0.86502300  1
  O  O55  1  0.62785200  0.84686000  0.62801400  1
