# generated using pymatgen
data_LiVSiO4
_symmetry_space_group_name_H-M   'P 1'
_cell_length_a   5.12598480
_cell_length_b   10.38415900
_cell_length_c   6.83472710
_cell_angle_alpha   90.00001907
_cell_angle_beta   88.76574501
_cell_angle_gamma   89.99991681
_symmetry_Int_Tables_number   1
_chemical_formula_structural   LiVSiO4
_chemical_formula_sum   'Li4 V4 Si4 O16'
_cell_volume   363.72156131
_cell_formula_units_Z   4
loop_
 _symmetry_equiv_pos_site_id
 _symmetry_equiv_pos_as_xyz
  1  'x, y, z'
loop_
 _atom_site_type_symbol
 _atom_site_label
 _atom_site_symmetry_multiplicity
 _atom_site_fract_x
 _atom_site_fract_y
 _atom_site_fract_z
 _atom_site_occupancy
  Li  Li0  1  0.19271200  0.14913600  0.50523600  1
  Li  Li1  1  0.30728700  0.64913600  0.99476100  1
  Li  Li2  1  0.69269600  0.35085200  0.00526500  1
  Li  Li3  1  0.80730100  0.85085200  0.49473500  1
  V  V4  1  0.68666600  0.33212200  0.50995800  1
  V  V5  1  0.81333000  0.83211600  0.99005100  1
  V  V6  1  0.18673800  0.16788600  0.00992000  1
  V  V7  1  0.31326700  0.66788600  0.49007900  1
  Si  Si8  1  0.18894400  0.40733900  0.26070000  1
  Si  Si9  1  0.31105600  0.90733800  0.23930100  1
  Si  Si10  1  0.68900500  0.09266500  0.76067600  1
  Si  Si11  1  0.81099500  0.59266500  0.73932500  1
  O  O12  1  0.12689900  0.62226100  0.73157700  1
  O  O13  1  0.37310100  0.12226100  0.76842000  1
  O  O14  1  0.62695200  0.87773000  0.23154800  1
  O  O15  1  0.87304800  0.37773200  0.26845100  1
  O  O16  1  0.17990800  0.83429800  0.05055500  1
  O  O17  1  0.32009400  0.33429800  0.44944300  1
  O  O18  1  0.67985600  0.66569800  0.55057500  1
  O  O19  1  0.82014600  0.16569700  0.94942700  1
  O  O20  1  0.19076700  0.84175400  0.44170100  1
  O  O21  1  0.30923000  0.34175600  0.05829700  1
  O  O22  1  0.69074900  0.65825900  0.94172500  1
  O  O23  1  0.80925300  0.15825700  0.55827600  1
  O  O24  1  0.24833200  0.06239800  0.23814900  1
  O  O25  1  0.25167000  0.56239900  0.26184900  1
  O  O26  1  0.74828100  0.43760300  0.73818900  1
  O  O27  1  0.75171800  0.93760300  0.76181000  1
