# generated using pymatgen
data_Li2SbS2
_symmetry_space_group_name_H-M   'P 1'
_cell_length_a   7.61808700
_cell_length_b   8.68949900
_cell_length_c   12.57277100
_cell_angle_alpha   90.00000000
_cell_angle_beta   90.00000000
_cell_angle_gamma   90.00000000
_symmetry_Int_Tables_number   1
_chemical_formula_structural   Li2SbS2
_chemical_formula_sum   'Li16 Sb8 S16'
_cell_volume   832.28424014
_cell_formula_units_Z   8
loop_
 _symmetry_equiv_pos_site_id
 _symmetry_equiv_pos_as_xyz
  1  'x, y, z'
loop_
 _atom_site_type_symbol
 _atom_site_label
 _atom_site_symmetry_multiplicity
 _atom_site_fract_x
 _atom_site_fract_y
 _atom_site_fract_z
 _atom_site_occupancy
  Li  Li0  1  0.84062200  0.80600400  0.73400900  1
  Li  Li1  1  0.56496500  0.37913500  0.60680900  1
  Li  Li2  1  0.88906400  0.09897700  0.61157800  1
  Li  Li3  1  0.31421900  0.03276800  0.64115600  1
  Li  Li4  1  0.81421900  0.46723200  0.35884400  1
  Li  Li5  1  0.38906400  0.40102300  0.38842200  1
  Li  Li6  1  0.06496500  0.12086500  0.39319100  1
  Li  Li7  1  0.34062200  0.69399600  0.26599100  1
  Li  Li8  1  0.65937800  0.19399600  0.23400900  1
  Li  Li9  1  0.93503500  0.62086500  0.10680900  1
  Li  Li10  1  0.61093600  0.90102300  0.11157800  1
  Li  Li11  1  0.18578100  0.96723200  0.14115600  1
  Li  Li12  1  0.68578100  0.53276800  0.85884400  1
  Li  Li13  1  0.11093600  0.59897700  0.88842200  1
  Li  Li14  1  0.43503500  0.87913500  0.89319100  1
  Li  Li15  1  0.15937800  0.30600400  0.76599100  1
  Sb  Sb16  1  0.32253500  0.69166200  0.63132900  1
  Sb  Sb17  1  0.04163900  0.50670500  0.54834400  1
  Sb  Sb18  1  0.54163900  0.99329500  0.45165600  1
  Sb  Sb19  1  0.82253500  0.80833800  0.36867100  1
  Sb  Sb20  1  0.17746500  0.30833800  0.13132900  1
  Sb  Sb21  1  0.45836100  0.49329500  0.04834400  1
  Sb  Sb22  1  0.95836100  0.00670500  0.95165600  1
  Sb  Sb23  1  0.67746500  0.19166200  0.86867100  1
  S  S24  1  0.60764300  0.00986900  0.72042800  1
  S  S25  1  0.90372800  0.47553100  0.72309300  1
  S  S26  1  0.22423600  0.26777800  0.54500300  1
  S  S27  1  0.52389600  0.61131800  0.49081200  1
  S  S28  1  0.02389600  0.88868200  0.50918800  1
  S  S29  1  0.72423600  0.23222200  0.45499700  1
  S  S30  1  0.40372800  0.02446900  0.27690700  1
  S  S31  1  0.10764300  0.49013100  0.27957200  1
  S  S32  1  0.89235700  0.99013100  0.22042800  1
  S  S33  1  0.59627200  0.52446900  0.22309300  1
  S  S34  1  0.27576400  0.73222200  0.04500300  1
  S  S35  1  0.97610400  0.38868200  0.99081200  1
  S  S36  1  0.47610400  0.11131800  0.00918800  1
  S  S37  1  0.77576400  0.76777800  0.95499700  1
  S  S38  1  0.09627200  0.97553100  0.77690700  1
  S  S39  1  0.39235700  0.50986900  0.77957200  1
