# generated using pymatgen
data_Li4Ni(BO3)2
_symmetry_space_group_name_H-M   'P 1'
_cell_length_a   6.48438002
_cell_length_b   9.37601000
_cell_length_c   8.51963425
_cell_angle_alpha   90.00182784
_cell_angle_beta   112.36020740
_cell_angle_gamma   89.99975753
_symmetry_Int_Tables_number   1
_chemical_formula_structural   Li4Ni(BO3)2
_chemical_formula_sum   'Li16 Ni4 B8 O24'
_cell_volume   479.02723788
_cell_formula_units_Z   4
loop_
 _symmetry_equiv_pos_site_id
 _symmetry_equiv_pos_as_xyz
  1  'x, y, z'
loop_
 _atom_site_type_symbol
 _atom_site_label
 _atom_site_symmetry_multiplicity
 _atom_site_fract_x
 _atom_site_fract_y
 _atom_site_fract_z
 _atom_site_occupancy
  Li  Li0  1  0.33406400  0.05923100  0.16827100  1
  Li  Li1  1  0.83414600  0.05924700  0.16832100  1
  Li  Li2  1  0.33414000  0.44073400  0.66854300  1
  Li  Li3  1  0.83430600  0.44073500  0.66850900  1
  Li  Li4  1  0.16585500  0.55924800  0.33177100  1
  Li  Li5  1  0.66603100  0.55925900  0.33174300  1
  Li  Li6  1  0.66585600  0.94072900  0.83153600  1
  Li  Li7  1  0.16576800  0.94072000  0.83148800  1
  Li  Li8  1  0.00037600  0.20960700  0.00056500  1
  Li  Li9  1  0.50026800  0.20960700  0.00056200  1
  Li  Li10  1  0.50032200  0.29054600  0.50067200  1
  Li  Li11  1  0.00039400  0.29046300  0.50066200  1
  Li  Li12  1  0.49973800  0.70957500  0.49941300  1
  Li  Li13  1  0.99966500  0.70966600  0.49941100  1
  Li  Li14  1  0.49970600  0.79048100  0.99930300  1
  Li  Li15  1  0.99959800  0.79047300  0.99929200  1
  Ni  Ni16  1  0.74983200  0.00024800  0.49977100  1
  Ni  Ni17  1  0.75009900  0.49997500  0.00001100  1
  Ni  Ni18  1  0.24987000  0.99996700  0.50017900  1
  Ni  Ni19  1  0.25032900  0.50038900  0.00058000  1
  B  B20  1  0.63187200  0.19583800  0.76377900  1
  B  B21  1  0.13185700  0.19578800  0.76372800  1
  B  B22  1  0.13190600  0.30418800  0.26384500  1
  B  B23  1  0.63192700  0.30419900  0.26388400  1
  B  B24  1  0.36806200  0.69574400  0.73615000  1
  B  B25  1  0.86808200  0.69574700  0.73617900  1
  B  B26  1  0.36806400  0.80413900  0.23613800  1
  B  B27  1  0.86807400  0.80419300  0.23617900  1
  O  O28  1  0.55718300  0.10880400  0.61449900  1
  O  O29  1  0.05719200  0.10868700  0.61448300  1
  O  O30  1  0.05730000  0.39124100  0.11456400  1
  O  O31  1  0.55730300  0.39121600  0.11459200  1
  O  O32  1  0.44273900  0.60876800  0.88548100  1
  O  O33  1  0.94274500  0.60874300  0.88549800  1
  O  O34  1  0.44264200  0.89115400  0.38542100  1
  O  O35  1  0.94263200  0.89126800  0.38542600  1
  O  O36  1  0.12435200  0.15675600  0.24884200  1
  O  O37  1  0.62438300  0.15673300  0.24894400  1
  O  O38  1  0.62437900  0.34325100  0.74890200  1
  O  O39  1  0.12429700  0.34314400  0.74871900  1
  O  O40  1  0.37558200  0.65668300  0.25097900  1
  O  O41  1  0.87566300  0.65679300  0.25113200  1
  O  O42  1  0.37562200  0.84320700  0.75107500  1
  O  O43  1  0.87565600  0.84317900  0.75115300  1
  O  O44  1  0.70943200  0.13156900  0.91873000  1
  O  O45  1  0.20945100  0.13152400  0.91869200  1
  O  O46  1  0.20945200  0.36836800  0.41877400  1
  O  O47  1  0.70947800  0.36836400  0.41880600  1
  O  O48  1  0.29057900  0.63155700  0.58123100  1
  O  O49  1  0.79061400  0.63155500  0.58125200  1
  O  O50  1  0.29056400  0.86833000  0.08114800  1
  O  O51  1  0.79055500  0.86837100  0.08117300  1
