# generated using pymatgen
data_Li2Cr2(SO4)3
_symmetry_space_group_name_H-M   'P 1'
_cell_length_a   8.62601000
_cell_length_b   8.78089600
_cell_length_c   13.23570700
_cell_angle_alpha   90.00000000
_cell_angle_beta   90.00000000
_cell_angle_gamma   90.00000000
_symmetry_Int_Tables_number   1
_chemical_formula_structural   Li2Cr2(SO4)3
_chemical_formula_sum   'Li8 Cr8 S12 O48'
_cell_volume   1002.52667097
_cell_formula_units_Z   4
loop_
 _symmetry_equiv_pos_site_id
 _symmetry_equiv_pos_as_xyz
  1  'x, y, z'
loop_
 _atom_site_type_symbol
 _atom_site_label
 _atom_site_symmetry_multiplicity
 _atom_site_fract_x
 _atom_site_fract_y
 _atom_site_fract_z
 _atom_site_occupancy
  Li  Li0  1  0.22330400  0.27739100  0.18522600  1
  Li  Li1  1  0.77669600  0.77739100  0.18522600  1
  Li  Li2  1  0.27669600  0.77739100  0.31477400  1
  Li  Li3  1  0.72330400  0.27739100  0.31477400  1
  Li  Li4  1  0.27669600  0.72260900  0.68522600  1
  Li  Li5  1  0.72330400  0.22260900  0.68522600  1
  Li  Li6  1  0.22330400  0.22260900  0.81477400  1
  Li  Li7  1  0.77669600  0.72260900  0.81477400  1
  Cr  Cr8  1  0.24927600  0.96033800  0.10851700  1
  Cr  Cr9  1  0.75072400  0.46033800  0.10851700  1
  Cr  Cr10  1  0.74927600  0.96033800  0.39148300  1
  Cr  Cr11  1  0.25072400  0.46033800  0.39148300  1
  Cr  Cr12  1  0.25072400  0.03966200  0.60851700  1
  Cr  Cr13  1  0.74927600  0.53966200  0.60851700  1
  Cr  Cr14  1  0.24927600  0.53966200  0.89148300  1
  Cr  Cr15  1  0.75072400  0.03966200  0.89148300  1
  S  S16  1  0.45511700  0.25000000  0.00000000  1
  S  S17  1  0.54488300  0.75000000  0.00000000  1
  S  S18  1  0.09919500  0.60705800  0.14495800  1
  S  S19  1  0.90080500  0.10705800  0.14495800  1
  S  S20  1  0.40080500  0.10705800  0.35504200  1
  S  S21  1  0.59919500  0.60705800  0.35504200  1
  S  S22  1  0.04488300  0.75000000  0.50000000  1
  S  S23  1  0.95511700  0.25000000  0.50000000  1
  S  S24  1  0.40080500  0.39294200  0.64495800  1
  S  S25  1  0.59919500  0.89294200  0.64495800  1
  S  S26  1  0.09919500  0.89294200  0.85504200  1
  S  S27  1  0.90080500  0.39294200  0.85504200  1
  O  O28  1  0.13218300  0.58319100  0.03841100  1
  O  O29  1  0.86781700  0.08319100  0.03841100  1
  O  O30  1  0.54770700  0.36318800  0.05457600  1
  O  O31  1  0.45229300  0.86318800  0.05457600  1
  O  O32  1  0.35238900  0.17432200  0.07658700  1
  O  O33  1  0.64761100  0.67432200  0.07658700  1
  O  O34  1  0.07367200  0.11284500  0.16172900  1
  O  O35  1  0.92632800  0.61284500  0.16172900  1
  O  O36  1  0.16504600  0.75681500  0.18107100  1
  O  O37  1  0.83495400  0.25681500  0.18107100  1
  O  O38  1  0.83595400  0.98408700  0.20911900  1
  O  O39  1  0.16404600  0.48408700  0.20911900  1
  O  O40  1  0.33595400  0.98408700  0.29088100  1
  O  O41  1  0.66404600  0.48408700  0.29088100  1
  O  O42  1  0.66504600  0.75681500  0.31892900  1
  O  O43  1  0.33495400  0.25681500  0.31892900  1
  O  O44  1  0.42632800  0.61284500  0.33827100  1
  O  O45  1  0.57367200  0.11284500  0.33827100  1
  O  O46  1  0.14761100  0.67432200  0.42341300  1
  O  O47  1  0.85238900  0.17432200  0.42341300  1
  O  O48  1  0.04770700  0.36318800  0.44542400  1
  O  O49  1  0.95229300  0.86318800  0.44542400  1
  O  O50  1  0.63218300  0.58319100  0.46158900  1
  O  O51  1  0.36781700  0.08319100  0.46158900  1
  O  O52  1  0.36781700  0.41680900  0.53841100  1
  O  O53  1  0.63218300  0.91680900  0.53841100  1
  O  O54  1  0.04770700  0.13681200  0.55457600  1
  O  O55  1  0.95229300  0.63681200  0.55457600  1
  O  O56  1  0.14761100  0.82567800  0.57658700  1
  O  O57  1  0.85238900  0.32567800  0.57658700  1
  O  O58  1  0.42632800  0.88715500  0.66172900  1
  O  O59  1  0.57367200  0.38715500  0.66172900  1
  O  O60  1  0.33495400  0.24318500  0.68107100  1
  O  O61  1  0.66504600  0.74318500  0.68107100  1
  O  O62  1  0.33595400  0.51591300  0.70911900  1
  O  O63  1  0.66404600  0.01591300  0.70911900  1
  O  O64  1  0.16404600  0.01591300  0.79088100  1
  O  O65  1  0.83595400  0.51591300  0.79088100  1
  O  O66  1  0.16504600  0.74318500  0.81892900  1
  O  O67  1  0.83495400  0.24318500  0.81892900  1
  O  O68  1  0.07367200  0.38715500  0.83827100  1
  O  O69  1  0.92632800  0.88715500  0.83827100  1
  O  O70  1  0.35238900  0.32567800  0.92341300  1
  O  O71  1  0.64761100  0.82567800  0.92341300  1
  O  O72  1  0.45229300  0.63681200  0.94542400  1
  O  O73  1  0.54770700  0.13681200  0.94542400  1
  O  O74  1  0.13218300  0.91680900  0.96158900  1
  O  O75  1  0.86781700  0.41680900  0.96158900  1
