# generated using pymatgen
data_LiVSO4F3
_symmetry_space_group_name_H-M   'P 1'
_cell_length_a   7.16557400
_cell_length_b   7.87959038
_cell_length_c   10.26152673
_cell_angle_alpha   88.61916924
_cell_angle_beta   88.91219150
_cell_angle_gamma   86.97486359
_symmetry_Int_Tables_number   1
_chemical_formula_structural   LiVSO4F3
_chemical_formula_sum   'Li4 V4 S4 O16 F12'
_cell_volume   578.31769683
_cell_formula_units_Z   4
loop_
 _symmetry_equiv_pos_site_id
 _symmetry_equiv_pos_as_xyz
  1  'x, y, z'
loop_
 _atom_site_type_symbol
 _atom_site_label
 _atom_site_symmetry_multiplicity
 _atom_site_fract_x
 _atom_site_fract_y
 _atom_site_fract_z
 _atom_site_occupancy
  Li  Li0  1  0.19435400  0.11125500  0.27271500  1
  Li  Li1  1  0.70791000  0.88518200  0.25781800  1
  Li  Li2  1  0.86641400  0.41456800  0.79636200  1
  Li  Li3  1  0.86573700  0.89982700  0.71817300  1
  V  V4  1  0.00171300  0.49470100  0.49007400  1
  V  V5  1  0.99209400  0.99586300  0.99807400  1
  V  V6  1  0.50125500  0.49995200  0.49993200  1
  V  V7  1  0.49157300  0.99869000  0.99113500  1
  S  S8  1  0.22074800  0.32684700  0.00781400  1
  S  S9  1  0.22087200  0.82993600  0.50932400  1
  S  S10  1  0.76448500  0.15973700  0.50034400  1
  S  S11  1  0.76895500  0.66416700  0.00944700  1
  O  O12  1  0.09878500  0.19307000  0.08122300  1
  O  O13  1  0.09276300  0.71224300  0.43724200  1
  O  O14  1  0.11317700  0.40556100  0.90277300  1
  O  O15  1  0.11618200  0.90282500  0.61810900  1
  O  O16  1  0.29890400  0.43071200  0.10300800  1
  O  O17  1  0.28810900  0.95136500  0.41177500  1
  O  O18  1  0.38224900  0.21504000  0.94392300  1
  O  O19  1  0.38521500  0.71990000  0.56010600  1
  O  O20  1  0.60056200  0.27339100  0.45051000  1
  O  O21  1  0.61424200  0.78438700  0.06795000  1
  O  O22  1  0.70085700  0.04583100  0.60354100  1
  O  O23  1  0.69674500  0.55826600  0.91035800  1
  O  O24  1  0.84810700  0.07263100  0.38731800  1
  O  O25  1  0.86639800  0.58237200  0.11655100  1
  O  O26  1  0.90152300  0.27706300  0.56128300  1
  O  O27  1  0.90249600  0.78719400  0.93208100  1
  F  F28  1  0.99199900  0.08655200  0.83361800  1
  F  F29  1  0.99175600  0.55730200  0.66314200  1
  F  F30  1  0.25894700  0.40082800  0.51270400  1
  F  F31  1  0.24657200  0.89890500  0.98701100  1
  F  F32  1  0.45693200  0.04412900  0.16911000  1
  F  F33  1  0.48490600  0.57265600  0.33401600  1
  F  F34  1  0.56229100  0.45194300  0.66705300  1
  F  F35  1  0.55267000  0.92196000  0.83310300  1
  F  F36  1  0.73649400  0.10049500  0.00444100  1
  F  F37  1  0.75273100  0.60108900  0.47862700  1
  F  F38  1  0.01093400  0.40327700  0.33294800  1
  F  F39  1  0.95720800  0.91891100  0.16674500  1
