# generated using pymatgen
data_Li2FeNi(PO4)2
_symmetry_space_group_name_H-M   'P 1'
_cell_length_a   4.74089410
_cell_length_b   10.29715725
_cell_length_c   6.00666700
_cell_angle_alpha   89.99954327
_cell_angle_beta   90.00029974
_cell_angle_gamma   89.75349358
_symmetry_Int_Tables_number   1
_chemical_formula_structural   Li2FeNi(PO4)2
_chemical_formula_sum   'Li4 Fe2 Ni2 P4 O16'
_cell_volume   293.22914661
_cell_formula_units_Z   2
loop_
 _symmetry_equiv_pos_site_id
 _symmetry_equiv_pos_as_xyz
  1  'x, y, z'
loop_
 _atom_site_type_symbol
 _atom_site_label
 _atom_site_symmetry_multiplicity
 _atom_site_fract_x
 _atom_site_fract_y
 _atom_site_fract_z
 _atom_site_occupancy
  Li  Li0  1  0.99995600  0.99998500  0.00001900  1
  Li  Li1  1  0.99995600  0.99998600  0.49998000  1
  Li  Li2  1  0.50000500  0.50001600  0.00002400  1
  Li  Li3  1  0.50000500  0.50001500  0.49997400  1
  Fe  Fe4  1  0.02422300  0.72288800  0.74999800  1
  Fe  Fe5  1  0.97561500  0.27704400  0.25000100  1
  Ni  Ni6  1  0.48394400  0.22034900  0.74999500  1
  Ni  Ni7  1  0.51625700  0.77969400  0.25001600  1
  P  P8  1  0.41844600  0.09125900  0.24999800  1
  P  P9  1  0.58149800  0.90876700  0.75000400  1
  P  P10  1  0.91712100  0.40272700  0.75000100  1
  P  P11  1  0.08289800  0.59725700  0.24999700  1
  O  O12  1  0.70527100  0.04878800  0.74999600  1
  O  O13  1  0.29467800  0.95123900  0.25000400  1
  O  O14  1  0.74212500  0.09348500  0.25000000  1
  O  O15  1  0.25782900  0.90647300  0.74999800  1
  O  O16  1  0.24144000  0.39748500  0.75000000  1
  O  O17  1  0.75855700  0.60252100  0.24999900  1
  O  O18  1  0.20310500  0.45689100  0.24999900  1
  O  O19  1  0.79681700  0.54307200  0.75000000  1
  O  O20  1  0.28300700  0.16254000  0.04368900  1
  O  O21  1  0.28300500  0.16254400  0.45630000  1
  O  O22  1  0.71707200  0.83752100  0.54369400  1
  O  O23  1  0.71706800  0.83752500  0.95631800  1
  O  O24  1  0.77822800  0.33167200  0.54590400  1
  O  O25  1  0.77823000  0.33167200  0.95409900  1
  O  O26  1  0.22182100  0.66829200  0.04589200  1
  O  O27  1  0.22182400  0.66829200  0.45410100  1
