# generated using pymatgen
data_Li2Fe3SbO8
_symmetry_space_group_name_H-M   'P 1'
_cell_length_a   8.60719100
_cell_length_b   8.60719100
_cell_length_c   8.60719100
_cell_angle_alpha   90.00000000
_cell_angle_beta   90.00000000
_cell_angle_gamma   90.00000000
_symmetry_Int_Tables_number   1
_chemical_formula_structural   Li2Fe3SbO8
_chemical_formula_sum   'Li8 Fe12 Sb4 O32'
_cell_volume   637.65287358
_cell_formula_units_Z   4
loop_
 _symmetry_equiv_pos_site_id
 _symmetry_equiv_pos_as_xyz
  1  'x, y, z'
loop_
 _atom_site_type_symbol
 _atom_site_label
 _atom_site_symmetry_multiplicity
 _atom_site_fract_x
 _atom_site_fract_y
 _atom_site_fract_z
 _atom_site_occupancy
  Li  Li0  1  0.00155700  0.00155700  0.00155700  1
  Li  Li1  1  0.24844300  0.24844300  0.24844300  1
  Li  Li2  1  0.25155700  0.75155700  0.74844300  1
  Li  Li3  1  0.49844300  0.99844300  0.50155700  1
  Li  Li4  1  0.50155700  0.49844300  0.99844300  1
  Li  Li5  1  0.74844300  0.25155700  0.75155700  1
  Li  Li6  1  0.75155700  0.74844300  0.25155700  1
  Li  Li7  1  0.99844300  0.50155700  0.49844300  1
  Fe  Fe8  1  0.11633600  0.13366400  0.62500000  1
  Fe  Fe9  1  0.12500000  0.38366400  0.86633600  1
  Fe  Fe10  1  0.13366400  0.62500000  0.11633600  1
  Fe  Fe11  1  0.36633600  0.37500000  0.61633600  1
  Fe  Fe12  1  0.37500000  0.61633600  0.36633600  1
  Fe  Fe13  1  0.38366400  0.86633600  0.12500000  1
  Fe  Fe14  1  0.61633600  0.36633600  0.37500000  1
  Fe  Fe15  1  0.62500000  0.11633600  0.13366400  1
  Fe  Fe16  1  0.63366400  0.87500000  0.88366400  1
  Fe  Fe17  1  0.86633600  0.12500000  0.38366400  1
  Fe  Fe18  1  0.87500000  0.88366400  0.63366400  1
  Fe  Fe19  1  0.88366400  0.63366400  0.87500000  1
  Sb  Sb20  1  0.12500000  0.87500000  0.37500000  1
  Sb  Sb21  1  0.37500000  0.12500000  0.87500000  1
  Sb  Sb22  1  0.62500000  0.62500000  0.62500000  1
  Sb  Sb23  1  0.87500000  0.37500000  0.12500000  1
  O  O24  1  0.11376400  0.10970400  0.38633000  1
  O  O25  1  0.11367000  0.88623600  0.60970400  1
  O  O26  1  0.11645900  0.61645900  0.88354100  1
  O  O27  1  0.14029600  0.13623600  0.86367000  1
  O  O28  1  0.10970400  0.38633000  0.11376400  1
  O  O29  1  0.13354100  0.36645900  0.63354100  1
  O  O30  1  0.13633000  0.64029600  0.36376400  1
  O  O31  1  0.13623600  0.86367000  0.14029600  1
  O  O32  1  0.36376400  0.13633000  0.64029600  1
  O  O33  1  0.36367000  0.35970400  0.86376400  1
  O  O34  1  0.36645900  0.63354100  0.13354100  1
  O  O35  1  0.39029600  0.61367000  0.61376400  1
  O  O36  1  0.35970400  0.86376400  0.36367000  1
  O  O37  1  0.38354100  0.38354100  0.38354100  1
  O  O38  1  0.38633000  0.11376400  0.10970400  1
  O  O39  1  0.38623600  0.89029600  0.88633000  1
  O  O40  1  0.61376400  0.39029600  0.61367000  1
  O  O41  1  0.61367000  0.61376400  0.39029600  1
  O  O42  1  0.61645900  0.88354100  0.11645900  1
  O  O43  1  0.64029600  0.36376400  0.13633000  1
  O  O44  1  0.60970400  0.11367000  0.88623600  1
  O  O45  1  0.63354100  0.13354100  0.36645900  1
  O  O46  1  0.63633000  0.85970400  0.63623600  1
  O  O47  1  0.63623600  0.63633000  0.85970400  1
  O  O48  1  0.86376400  0.36367000  0.35970400  1
  O  O49  1  0.86367000  0.14029600  0.13623600  1
  O  O50  1  0.86645900  0.86645900  0.86645900  1
  O  O51  1  0.89029600  0.88633000  0.38623600  1
  O  O52  1  0.85970400  0.63623600  0.63633000  1
  O  O53  1  0.88354100  0.11645900  0.61645900  1
  O  O54  1  0.88633000  0.38623600  0.89029600  1
  O  O55  1  0.88623600  0.60970400  0.11367000  1
