# generated using pymatgen
data_LiH4SNO4
_symmetry_space_group_name_H-M   'P 1'
_cell_length_a   5.36801900
_cell_length_b   9.21163100
_cell_length_c   17.52049995
_cell_angle_alpha   89.87612748
_cell_angle_beta   90.00000000
_cell_angle_gamma   90.00000000
_symmetry_Int_Tables_number   1
_chemical_formula_structural   LiH4SNO4
_chemical_formula_sum   'Li8 H32 S8 N8 O32'
_cell_volume   866.35533994
_cell_formula_units_Z   8
loop_
 _symmetry_equiv_pos_site_id
 _symmetry_equiv_pos_as_xyz
  1  'x, y, z'
loop_
 _atom_site_type_symbol
 _atom_site_label
 _atom_site_symmetry_multiplicity
 _atom_site_fract_x
 _atom_site_fract_y
 _atom_site_fract_z
 _atom_site_occupancy
  Li  Li0  1  0.23380800  0.08917700  0.66088400  1
  Li  Li1  1  0.73380800  0.91082300  0.83911600  1
  Li  Li2  1  0.76619200  0.91082300  0.33911600  1
  Li  Li3  1  0.26619200  0.08917700  0.16088400  1
  Li  Li4  1  0.27444800  0.40957700  0.91360800  1
  Li  Li5  1  0.77444800  0.59042300  0.58639200  1
  Li  Li6  1  0.72555200  0.59042300  0.08639200  1
  Li  Li7  1  0.22555200  0.40957700  0.41360800  1
  H  H8  1  0.68067700  0.17330300  0.75440000  1
  H  H9  1  0.18067700  0.82669700  0.74560000  1
  H  H10  1  0.31932300  0.82669700  0.24560000  1
  H  H11  1  0.81932300  0.17330300  0.25440000  1
  H  H12  1  0.91038600  0.28731400  0.72822400  1
  H  H13  1  0.41038600  0.71268600  0.77177600  1
  H  H14  1  0.08961400  0.71268600  0.27177600  1
  H  H15  1  0.58961400  0.28731400  0.22822400  1
  H  H16  1  0.61561000  0.32992100  0.70747300  1
  H  H17  1  0.11561000  0.67007900  0.79252700  1
  H  H18  1  0.38439000  0.67007900  0.29252700  1
  H  H19  1  0.88439000  0.32992100  0.20747300  1
  H  H20  1  0.70883700  0.33576000  0.80029600  1
  H  H21  1  0.20883700  0.66424000  0.69970400  1
  H  H22  1  0.29116300  0.66424000  0.19970400  1
  H  H23  1  0.79116300  0.33576000  0.30029600  1
  H  H24  1  0.63809000  0.28391100  0.01366900  1
  H  H25  1  0.13809000  0.71608900  0.48633100  1
  H  H26  1  0.36191000  0.71608900  0.98633100  1
  H  H27  1  0.86191000  0.28391100  0.51366900  1
  H  H28  1  0.90299000  0.24829400  0.96385100  1
  H  H29  1  0.40299000  0.75170600  0.53614900  1
  H  H30  1  0.09701000  0.75170600  0.03614900  1
  H  H31  1  0.59701000  0.24829400  0.46385100  1
  H  H32  1  0.65805600  0.13738100  0.95744700  1
  H  H33  1  0.15805600  0.86261900  0.54255300  1
  H  H34  1  0.34194400  0.86261900  0.04255300  1
  H  H35  1  0.84194400  0.13738100  0.45744700  1
  H  H36  1  0.83052700  0.14371500  0.04005200  1
  H  H37  1  0.33052700  0.85628500  0.45994800  1
  H  H38  1  0.16947300  0.85628500  0.95994800  1
  H  H39  1  0.66947300  0.14371500  0.54005200  1
  S  S40  1  0.26141300  0.41463800  0.60325000  1
  S  S41  1  0.76141300  0.58536200  0.89675000  1
  S  S42  1  0.73858700  0.58536200  0.39675000  1
  S  S43  1  0.23858700  0.41463800  0.10325000  1
  S  S44  1  0.23105500  0.07618700  0.85265600  1
  S  S45  1  0.73105500  0.92381300  0.64734400  1
  S  S46  1  0.76894500  0.92381300  0.14734400  1
  S  S47  1  0.26894500  0.07618700  0.35265600  1
  N  N48  1  0.72836400  0.28129500  0.74834000  1
  N  N49  1  0.22836400  0.71870500  0.75166000  1
  N  N50  1  0.27163600  0.71870500  0.25166000  1
  N  N51  1  0.77163600  0.28129500  0.24834000  1
  N  N52  1  0.75812600  0.20404100  0.99443600  1
  N  N53  1  0.25812600  0.79595900  0.50556400  1
  N  N54  1  0.24187400  0.79595900  0.00556400  1
  N  N55  1  0.74187400  0.20404100  0.49443600  1
  O  O56  1  0.21793200  0.37121700  0.52284700  1
  O  O57  1  0.71793200  0.62878300  0.97715300  1
  O  O58  1  0.78206800  0.62878300  0.47715300  1
  O  O59  1  0.28206800  0.37121700  0.02284700  1
  O  O60  1  0.17484800  0.29632100  0.65512400  1
  O  O61  1  0.67484800  0.70367900  0.84487600  1
  O  O62  1  0.82515200  0.70367900  0.34487600  1
  O  O63  1  0.32515200  0.29632100  0.15512400  1
  O  O64  1  0.53241700  0.44012400  0.61716000  1
  O  O65  1  0.03241700  0.55987600  0.88284000  1
  O  O66  1  0.46758300  0.55987600  0.38284000  1
  O  O67  1  0.96758300  0.44012400  0.11716000  1
  O  O68  1  0.11857400  0.55033400  0.62032100  1
  O  O69  1  0.61857400  0.44966600  0.87967900  1
  O  O70  1  0.88142600  0.44966600  0.37967900  1
  O  O71  1  0.38142600  0.55033400  0.12032100  1
  O  O72  1  0.23483000  0.06024800  0.76900000  1
  O  O73  1  0.73483000  0.93975200  0.73100000  1
  O  O74  1  0.76517000  0.93975200  0.23100000  1
  O  O75  1  0.26517000  0.06024800  0.26900000  1
  O  O76  1  0.15679600  0.22605000  0.87389400  1
  O  O77  1  0.65679600  0.77395000  0.62610600  1
  O  O78  1  0.84320400  0.77395000  0.12610600  1
  O  O79  1  0.34320400  0.22605000  0.37389400  1
  O  O80  1  0.48413500  0.04205700  0.88424800  1
  O  O81  1  0.98413500  0.95794300  0.61575200  1
  O  O82  1  0.51586500  0.95794300  0.11575200  1
  O  O83  1  0.01586500  0.04205700  0.38424800  1
  O  O84  1  0.04815800  0.96995200  0.88596000  1
  O  O85  1  0.54815800  0.03004800  0.61404000  1
  O  O86  1  0.95184200  0.03004800  0.11404000  1
  O  O87  1  0.45184200  0.96995200  0.38596000  1
