# generated using pymatgen
data_LiVFeO4
_symmetry_space_group_name_H-M   'P 1'
_cell_length_a   5.95331000
_cell_length_b   5.95287100
_cell_length_c   8.32078700
_cell_angle_alpha   89.99991204
_cell_angle_beta   89.99798811
_cell_angle_gamma   89.99949952
_symmetry_Int_Tables_number   1
_chemical_formula_structural   LiVFeO4
_chemical_formula_sum   'Li4 V4 Fe4 O16'
_cell_volume   294.88275391
_cell_formula_units_Z   4
loop_
 _symmetry_equiv_pos_site_id
 _symmetry_equiv_pos_as_xyz
  1  'x, y, z'
loop_
 _atom_site_type_symbol
 _atom_site_label
 _atom_site_symmetry_multiplicity
 _atom_site_fract_x
 _atom_site_fract_y
 _atom_site_fract_z
 _atom_site_occupancy
  Li  Li0  1  0.00001100  0.23315900  0.99996200  1
  Li  Li1  1  0.00001000  0.76686500  0.50003500  1
  Li  Li2  1  0.23332200  0.00001800  0.25001400  1
  Li  Li3  1  0.76670300  0.00001400  0.74998800  1
  V  V4  1  0.22915300  0.50000100  0.25000000  1
  V  V5  1  0.50000500  0.22919000  0.00000000  1
  V  V6  1  0.49999900  0.77080400  0.50001000  1
  V  V7  1  0.77082000  0.49999700  0.74999200  1
  Fe  Fe8  1  0.25646200  0.25646200  0.62502600  1
  Fe  Fe9  1  0.25642500  0.74356100  0.87499100  1
  Fe  Fe10  1  0.74354400  0.25644400  0.37497200  1
  Fe  Fe11  1  0.74354900  0.74354600  0.12501000  1
  O  O12  1  0.01712500  0.26880000  0.25877500  1
  O  O13  1  0.01712400  0.73118500  0.24121200  1
  O  O14  1  0.26884200  0.01712600  0.99122100  1
  O  O15  1  0.26885300  0.98289100  0.50880700  1
  O  O16  1  0.26802900  0.48599500  0.01559100  1
  O  O17  1  0.26802500  0.51401000  0.48440100  1
  O  O18  1  0.48597000  0.26801700  0.23439800  1
  O  O19  1  0.48598400  0.73196900  0.26560900  1
  O  O20  1  0.51403900  0.26800500  0.76559500  1
  O  O21  1  0.51399500  0.73197800  0.73440400  1
  O  O22  1  0.73198100  0.51399300  0.51560100  1
  O  O23  1  0.73197900  0.48598700  0.98440200  1
  O  O24  1  0.73116500  0.01711100  0.00877900  1
  O  O25  1  0.73116700  0.98287500  0.49120100  1
  O  O26  1  0.98287200  0.26879900  0.74121100  1
  O  O27  1  0.98284600  0.73119900  0.75879300  1
