# generated using pymatgen
data_Li2V(Si2O5)3
_symmetry_space_group_name_H-M   'P 1'
_cell_length_a   7.77735287
_cell_length_b   7.97770186
_cell_length_c   9.93530129
_cell_angle_alpha   97.75585529
_cell_angle_beta   96.99760436
_cell_angle_gamma   87.70858254
_symmetry_Int_Tables_number   1
_chemical_formula_structural   Li2V(Si2O5)3
_chemical_formula_sum   'Li4 V2 Si12 O30'
_cell_volume   606.07723345
_cell_formula_units_Z   2
loop_
 _symmetry_equiv_pos_site_id
 _symmetry_equiv_pos_as_xyz
  1  'x, y, z'
loop_
 _atom_site_type_symbol
 _atom_site_label
 _atom_site_symmetry_multiplicity
 _atom_site_fract_x
 _atom_site_fract_y
 _atom_site_fract_z
 _atom_site_occupancy
  Li  Li0  1  0.39052100  0.34682100  0.20720100  1
  Li  Li1  1  0.89045500  0.84678700  0.70710500  1
  Li  Li2  1  0.10961000  0.15314600  0.29292400  1
  Li  Li3  1  0.60968900  0.65322400  0.79294300  1
  V  V4  1  0.49986700  0.49995000  0.50007300  1
  V  V5  1  0.99997900  0.99997200  0.99997200  1
  Si  Si6  1  0.22180000  0.64812100  0.04692500  1
  Si  Si7  1  0.72184100  0.14817800  0.54688300  1
  Si  Si8  1  0.27826300  0.85182700  0.45309400  1
  Si  Si9  1  0.77817100  0.35183100  0.95315800  1
  Si  Si10  1  0.87720300  0.46442000  0.68893400  1
  Si  Si11  1  0.37720700  0.96436800  0.18880700  1
  Si  Si12  1  0.62285800  0.03565300  0.81127300  1
  Si  Si13  1  0.12276400  0.53555800  0.31114900  1
  Si  Si14  1  0.26251700  0.45413400  0.75709900  1
  Si  Si15  1  0.76253700  0.95411900  0.25704200  1
  Si  Si16  1  0.23747300  0.04597500  0.74288900  1
  Si  Si17  1  0.73746300  0.54602300  0.24287100  1
  O  O18  1  0.25011800  0.25003100  0.74967900  1
  O  O19  1  0.75020600  0.75000900  0.24968000  1
  O  O20  1  0.06144600  0.77467100  0.00786600  1
  O  O21  1  0.56146600  0.27475800  0.50776600  1
  O  O22  1  0.43846700  0.72508800  0.49232400  1
  O  O23  1  0.93845400  0.22518400  0.99223700  1
  O  O24  1  0.32341500  0.98218600  0.34787500  1
  O  O25  1  0.82331700  0.48211800  0.84789500  1
  O  O26  1  0.17665600  0.51766900  0.15214100  1
  O  O27  1  0.67681300  0.01801600  0.65230300  1
  O  O28  1  0.73486500  0.58497900  0.61271700  1
  O  O29  1  0.23486300  0.08495400  0.11267100  1
  O  O30  1  0.76500700  0.91475200  0.88731000  1
  O  O31  1  0.26500400  0.41484200  0.38735800  1
  O  O32  1  0.29432200  0.53105700  0.91956200  1
  O  O33  1  0.79427600  0.03113100  0.41952300  1
  O  O34  1  0.20572300  0.96884200  0.58042900  1
  O  O35  1  0.70567000  0.46881800  0.08048200  1
  O  O36  1  0.07335100  0.53395700  0.69484900  1
  O  O37  1  0.57336000  0.03370200  0.19464800  1
  O  O38  1  0.42663600  0.96622100  0.80514200  1
  O  O39  1  0.92657200  0.46614700  0.30522100  1
  O  O40  1  0.88153700  0.26525600  0.62479800  1
  O  O41  1  0.38155900  0.76512200  0.12487000  1
  O  O42  1  0.61837400  0.23491200  0.87519000  1
  O  O43  1  0.11850400  0.73481800  0.37513300  1
  O  O44  1  0.08144900  0.98202500  0.81447300  1
  O  O45  1  0.58133800  0.48204500  0.31433200  1
  O  O46  1  0.41851000  0.51824500  0.68554500  1
  O  O47  1  0.91850400  0.01833800  0.18563400  1
