# generated using pymatgen
data_Li24Ti7Cr5O36
_symmetry_space_group_name_H-M   'P 1'
_cell_length_a   5.05813000
_cell_length_b   9.81175267
_cell_length_c   13.45953314
_cell_angle_alpha   80.81143345
_cell_angle_beta   79.30837390
_cell_angle_gamma   85.51175159
_symmetry_Int_Tables_number   1
_chemical_formula_structural   Li24Ti7Cr5O36
_chemical_formula_sum   'Li24 Ti7 Cr5 O36'
_cell_volume   647.15109524
_cell_formula_units_Z   1
loop_
 _symmetry_equiv_pos_site_id
 _symmetry_equiv_pos_as_xyz
  1  'x, y, z'
loop_
 _atom_site_type_symbol
 _atom_site_label
 _atom_site_symmetry_multiplicity
 _atom_site_fract_x
 _atom_site_fract_y
 _atom_site_fract_z
 _atom_site_occupancy
  Li  Li0  1  0.66636500  0.00038400  0.16691500  1
  Li  Li1  1  0.56896800  0.00011000  0.38872100  1
  Li  Li2  1  0.25152000  0.75007100  0.74896700  1
  Li  Li3  1  0.58144500  0.74936900  0.08394900  1
  Li  Li4  1  0.06619100  0.50028000  0.88708500  1
  Li  Li5  1  0.39298700  0.50061400  0.21906500  1
  Li  Li6  1  0.17095200  0.50200900  0.66658900  1
  Li  Li7  1  0.49867400  0.49861100  0.00051400  1
  Li  Li8  1  0.26872500  0.50117300  0.44640900  1
  Li  Li9  1  0.08366100  0.24997100  0.58301900  1
  Li  Li10  1  0.00376500  0.99900400  0.49820000  1
  Li  Li11  1  0.76561800  0.99997800  0.94663400  1
  Li  Li12  1  0.09705300  0.00030000  0.27837900  1
  Li  Li13  1  0.89613700  0.00033900  0.72105800  1
  Li  Li14  1  0.23340100  0.00120600  0.05446400  1
  Li  Li15  1  0.91744200  0.75031500  0.41577400  1
  Li  Li16  1  0.72994200  0.49873500  0.55400400  1
  Li  Li17  1  0.83418100  0.49858000  0.33254800  1
  Li  Li18  1  0.59854100  0.49793800  0.77991900  1
  Li  Li19  1  0.94064700  0.49963400  0.11407900  1
  Li  Li20  1  0.41590500  0.24998300  0.91643800  1
  Li  Li21  1  0.33501500  0.00114300  0.83312100  1
  Li  Li22  1  0.75203600  0.25007900  0.25146700  1
  Li  Li23  1  0.43407700  0.99994200  0.61224300  1
  Ti  Ti24  1  0.86472000  0.24651800  0.02778400  1
  Ti  Ti25  1  0.46477300  0.75586200  0.30611500  1
  Ti  Ti26  1  0.96734100  0.25351200  0.80514800  1
  Ti  Ti27  1  0.19497300  0.25062400  0.36022200  1
  Ti  Ti28  1  0.69800800  0.75168100  0.86018700  1
  Ti  Ti29  1  0.80743400  0.74687800  0.63885800  1
  Ti  Ti30  1  0.14213800  0.74624800  0.97399300  1
  Cr  Cr31  1  0.36764700  0.75004500  0.52662400  1
  Cr  Cr32  1  0.30899800  0.25034700  0.14014800  1
  Cr  Cr33  1  0.02195600  0.74958800  0.19406900  1
  Cr  Cr34  1  0.52184600  0.25115300  0.69228500  1
  Cr  Cr35  1  0.64313600  0.24774000  0.47410700  1
  O  O36  1  0.92665900  0.86153000  0.07510700  1
  O  O37  1  0.72270400  0.63553900  0.21528400  1
  O  O38  1  0.42534800  0.36053600  0.57483300  1
  O  O39  1  0.50203300  0.36240800  0.35895800  1
  O  O40  1  0.61001400  0.36390700  0.11961300  1
  O  O41  1  0.25941900  0.86423900  0.40366800  1
  O  O42  1  0.22206300  0.13523800  0.71377300  1
  O  O43  1  0.33739700  0.13860300  0.47732400  1
  O  O44  1  0.55020100  0.13387700  0.04776800  1
  O  O45  1  0.99948000  0.86410400  0.85680800  1
  O  O46  1  0.12307900  0.86393600  0.61631000  1
  O  O47  1  0.32941800  0.86183000  0.18969400  1
  O  O48  1  0.40587800  0.13787300  0.25945800  1
  O  O49  1  0.83224800  0.63637000  0.97739600  1
  O  O50  1  0.05136600  0.63562300  0.54688100  1
  O  O51  1  0.16401300  0.63749500  0.30902900  1
  O  O52  1  0.90522300  0.63606800  0.76229400  1
  O  O53  1  0.24346300  0.63701300  0.09523200  1
  O  O54  1  0.76254000  0.36423500  0.90437500  1
  O  O55  1  0.09219000  0.36343400  0.23899800  1
  O  O56  1  0.83038800  0.36178800  0.68826100  1
  O  O57  1  0.94425100  0.36520800  0.45235200  1
  O  O58  1  0.16924000  0.36182600  0.02487200  1
  O  O59  1  0.59640300  0.86353700  0.73640700  1
  O  O60  1  0.66438600  0.13842600  0.80736300  1
  O  O61  1  0.88477600  0.13318700  0.38135000  1
  O  O62  1  0.00350800  0.13847100  0.14449800  1
  O  O63  1  0.45273000  0.86610000  0.95149000  1
  O  O64  1  0.66118700  0.86237800  0.52198600  1
  O  O65  1  0.78238400  0.86608900  0.28604100  1
  O  O66  1  0.74180300  0.13881500  0.59144500  1
  O  O67  1  0.37928200  0.63427200  0.88223000  1
  O  O68  1  0.50041100  0.63659400  0.64364100  1
  O  O69  1  0.56675800  0.63765800  0.43180700  1
  O  O70  1  0.28236700  0.36611400  0.78529700  1
  O  O71  1  0.06917100  0.13571200  0.92905500  1
