# generated using pymatgen
data_Li4Ti3Mn2Cr3O16
_symmetry_space_group_name_H-M   'P 1'
_cell_length_a   5.90044521
_cell_length_b   5.90044521
_cell_length_c   9.58243604
_cell_angle_alpha   88.67869926
_cell_angle_beta   88.67869926
_cell_angle_gamma   60.45457455
_symmetry_Int_Tables_number   1
_chemical_formula_structural   Li4Ti3Mn2Cr3O16
_chemical_formula_sum   'Li4 Ti3 Mn2 Cr3 O16'
_cell_volume   290.12995421
_cell_formula_units_Z   1
loop_
 _symmetry_equiv_pos_site_id
 _symmetry_equiv_pos_as_xyz
  1  'x, y, z'
loop_
 _atom_site_type_symbol
 _atom_site_label
 _atom_site_symmetry_multiplicity
 _atom_site_fract_x
 _atom_site_fract_y
 _atom_site_fract_z
 _atom_site_occupancy
  Li  Li0  1  0.66836300  0.66836300  0.10388700  1
  Li  Li1  1  0.99477300  0.99477300  0.00543000  1
  Li  Li2  1  0.99068300  0.99068300  0.50405400  1
  Li  Li3  1  0.33775600  0.33775600  0.60122700  1
  Ti  Ti4  1  0.16296400  0.16296400  0.29192900  1
  Ti  Ti5  1  0.34182500  0.83919300  0.78520000  1
  Ti  Ti6  1  0.83919300  0.34182500  0.78520000  1
  Mn  Mn7  1  0.66907100  0.66907100  0.51013400  1
  Mn  Mn8  1  0.33691100  0.33691100  0.02030300  1
  Cr  Cr9  1  0.83151800  0.83151800  0.79221700  1
  Cr  Cr10  1  0.16507600  0.65828800  0.28460000  1
  Cr  Cr11  1  0.65828800  0.16507600  0.28460000  1
  O  O12  1  0.31996400  0.84196300  0.39583900  1
  O  O13  1  0.52593600  0.52593600  0.65859600  1
  O  O14  1  0.65949800  0.65949800  0.89662800  1
  O  O15  1  0.00538800  0.00538800  0.69150300  1
  O  O16  1  0.00111400  0.00111400  0.18843300  1
  O  O17  1  0.84196300  0.31996400  0.39583900  1
  O  O18  1  0.51696400  0.96967500  0.66801800  1
  O  O19  1  0.96967500  0.51696400  0.66801800  1
  O  O20  1  0.16492300  0.16492300  0.89918100  1
  O  O21  1  0.83210100  0.83210100  0.40016900  1
  O  O22  1  0.04437600  0.47529900  0.15368600  1
  O  O23  1  0.47529900  0.04437600  0.15368600  1
  O  O24  1  0.32541300  0.32541300  0.39439100  1
  O  O25  1  0.17307900  0.66850900  0.90131100  1
  O  O26  1  0.47901600  0.47901600  0.15677300  1
  O  O27  1  0.66850900  0.17307900  0.90131100  1
