# generated using pymatgen
data_Li2Mn(CO3)2
_symmetry_space_group_name_H-M   'P 1'
_cell_length_a   5.41301992
_cell_length_b   11.84382091
_cell_length_c   8.75455530
_cell_angle_alpha   90.00052193
_cell_angle_beta   72.01023860
_cell_angle_gamma   89.99757270
_symmetry_Int_Tables_number   1
_chemical_formula_structural   Li2Mn(CO3)2
_chemical_formula_sum   'Li8 Mn4 C8 O24'
_cell_volume   533.82275328
_cell_formula_units_Z   4
loop_
 _symmetry_equiv_pos_site_id
 _symmetry_equiv_pos_as_xyz
  1  'x, y, z'
loop_
 _atom_site_type_symbol
 _atom_site_label
 _atom_site_symmetry_multiplicity
 _atom_site_fract_x
 _atom_site_fract_y
 _atom_site_fract_z
 _atom_site_occupancy
  Li  Li0  1  0.49851200  0.27686600  0.17302600  1
  Li  Li1  1  0.99849700  0.77689300  0.17301700  1
  Li  Li2  1  0.17175600  0.02688800  0.32705300  1
  Li  Li3  1  0.67168300  0.52694000  0.32707800  1
  Li  Li4  1  0.99864400  0.47310200  0.67304500  1
  Li  Li5  1  0.49860100  0.97307900  0.67301200  1
  Li  Li6  1  0.17142900  0.22319900  0.82704700  1
  Li  Li7  1  0.67134900  0.72315900  0.82709200  1
  Mn  Mn8  1  0.38091400  0.49996900  0.00011300  1
  Mn  Mn9  1  0.88085300  0.24994700  0.49989700  1
  Mn  Mn10  1  0.88100900  0.00005800  0.99998300  1
  Mn  Mn11  1  0.38059700  0.75002600  0.50006200  1
  C  C12  1  0.95956500  0.19996900  0.19431300  1
  C  C13  1  0.45952500  0.69996100  0.19432700  1
  C  C14  1  0.15396800  0.44997900  0.30568700  1
  C  C15  1  0.65398000  0.94999600  0.30564000  1
  C  C16  1  0.95962700  0.05005500  0.69430700  1
  C  C17  1  0.45965200  0.55004400  0.69438300  1
  C  C18  1  0.65351500  0.30000300  0.80563800  1
  C  C19  1  0.15342800  0.80004100  0.80569100  1
  O  O20  1  0.98190700  0.17073900  0.04831900  1
  O  O21  1  0.48187200  0.67068300  0.04833700  1
  O  O22  1  0.03040200  0.42069800  0.45166000  1
  O  O23  1  0.53037900  0.92072600  0.45162300  1
  O  O24  1  0.98201000  0.07932600  0.54830300  1
  O  O25  1  0.48192200  0.57934800  0.54840200  1
  O  O26  1  0.52983900  0.32915500  0.95167600  1
  O  O27  1  0.02976000  0.82922000  0.95169500  1
  O  O28  1  0.40763600  0.44639600  0.24921500  1
  O  O29  1  0.90764300  0.94644300  0.24919500  1
  O  O30  1  0.15674400  0.19639600  0.25082400  1
  O  O31  1  0.65668200  0.69641700  0.25085200  1
  O  O32  1  0.90718200  0.30365600  0.74924600  1
  O  O33  1  0.40710700  0.80367800  0.74930000  1
  O  O34  1  0.15679300  0.05362500  0.75083300  1
  O  O35  1  0.65686300  0.55361600  0.75085800  1
  O  O36  1  0.02915200  0.48151100  0.20785600  1
  O  O37  1  0.52917500  0.98150100  0.20779200  1
  O  O38  1  0.73693600  0.23142600  0.29214600  1
  O  O39  1  0.23689800  0.73143600  0.29213900  1
  O  O40  1  0.52884000  0.26852700  0.70772100  1
  O  O41  1  0.02873700  0.76856500  0.70777300  1
  O  O42  1  0.73703600  0.01855700  0.79210200  1
  O  O43  1  0.23708900  0.51851900  0.79219800  1
