# generated using pymatgen
data_Li3SbH18S4O9
_symmetry_space_group_name_H-M   'P 1'
_cell_length_a   11.53979300
_cell_length_b   11.53979300
_cell_length_c   11.53979300
_cell_angle_alpha   90.00000000
_cell_angle_beta   90.00000000
_cell_angle_gamma   90.00000000
_symmetry_Int_Tables_number   1
_chemical_formula_structural   Li3SbH18S4O9
_chemical_formula_sum   'Li12 Sb4 H72 S16 O36'
_cell_volume   1536.71756592
_cell_formula_units_Z   4
loop_
 _symmetry_equiv_pos_site_id
 _symmetry_equiv_pos_as_xyz
  1  'x, y, z'
loop_
 _atom_site_type_symbol
 _atom_site_label
 _atom_site_symmetry_multiplicity
 _atom_site_fract_x
 _atom_site_fract_y
 _atom_site_fract_z
 _atom_site_occupancy
  Li  Li0  1  0.04973800  0.54973800  0.95026200  1
  Li  Li1  1  0.09047700  0.90952300  0.40952300  1
  Li  Li2  1  0.20512600  0.70512600  0.79487400  1
  Li  Li3  1  0.29487400  0.29487400  0.29487400  1
  Li  Li4  1  0.40952300  0.09047700  0.90952300  1
  Li  Li5  1  0.45026200  0.45026200  0.45026200  1
  Li  Li6  1  0.54973800  0.95026200  0.04973800  1
  Li  Li7  1  0.59047700  0.59047700  0.59047700  1
  Li  Li8  1  0.70512600  0.79487400  0.20512600  1
  Li  Li9  1  0.79487400  0.20512600  0.70512600  1
  Li  Li10  1  0.90952300  0.40952300  0.09047700  1
  Li  Li11  1  0.95026200  0.04973800  0.54973800  1
  Sb  Sb12  1  0.03837300  0.03837300  0.03837300  1
  Sb  Sb13  1  0.46162700  0.96162700  0.53837300  1
  Sb  Sb14  1  0.53837300  0.46162700  0.96162700  1
  Sb  Sb15  1  0.96162700  0.53837300  0.46162700  1
  H  H16  1  0.01572800  0.25197000  0.65652900  1
  H  H17  1  0.02718900  0.30515100  0.92757800  1
  H  H18  1  0.03741800  0.16505600  0.75886200  1
  H  H19  1  0.05583500  0.22697400  0.26730900  1
  H  H20  1  0.06493400  0.31050600  0.37296600  1
  H  H21  1  0.07701400  0.86814600  0.63737400  1
  H  H22  1  0.07242200  0.52718900  0.19484900  1
  H  H23  1  0.12703400  0.93506600  0.81050600  1
  H  H24  1  0.13737400  0.42298600  0.13185400  1
  H  H25  1  0.13185400  0.13737400  0.42298600  1
  H  H26  1  0.15652900  0.48427200  0.74803000  1
  H  H27  1  0.16505600  0.75886200  0.03741800  1
  H  H28  1  0.18949400  0.62703400  0.56493400  1
  H  H29  1  0.19484900  0.07242200  0.52718900  1
  H  H30  1  0.22697400  0.26730900  0.05583500  1
  H  H31  1  0.23269100  0.94416500  0.72697400  1
  H  H32  1  0.24113800  0.53741800  0.33494400  1
  H  H33  1  0.24803000  0.34347100  0.51572800  1
  H  H34  1  0.25197000  0.65652900  0.01572800  1
  H  H35  1  0.25886200  0.46258200  0.83494400  1
  H  H36  1  0.26730900  0.05583500  0.22697400  1
  H  H37  1  0.27302600  0.73269100  0.55583500  1
  H  H38  1  0.30515100  0.92757800  0.02718900  1
  H  H39  1  0.31050600  0.37296600  0.06493400  1
  H  H40  1  0.33494400  0.24113800  0.53741800  1
  H  H41  1  0.34347100  0.51572800  0.24803000  1
  H  H42  1  0.36814600  0.86262600  0.92298600  1
  H  H43  1  0.36262600  0.57701400  0.63185400  1
  H  H44  1  0.37296600  0.06493400  0.31050600  1
  H  H45  1  0.42757800  0.47281100  0.69484900  1
  H  H46  1  0.42298600  0.13185400  0.13737400  1
  H  H47  1  0.43506600  0.68949400  0.87296600  1
  H  H48  1  0.44416500  0.77302600  0.76730900  1
  H  H49  1  0.46258200  0.83494400  0.25886200  1
  H  H50  1  0.47281100  0.69484900  0.42757800  1
  H  H51  1  0.48427200  0.74803000  0.15652900  1
  H  H52  1  0.51572800  0.24803000  0.34347100  1
  H  H53  1  0.52718900  0.19484900  0.07242200  1
  H  H54  1  0.53741800  0.33494400  0.24113800  1
  H  H55  1  0.55583500  0.27302600  0.73269100  1
  H  H56  1  0.56493400  0.18949400  0.62703400  1
  H  H57  1  0.57701400  0.63185400  0.36262600  1
  H  H58  1  0.57242200  0.97281100  0.80515100  1
  H  H59  1  0.62703400  0.56493400  0.18949400  1
  H  H60  1  0.63737400  0.07701400  0.86814600  1
  H  H61  1  0.63185400  0.36262600  0.57701400  1
  H  H62  1  0.65652900  0.01572800  0.25197000  1
  H  H63  1  0.66505600  0.74113800  0.96258200  1
  H  H64  1  0.68949400  0.87296600  0.43506600  1
  H  H65  1  0.69484900  0.42757800  0.47281100  1
  H  H66  1  0.72697400  0.23269100  0.94416500  1
  H  H67  1  0.73269100  0.55583500  0.27302600  1
  H  H68  1  0.74113800  0.96258200  0.66505600  1
  H  H69  1  0.74803000  0.15652900  0.48427200  1
  H  H70  1  0.75197000  0.84347100  0.98427200  1
  H  H71  1  0.75886200  0.03741800  0.16505600  1
  H  H72  1  0.76730900  0.44416500  0.77302600  1
  H  H73  1  0.77302600  0.76730900  0.44416500  1
  H  H74  1  0.80515100  0.57242200  0.97281100  1
  H  H75  1  0.81050600  0.12703400  0.93506600  1
  H  H76  1  0.83494400  0.25886200  0.46258200  1
  H  H77  1  0.84347100  0.98427200  0.75197000  1
  H  H78  1  0.86814600  0.63737400  0.07701400  1
  H  H79  1  0.86262600  0.92298600  0.36814600  1
  H  H80  1  0.87296600  0.43506600  0.68949400  1
  H  H81  1  0.92757800  0.02718900  0.30515100  1
  H  H82  1  0.92298600  0.36814600  0.86262600  1
  H  H83  1  0.93506600  0.81050600  0.12703400  1
  H  H84  1  0.94416500  0.72697400  0.23269100  1
  H  H85  1  0.96258200  0.66505600  0.74113800  1
  H  H86  1  0.97281100  0.80515100  0.57242200  1
  H  H87  1  0.98427200  0.75197000  0.84347100  1
  S  S88  1  0.08015300  0.41984700  0.58015300  1
  S  S89  1  0.08259400  0.65551400  0.34516100  1
  S  S90  1  0.15483900  0.91740600  0.15551400  1
  S  S91  1  0.15551400  0.15483900  0.91740600  1
  S  S92  1  0.34448600  0.84516100  0.41740600  1
  S  S93  1  0.34516100  0.08259400  0.65551400  1
  S  S94  1  0.41740600  0.34448600  0.84516100  1
  S  S95  1  0.41984700  0.58015300  0.08015300  1
  S  S96  1  0.58015300  0.08015300  0.41984700  1
  S  S97  1  0.58259400  0.84448600  0.65483900  1
  S  S98  1  0.65483900  0.58259400  0.84448600  1
  S  S99  1  0.65551400  0.34516100  0.08259400  1
  S  S100  1  0.84448600  0.65483900  0.58259400  1
  S  S101  1  0.84516100  0.41740600  0.34448600  1
  S  S102  1  0.91740600  0.15551400  0.15483900  1
  S  S103  1  0.91984700  0.91984700  0.91984700  1
  O  O104  1  0.01370900  0.67929700  0.80852100  1
  O  O105  1  0.02581600  0.87242500  0.56818500  1
  O  O106  1  0.06818500  0.47418400  0.12757500  1
  O  O107  1  0.11119400  0.25565400  0.32707100  1
  O  O108  1  0.12757500  0.06818500  0.47418400  1
  O  O109  1  0.17292900  0.88880600  0.75565400  1
  O  O110  1  0.17929700  0.69147900  0.98629100  1
  O  O111  1  0.19147900  0.51370900  0.82070300  1
  O  O112  1  0.24434600  0.67292900  0.61119400  1
  O  O113  1  0.25565400  0.32707100  0.11119400  1
  O  O114  1  0.30852100  0.48629100  0.32070300  1
  O  O115  1  0.32070300  0.30852100  0.48629100  1
  O  O116  1  0.32707100  0.11119400  0.25565400  1
  O  O117  1  0.37242500  0.93181500  0.97418400  1
  O  O118  1  0.38880600  0.74434600  0.82707100  1
  O  O119  1  0.43181500  0.52581600  0.62757500  1
  O  O120  1  0.47418400  0.12757500  0.06818500  1
  O  O121  1  0.48629100  0.32070300  0.30852100  1
  O  O122  1  0.51370900  0.82070300  0.19147900  1
  O  O123  1  0.52581600  0.62757500  0.43181500  1
  O  O124  1  0.56818500  0.02581600  0.87242500  1
  O  O125  1  0.61119400  0.24434600  0.67292900  1
  O  O126  1  0.62757500  0.43181500  0.52581600  1
  O  O127  1  0.67292900  0.61119400  0.24434600  1
  O  O128  1  0.67929700  0.80852100  0.01370900  1
  O  O129  1  0.69147900  0.98629100  0.17929700  1
  O  O130  1  0.74434600  0.82707100  0.38880600  1
  O  O131  1  0.75565400  0.17292900  0.88880600  1
  O  O132  1  0.80852100  0.01370900  0.67929700  1
  O  O133  1  0.82070300  0.19147900  0.51370900  1
  O  O134  1  0.82707100  0.38880600  0.74434600  1
  O  O135  1  0.87242500  0.56818500  0.02581600  1
  O  O136  1  0.88880600  0.75565400  0.17292900  1
  O  O137  1  0.93181500  0.97418400  0.37242500  1
  O  O138  1  0.97418400  0.37242500  0.93181500  1
  O  O139  1  0.98629100  0.17929700  0.69147900  1
