# generated using pymatgen
data_Li5V3P8O29
_symmetry_space_group_name_H-M   'P 1'
_cell_length_a   9.79809172
_cell_length_b   9.80148939
_cell_length_c   14.08596882
_cell_angle_alpha   90.07913892
_cell_angle_beta   91.29061956
_cell_angle_gamma   60.10817089
_symmetry_Int_Tables_number   1
_chemical_formula_structural   Li5V3P8O29
_chemical_formula_sum   'Li10 V6 P16 O58'
_cell_volume   1172.42502432
_cell_formula_units_Z   2
loop_
 _symmetry_equiv_pos_site_id
 _symmetry_equiv_pos_as_xyz
  1  'x, y, z'
loop_
 _atom_site_type_symbol
 _atom_site_label
 _atom_site_symmetry_multiplicity
 _atom_site_fract_x
 _atom_site_fract_y
 _atom_site_fract_z
 _atom_site_occupancy
  Li  Li0  1  0.69177900  0.65502500  0.39102200  1
  Li  Li1  1  0.77313400  0.31432300  0.06092200  1
  Li  Li2  1  0.32458300  0.90600200  0.06620600  1
  Li  Li3  1  0.67454000  0.23518500  0.43797500  1
  Li  Li4  1  0.32014600  0.76951200  0.56116500  1
  Li  Li5  1  0.68643900  0.08551900  0.93461400  1
  Li  Li6  1  0.23093400  0.67767700  0.94509900  1
  Li  Li7  1  0.33017700  0.32326900  0.60941800  1
  Li  Li8  1  0.09800600  0.22914900  0.94279800  1
  Li  Li9  1  0.00393300  0.00715300  0.49508600  1
  V  V10  1  0.56862100  0.43043000  0.24937400  1
  V  V11  1  0.42912700  0.56968900  0.75161400  1
  V  V12  1  0.57076300  0.99542700  0.74865300  1
  V  V13  1  0.43212300  0.00495100  0.25240500  1
  V  V14  1  0.00411500  0.56929900  0.25387000  1
  V  V15  1  0.99427600  0.43754500  0.74224100  1
  P  P16  1  0.92048500  0.76777200  0.84036100  1
  P  P17  1  0.78076100  0.91454700  0.33760900  1
  P  P18  1  0.91886200  0.30270200  0.34280600  1
  P  P19  1  0.66363100  0.66685300  0.13121800  1
  P  P20  1  0.65876100  0.67140700  0.62766000  1
  P  P21  1  0.77170500  0.31924300  0.83748500  1
  P  P22  1  0.67725300  0.22881400  0.65649000  1
  P  P23  1  0.32118600  0.91504600  0.84584900  1
  P  P24  1  0.67973100  0.08552200  0.15270100  1
  P  P25  1  0.32447200  0.77402600  0.34460500  1
  P  P26  1  0.22774800  0.68403100  0.16447300  1
  P  P27  1  0.33663700  0.32971600  0.37334300  1
  P  P28  1  0.33324600  0.33224100  0.86916000  1
  P  P29  1  0.08021700  0.69562200  0.65360400  1
  P  P30  1  0.21780100  0.08847200  0.66146100  1
  P  P31  1  0.08452400  0.23349400  0.15828700  1
  O  O32  1  0.00302400  0.79182400  0.56764900  1
  O  O33  1  0.91848600  0.73940200  0.33833400  1
  O  O34  1  0.74095900  0.01294200  0.05958900  1
  O  O35  1  0.75274200  0.91281600  0.83873600  1
  O  O36  1  0.91286900  0.61569700  0.81711200  1
  O  O37  1  0.81502500  0.65675100  0.18290700  1
  O  O38  1  0.91054400  0.46546200  0.33641000  1
  O  O39  1  0.99983800  0.24317800  0.06606500  1
  O  O40  1  0.91967400  0.33847800  0.83717500  1
  O  O41  1  0.66945300  0.80958300  0.67148200  1
  O  O42  1  0.62922600  0.90281400  0.33292600  1
  O  O43  1  0.81012900  0.51862600  0.67261900  1
  O  O44  1  0.66300700  0.67210300  0.02575600  1
  O  O45  1  0.66417800  0.66520400  0.52165900  1
  O  O46  1  0.66772600  0.51107200  0.16607900  1
  O  O47  1  0.47919400  0.90397200  0.82238700  1
  O  O48  1  0.51521000  0.81367500  0.17136700  1
  O  O49  1  0.74294000  0.33962000  0.33701300  1
  O  O50  1  0.78998200  0.21230500  0.74728400  1
  O  O51  1  0.75742600  0.22372900  0.56723500  1
  O  O52  1  0.76154400  0.24250400  0.92739300  1
  O  O53  1  0.62119100  0.47975000  0.81871400  1
  O  O54  1  0.50903300  0.67230600  0.66291400  1
  O  O55  1  0.66434000  0.25110900  0.16117600  1
  O  O56  1  0.48601600  0.62531100  0.33022400  1
  O  O57  1  0.34780500  0.91846000  0.33468900  1
  O  O58  1  0.80110900  0.98203700  0.23729600  1
  O  O59  1  0.79412100  0.00980000  0.41572100  1
  O  O60  1  0.20248600  0.99415400  0.58326600  1
  O  O61  1  0.65330600  0.08445900  0.66762100  1
  O  O62  1  0.51396800  0.37587900  0.67137500  1
  O  O63  1  0.33544000  0.75062600  0.84176400  1
  O  O64  1  0.48520500  0.33263400  0.33937400  1
  O  O65  1  0.37658000  0.52203600  0.18269700  1
  O  O66  1  0.23942500  0.75748900  0.07399600  1
  O  O67  1  0.24163600  0.78080300  0.43331100  1
  O  O68  1  0.21126000  0.79311800  0.25310400  1
  O  O69  1  0.25582200  0.65867400  0.66320400  1
  O  O70  1  0.48586800  0.18599000  0.83244500  1
  O  O71  1  0.52122200  0.09729700  0.17827800  1
  O  O72  1  0.33019000  0.48715300  0.83410800  1
  O  O73  1  0.31959100  0.33170400  0.97443500  1
  O  O74  1  0.33506500  0.32841000  0.47934500  1
  O  O75  1  0.18455500  0.48117300  0.32952100  1
  O  O76  1  0.36908000  0.10035900  0.66707300  1
  O  O77  1  0.32762300  0.19178100  0.32712500  1
  O  O78  1  0.08116000  0.66325900  0.16888200  1
  O  O79  1  0.00163000  0.79105900  0.74808800  1
  O  O80  1  0.01377400  0.75614600  0.92705400  1
  O  O81  1  0.08871700  0.53125800  0.66472900  1
  O  O82  1  0.18534700  0.33390000  0.81813400  1
  O  O83  1  0.09222300  0.38405300  0.18012700  1
  O  O84  1  0.24968000  0.08495200  0.16040000  1
  O  O85  1  0.25304700  0.99863100  0.93709100  1
  O  O86  1  0.20071900  0.01646900  0.76113800  1
  O  O87  1  0.07691900  0.26119300  0.66287300  1
  O  O88  1  0.00075200  0.19618500  0.42444800  1
  O  O89  1  0.99012300  0.21363700  0.24361600  1
