# generated using pymatgen
data_Li2Cr3(FeO6)2
_symmetry_space_group_name_H-M   'P 1'
_cell_length_a   9.11853300
_cell_length_b   9.12543300
_cell_length_c   12.61184000
_cell_angle_alpha   90.00000000
_cell_angle_beta   90.00000000
_cell_angle_gamma   90.00000000
_symmetry_Int_Tables_number   1
_chemical_formula_structural   Li2Cr3(FeO6)2
_chemical_formula_sum   'Li8 Cr12 Fe8 O48'
_cell_volume   1049.43829362
_cell_formula_units_Z   4
loop_
 _symmetry_equiv_pos_site_id
 _symmetry_equiv_pos_as_xyz
  1  'x, y, z'
loop_
 _atom_site_type_symbol
 _atom_site_label
 _atom_site_symmetry_multiplicity
 _atom_site_fract_x
 _atom_site_fract_y
 _atom_site_fract_z
 _atom_site_occupancy
  Li  Li0  1  0.27295400  0.21832100  0.18795000  1
  Li  Li1  1  0.77295400  0.78167900  0.18795000  1
  Li  Li2  1  0.77295400  0.28167900  0.31205000  1
  Li  Li3  1  0.27295400  0.71832100  0.31205000  1
  Li  Li4  1  0.72704600  0.28167900  0.68795000  1
  Li  Li5  1  0.22704600  0.71832100  0.68795000  1
  Li  Li6  1  0.22704600  0.21832100  0.81205000  1
  Li  Li7  1  0.72704600  0.78167900  0.81205000  1
  Cr  Cr8  1  0.25000000  0.46202800  0.00000000  1
  Cr  Cr9  1  0.75000000  0.53797200  0.00000000  1
  Cr  Cr10  1  0.60440400  0.10083900  0.14281900  1
  Cr  Cr11  1  0.10440400  0.89916100  0.14281900  1
  Cr  Cr12  1  0.10440400  0.39916100  0.35718100  1
  Cr  Cr13  1  0.60440400  0.60083900  0.35718100  1
  Cr  Cr14  1  0.75000000  0.03797200  0.50000000  1
  Cr  Cr15  1  0.25000000  0.96202800  0.50000000  1
  Cr  Cr16  1  0.39559600  0.39916100  0.64281900  1
  Cr  Cr17  1  0.89559600  0.60083900  0.64281900  1
  Cr  Cr18  1  0.89559600  0.10083900  0.85718100  1
  Cr  Cr19  1  0.39559600  0.89916100  0.85718100  1
  Fe  Fe20  1  0.96334300  0.24502100  0.12104000  1
  Fe  Fe21  1  0.46334300  0.75497900  0.12104000  1
  Fe  Fe22  1  0.96334300  0.74502100  0.37896000  1
  Fe  Fe23  1  0.46334300  0.25497900  0.37896000  1
  Fe  Fe24  1  0.03665700  0.25497900  0.62104000  1
  Fe  Fe25  1  0.53665700  0.74502100  0.62104000  1
  Fe  Fe26  1  0.53665700  0.24502100  0.87896000  1
  Fe  Fe27  1  0.03665700  0.75497900  0.87896000  1
  O  O28  1  0.56767900  0.14942500  0.01708900  1
  O  O29  1  0.06767900  0.85057500  0.01708900  1
  O  O30  1  0.36917900  0.56420700  0.06440000  1
  O  O31  1  0.86917900  0.43579300  0.06440000  1
  O  O32  1  0.16289700  0.35288300  0.08769800  1
  O  O33  1  0.66289700  0.64711700  0.08769800  1
  O  O34  1  0.10565000  0.08715000  0.16086200  1
  O  O35  1  0.60565000  0.91285000  0.16086200  1
  O  O36  1  0.77400300  0.17261100  0.17577300  1
  O  O37  1  0.27400300  0.82738900  0.17577300  1
  O  O38  1  0.97504600  0.82691800  0.22746800  1
  O  O39  1  0.47504600  0.17308200  0.22746800  1
  O  O40  1  0.97504600  0.32691800  0.27253200  1
  O  O41  1  0.47504600  0.67308200  0.27253200  1
  O  O42  1  0.77400300  0.67261100  0.32422700  1
  O  O43  1  0.27400300  0.32738900  0.32422700  1
  O  O44  1  0.60565000  0.41285000  0.33913800  1
  O  O45  1  0.10565000  0.58715000  0.33913800  1
  O  O46  1  0.66289700  0.14711700  0.41230200  1
  O  O47  1  0.16289700  0.85288300  0.41230200  1
  O  O48  1  0.36917900  0.06420700  0.43560000  1
  O  O49  1  0.86917900  0.93579300  0.43560000  1
  O  O50  1  0.56767900  0.64942500  0.48291100  1
  O  O51  1  0.06767900  0.35057500  0.48291100  1
  O  O52  1  0.43232100  0.35057500  0.51708900  1
  O  O53  1  0.93232100  0.64942500  0.51708900  1
  O  O54  1  0.13082100  0.06420700  0.56440000  1
  O  O55  1  0.63082100  0.93579300  0.56440000  1
  O  O56  1  0.83710300  0.14711700  0.58769800  1
  O  O57  1  0.33710300  0.85288300  0.58769800  1
  O  O58  1  0.89435000  0.41285000  0.66086200  1
  O  O59  1  0.39435000  0.58715000  0.66086200  1
  O  O60  1  0.22599700  0.32738900  0.67577300  1
  O  O61  1  0.72599700  0.67261100  0.67577300  1
  O  O62  1  0.52495400  0.32691800  0.72746800  1
  O  O63  1  0.02495400  0.67308200  0.72746800  1
  O  O64  1  0.02495400  0.17308200  0.77253200  1
  O  O65  1  0.52495400  0.82691800  0.77253200  1
  O  O66  1  0.72599700  0.17261100  0.82422700  1
  O  O67  1  0.22599700  0.82738900  0.82422700  1
  O  O68  1  0.39435000  0.08715000  0.83913800  1
  O  O69  1  0.89435000  0.91285000  0.83913800  1
  O  O70  1  0.33710300  0.35288300  0.91230200  1
  O  O71  1  0.83710300  0.64711700  0.91230200  1
  O  O72  1  0.63082100  0.43579300  0.93560000  1
  O  O73  1  0.13082100  0.56420700  0.93560000  1
  O  O74  1  0.93232100  0.14942500  0.98291100  1
  O  O75  1  0.43232100  0.85057500  0.98291100  1
