# generated using pymatgen
data_LiFeSiO4
_symmetry_space_group_name_H-M   'P 1'
_cell_length_a   10.18116166
_cell_length_b   10.18116166
_cell_length_c   17.41158276
_cell_angle_alpha   71.37538100
_cell_angle_beta   71.37538100
_cell_angle_gamma   58.64688321
_symmetry_Int_Tables_number   1
_chemical_formula_structural   LiFeSiO4
_chemical_formula_sum   'Li16 Fe16 Si16 O64'
_cell_volume   1434.14711692
_cell_formula_units_Z   16
loop_
 _symmetry_equiv_pos_site_id
 _symmetry_equiv_pos_as_xyz
  1  'x, y, z'
loop_
 _atom_site_type_symbol
 _atom_site_label
 _atom_site_symmetry_multiplicity
 _atom_site_fract_x
 _atom_site_fract_y
 _atom_site_fract_z
 _atom_site_occupancy
  Li  Li0  1  0.56520500  0.62752900  0.81523000  1
  Li  Li1  1  0.63607700  0.06794100  0.31228400  1
  Li  Li2  1  0.73284700  0.81688100  0.56424300  1
  Li  Li3  1  0.23299400  0.38343000  0.56302900  1
  Li  Li4  1  0.31554000  0.73385100  0.06447400  1
  Li  Li5  1  0.88411400  0.23339400  0.06234200  1
  Li  Li6  1  0.50543100  0.11854300  0.81331900  1
  Li  Li7  1  0.06794100  0.63607700  0.81228400  1
  Li  Li8  1  0.12873800  0.00491000  0.31251700  1
  Li  Li9  1  0.62752900  0.56520500  0.31523000  1
  Li  Li10  1  0.73385100  0.31554000  0.56447400  1
  Li  Li11  1  0.23339400  0.88411400  0.56234200  1
  Li  Li12  1  0.81688100  0.73284700  0.06424300  1
  Li  Li13  1  0.38343000  0.23299400  0.06302900  1
  Li  Li14  1  0.00491000  0.12873800  0.81251700  1
  Li  Li15  1  0.11854300  0.50543100  0.31331900  1
  Fe  Fe16  1  0.87302200  0.49752900  0.68722100  1
  Fe  Fe17  1  0.43601100  0.37372100  0.18747000  1
  Fe  Fe18  1  0.99787700  0.86975600  0.18715300  1
  Fe  Fe19  1  0.61591700  0.76501700  0.93879400  1
  Fe  Fe20  1  0.18779600  0.26128700  0.93691100  1
  Fe  Fe21  1  0.76143000  0.11772500  0.43798100  1
  Fe  Fe22  1  0.26316400  0.68671800  0.43766400  1
  Fe  Fe23  1  0.37372100  0.43601100  0.68747000  1
  Fe  Fe24  1  0.86975600  0.99787700  0.68715300  1
  Fe  Fe25  1  0.93546800  0.36925900  0.18826900  1
  Fe  Fe26  1  0.49752900  0.87302200  0.18722100  1
  Fe  Fe27  1  0.11772500  0.76143000  0.93798100  1
  Fe  Fe28  1  0.68671800  0.26316400  0.93766400  1
  Fe  Fe29  1  0.76501700  0.61591700  0.43879400  1
  Fe  Fe30  1  0.26128700  0.18779600  0.43691100  1
  Fe  Fe31  1  0.36925900  0.93546800  0.68826900  1
  Si  Si32  1  0.31016400  0.93930500  0.87776300  1
  Si  Si33  1  0.87429600  0.44218400  0.87608900  1
  Si  Si34  1  0.94230900  0.81200000  0.37748300  1
  Si  Si35  1  0.43729100  0.37360400  0.37559200  1
  Si  Si36  1  0.55962400  0.12545300  0.62585100  1
  Si  Si37  1  0.06276200  0.68645700  0.62471100  1
  Si  Si38  1  0.62645700  0.56204900  0.12629600  1
  Si  Si39  1  0.18568900  0.06032400  0.12422700  1
  Si  Si40  1  0.81200000  0.94230900  0.87748300  1
  Si  Si41  1  0.37360400  0.43729100  0.87559200  1
  Si  Si42  1  0.93930500  0.31016400  0.37776300  1
  Si  Si43  1  0.44218400  0.87429600  0.37608900  1
  Si  Si44  1  0.56204900  0.62645700  0.62629600  1
  Si  Si45  1  0.06032400  0.18568900  0.62422700  1
  Si  Si46  1  0.12545300  0.55962400  0.12585100  1
  Si  Si47  1  0.68645700  0.06276200  0.12471100  1
  O  O48  1  0.02821400  0.36638000  0.61074700  1
  O  O49  1  0.82516300  0.32136900  0.95367700  1
  O  O50  1  0.41930800  0.86051800  0.79530900  1
  O  O51  1  0.91768800  0.37360700  0.79238200  1
  O  O52  1  0.40039600  0.82029800  0.95542500  1
  O  O53  1  0.72431700  0.61867100  0.86668000  1
  O  O54  1  0.53157200  0.98641300  0.61724500  1
  O  O55  1  0.86813300  0.02821600  0.11065100  1
  O  O56  1  0.32102800  0.32269400  0.45570400  1
  O  O57  1  0.35845900  0.41498700  0.29611100  1
  O  O58  1  0.87560300  0.92234200  0.29185400  1
  O  O59  1  0.29696400  0.11239900  0.86532300  1
  O  O60  1  0.81766400  0.90213500  0.45406800  1
  O  O61  1  0.89546300  0.68310400  0.64388600  1
  O  O62  1  0.61583900  0.22685500  0.36512000  1
  O  O63  1  0.02414200  0.44677200  0.88931600  1
  O  O64  1  0.48491100  0.53744800  0.11802900  1
  O  O65  1  0.38916400  0.28101300  0.64127700  1
  O  O66  1  0.11510600  0.79785700  0.36691200  1
  O  O67  1  0.17871700  0.60693400  0.54362200  1
  O  O68  1  0.18401800  0.89203900  0.14341000  1
  O  O69  1  0.64868300  0.07065300  0.70339100  1
  O  O70  1  0.15708700  0.58180900  0.70217700  1
  O  O71  1  0.67558000  0.17034300  0.54347000  1
  O  O72  1  0.64031500  0.95014200  0.89316900  1
  O  O73  1  0.44366200  0.52364000  0.38754800  1
  O  O74  1  0.77969500  0.38925100  0.14098300  1
  O  O75  1  0.10725700  0.17683200  0.04301800  1
  O  O76  1  0.02821600  0.86813300  0.61065100  1
  O  O77  1  0.32269400  0.32102800  0.95570400  1
  O  O78  1  0.41498700  0.35845900  0.79611100  1
  O  O79  1  0.92234200  0.87560300  0.79185400  1
  O  O80  1  0.07837400  0.15065000  0.20322900  1
  O  O81  1  0.57612000  0.65179800  0.20275700  1
  O  O82  1  0.94912500  0.13742600  0.39415900  1
  O  O83  1  0.67197800  0.67659600  0.04327600  1
  O  O84  1  0.90213500  0.81766400  0.95406800  1
  O  O85  1  0.22685500  0.61583900  0.86512000  1
  O  O86  1  0.36638000  0.02821400  0.11074700  1
  O  O87  1  0.53744800  0.48491100  0.61802900  1
  O  O88  1  0.32136900  0.82516300  0.45367700  1
  O  O89  1  0.86051800  0.41930800  0.29530900  1
  O  O90  1  0.37360700  0.91768800  0.29238200  1
  O  O91  1  0.79785700  0.11510600  0.86691200  1
  O  O92  1  0.89203900  0.18401800  0.64341000  1
  O  O93  1  0.82029800  0.40039600  0.45542500  1
  O  O94  1  0.52364000  0.44366200  0.88754800  1
  O  O95  1  0.61867100  0.72431700  0.36668000  1
  O  O96  1  0.98641300  0.53157200  0.11724500  1
  O  O97  1  0.38925100  0.77969500  0.64098300  1
  O  O98  1  0.11239900  0.29696400  0.36532300  1
  O  O99  1  0.17683200  0.10725700  0.54301800  1
  O  O100  1  0.68310400  0.89546300  0.14388600  1
  O  O101  1  0.15065000  0.07837400  0.70322900  1
  O  O102  1  0.65179800  0.57612000  0.70275700  1
  O  O103  1  0.13742600  0.94912500  0.89415900  1
  O  O104  1  0.67659600  0.67197800  0.54327600  1
  O  O105  1  0.44677200  0.02414200  0.38931600  1
  O  O106  1  0.28101300  0.38916400  0.14127700  1
  O  O107  1  0.60693400  0.17871700  0.04362200  1
  O  O108  1  0.07065300  0.64868300  0.20339100  1
  O  O109  1  0.58180900  0.15708700  0.20217700  1
  O  O110  1  0.17034300  0.67558000  0.04347000  1
  O  O111  1  0.95014200  0.64031500  0.39316900  1
