# generated using pymatgen
data_LiFeSiO4
_symmetry_space_group_name_H-M   'P 1'
_cell_length_a   10.87547197
_cell_length_b   10.87547197
_cell_length_c   11.94474700
_cell_angle_alpha   90.00000000
_cell_angle_beta   90.00000000
_cell_angle_gamma   119.99999984
_symmetry_Int_Tables_number   1
_chemical_formula_structural   LiFeSiO4
_chemical_formula_sum   'Li12 Fe12 Si12 O48'
_cell_volume   1223.49955281
_cell_formula_units_Z   12
loop_
 _symmetry_equiv_pos_site_id
 _symmetry_equiv_pos_as_xyz
  1  'x, y, z'
loop_
 _atom_site_type_symbol
 _atom_site_label
 _atom_site_symmetry_multiplicity
 _atom_site_fract_x
 _atom_site_fract_y
 _atom_site_fract_z
 _atom_site_occupancy
  Li  Li0  1  0.00000000  0.50000000  0.00812500  1
  Li  Li1  1  0.00000000  0.50000000  0.65854200  1
  Li  Li2  1  0.00000000  0.50000000  0.33333300  1
  Li  Li3  1  0.00000000  0.00000000  0.16666700  1
  Li  Li4  1  0.00000000  0.00000000  0.50000000  1
  Li  Li5  1  0.00000000  0.00000000  0.83333300  1
  Li  Li6  1  0.50000000  0.50000000  0.34145800  1
  Li  Li7  1  0.50000000  0.50000000  0.66666700  1
  Li  Li8  1  0.50000000  0.50000000  0.99187500  1
  Li  Li9  1  0.50000000  0.00000000  0.32520800  1
  Li  Li10  1  0.50000000  0.00000000  0.00000000  1
  Li  Li11  1  0.50000000  0.00000000  0.67479200  1
  Fe  Fe12  1  0.00000000  0.74982200  0.83333300  1
  Fe  Fe13  1  0.00000000  0.25017800  0.83333300  1
  Fe  Fe14  1  0.25138500  0.74861500  0.16666700  1
  Fe  Fe15  1  0.25138500  0.50277000  0.50000000  1
  Fe  Fe16  1  0.49723000  0.74861500  0.83333300  1
  Fe  Fe17  1  0.25017800  0.25017800  0.16666700  1
  Fe  Fe18  1  0.25017800  0.00000000  0.50000000  1
  Fe  Fe19  1  0.74982200  0.74982200  0.16666700  1
  Fe  Fe20  1  0.50277000  0.25138500  0.83333300  1
  Fe  Fe21  1  0.74861500  0.49723000  0.50000000  1
  Fe  Fe22  1  0.74861500  0.25138500  0.16666700  1
  Fe  Fe23  1  0.74982200  0.00000000  0.50000000  1
  Si  Si24  1  0.00000000  0.75334300  0.33333300  1
  Si  Si25  1  0.24732200  0.75267800  0.66666700  1
  Si  Si26  1  0.00000000  0.24665700  0.33333300  1
  Si  Si27  1  0.24732200  0.49464400  0.00000000  1
  Si  Si28  1  0.24665700  0.24665700  0.66666700  1
  Si  Si29  1  0.50535600  0.75267800  0.33333300  1
  Si  Si30  1  0.24665700  0.00000000  0.00000000  1
  Si  Si31  1  0.49464400  0.24732200  0.33333300  1
  Si  Si32  1  0.75334300  0.75334300  0.66666700  1
  Si  Si33  1  0.75267800  0.50535600  0.00000000  1
  Si  Si34  1  0.75267800  0.24732200  0.66666700  1
  Si  Si35  1  0.75334300  0.00000000  0.00000000  1
  O  O36  1  0.07782600  0.88440700  0.42384800  1
  O  O37  1  0.11559300  0.92217400  0.90948600  1
  O  O38  1  0.09706800  0.69486000  0.73483800  1
  O  O39  1  0.10404100  0.70691000  0.26839200  1
  O  O40  1  0.29309000  0.89595900  0.06494100  1
  O  O41  1  0.30514000  0.90293200  0.59849500  1
  O  O42  1  0.19916800  0.61452200  0.58512900  1
  O  O43  1  0.09706800  0.40220900  0.93182900  1
  O  O44  1  0.19916800  0.58464600  0.08153700  1
  O  O45  1  0.10404100  0.39713200  0.39827500  1
  O  O46  1  0.07782600  0.19341900  0.24281900  1
  O  O47  1  0.38547800  0.80083200  0.74820400  1
  O  O48  1  0.41535400  0.80083200  0.25179600  1
  O  O49  1  0.11559300  0.19341900  0.75718100  1
  O  O50  1  0.29309000  0.39713200  0.60172500  1
  O  O51  1  0.38547800  0.58464600  0.91846300  1
  O  O52  1  0.30514000  0.40220900  0.06817100  1
  O  O53  1  0.41535400  0.61452200  0.41487100  1
  O  O54  1  0.19341900  0.11559300  0.57615200  1
  O  O55  1  0.19341900  0.07782600  0.09051400  1
  O  O56  1  0.59779100  0.90293200  0.40150500  1
  O  O57  1  0.60286800  0.89595900  0.93505900  1
  O  O58  1  0.60286800  0.70691000  0.73160800  1
  O  O59  1  0.40220900  0.30514000  0.26516200  1
  O  O60  1  0.59779100  0.69486000  0.26516200  1
  O  O61  1  0.39713200  0.29309000  0.73160800  1
  O  O62  1  0.39713200  0.10404100  0.93505900  1
  O  O63  1  0.40220900  0.09706800  0.40150500  1
  O  O64  1  0.80658100  0.92217400  0.09051400  1
  O  O65  1  0.80658100  0.88440700  0.57615200  1
  O  O66  1  0.58464600  0.38547800  0.41487100  1
  O  O67  1  0.69486000  0.59779100  0.06817100  1
  O  O68  1  0.61452200  0.41535400  0.91846300  1
  O  O69  1  0.70691000  0.60286800  0.60172500  1
  O  O70  1  0.88440700  0.80658100  0.75718100  1
  O  O71  1  0.58464600  0.19916800  0.25179600  1
  O  O72  1  0.61452200  0.19916800  0.74820400  1
  O  O73  1  0.92217400  0.80658100  0.24281900  1
  O  O74  1  0.89595900  0.60286800  0.39827500  1
  O  O75  1  0.80083200  0.41535400  0.08153700  1
  O  O76  1  0.90293200  0.59779100  0.93182900  1
  O  O77  1  0.80083200  0.38547800  0.58512900  1
  O  O78  1  0.69486000  0.09706800  0.59849500  1
  O  O79  1  0.70691000  0.10404100  0.06494100  1
  O  O80  1  0.89595900  0.29309000  0.26839200  1
  O  O81  1  0.90293200  0.30514000  0.73483800  1
  O  O82  1  0.88440700  0.07782600  0.90948600  1
  O  O83  1  0.92217400  0.11559300  0.42384800  1
