# generated using pymatgen
data_Li2Ti3MnO8
_symmetry_space_group_name_H-M   'P 1'
_cell_length_a   5.97654419
_cell_length_b   5.97665888
_cell_length_c   10.76712653
_cell_angle_alpha   90.00122515
_cell_angle_beta   106.11156628
_cell_angle_gamma   119.99907158
_symmetry_Int_Tables_number   1
_chemical_formula_structural   Li2Ti3MnO8
_chemical_formula_sum   'Li4 Ti6 Mn2 O16'
_cell_volume   315.51136568
_cell_formula_units_Z   2
loop_
 _symmetry_equiv_pos_site_id
 _symmetry_equiv_pos_as_xyz
  1  'x, y, z'
loop_
 _atom_site_type_symbol
 _atom_site_label
 _atom_site_symmetry_multiplicity
 _atom_site_fract_x
 _atom_site_fract_y
 _atom_site_fract_z
 _atom_site_occupancy
  Li  Li0  1  0.11660900  0.05824800  0.17485200  1
  Li  Li1  1  0.11651000  0.55828300  0.67486200  1
  Li  Li2  1  0.88346700  0.44168700  0.32517300  1
  Li  Li3  1  0.88338200  0.94172200  0.82520400  1
  Ti  Ti4  1  0.50014500  0.00024600  0.49987200  1
  Ti  Ti5  1  0.49988000  0.49979300  0.99983700  1
  Ti  Ti6  1  0.49999300  0.50014900  0.50010700  1
  Ti  Ti7  1  0.50040900  0.00009700  0.00013400  1
  Ti  Ti8  1  0.00015900  0.99984000  0.50006800  1
  Ti  Ti9  1  0.00028700  0.50020200  0.00006300  1
  Mn  Mn10  1  0.50019700  0.75008000  0.25006700  1
  Mn  Mn11  1  0.49991900  0.24995600  0.75001200  1
  O  O12  1  0.26311500  0.13151700  0.39470800  1
  O  O13  1  0.26308000  0.63152000  0.89469000  1
  O  O14  1  0.73676400  0.36835300  0.10527400  1
  O  O15  1  0.73679200  0.86835800  0.60528200  1
  O  O16  1  0.70871700  0.35434000  0.60426500  1
  O  O17  1  0.70878200  0.85445800  0.10423500  1
  O  O18  1  0.24978800  0.89551000  0.60427200  1
  O  O19  1  0.24979600  0.39548800  0.10424800  1
  O  O20  1  0.24978700  0.35440700  0.60423800  1
  O  O21  1  0.24983500  0.85428700  0.10427000  1
  O  O22  1  0.74995600  0.14559500  0.89566400  1
  O  O23  1  0.75017300  0.64561400  0.39575900  1
  O  O24  1  0.75004700  0.60451800  0.89570800  1
  O  O25  1  0.75001400  0.10447000  0.39570600  1
  O  O26  1  0.29114500  0.14564900  0.89572200  1
  O  O27  1  0.29125000  0.64561300  0.39570700  1
