# generated using pymatgen
data_Li7FeP4O14F
_symmetry_space_group_name_H-M   'P 1'
_cell_length_a   6.37118582
_cell_length_b   6.37118582
_cell_length_c   14.62238099
_cell_angle_alpha   84.22333532
_cell_angle_beta   84.22333532
_cell_angle_gamma   78.70522928
_symmetry_Int_Tables_number   1
_chemical_formula_structural   Li7FeP4O14F
_chemical_formula_sum   'Li14 Fe2 P8 O28 F2'
_cell_volume   577.10429817
_cell_formula_units_Z   2
loop_
 _symmetry_equiv_pos_site_id
 _symmetry_equiv_pos_as_xyz
  1  'x, y, z'
loop_
 _atom_site_type_symbol
 _atom_site_label
 _atom_site_symmetry_multiplicity
 _atom_site_fract_x
 _atom_site_fract_y
 _atom_site_fract_z
 _atom_site_occupancy
  Li  Li0  1  0.98834000  0.39811500  0.82219000  1
  Li  Li1  1  0.36498100  0.82693400  0.83435300  1
  Li  Li2  1  0.39811500  0.98834000  0.32219000  1
  Li  Li3  1  0.82693400  0.36498100  0.33435300  1
  Li  Li4  1  0.10443900  0.95289300  0.49326200  1
  Li  Li5  1  0.47433900  0.32808500  0.82134300  1
  Li  Li6  1  0.95289300  0.10443900  0.99326200  1
  Li  Li7  1  0.12100100  0.58145300  0.97460300  1
  Li  Li8  1  0.32808500  0.47433900  0.32134300  1
  Li  Li9  1  0.58145300  0.12100100  0.47460300  1
  Li  Li10  1  0.47438800  0.03613200  0.98706700  1
  Li  Li11  1  0.03613200  0.47438800  0.48706700  1
  Li  Li12  1  0.30637000  0.13001200  0.65879100  1
  Li  Li13  1  0.13001200  0.30637000  0.15879100  1
  Fe  Fe14  1  0.72157500  0.72291700  0.65651800  1
  Fe  Fe15  1  0.72291700  0.72157500  0.15651800  1
  P  P16  1  0.86122700  0.91215500  0.83061900  1
  P  P17  1  0.91215500  0.86122700  0.33061900  1
  P  P18  1  0.62167900  0.52837100  0.98247900  1
  P  P19  1  0.52837100  0.62167900  0.48247900  1
  P  P20  1  0.83921100  0.19241700  0.65655900  1
  P  P21  1  0.19241700  0.83921100  0.15655900  1
  P  P22  1  0.25120300  0.61729100  0.65548100  1
  P  P23  1  0.61729100  0.25120300  0.15548100  1
  O  O24  1  0.70342200  0.79394300  0.79448900  1
  O  O25  1  0.79394300  0.70342200  0.29448900  1
  O  O26  1  0.85696000  0.41891800  0.95998800  1
  O  O27  1  0.74181900  0.61658400  0.52228300  1
  O  O28  1  0.41891800  0.85696000  0.45998800  1
  O  O29  1  0.61658400  0.74181900  0.02228300  1
  O  O30  1  0.37457600  0.78194700  0.68421800  1
  O  O31  1  0.73890100  0.39233500  0.70746900  1
  O  O32  1  0.45916200  0.54248100  0.91081500  1
  O  O33  1  0.96402900  0.03971300  0.73868600  1
  O  O34  1  0.78194700  0.37457600  0.18421800  1
  O  O35  1  0.39233500  0.73890100  0.20746900  1
  O  O36  1  0.54248100  0.45916200  0.41081500  1
  O  O37  1  0.03971300  0.96402900  0.23868600  1
  O  O38  1  0.05958400  0.76559800  0.86681000  1
  O  O39  1  0.75047900  0.08142700  0.89508500  1
  O  O40  1  0.38308400  0.50806100  0.56520300  1
  O  O41  1  0.04066100  0.72515800  0.61511000  1
  O  O42  1  0.76559800  0.05958400  0.36681000  1
  O  O43  1  0.66778800  0.08400900  0.62105800  1
  O  O44  1  0.08142700  0.75047900  0.39508500  1
  O  O45  1  0.50806100  0.38308400  0.06520300  1
  O  O46  1  0.23967200  0.42405600  0.72602900  1
  O  O47  1  0.72515800  0.04066100  0.11511000  1
  O  O48  1  0.08400900  0.66778800  0.12105800  1
  O  O49  1  0.42405600  0.23967200  0.22602900  1
  O  O50  1  0.02856700  0.20954900  0.58344400  1
  O  O51  1  0.20954900  0.02856700  0.08344400  1
  F  F52  1  0.29223800  0.12482500  0.88348400  1
  F  F53  1  0.12482500  0.29223800  0.38348400  1
