# generated using pymatgen
data_Li8V3P8O29
_symmetry_space_group_name_H-M   'P 1'
_cell_length_a   9.86809014
_cell_length_b   9.87148435
_cell_length_c   13.79625648
_cell_angle_alpha   90.04962262
_cell_angle_beta   90.26999808
_cell_angle_gamma   59.91260986
_symmetry_Int_Tables_number   1
_chemical_formula_structural   Li8V3P8O29
_chemical_formula_sum   'Li16 V6 P16 O58'
_cell_volume   1162.83708898
_cell_formula_units_Z   2
loop_
 _symmetry_equiv_pos_site_id
 _symmetry_equiv_pos_as_xyz
  1  'x, y, z'
loop_
 _atom_site_type_symbol
 _atom_site_label
 _atom_site_symmetry_multiplicity
 _atom_site_fract_x
 _atom_site_fract_y
 _atom_site_fract_z
 _atom_site_occupancy
  Li  Li0  1  0.90119200  0.76663100  0.06283700  1
  Li  Li1  1  0.76301100  0.90134200  0.56203700  1
  Li  Li2  1  0.90043800  0.33522900  0.56099100  1
  Li  Li3  1  0.66381800  0.66723400  0.88052000  1
  Li  Li4  1  0.76505600  0.33300100  0.06382000  1
  Li  Li5  1  0.33198100  0.90185100  0.06392000  1
  Li  Li6  1  0.66515200  0.23660600  0.43803500  1
  Li  Li7  1  0.33463000  0.76367100  0.56216200  1
  Li  Li8  1  0.66807100  0.09841700  0.93612400  1
  Li  Li9  1  0.23474100  0.66712900  0.93609400  1
  Li  Li10  1  0.33591900  0.33246700  0.11945600  1
  Li  Li11  1  0.09955300  0.66475200  0.43908100  1
  Li  Li12  1  0.23711200  0.09855600  0.43786600  1
  Li  Li13  1  0.09886300  0.23346600  0.93697500  1
  Li  Li14  1  0.99995200  0.00026000  0.99995400  1
  Li  Li15  1  0.99980900  0.00028400  0.50008900  1
  V  V16  1  0.56523800  0.43554400  0.25102600  1
  V  V17  1  0.43523000  0.56423300  0.74862700  1
  V  V18  1  0.56405100  0.00130200  0.74840100  1
  V  V19  1  0.43581800  0.99877900  0.25161700  1
  V  V20  1  0.99896000  0.56452000  0.25127900  1
  V  V21  1  0.00095000  0.43552800  0.74864200  1
  P  P22  1  0.91135600  0.77469100  0.84359800  1
  P  P23  1  0.77344000  0.91212000  0.34371600  1
  P  P24  1  0.91316600  0.31417100  0.34400100  1
  P  P25  1  0.66780400  0.66480900  0.12523400  1
  P  P26  1  0.66739600  0.66748500  0.62521600  1
  P  P27  1  0.77636600  0.31430700  0.84385500  1
  P  P28  1  0.68561200  0.22682500  0.65533600  1
  P  P29  1  0.31484900  0.91012400  0.84455000  1
  P  P30  1  0.68505100  0.08995900  0.15558300  1
  P  P31  1  0.31479500  0.77297700  0.34460100  1
  P  P32  1  0.22372600  0.68564700  0.15619500  1
  P  P33  1  0.33297100  0.33248700  0.37449000  1
  P  P34  1  0.33215400  0.33495000  0.87502400  1
  P  P35  1  0.08674900  0.68604400  0.65593100  1
  P  P36  1  0.22643000  0.08794100  0.65624200  1
  P  P37  1  0.08871300  0.22534100  0.15640400  1
  O  O38  1  0.99393300  0.77446900  0.56665000  1
  O  O39  1  0.92178800  0.74795100  0.34240100  1
  O  O40  1  0.77564900  0.99694200  0.06636900  1
  O  O41  1  0.74898600  0.92067400  0.84557500  1
  O  O42  1  0.89520500  0.62644300  0.83173100  1
  O  O43  1  0.81763100  0.66799400  0.16713300  1
  O  O44  1  0.90661300  0.47225100  0.33040200  1
  O  O45  1  0.99603100  0.23087100  0.06644600  1
  O  O46  1  0.92478100  0.32966500  0.84391800  1
  O  O47  1  0.67898500  0.80930200  0.66570000  1
  O  O48  1  0.62557300  0.90257800  0.33336100  1
  O  O49  1  0.81673600  0.51294200  0.67169600  1
  O  O50  1  0.67527500  0.66565200  0.01563800  1
  O  O51  1  0.67655000  0.65657900  0.51738000  1
  O  O52  1  0.67570600  0.51311800  0.16201800  1
  O  O53  1  0.47880300  0.89068600  0.83506900  1
  O  O54  1  0.51726700  0.81098100  0.16195300  1
  O  O55  1  0.75150300  0.32979900  0.34504900  1
  O  O56  1  0.79164100  0.21011900  0.75085400  1
  O  O57  1  0.77783100  0.22734200  0.56680100  1
  O  O58  1  0.77680900  0.22306400  0.93327500  1
  O  O59  1  0.63178700  0.47849700  0.83572000  1
  O  O60  1  0.51592300  0.67521400  0.66572900  1
  O  O61  1  0.67171800  0.25173600  0.15506200  1
  O  O62  1  0.47184000  0.62470800  0.33254000  1
  O  O63  1  0.32703200  0.92143100  0.34483500  1
  O  O64  1  0.79040700  0.00007900  0.24900600  1
  O  O65  1  0.77727800  0.00178700  0.43274500  1
  O  O66  1  0.22235900  0.99848700  0.56721300  1
  O  O67  1  0.67322400  0.07850300  0.65523200  1
  O  O68  1  0.52778100  0.37533800  0.66722700  1
  O  O69  1  0.32788000  0.74864200  0.84510600  1
  O  O70  1  0.48368300  0.32477500  0.33432800  1
  O  O71  1  0.36855500  0.52145500  0.16458900  1
  O  O72  1  0.22349500  0.77690600  0.06670500  1
  O  O73  1  0.22233500  0.77233200  0.43320800  1
  O  O74  1  0.20838100  0.78984500  0.24916000  1
  O  O75  1  0.24812900  0.67067800  0.65470600  1
  O  O76  1  0.48313700  0.18913600  0.83813600  1
  O  O77  1  0.52128100  0.10931400  0.16484500  1
  O  O78  1  0.32347300  0.48739400  0.83811700  1
  O  O79  1  0.32385100  0.33419000  0.98429100  1
  O  O80  1  0.32465400  0.34240200  0.48264700  1
  O  O81  1  0.18373700  0.48679400  0.32870400  1
  O  O82  1  0.37458700  0.09736500  0.66659800  1
  O  O83  1  0.32120000  0.19074500  0.33434000  1
  O  O84  1  0.07549500  0.67013300  0.15609600  1
  O  O85  1  0.99930800  0.79127400  0.75068700  1
  O  O86  1  0.00381300  0.76907100  0.93356400  1
  O  O87  1  0.09374600  0.52755200  0.66967300  1
  O  O88  1  0.18206100  0.33179800  0.83255500  1
  O  O89  1  0.10481400  0.37338800  0.16828300  1
  O  O90  1  0.25096700  0.07935400  0.15466300  1
  O  O91  1  0.22443400  0.00316900  0.93363700  1
  O  O92  1  0.20935700  0.00010600  0.75103900  1
  O  O93  1  0.07817800  0.25221400  0.65744300  1
  O  O94  1  0.00591500  0.22518400  0.43332200  1
  O  O95  1  0.00047400  0.20890600  0.24930000  1
