# generated using pymatgen
data_Li4MnFe3(BO3)4
_symmetry_space_group_name_H-M   'P 1'
_cell_length_a   5.23734700
_cell_length_b   9.05954673
_cell_length_c   10.41634231
_cell_angle_alpha   89.11740225
_cell_angle_beta   89.13644993
_cell_angle_gamma   89.93556114
_symmetry_Int_Tables_number   1
_chemical_formula_structural   Li4MnFe3(BO3)4
_chemical_formula_sum   'Li8 Mn2 Fe6 B8 O24'
_cell_volume   494.11954302
_cell_formula_units_Z   2
loop_
 _symmetry_equiv_pos_site_id
 _symmetry_equiv_pos_as_xyz
  1  'x, y, z'
loop_
 _atom_site_type_symbol
 _atom_site_label
 _atom_site_symmetry_multiplicity
 _atom_site_fract_x
 _atom_site_fract_y
 _atom_site_fract_z
 _atom_site_occupancy
  Li  Li0  1  0.15045200  0.17427100  0.66757700  1
  Li  Li1  1  0.18498900  0.16341300  0.16775500  1
  Li  Li2  1  0.32106600  0.33287300  0.41600100  1
  Li  Li3  1  0.33858700  0.32676700  0.91605900  1
  Li  Li4  1  0.65074200  0.67151900  0.66687700  1
  Li  Li5  1  0.68513400  0.66039900  0.16858700  1
  Li  Li6  1  0.81745800  0.83086600  0.41605600  1
  Li  Li7  1  0.83663800  0.82454800  0.91609100  1
  Mn  Mn8  1  0.33028700  0.99769200  0.88243800  1
  Mn  Mn9  1  0.67779800  0.00026600  0.13513000  1
  Fe  Fe10  1  0.18248600  0.49854500  0.13243900  1
  Fe  Fe11  1  0.15593800  0.83893000  0.63205800  1
  Fe  Fe12  1  0.32220000  0.66708400  0.38260100  1
  Fe  Fe13  1  0.65561500  0.34057100  0.63348200  1
  Fe  Fe14  1  0.83804000  0.16822900  0.38662200  1
  Fe  Fe15  1  0.83522900  0.50013800  0.88472600  1
  B  B16  1  0.17097700  0.82860400  0.12554800  1
  B  B17  1  0.16164200  0.50116300  0.62563900  1
  B  B18  1  0.33592900  0.99768300  0.37716600  1
  B  B19  1  0.32633100  0.66398300  0.87435200  1
  B  B20  1  0.67498100  0.33298200  0.12730700  1
  B  B21  1  0.66210700  0.00093900  0.62497000  1
  B  B22  1  0.83310800  0.49741000  0.37622500  1
  B  B23  1  0.82805700  0.16844200  0.87465300  1
  O  O24  1  0.09542000  0.48462800  0.34697800  1
  O  O25  1  0.09087400  0.17964100  0.86088300  1
  O  O26  1  0.17654800  0.78711100  0.84367800  1
  O  O27  1  0.19601700  0.87283100  0.41603000  1
  O  O28  1  0.21406200  0.13236200  0.36330500  1
  O  O29  1  0.21061700  0.53298400  0.91694100  1
  O  O30  1  0.27726400  0.36354900  0.61222700  1
  O  O31  1  0.28735300  0.96465800  0.09676900  1
  O  O32  1  0.30344500  0.62815900  0.59696700  1
  O  O33  1  0.31800500  0.70829400  0.16548200  1
  O  O34  1  0.41083600  0.32071100  0.11406300  1
  O  O35  1  0.40613300  0.01051200  0.66275800  1
  O  O36  1  0.59641400  0.98662400  0.34909100  1
  O  O37  1  0.58939500  0.67163600  0.86113100  1
  O  O38  1  0.67532600  0.29104800  0.84495200  1
  O  O39  1  0.69416000  0.37328900  0.41675400  1
  O  O40  1  0.71349600  0.63254100  0.36210300  1
  O  O41  1  0.71738700  0.03562500  0.91665900  1
  O  O42  1  0.79337000  0.46718400  0.09645400  1
  O  O43  1  0.77709100  0.86276900  0.61246600  1
  O  O44  1  0.80401400  0.12822000  0.59743800  1
  O  O45  1  0.81914900  0.21270600  0.16777500  1
  O  O46  1  0.90979800  0.81486900  0.11122000  1
  O  O47  1  0.90743300  0.51013900  0.66512200  1
