# generated using pymatgen
data_Li2MnVP2(O4F)2
_symmetry_space_group_name_H-M   'P 1'
_cell_length_a   7.61092554
_cell_length_b   6.96533136
_cell_length_c   7.83853177
_cell_angle_alpha   90.25585233
_cell_angle_beta   118.26256484
_cell_angle_gamma   91.41080421
_symmetry_Int_Tables_number   1
_chemical_formula_structural   Li2MnVP2(O4F)2
_chemical_formula_sum   'Li4 Mn2 V2 P4 O16 F4'
_cell_volume   365.83086151
_cell_formula_units_Z   2
loop_
 _symmetry_equiv_pos_site_id
 _symmetry_equiv_pos_as_xyz
  1  'x, y, z'
loop_
 _atom_site_type_symbol
 _atom_site_label
 _atom_site_symmetry_multiplicity
 _atom_site_fract_x
 _atom_site_fract_y
 _atom_site_fract_z
 _atom_site_occupancy
  Li  Li0  1  0.07773300  0.65113300  0.26617700  1
  Li  Li1  1  0.58099500  0.15115200  0.76880000  1
  Li  Li2  1  0.42030100  0.84699100  0.23325400  1
  Li  Li3  1  0.92025600  0.35055700  0.73008800  1
  Mn  Mn4  1  0.50001800  0.49940700  0.49971500  1
  Mn  Mn5  1  0.24933600  0.74944500  0.74877800  1
  V  V6  1  0.00030200  0.00185600  0.00166200  1
  V  V7  1  0.75114200  0.24878400  0.25031700  1
  P  P8  1  0.22295200  0.10037700  0.45990100  1
  P  P9  1  0.28057200  0.40290400  0.04185300  1
  P  P10  1  0.71769700  0.60067400  0.95506100  1
  P  P11  1  0.77978300  0.89616100  0.54426400  1
  O  O12  1  0.10402800  0.26900200  0.01787800  1
  O  O13  1  0.03949400  0.21235000  0.42629800  1
  O  O14  1  0.46257900  0.28837600  0.07424600  1
  O  O15  1  0.68929000  0.00070600  0.34804300  1
  O  O16  1  0.40014700  0.23532700  0.48421100  1
  O  O17  1  0.33048600  0.54838000  0.21345500  1
  O  O18  1  0.82571400  0.04427600  0.71331100  1
  O  O19  1  0.80910900  0.49516800  0.15056400  1
  O  O20  1  0.18741900  0.50972900  0.84588100  1
  O  O21  1  0.17434500  0.95458400  0.28903800  1
  O  O22  1  0.67110100  0.45387600  0.78454000  1
  O  O23  1  0.60285100  0.76061600  0.51946500  1
  O  O24  1  0.31410800  0.99275300  0.65522700  1
  O  O25  1  0.53363700  0.71272500  0.92093700  1
  O  O26  1  0.96445200  0.78623000  0.57828100  1
  O  O27  1  0.89265600  0.73736400  0.98070800  1
  F  F28  1  0.76795900  0.10339800  0.03056700  1
  F  F29  1  0.25560000  0.59852600  0.52026100  1
  F  F30  1  0.74221400  0.39342200  0.46996100  1
  F  F31  1  0.23172100  0.90375400  0.97725400  1
