# generated using pymatgen
data_Li4VCr(WO6)2
_symmetry_space_group_name_H-M   'P 1'
_cell_length_a   7.46690992
_cell_length_b   7.47945272
_cell_length_c   8.86960726
_cell_angle_alpha   66.68837093
_cell_angle_beta   113.28167024
_cell_angle_gamma   93.06879012
_symmetry_Int_Tables_number   1
_chemical_formula_structural   Li4VCr(WO6)2
_chemical_formula_sum   'Li8 V2 Cr2 W4 O24'
_cell_volume   414.75413942
_cell_formula_units_Z   2
loop_
 _symmetry_equiv_pos_site_id
 _symmetry_equiv_pos_as_xyz
  1  'x, y, z'
loop_
 _atom_site_type_symbol
 _atom_site_label
 _atom_site_symmetry_multiplicity
 _atom_site_fract_x
 _atom_site_fract_y
 _atom_site_fract_z
 _atom_site_occupancy
  Li  Li0  1  0.31834400  0.67941400  0.21336700  1
  Li  Li1  1  0.81840500  0.17937900  0.21343500  1
  Li  Li2  1  0.17175800  0.32139600  0.78669100  1
  Li  Li3  1  0.67177300  0.82138300  0.78671200  1
  Li  Li4  1  0.69200400  0.30457500  0.79664800  1
  Li  Li5  1  0.19196900  0.80469600  0.79660900  1
  Li  Li6  1  0.83195800  0.67745600  0.21626400  1
  Li  Li7  1  0.33191000  0.17749000  0.21622600  1
  V  V8  1  0.23106700  0.27052000  0.48783500  1
  V  V9  1  0.73099900  0.77057700  0.48786500  1
  Cr  Cr10  1  0.50966200  0.49022400  0.00660900  1
  Cr  Cr11  1  0.00945800  0.99028400  0.00638500  1
  W  W12  1  0.74658700  0.26363500  0.50354000  1
  W  W13  1  0.24659000  0.76354200  0.50355900  1
  W  W14  1  0.49537200  0.99628900  0.98929000  1
  W  W15  1  0.99535900  0.49617800  0.98929300  1
  O  O16  1  0.78391400  0.52583200  0.44249000  1
  O  O17  1  0.28389400  0.02585800  0.44247200  1
  O  O18  1  0.93090600  0.18117300  0.74935400  1
  O  O19  1  0.43095000  0.68120500  0.74935100  1
  O  O20  1  0.29424600  0.02610100  0.06540600  1
  O  O21  1  0.79427200  0.52610800  0.06545400  1
  O  O22  1  0.98562200  0.21811400  0.44617200  1
  O  O23  1  0.48560900  0.71821800  0.44589200  1
  O  O24  1  0.54591300  0.26232800  0.95201100  1
  O  O25  1  0.04590800  0.76223500  0.95199300  1
  O  O26  1  0.31650800  0.06451900  0.74989700  1
  O  O27  1  0.81643500  0.56445900  0.74988700  1
  O  O28  1  0.69883100  0.91726600  0.26297800  1
  O  O29  1  0.19875700  0.41727000  0.26295900  1
  O  O30  1  0.47145400  0.71962700  0.06100100  1
  O  O31  1  0.97137600  0.21953300  0.06102200  1
  O  O32  1  0.03580300  0.76765200  0.56424200  1
  O  O33  1  0.53580300  0.26765100  0.56422400  1
  O  O34  1  0.72588000  0.95718800  0.95192000  1
  O  O35  1  0.22592300  0.45691000  0.95225600  1
  O  O36  1  0.08930700  0.79343700  0.26275900  1
  O  O37  1  0.58931200  0.29345300  0.26277400  1
  O  O38  1  0.23188800  0.45661500  0.56277600  1
  O  O39  1  0.73188000  0.95661000  0.56278000  1
