# generated using pymatgen
data_Li2Si3NiO8
_symmetry_space_group_name_H-M   'P 1'
_cell_length_a   8.44887600
_cell_length_b   6.32859000
_cell_length_c   6.64822361
_cell_angle_alpha   74.46032722
_cell_angle_beta   90.00000000
_cell_angle_gamma   90.00000000
_symmetry_Int_Tables_number   1
_chemical_formula_structural   Li2Si3NiO8
_chemical_formula_sum   'Li4 Si6 Ni2 O16'
_cell_volume   342.48260964
_cell_formula_units_Z   2
loop_
 _symmetry_equiv_pos_site_id
 _symmetry_equiv_pos_as_xyz
  1  'x, y, z'
loop_
 _atom_site_type_symbol
 _atom_site_label
 _atom_site_symmetry_multiplicity
 _atom_site_fract_x
 _atom_site_fract_y
 _atom_site_fract_z
 _atom_site_occupancy
  Li  Li0  1  0.69908000  0.85584600  0.74566400  1
  Li  Li1  1  0.18659600  0.56167800  0.47363900  1
  Li  Li2  1  0.68659600  0.43832200  0.52636100  1
  Li  Li3  1  0.19908000  0.14415400  0.25433600  1
  Si  Si4  1  0.48090900  0.41473200  0.97126000  1
  Si  Si5  1  0.81127800  0.23323700  0.91132900  1
  Si  Si6  1  0.33553200  0.16625300  0.70331100  1
  Si  Si7  1  0.83553200  0.83374700  0.29668900  1
  Si  Si8  1  0.31127800  0.76676300  0.08867100  1
  Si  Si9  1  0.98090900  0.58526800  0.02874000  1
  Ni  Ni10  1  0.01070200  0.02625600  0.62110200  1
  Ni  Ni11  1  0.51070200  0.97374400  0.37889800  1
  O  O12  1  0.25901800  0.99406600  0.91667400  1
  O  O13  1  0.96623400  0.33445900  0.00281200  1
  O  O14  1  0.66543000  0.41043400  0.89162400  1
  O  O15  1  0.93093500  0.76534700  0.82201800  1
  O  O16  1  0.37157000  0.39833100  0.76882900  1
  O  O17  1  0.83562900  0.20706300  0.67916700  1
  O  O18  1  0.49760000  0.07099600  0.63336000  1
  O  O19  1  0.19433700  0.23027200  0.52993800  1
  O  O20  1  0.69433700  0.76972800  0.47006200  1
  O  O21  1  0.99760000  0.92900400  0.36664000  1
  O  O22  1  0.33562900  0.79293700  0.32083300  1
  O  O23  1  0.87157000  0.60166900  0.23117100  1
  O  O24  1  0.43093500  0.23465300  0.17798200  1
  O  O25  1  0.16543000  0.58956600  0.10837600  1
  O  O26  1  0.46623400  0.66554100  0.99718800  1
  O  O27  1  0.75901800  0.00593400  0.08332600  1
