# generated using pymatgen
data_Li3V3(PO4)4
_symmetry_space_group_name_H-M   'P 1'
_cell_length_a   8.40382700
_cell_length_b   8.84446950
_cell_length_c   13.52300763
_cell_angle_alpha   84.51035347
_cell_angle_beta   89.93665393
_cell_angle_gamma   89.87074789
_symmetry_Int_Tables_number   1
_chemical_formula_structural   Li3V3(PO4)4
_chemical_formula_sum   'Li9 V9 P12 O48'
_cell_volume   1000.51691196
_cell_formula_units_Z   3
loop_
 _symmetry_equiv_pos_site_id
 _symmetry_equiv_pos_as_xyz
  1  'x, y, z'
loop_
 _atom_site_type_symbol
 _atom_site_label
 _atom_site_symmetry_multiplicity
 _atom_site_fract_x
 _atom_site_fract_y
 _atom_site_fract_z
 _atom_site_occupancy
  Li  Li0  1  0.47919100  0.66091200  0.82908300  1
  Li  Li1  1  0.52381900  0.00192200  0.50287100  1
  Li  Li2  1  0.14582000  0.56190800  0.82426600  1
  Li  Li3  1  0.64655100  0.93963300  0.17831400  1
  Li  Li4  1  0.00404800  0.18137200  0.84270300  1
  Li  Li5  1  0.98959600  0.48572100  0.49697800  1
  Li  Li6  1  0.97415700  0.83955600  0.17254500  1
  Li  Li7  1  0.85203200  0.10244800  0.50753600  1
  Li  Li8  1  0.50822700  0.31649000  0.16129900  1
  V  V9  1  0.85481500  0.76831600  0.83924000  1
  V  V10  1  0.14225400  0.89797300  0.49517900  1
  V  V11  1  0.65034300  0.26788600  0.83996000  1
  V  V12  1  0.65438500  0.60441600  0.50126400  1
  V  V13  1  0.34896600  0.06506800  0.83229100  1
  V  V14  1  0.35321900  0.39843200  0.49576600  1
  V  V15  1  0.35769000  0.73515900  0.16044200  1
  V  V16  1  0.84470000  0.43396800  0.17042700  1
  V  V17  1  0.14801100  0.22944000  0.15945900  1
  P  P18  1  0.19278100  0.85401300  0.94379300  1
  P  P19  1  0.69736600  0.97425600  0.72014400  1
  P  P20  1  0.29789300  0.36065000  0.94366000  1
  P  P21  1  0.30270300  0.69238500  0.61372100  1
  P  P22  1  0.80082700  0.47937300  0.72407200  1
  P  P23  1  0.81079900  0.81152800  0.38566000  1
  P  P24  1  0.19914000  0.18734800  0.61050000  1
  P  P25  1  0.20004500  0.52404400  0.27576200  1
  P  P26  1  0.70224300  0.30739700  0.39024700  1
  P  P27  1  0.69354000  0.64550700  0.05677300  1
  P  P28  1  0.29968500  0.02123400  0.27713200  1
  P  P29  1  0.79850400  0.13893500  0.05668400  1
  O  O30  1  0.86237800  0.97795500  0.77688000  1
  O  O31  1  0.35940500  0.85375200  0.88774300  1
  O  O32  1  0.07518600  0.74590600  0.89978700  1
  O  O33  1  0.71246500  0.69231300  0.94505200  1
  O  O34  1  0.64360100  0.80964900  0.75144900  1
  O  O35  1  0.36965800  0.51711000  0.92852600  1
  O  O36  1  0.35595400  0.85702800  0.58197500  1
  O  O37  1  0.29637200  0.64324600  0.72280800  1
  O  O38  1  0.91538800  0.59222900  0.76934300  1
  O  O39  1  0.28541900  0.97554500  0.38877900  1
  O  O40  1  0.92496300  0.91904500  0.43635100  1
  O  O41  1  0.63363200  0.47736900  0.77844400  1
  O  O42  1  0.13883600  0.34839300  0.89212500  1
  O  O43  1  0.64272000  0.81191300  0.44282300  1
  O  O44  1  0.13808000  0.68738100  0.55681400  1
  O  O45  1  0.42166800  0.24077400  0.89746800  1
  O  O46  1  0.79623900  0.19997100  0.94327900  1
  O  O47  1  0.42014000  0.57860400  0.56039100  1
  O  O48  1  0.78782300  0.52602100  0.61180200  1
  O  O49  1  0.41632400  0.90878900  0.23186400  1
  O  O50  1  0.85498400  0.31324500  0.74821400  1
  O  O51  1  0.79634600  0.85450500  0.27549000  1
  O  O52  1  0.85715200  0.64174600  0.41491700  1
  O  O53  1  0.87123800  0.98320800  0.07089700  1
  O  O54  1  0.14734500  0.02384800  0.92152400  1
  O  O55  1  0.14659100  0.35408000  0.58544300  1
  O  O56  1  0.21270000  0.14061000  0.72285100  1
  O  O57  1  0.14479200  0.68887800  0.25284500  1
  O  O58  1  0.58109300  0.08814900  0.77422400  1
  O  O59  1  0.21146900  0.47118300  0.38727900  1
  O  O60  1  0.57916600  0.42852900  0.43654200  1
  O  O61  1  0.21216800  0.80686000  0.05597800  1
  O  O62  1  0.57582100  0.75527400  0.10071400  1
  O  O63  1  0.86225000  0.31845800  0.44110500  1
  O  O64  1  0.36713600  0.18985300  0.55663100  1
  O  O65  1  0.85916300  0.64496000  0.11357200  1
  O  O66  1  0.36474100  0.52191800  0.22097600  1
  O  O67  1  0.08460200  0.07526500  0.56526400  1
  O  O68  1  0.70302400  0.02373900  0.61100900  1
  O  O69  1  0.08206000  0.41074900  0.22826400  1
  O  O70  1  0.70435300  0.36691700  0.27678200  1
  O  O71  1  0.62829600  0.15217400  0.40691500  1
  O  O72  1  0.64620800  0.47627500  0.07890100  1
  O  O73  1  0.35085600  0.18802200  0.25179500  1
  O  O74  1  0.29429800  0.30135800  0.05733300  1
  O  O75  1  0.92022300  0.25858600  0.10441400  1
  O  O76  1  0.63816000  0.15070100  0.10768300  1
  O  O77  1  0.13416000  0.02062900  0.22096600  1
