# generated using pymatgen
data_LiVF5
_symmetry_space_group_name_H-M   'P 1'
_cell_length_a   7.90552600
_cell_length_b   9.40229200
_cell_length_c   13.36506457
_cell_angle_alpha   51.41075117
_cell_angle_beta   90.00000000
_cell_angle_gamma   90.00000000
_symmetry_Int_Tables_number   1
_chemical_formula_structural   LiVF5
_chemical_formula_sum   'Li8 V8 F40'
_cell_volume   776.49912106
_cell_formula_units_Z   8
loop_
 _symmetry_equiv_pos_site_id
 _symmetry_equiv_pos_as_xyz
  1  'x, y, z'
loop_
 _atom_site_type_symbol
 _atom_site_label
 _atom_site_symmetry_multiplicity
 _atom_site_fract_x
 _atom_site_fract_y
 _atom_site_fract_z
 _atom_site_occupancy
  Li  Li0  1  0.63446500  0.21551600  0.91190500  1
  Li  Li1  1  0.65805900  0.66374900  0.47263100  1
  Li  Li2  1  0.13446500  0.78448400  0.58809500  1
  Li  Li3  1  0.15805900  0.33625100  0.02736900  1
  Li  Li4  1  0.84194100  0.66374900  0.97263100  1
  Li  Li5  1  0.86553500  0.21551600  0.41190500  1
  Li  Li6  1  0.34194100  0.33625100  0.52736900  1
  Li  Li7  1  0.36553500  0.78448400  0.08809500  1
  V  V8  1  0.20034400  0.19942500  0.81681100  1
  V  V9  1  0.22515200  0.79164900  0.33272200  1
  V  V10  1  0.72515200  0.20835100  0.16727800  1
  V  V11  1  0.70034400  0.80057500  0.68318900  1
  V  V12  1  0.29965600  0.19942500  0.31681100  1
  V  V13  1  0.27484800  0.79164900  0.83272200  1
  V  V14  1  0.77484800  0.20835100  0.66727800  1
  V  V15  1  0.79965600  0.80057500  0.18318900  1
  F  F16  1  0.24552000  0.38164200  0.64823300  1
  F  F17  1  0.77016500  0.44399800  0.61338200  1
  F  F18  1  0.80960800  0.02393900  0.02599400  1
  F  F19  1  0.40470600  0.24341900  0.86259000  1
  F  F20  1  0.01683300  0.84140200  0.23335500  1
  F  F21  1  0.33758900  0.88402900  0.18500300  1
  F  F22  1  0.09247800  0.32808400  0.85850600  1
  F  F23  1  0.42677600  0.74331100  0.42105700  1
  F  F24  1  0.09388900  0.73497500  0.46581200  1
  F  F25  1  0.70401700  0.95131700  0.23363300  1
  F  F26  1  0.59247800  0.67191600  0.64149400  1
  F  F27  1  0.20401700  0.04868300  0.26636700  1
  F  F28  1  0.59388900  0.26502500  0.03418800  1
  F  F29  1  0.92677600  0.25668900  0.07894300  1
  F  F30  1  0.90470600  0.75658100  0.63741000  1
  F  F31  1  0.27016500  0.55600200  0.88661800  1
  F  F32  1  0.83758900  0.11597100  0.31499700  1
  F  F33  1  0.74552000  0.61835800  0.85176700  1
  F  F34  1  0.51683300  0.15859800  0.26664500  1
  F  F35  1  0.30960800  0.97606100  0.47400600  1
  F  F36  1  0.69039200  0.02393900  0.52599400  1
  F  F37  1  0.48316700  0.84140200  0.73335500  1
  F  F38  1  0.25448000  0.38164200  0.14823300  1
  F  F39  1  0.16241100  0.88402900  0.68500300  1
  F  F40  1  0.72983500  0.44399800  0.11338200  1
  F  F41  1  0.09529400  0.24341900  0.36259000  1
  F  F42  1  0.07322400  0.74331100  0.92105700  1
  F  F43  1  0.40611100  0.73497500  0.96581200  1
  F  F44  1  0.79598300  0.95131700  0.73363300  1
  F  F45  1  0.40752200  0.32808400  0.35850600  1
  F  F46  1  0.29598300  0.04868300  0.76636700  1
  F  F47  1  0.90611100  0.26502500  0.53418800  1
  F  F48  1  0.57322400  0.25668900  0.57894300  1
  F  F49  1  0.90752200  0.67191600  0.14149400  1
  F  F50  1  0.66241100  0.11597100  0.81499700  1
  F  F51  1  0.98316700  0.15859800  0.76664500  1
  F  F52  1  0.59529400  0.75658100  0.13741000  1
  F  F53  1  0.19039200  0.97606100  0.97400600  1
  F  F54  1  0.22983500  0.55600200  0.38661800  1
  F  F55  1  0.75448000  0.61835800  0.35176700  1
