# generated using pymatgen
data_LiMn2P2HO9
_symmetry_space_group_name_H-M   'P 1'
_cell_length_a   6.83976700
_cell_length_b   6.16328400
_cell_length_c   8.93149685
_cell_angle_alpha   72.71201820
_cell_angle_beta   90.00000000
_cell_angle_gamma   90.00000000
_symmetry_Int_Tables_number   1
_chemical_formula_structural   LiMn2P2HO9
_chemical_formula_sum   'Li2 Mn4 P4 H2 O18'
_cell_volume   359.50147732
_cell_formula_units_Z   2
loop_
 _symmetry_equiv_pos_site_id
 _symmetry_equiv_pos_as_xyz
  1  'x, y, z'
loop_
 _atom_site_type_symbol
 _atom_site_label
 _atom_site_symmetry_multiplicity
 _atom_site_fract_x
 _atom_site_fract_y
 _atom_site_fract_z
 _atom_site_occupancy
  Li  Li0  1  0.25000000  0.01093200  0.14582500  1
  Li  Li1  1  0.75000000  0.98906800  0.85417500  1
  Mn  Mn2  1  0.25000000  0.47205600  0.70654000  1
  Mn  Mn3  1  0.75000000  0.52794400  0.29346000  1
  Mn  Mn4  1  0.50000000  0.50000000  0.00000000  1
  Mn  Mn5  1  0.00000000  0.50000000  0.00000000  1
  P  P6  1  0.25000000  0.90518900  0.80419200  1
  P  P7  1  0.75000000  0.55836600  0.66276400  1
  P  P8  1  0.25000000  0.44163400  0.33723600  1
  P  P9  1  0.75000000  0.09481100  0.19580800  1
  H  H10  1  0.75000000  0.92801600  0.51289700  1
  H  H11  1  0.25000000  0.07198400  0.48710300  1
  O  O12  1  0.43772300  0.83634400  0.90659600  1
  O  O13  1  0.06227700  0.83634400  0.90659600  1
  O  O14  1  0.75000000  0.83104400  0.62264700  1
  O  O15  1  0.25000000  0.79775600  0.66693400  1
  O  O16  1  0.75000000  0.84077600  0.27773000  1
  O  O17  1  0.25000000  0.41341800  0.94001200  1
  O  O18  1  0.93128200  0.47205900  0.76486400  1
  O  O19  1  0.56871800  0.47205900  0.76486400  1
  O  O20  1  0.25000000  0.52838200  0.48011900  1
  O  O21  1  0.75000000  0.47161800  0.51988100  1
  O  O22  1  0.43128200  0.52794100  0.23513600  1
  O  O23  1  0.06871800  0.52794100  0.23513600  1
  O  O24  1  0.75000000  0.58658200  0.05998800  1
  O  O25  1  0.25000000  0.15922400  0.72227000  1
  O  O26  1  0.75000000  0.20224400  0.33306600  1
  O  O27  1  0.25000000  0.16895600  0.37735300  1
  O  O28  1  0.93772300  0.16365600  0.09340400  1
  O  O29  1  0.56227700  0.16365600  0.09340400  1
