# generated using pymatgen
data_Li4Mn3Ni3(TeO8)2
_symmetry_space_group_name_H-M   'P 1'
_cell_length_a   5.95012863
_cell_length_b   5.95012863
_cell_length_c   9.71242700
_cell_angle_alpha   88.97000228
_cell_angle_beta   88.97000228
_cell_angle_gamma   60.07127852
_symmetry_Int_Tables_number   1
_chemical_formula_structural   Li4Mn3Ni3(TeO8)2
_chemical_formula_sum   'Li4 Mn3 Ni3 Te2 O16'
_cell_volume   297.94009287
_cell_formula_units_Z   1
loop_
 _symmetry_equiv_pos_site_id
 _symmetry_equiv_pos_as_xyz
  1  'x, y, z'
loop_
 _atom_site_type_symbol
 _atom_site_label
 _atom_site_symmetry_multiplicity
 _atom_site_fract_x
 _atom_site_fract_y
 _atom_site_fract_z
 _atom_site_occupancy
  Li  Li0  1  0.66206600  0.66206600  0.09312200  1
  Li  Li1  1  0.99916600  0.99916600  0.01771400  1
  Li  Li2  1  0.99927000  0.99927000  0.51211000  1
  Li  Li3  1  0.32997100  0.32997100  0.58521500  1
  Mn  Mn4  1  0.33844000  0.82994400  0.78844500  1
  Mn  Mn5  1  0.82994400  0.33844000  0.78844500  1
  Mn  Mn6  1  0.17337600  0.17337600  0.28652400  1
  Ni  Ni7  1  0.82773900  0.82773900  0.78575400  1
  Ni  Ni8  1  0.17076200  0.66098300  0.28824700  1
  Ni  Ni9  1  0.66098300  0.17076200  0.28824700  1
  Te  Te10  1  0.67020100  0.67020100  0.51425500  1
  Te  Te11  1  0.33697900  0.33697900  0.01817100  1
  O  O12  1  0.34256600  0.84146600  0.40477000  1
  O  O13  1  0.51533800  0.51533800  0.63629200  1
  O  O14  1  0.65512600  0.65512600  0.88675000  1
  O  O15  1  0.00772800  0.00772800  0.70292100  1
  O  O16  1  0.01012500  0.01012500  0.20279800  1
  O  O17  1  0.84146600  0.34256600  0.40477000  1
  O  O18  1  0.51431900  0.96103200  0.64895100  1
  O  O19  1  0.96103200  0.51431900  0.64895100  1
  O  O20  1  0.17715900  0.17715900  0.91324200  1
  O  O21  1  0.83322000  0.83322000  0.41426100  1
  O  O22  1  0.03622800  0.47040400  0.15313900  1
  O  O23  1  0.47040400  0.03622800  0.15313900  1
  O  O24  1  0.32500000  0.32500000  0.38852400  1
  O  O25  1  0.16808600  0.66273800  0.91124700  1
  O  O26  1  0.48027200  0.48027200  0.14491800  1
  O  O27  1  0.66273800  0.16808600  0.91124700  1
