# generated using pymatgen
data_LiVSO4F3
_symmetry_space_group_name_H-M   'P 1'
_cell_length_a   7.20745700
_cell_length_b   7.67992600
_cell_length_c   9.97817000
_cell_angle_alpha   90.00000000
_cell_angle_beta   90.00000000
_cell_angle_gamma   90.00000000
_symmetry_Int_Tables_number   1
_chemical_formula_structural   LiVSO4F3
_chemical_formula_sum   'Li4 V4 S4 O16 F12'
_cell_volume   552.31901385
_cell_formula_units_Z   4
loop_
 _symmetry_equiv_pos_site_id
 _symmetry_equiv_pos_as_xyz
  1  'x, y, z'
loop_
 _atom_site_type_symbol
 _atom_site_label
 _atom_site_symmetry_multiplicity
 _atom_site_fract_x
 _atom_site_fract_y
 _atom_site_fract_z
 _atom_site_occupancy
  Li  Li0  1  0.19083200  0.63869800  0.27731700  1
  Li  Li1  1  0.30916800  0.13869800  0.77731700  1
  Li  Li2  1  0.69083200  0.86130200  0.27731700  1
  Li  Li3  1  0.80916800  0.36130200  0.77731700  1
  V  V4  1  0.99503300  0.74787600  0.99055900  1
  V  V5  1  0.00496700  0.25212400  0.49055900  1
  V  V6  1  0.49503300  0.75212400  0.99055900  1
  V  V7  1  0.50496700  0.24787600  0.49055900  1
  S  S8  1  0.24161600  0.90981600  0.51157500  1
  S  S9  1  0.25838400  0.40981600  0.01157500  1
  S  S10  1  0.74161600  0.59018400  0.51157500  1
  S  S11  1  0.75838400  0.09018400  0.01157500  1
  O  O12  1  0.09726900  0.02898700  0.43994900  1
  O  O13  1  0.11399400  0.53537100  0.07267400  1
  O  O14  1  0.17589700  0.30597200  0.90424900  1
  O  O15  1  0.15517400  0.81788300  0.61941700  1
  O  O16  1  0.32410300  0.80597200  0.40424900  1
  O  O17  1  0.34482600  0.31788300  0.11941700  1
  O  O18  1  0.40273100  0.52898700  0.93994900  1
  O  O19  1  0.38600600  0.03537100  0.57267400  1
  O  O20  1  0.61399400  0.96462900  0.07267400  1
  O  O21  1  0.59726900  0.47101300  0.43994900  1
  O  O22  1  0.67589700  0.19402800  0.90424900  1
  O  O23  1  0.65517400  0.68211700  0.61941700  1
  O  O24  1  0.84482600  0.18211700  0.11941700  1
  O  O25  1  0.82410300  0.69402800  0.40424900  1
  O  O26  1  0.88600600  0.46462900  0.57267400  1
  O  O27  1  0.90273100  0.97101300  0.93994900  1
  F  F28  1  0.03860800  0.19859800  0.67053700  1
  F  F29  1  0.00354900  0.64416600  0.83143200  1
  F  F30  1  0.26079600  0.35357300  0.49126000  1
  F  F31  1  0.23920400  0.85357300  0.99126000  1
  F  F32  1  0.46139200  0.69859800  0.17053700  1
  F  F33  1  0.49645100  0.14416600  0.33143200  1
  F  F34  1  0.50354900  0.85583400  0.83143200  1
  F  F35  1  0.53860800  0.30140200  0.67053700  1
  F  F36  1  0.76079600  0.14642700  0.49126000  1
  F  F37  1  0.73920400  0.64642700  0.99126000  1
  F  F38  1  0.96139200  0.80140200  0.17053700  1
  F  F39  1  0.99645100  0.35583400  0.33143200  1
