# generated using pymatgen
data_Li2V2FeO6
_symmetry_space_group_name_H-M   'P 1'
_cell_length_a   6.54901100
_cell_length_b   6.67625348
_cell_length_c   8.43005033
_cell_angle_alpha   71.88341859
_cell_angle_beta   69.53140746
_cell_angle_gamma   81.39040766
_symmetry_Int_Tables_number   1
_chemical_formula_structural   Li2V2FeO6
_chemical_formula_sum   'Li6 V6 Fe3 O18'
_cell_volume   327.84866474
_cell_formula_units_Z   3
loop_
 _symmetry_equiv_pos_site_id
 _symmetry_equiv_pos_as_xyz
  1  'x, y, z'
loop_
 _atom_site_type_symbol
 _atom_site_label
 _atom_site_symmetry_multiplicity
 _atom_site_fract_x
 _atom_site_fract_y
 _atom_site_fract_z
 _atom_site_occupancy
  Li  Li0  1  0.66984400  0.00658300  0.83055500  1
  Li  Li1  1  0.67396400  0.32910200  0.50027400  1
  Li  Li2  1  0.00356000  0.65823700  0.83898100  1
  Li  Li3  1  0.99644000  0.34176300  0.16101900  1
  Li  Li4  1  0.33015600  0.99341700  0.16944500  1
  Li  Li5  1  0.32603600  0.67089800  0.49972600  1
  V  V6  1  0.33962900  0.66196900  0.00347900  1
  V  V7  1  0.31532300  0.33757400  0.34246300  1
  V  V8  1  0.32135300  0.00834500  0.67398800  1
  V  V9  1  0.68467700  0.66242600  0.65753700  1
  V  V10  1  0.66037100  0.33803100  0.99652100  1
  V  V11  1  0.67864700  0.99165500  0.32601200  1
  Fe  Fe12  1  0.00000000  0.00000000  0.00000000  1
  Fe  Fe13  1  0.99255300  0.67255000  0.33272300  1
  Fe  Fe14  1  0.00744700  0.32745000  0.66727700  1
  O  O15  1  0.68099700  0.34949900  0.75029200  1
  O  O16  1  0.67904200  0.01699500  0.08473200  1
  O  O17  1  0.66349500  0.68068000  0.42785400  1
  O  O18  1  0.01872900  0.00165900  0.76015100  1
  O  O19  1  0.02689700  0.68858000  0.07254600  1
  O  O20  1  0.35576600  0.69171500  0.74864000  1
  O  O21  1  0.97310300  0.31142000  0.92745400  1
  O  O22  1  0.98127100  0.99834100  0.23984900  1
  O  O23  1  0.32095800  0.98300500  0.91526800  1
  O  O24  1  0.01671200  0.34730400  0.40959900  1
  O  O25  1  0.34143200  0.33986800  0.09710600  1
  O  O26  1  0.35652700  0.01604000  0.41915700  1
  O  O27  1  0.98328800  0.65269600  0.59040100  1
  O  O28  1  0.31900300  0.65050100  0.24970800  1
  O  O29  1  0.33650500  0.31932000  0.57214600  1
  O  O30  1  0.65856800  0.66013200  0.90289400  1
  O  O31  1  0.64423400  0.30828500  0.25136000  1
  O  O32  1  0.64347300  0.98396000  0.58084300  1
