# generated using pymatgen
data_Na2LiMnPCO7
_symmetry_space_group_name_H-M   'P 1'
_cell_length_a   6.78351300
_cell_length_b   8.85783676
_cell_length_c   10.22579922
_cell_angle_alpha   89.31100363
_cell_angle_beta   89.94925307
_cell_angle_gamma   89.92415832
_symmetry_Int_Tables_number   1
_chemical_formula_structural   Na2LiMnPCO7
_chemical_formula_sum   'Na8 Li4 Mn4 P4 C4 O28'
_cell_volume   614.39496620
_cell_formula_units_Z   4
loop_
 _symmetry_equiv_pos_site_id
 _symmetry_equiv_pos_as_xyz
  1  'x, y, z'
loop_
 _atom_site_type_symbol
 _atom_site_label
 _atom_site_symmetry_multiplicity
 _atom_site_fract_x
 _atom_site_fract_y
 _atom_site_fract_z
 _atom_site_occupancy
  Na  Na0  1  0.74907000  0.08243600  0.87881700  1
  Na  Na1  1  0.74646100  0.08355300  0.37950900  1
  Na  Na2  1  0.99950000  0.25443100  0.62508800  1
  Na  Na3  1  0.00028800  0.25770700  0.12428600  1
  Na  Na4  1  0.49911100  0.25712200  0.12404000  1
  Na  Na5  1  0.49784700  0.74566500  0.87539700  1
  Na  Na6  1  0.49843500  0.74299900  0.37650300  1
  Na  Na7  1  0.00064300  0.74376500  0.37668000  1
  Li  Li8  1  0.52198500  0.27121900  0.61604000  1
  Li  Li9  1  0.01924800  0.73077200  0.88333200  1
  Li  Li10  1  0.25074900  0.91467900  0.62728300  1
  Li  Li11  1  0.24648300  0.90900300  0.12313100  1
  Mn  Mn12  1  0.25256600  0.35989300  0.88450800  1
  Mn  Mn13  1  0.25244400  0.36173900  0.39244600  1
  Mn  Mn14  1  0.75228400  0.64356900  0.61528000  1
  Mn  Mn15  1  0.75286500  0.64119300  0.10794700  1
  P  P16  1  0.75149400  0.41123500  0.84899400  1
  P  P17  1  0.75046600  0.41110300  0.35525300  1
  P  P18  1  0.25055100  0.59474900  0.65131600  1
  P  P19  1  0.25053300  0.59472100  0.14534600  1
  C  C20  1  0.24280600  0.04588100  0.86656400  1
  C  C21  1  0.25022500  0.05226000  0.36609500  1
  C  C22  1  0.74255200  0.94598900  0.63274700  1
  C  C23  1  0.75075000  0.94073100  0.13206100  1
  O  O24  1  0.72601600  0.09233000  0.64210200  1
  O  O25  1  0.75046000  0.08683600  0.14278000  1
  O  O26  1  0.25015600  0.08921100  0.98792800  1
  O  O27  1  0.24806500  0.09332700  0.48800700  1
  O  O28  1  0.25509500  0.14550800  0.77161800  1
  O  O29  1  0.25289100  0.15435200  0.27273300  1
  O  O30  1  0.93527900  0.31491400  0.88746700  1
  O  O31  1  0.56790300  0.32548300  0.90182200  1
  O  O32  1  0.93596400  0.31825300  0.39630000  1
  O  O33  1  0.56837900  0.31707700  0.40223300  1
  O  O34  1  0.73570700  0.42129100  0.69618500  1
  O  O35  1  0.26630400  0.43094800  0.59620900  1
  O  O36  1  0.74694400  0.42745600  0.20273500  1
  O  O37  1  0.24879900  0.43489200  0.08479800  1
  O  O38  1  0.76717700  0.57484900  0.90216100  1
  O  O39  1  0.23528600  0.57994800  0.80376400  1
  O  O40  1  0.74918400  0.57091900  0.41377600  1
  O  O41  1  0.24655800  0.57391400  0.29726200  1
  O  O42  1  0.43212900  0.69368900  0.61403200  1
  O  O43  1  0.06846300  0.68301800  0.59991300  1
  O  O44  1  0.43447000  0.68960800  0.10567000  1
  O  O45  1  0.07089500  0.69235100  0.09962300  1
  O  O46  1  0.75300700  0.86123800  0.73721700  1
  O  O47  1  0.75237600  0.85512800  0.23633300  1
  O  O48  1  0.74949900  0.88274400  0.51895500  1
  O  O49  1  0.74946500  0.87881900  0.01785500  1
  O  O50  1  0.22418800  0.90422100  0.83757100  1
  O  O51  1  0.24998600  0.91126600  0.33428800  1
