# generated using pymatgen
data_Li2MnOF3
_symmetry_space_group_name_H-M   'P 1'
_cell_length_a   3.06420101
_cell_length_b   10.48193101
_cell_length_c   9.96074812
_cell_angle_alpha   74.34510544
_cell_angle_beta   89.99289573
_cell_angle_gamma   81.59214169
_symmetry_Int_Tables_number   1
_chemical_formula_structural   Li2MnOF3
_chemical_formula_sum   'Li8 Mn4 O4 F12'
_cell_volume   304.48803572
_cell_formula_units_Z   4
loop_
 _symmetry_equiv_pos_site_id
 _symmetry_equiv_pos_as_xyz
  1  'x, y, z'
loop_
 _atom_site_type_symbol
 _atom_site_label
 _atom_site_symmetry_multiplicity
 _atom_site_fract_x
 _atom_site_fract_y
 _atom_site_fract_z
 _atom_site_occupancy
  Li  Li0  1  0.37499700  0.25000500  0.87500000  1
  Li  Li1  1  0.87500000  0.25000100  0.37499800  1
  Li  Li2  1  0.12500400  0.74999700  0.62500200  1
  Li  Li3  1  0.62499500  0.75000800  0.12500000  1
  Li  Li4  1  0.06848700  0.86308500  0.34142700  1
  Li  Li5  1  0.56848800  0.86308300  0.84142900  1
  Li  Li6  1  0.68151000  0.63692000  0.40857900  1
  Li  Li7  1  0.18151000  0.63692300  0.90857500  1
  Mn  Mn8  1  0.81231400  0.37539300  0.06986600  1
  Mn  Mn9  1  0.93769600  0.12460200  0.68014200  1
  Mn  Mn10  1  0.31230800  0.37536300  0.56987500  1
  Mn  Mn11  1  0.43768200  0.12462700  0.18011800  1
  O  O12  1  0.39873400  0.20252500  0.54020300  1
  O  O13  1  0.89872100  0.20256300  0.04018900  1
  O  O14  1  0.85127900  0.29743200  0.70980400  1
  O  O15  1  0.35126800  0.29746300  0.20979200  1
  F  F16  1  0.14943000  0.70123300  0.27708800  1
  F  F17  1  0.64942900  0.70123100  0.77709100  1
  F  F18  1  0.60057100  0.79877500  0.47291400  1
  F  F19  1  0.10056600  0.79877600  0.97291200  1
  F  F20  1  0.22205300  0.55558100  0.57352500  1
  F  F21  1  0.72202900  0.55562400  0.07350900  1
  F  F22  1  0.52796000  0.94440600  0.17647000  1
  F  F23  1  0.02798000  0.94437400  0.67649400  1
  F  F24  1  0.46455500  0.07068300  0.82873700  1
  F  F25  1  0.96455100  0.07068500  0.32871700  1
  F  F26  1  0.78544100  0.42931600  0.42127600  1
  F  F27  1  0.28544100  0.42932700  0.92126600  1
