# generated using pymatgen
data_Li13Mn2O9
_symmetry_space_group_name_H-M   'P 1'
_cell_length_a   5.75432360
_cell_length_b   9.93762726
_cell_length_c   9.89953829
_cell_angle_alpha   118.98090750
_cell_angle_beta   90.67255278
_cell_angle_gamma   105.68938772
_symmetry_Int_Tables_number   1
_chemical_formula_structural   Li13Mn2O9
_chemical_formula_sum   'Li26 Mn4 O18'
_cell_volume   469.86178093
_cell_formula_units_Z   2
loop_
 _symmetry_equiv_pos_site_id
 _symmetry_equiv_pos_as_xyz
  1  'x, y, z'
loop_
 _atom_site_type_symbol
 _atom_site_label
 _atom_site_symmetry_multiplicity
 _atom_site_fract_x
 _atom_site_fract_y
 _atom_site_fract_z
 _atom_site_occupancy
  Li  Li0  1  0.01327200  0.42532600  0.69972900  1
  Li  Li1  1  0.51315600  0.42508600  0.19965200  1
  Li  Li2  1  0.80031000  0.94773200  0.48879700  1
  Li  Li3  1  0.30032400  0.94736800  0.98879900  1
  Li  Li4  1  0.59033000  0.22190900  0.25924100  1
  Li  Li5  1  0.09062000  0.22218700  0.75940900  1
  Li  Li6  1  0.09131500  0.21865600  0.12172600  1
  Li  Li7  1  0.59153700  0.21876500  0.62152300  1
  Li  Li8  1  0.00606300  0.41702900  0.37683900  1
  Li  Li9  1  0.50640400  0.41722200  0.87676200  1
  Li  Li10  1  0.32874900  0.95211300  0.62447100  1
  Li  Li11  1  0.82856400  0.95183900  0.12443800  1
  Li  Li12  1  0.58356900  0.42066700  0.53648400  1
  Li  Li13  1  0.08370100  0.42081700  0.03653400  1
  Li  Li14  1  0.67554600  0.06306900  0.36573600  1
  Li  Li15  1  0.17572000  0.06325900  0.86614000  1
  Li  Li16  1  0.42295900  0.57780500  0.45314800  1
  Li  Li17  1  0.92331200  0.57808000  0.95320900  1
  Li  Li18  1  0.32398300  0.75233400  0.71051100  1
  Li  Li19  1  0.82413700  0.75224100  0.21030000  1
  Li  Li20  1  0.88730400  0.75501900  0.86323000  1
  Li  Li21  1  0.38713300  0.75515100  0.36320000  1
  Li  Li22  1  0.74994800  0.93836500  0.81578300  1
  Li  Li23  1  0.24979500  0.93814400  0.31533100  1
  Li  Li24  1  0.44786700  0.57841300  0.77235400  1
  Li  Li25  1  0.94799500  0.57832500  0.27215400  1
  Mn  Mn26  1  0.37830900  0.73731400  0.05420400  1
  Mn  Mn27  1  0.13627800  0.22077400  0.44158300  1
  Mn  Mn28  1  0.87806000  0.73786300  0.55403600  1
  Mn  Mn29  1  0.63625900  0.22084700  0.94138900  1
  O  O30  1  0.66979800  0.66166400  0.34896200  1
  O  O31  1  0.16986000  0.66183300  0.84923400  1
  O  O32  1  0.98604600  0.96816400  0.66618500  1
  O  O33  1  0.48614400  0.96780100  0.16587600  1
  O  O34  1  0.15602200  0.67240600  0.48210900  1
  O  O35  1  0.65628000  0.67241400  0.98222500  1
  O  O36  1  0.63371800  0.67508500  0.65991700  1
  O  O37  1  0.13345000  0.67519400  0.15969600  1
  O  O38  1  0.33221100  0.34458600  0.33573900  1
  O  O39  1  0.83257200  0.34509300  0.83578000  1
  O  O40  1  0.81921900  0.30701300  0.47956000  1
  O  O41  1  0.31924600  0.30718500  0.97961700  1
  O  O42  1  0.45082100  0.98179200  0.82631600  1
  O  O43  1  0.95071600  0.98148400  0.32586500  1
  O  O44  1  0.99313900  0.98687300  0.98171100  1
  O  O45  1  0.49263700  0.98692000  0.48132000  1
  O  O46  1  0.33642700  0.34554600  0.66745500  1
  O  O47  1  0.83606200  0.34535800  0.16731000  1
