# generated using pymatgen
data_Li6Mn(OF)3
_symmetry_space_group_name_H-M   'P 1'
_cell_length_a   5.17000343
_cell_length_b   10.29784412
_cell_length_c   10.63931765
_cell_angle_alpha   106.18144796
_cell_angle_beta   102.84122110
_cell_angle_gamma   80.15886240
_symmetry_Int_Tables_number   1
_chemical_formula_structural   Li6Mn(OF)3
_chemical_formula_sum   'Li24 Mn4 O12 F12'
_cell_volume   526.78610247
_cell_formula_units_Z   4
loop_
 _symmetry_equiv_pos_site_id
 _symmetry_equiv_pos_as_xyz
  1  'x, y, z'
loop_
 _atom_site_type_symbol
 _atom_site_label
 _atom_site_symmetry_multiplicity
 _atom_site_fract_x
 _atom_site_fract_y
 _atom_site_fract_z
 _atom_site_occupancy
  Li  Li0  1  0.62884600  0.78413700  0.65691600  1
  Li  Li1  1  0.62924500  0.28427800  0.65687000  1
  Li  Li2  1  0.54309500  0.51036600  0.13244300  1
  Li  Li3  1  0.54291900  0.01035000  0.13225700  1
  Li  Li4  1  0.69140400  0.78497500  0.95548200  1
  Li  Li5  1  0.69163200  0.28497900  0.95551000  1
  Li  Li6  1  0.69690200  0.53438900  0.46645800  1
  Li  Li7  1  0.69706200  0.03421900  0.46638900  1
  Li  Li8  1  0.92512200  0.50572100  0.71152600  1
  Li  Li9  1  0.92481300  0.00575900  0.71140700  1
  Li  Li10  1  0.91129400  0.23885400  0.21954700  1
  Li  Li11  1  0.91124900  0.73884100  0.21951600  1
  Li  Li12  1  0.09839200  0.76285900  0.79070000  1
  Li  Li13  1  0.09873500  0.26282900  0.79068200  1
  Li  Li14  1  0.08445000  0.49471300  0.29795600  1
  Li  Li15  1  0.08424300  0.99475600  0.29783000  1
  Li  Li16  1  0.23662600  0.49112700  0.54088800  1
  Li  Li17  1  0.23708200  0.99101000  0.54086700  1
  Li  Li18  1  0.28573000  0.22319900  0.04257600  1
  Li  Li19  1  0.28561300  0.72324200  0.04259200  1
  Li  Li20  1  0.44128000  0.47391700  0.86114200  1
  Li  Li21  1  0.44093200  0.97387100  0.86113300  1
  Li  Li22  1  0.37315200  0.20461200  0.33375900  1
  Li  Li23  1  0.37305900  0.70470400  0.33392100  1
  Mn  Mn24  1  0.03154400  0.74302500  0.49971700  1
  Mn  Mn25  1  0.01809800  0.99137100  0.99804700  1
  Mn  Mn26  1  0.03190300  0.24287100  0.49981800  1
  Mn  Mn27  1  0.01832300  0.49135700  0.99807600  1
  O  O28  1  0.79935300  0.89175500  0.84143700  1
  O  O29  1  0.80009700  0.39200300  0.84137600  1
  O  O30  1  0.94036500  0.64436400  0.61107600  1
  O  O31  1  0.94037600  0.14432900  0.61105000  1
  O  O32  1  0.32539000  0.61465900  0.45830400  1
  O  O33  1  0.32542100  0.11462100  0.45824700  1
  O  O34  1  0.33646200  0.87241900  0.97245500  1
  O  O35  1  0.33660800  0.37240600  0.97245000  1
  O  O36  1  0.07848000  0.35176500  0.38946700  1
  O  O37  1  0.07814500  0.85179800  0.38945400  1
  O  O38  1  0.19771400  0.11018000  0.15244500  1
  O  O39  1  0.19785100  0.61021100  0.15252300  1
  F  F40  1  0.74070600  0.62493900  0.30974900  1
  F  F41  1  0.74014500  0.12516000  0.30897300  1
  F  F42  1  0.87919200  0.38124700  0.12435500  1
  F  F43  1  0.87919400  0.88123200  0.12435500  1
  F  F44  1  0.70696700  0.38756700  0.55045400  1
  F  F45  1  0.70570200  0.88762200  0.55046400  1
  F  F46  1  0.65900300  0.12535700  0.02479900  1
  F  F47  1  0.65930500  0.62537200  0.02493900  1
  F  F48  1  0.10800000  0.61806900  0.87628700  1
  F  F49  1  0.10768800  0.11814600  0.87632800  1
  F  F50  1  0.26274900  0.38424000  0.68242500  1
  F  F51  1  0.26234100  0.88420900  0.68256400  1
