# generated using pymatgen
data_Li3Fe2(CO3)4
_symmetry_space_group_name_H-M   'P 1'
_cell_length_a   9.72572500
_cell_length_b   7.12630800
_cell_length_c   8.46502955
_cell_angle_alpha   70.41814393
_cell_angle_beta   90.00000000
_cell_angle_gamma   90.00000000
_symmetry_Int_Tables_number   1
_chemical_formula_structural   Li3Fe2(CO3)4
_chemical_formula_sum   'Li6 Fe4 C8 O24'
_cell_volume   552.76608586
_cell_formula_units_Z   2
loop_
 _symmetry_equiv_pos_site_id
 _symmetry_equiv_pos_as_xyz
  1  'x, y, z'
loop_
 _atom_site_type_symbol
 _atom_site_label
 _atom_site_symmetry_multiplicity
 _atom_site_fract_x
 _atom_site_fract_y
 _atom_site_fract_z
 _atom_site_occupancy
  Li  Li0  1  0.18246000  0.31307700  0.81289500  1
  Li  Li1  1  0.89252700  0.25393900  0.09060900  1
  Li  Li2  1  0.39252700  0.74606100  0.90939100  1
  Li  Li3  1  0.68246000  0.68692300  0.18710500  1
  Li  Li4  1  0.60600200  0.75138000  0.59321800  1
  Li  Li5  1  0.10600200  0.24862000  0.40678200  1
  Fe  Fe6  1  0.36922100  0.29689900  0.18843000  1
  Fe  Fe7  1  0.86922100  0.70310100  0.81157000  1
  Fe  Fe8  1  0.13272500  0.79978000  0.67624800  1
  Fe  Fe9  1  0.63272500  0.20022000  0.32375200  1
  C  C10  1  0.11186100  0.49741300  0.03216800  1
  C  C11  1  0.61186100  0.50258700  0.96783200  1
  C  C12  1  0.48385500  0.52637100  0.39310500  1
  C  C13  1  0.98385500  0.47362900  0.60689500  1
  C  C14  1  0.01407800  0.02981100  0.88446100  1
  C  C15  1  0.51407800  0.97018900  0.11553900  1
  C  C16  1  0.38527400  0.99884100  0.53214200  1
  C  C17  1  0.88527400  0.00115900  0.46785800  1
  O  O18  1  0.15807400  0.36456500  0.16703000  1
  O  O19  1  0.48047700  0.47473000  0.98555200  1
  O  O20  1  0.69824800  0.40870500  0.08464200  1
  O  O21  1  0.19824800  0.59129500  0.91535800  1
  O  O22  1  0.98047700  0.52527000  0.01444800  1
  O  O23  1  0.97552800  0.36260000  0.52044000  1
  O  O24  1  0.65807400  0.63543500  0.83297000  1
  O  O25  1  0.60710100  0.45204100  0.37159200  1
  O  O26  1  0.37856700  0.48365600  0.31615800  1
  O  O27  1  0.87856700  0.51634400  0.68384200  1
  O  O28  1  0.10710100  0.54795900  0.62840800  1
  O  O29  1  0.52207400  0.83422400  0.04888400  1
  O  O30  1  0.47552800  0.63740000  0.47956000  1
  O  O31  1  0.90482500  0.91833100  0.90357300  1
  O  O32  1  0.11901000  0.00799400  0.79462100  1
  O  O33  1  0.61901000  0.99200600  0.20537900  1
  O  O34  1  0.40482500  0.08166900  0.09642700  1
  O  O35  1  0.34116200  0.86666500  0.66877100  1
  O  O36  1  0.02207400  0.16577600  0.95111600  1
  O  O37  1  0.01724400  0.97288300  0.48590800  1
  O  O38  1  0.79929300  0.90217400  0.58092500  1
  O  O39  1  0.29929300  0.09782600  0.41907500  1
  O  O40  1  0.51724400  0.02711700  0.51409200  1
  O  O41  1  0.84116200  0.13333500  0.33122900  1
