# generated using pymatgen
data_Li2MnSi3O8
_symmetry_space_group_name_H-M   'P 1'
_cell_length_a   8.62356600
_cell_length_b   6.36199800
_cell_length_c   6.71192689
_cell_angle_alpha   74.69680173
_cell_angle_beta   90.00000000
_cell_angle_gamma   90.00000000
_symmetry_Int_Tables_number   1
_chemical_formula_structural   Li2MnSi3O8
_chemical_formula_sum   'Li4 Mn2 Si6 O16'
_cell_volume   355.18048005
_cell_formula_units_Z   2
loop_
 _symmetry_equiv_pos_site_id
 _symmetry_equiv_pos_as_xyz
  1  'x, y, z'
loop_
 _atom_site_type_symbol
 _atom_site_label
 _atom_site_symmetry_multiplicity
 _atom_site_fract_x
 _atom_site_fract_y
 _atom_site_fract_z
 _atom_site_occupancy
  Li  Li0  1  0.67871300  0.84627800  0.77844600  1
  Li  Li1  1  0.16407300  0.58077800  0.50496100  1
  Li  Li2  1  0.66407300  0.41922200  0.49503900  1
  Li  Li3  1  0.17871300  0.15372200  0.22155400  1
  Mn  Mn4  1  0.00226400  0.04562400  0.59861800  1
  Mn  Mn5  1  0.50226400  0.95437600  0.40138200  1
  Si  Si6  1  0.49286000  0.41912900  0.98950100  1
  Si  Si7  1  0.80704100  0.24796000  0.89656700  1
  Si  Si8  1  0.33672300  0.15913500  0.73274000  1
  Si  Si9  1  0.83672300  0.84086500  0.26726000  1
  Si  Si10  1  0.30704100  0.75204000  0.10343300  1
  Si  Si11  1  0.99286000  0.58087100  0.01049900  1
  O  O12  1  0.25947500  0.98951700  0.94656300  1
  O  O13  1  0.96586800  0.32897600  0.99298900  1
  O  O14  1  0.67093700  0.43211700  0.89483700  1
  O  O15  1  0.96874300  0.74840600  0.79203700  1
  O  O16  1  0.37590100  0.38450000  0.80572900  1
  O  O17  1  0.82324700  0.23154100  0.66239100  1
  O  O18  1  0.49602200  0.06001200  0.66717500  1
  O  O19  1  0.20298400  0.22916500  0.55566000  1
  O  O20  1  0.70298400  0.77083500  0.44434000  1
  O  O21  1  0.99602200  0.93998800  0.33282500  1
  O  O22  1  0.32324700  0.76845900  0.33760900  1
  O  O23  1  0.87590100  0.61550000  0.19427100  1
  O  O24  1  0.46874300  0.25159400  0.20796300  1
  O  O25  1  0.17093700  0.56788300  0.10516300  1
  O  O26  1  0.46586800  0.67102400  0.00701100  1
  O  O27  1  0.75947500  0.01048300  0.05343700  1
