# generated using pymatgen
data_Li2VFe(P2O7)2
_symmetry_space_group_name_H-M   'P 1'
_cell_length_a   9.58671827
_cell_length_b   9.58702127
_cell_length_c   7.03812332
_cell_angle_alpha   99.47892878
_cell_angle_beta   99.46936277
_cell_angle_gamma   118.76568143
_symmetry_Int_Tables_number   1
_chemical_formula_structural   Li2VFe(P2O7)2
_chemical_formula_sum   'Li4 V2 Fe2 P8 O28'
_cell_volume   536.60335713
_cell_formula_units_Z   2
loop_
 _symmetry_equiv_pos_site_id
 _symmetry_equiv_pos_as_xyz
  1  'x, y, z'
loop_
 _atom_site_type_symbol
 _atom_site_label
 _atom_site_symmetry_multiplicity
 _atom_site_fract_x
 _atom_site_fract_y
 _atom_site_fract_z
 _atom_site_occupancy
  Li  Li0  1  0.15662132  0.01962953  0.67618941  1
  Li  Li1  1  0.73055691  0.09354089  0.32319300  1
  Li  Li2  1  0.23012365  0.59348663  0.32380427  1
  Li  Li3  1  0.65630652  0.51963795  0.67665166  1
  V  V4  1  0.85815111  0.35755380  0.72871260  1
  V  V5  1  0.89245008  0.89173362  0.27159613  1
  Fe  Fe6  1  0.39206556  0.39141521  0.26788228  1
  Fe  Fe7  1  0.35873604  0.85798706  0.73202581  1
  P  P8  1  0.11004514  0.29043443  0.52113859  1
  P  P9  1  0.75201791  0.03599092  0.91445160  1
  P  P10  1  0.25240585  0.53572900  0.91450224  1
  P  P11  1  0.45936050  0.14053525  0.47839619  1
  P  P12  1  0.60922580  0.78981743  0.52212387  1
  P  P13  1  0.71377159  0.49791068  0.08579174  1
  P  P14  1  0.21450706  0.99778581  0.08535664  1
  P  P15  1  0.96043845  0.64025594  0.47837269  1
  O  O16  1  0.07496525  0.11269570  0.48227603  1
  O  O17  1  0.35943779  0.03834542  0.60540781  1
  O  O18  1  0.58369718  0.01723439  0.91558349  1
  O  O19  1  0.08535673  0.51863399  0.91864849  1
  O  O20  1  0.22098279  0.37380181  0.75360523  1
  O  O21  1  0.37620996  0.02913337  0.24620437  1
  O  O22  1  0.23268927  0.16548079  0.08298163  1
  O  O23  1  0.21236306  0.39045665  0.39415776  1
  O  O24  1  0.45369524  0.29914545  0.49187532  1
  O  O25  1  0.13773464  0.67472544  0.51794854  1
  O  O26  1  0.63700443  0.17548896  0.51735643  1
  O  O27  1  0.86365661  0.18713368  0.85143475  1
  O  O28  1  0.36383483  0.68794890  0.85353586  1
  O  O29  1  0.21917457  0.91291027  0.88389303  1
  O  O30  1  0.71710495  0.41319164  0.88501101  1
  O  O31  1  0.33708814  0.53080258  0.11590390  1
  O  O32  1  0.83665455  0.03289340  0.11518561  1
  O  O33  1  0.06309153  0.88588689  0.14710112  1
  O  O34  1  0.56173698  0.38678040  0.14773061  1
  O  O35  1  0.57470932  0.61259023  0.48229400  1
  O  O36  1  0.45089831  0.79632147  0.50785665  1
  O  O37  1  0.95143905  0.29524403  0.50595993  1
  O  O38  1  0.85948873  0.53768972  0.60538826  1
  O  O39  1  0.72096756  0.87412328  0.75350928  1
  O  O40  1  0.87581507  0.52893036  0.24667281  1
  O  O41  1  0.73144892  0.66552302  0.08282567  1
  O  O42  1  0.71154518  0.89051564  0.39493782  1
  O  O43  1  0.95485089  0.79851037  0.49452687  1
