# generated using pymatgen
data_LiV6F13
_symmetry_space_group_name_H-M   'P 1'
_cell_length_a   8.06771000
_cell_length_b   8.11694138
_cell_length_c   10.23420133
_cell_angle_alpha   75.88533596
_cell_angle_beta   75.53344648
_cell_angle_gamma   62.43597098
_symmetry_Int_Tables_number   1
_chemical_formula_structural   LiV6F13
_chemical_formula_sum   'Li2 V12 F26'
_cell_volume   568.82190281
_cell_formula_units_Z   2
loop_
 _symmetry_equiv_pos_site_id
 _symmetry_equiv_pos_as_xyz
  1  'x, y, z'
loop_
 _atom_site_type_symbol
 _atom_site_label
 _atom_site_symmetry_multiplicity
 _atom_site_fract_x
 _atom_site_fract_y
 _atom_site_fract_z
 _atom_site_occupancy
  Li  Li0  1  0.21922700  0.65947200  0.05549800  1
  Li  Li1  1  0.78077300  0.34052800  0.94450200  1
  V  V2  1  0.06186000  0.05731900  0.23954300  1
  V  V3  1  0.27923500  0.13186200  0.50227200  1
  V  V4  1  0.42183700  0.21515900  0.02152700  1
  V  V5  1  0.15378700  0.58264600  0.50201800  1
  V  V6  1  0.50798600  0.24120400  0.72659000  1
  V  V7  1  0.61252200  0.33251300  0.25481600  1
  V  V8  1  0.38747800  0.66748700  0.74518400  1
  V  V9  1  0.49201400  0.75879600  0.27341000  1
  V  V10  1  0.84621300  0.41735400  0.49798200  1
  V  V11  1  0.57816300  0.78484100  0.97847300  1
  V  V12  1  0.72076500  0.86813800  0.49772800  1
  V  V13  1  0.93814000  0.94268100  0.76045700  1
  F  F14  1  0.01131600  0.16136100  0.62183700  1
  F  F15  1  0.15666000  0.24949000  0.11980100  1
  F  F16  1  0.11846200  0.39987800  0.39936900  1
  F  F17  1  0.29354700  0.31301300  0.61518400  1
  F  F18  1  0.40945800  0.41413500  0.12679200  1
  F  F19  1  0.16231500  0.74164500  0.63653400  1
  F  F20  1  0.54437300  0.11643700  0.38474000  1
  F  F21  1  0.29774300  0.82433500  0.13195500  1
  F  F22  1  0.42782400  0.05450500  0.87858000  1
  F  F23  1  0.41740100  0.54056300  0.38045700  1
  F  F24  1  0.32345800  0.44164800  0.86088900  1
  F  F25  1  0.15950200  0.82801400  0.88431800  1
  F  F26  1  0.26623300  0.97495600  0.37059600  1
  F  F27  1  0.73376700  0.02504400  0.62940400  1
  F  F28  1  0.84049800  0.17198600  0.11568200  1
  F  F29  1  0.67654200  0.55835200  0.13911100  1
  F  F30  1  0.58259900  0.45943700  0.61954300  1
  F  F31  1  0.57217600  0.94549500  0.12142000  1
  F  F32  1  0.70225700  0.17566500  0.86804500  1
  F  F33  1  0.45562700  0.88356300  0.61526000  1
  F  F34  1  0.83768500  0.25835500  0.36346600  1
  F  F35  1  0.59054200  0.58586500  0.87320800  1
  F  F36  1  0.70645300  0.68698700  0.38481600  1
  F  F37  1  0.88153800  0.60012200  0.60063100  1
  F  F38  1  0.84334000  0.75051000  0.88019900  1
  F  F39  1  0.98868400  0.83863900  0.37816300  1
