# generated using pymatgen
data_LiV(PO3)3
_symmetry_space_group_name_H-M   'P 1'
_cell_length_a   5.36107900
_cell_length_b   10.74898400
_cell_length_c   12.02187700
_cell_angle_alpha   90.00000000
_cell_angle_beta   90.00000000
_cell_angle_gamma   90.00000000
_symmetry_Int_Tables_number   1
_chemical_formula_structural   LiV(PO3)3
_chemical_formula_sum   'Li4 V4 P12 O36'
_cell_volume   692.77451606
_cell_formula_units_Z   4
loop_
 _symmetry_equiv_pos_site_id
 _symmetry_equiv_pos_as_xyz
  1  'x, y, z'
loop_
 _atom_site_type_symbol
 _atom_site_label
 _atom_site_symmetry_multiplicity
 _atom_site_fract_x
 _atom_site_fract_y
 _atom_site_fract_z
 _atom_site_occupancy
  Li  Li0  1  0.10960000  0.11244400  0.08673400  1
  Li  Li1  1  0.60960000  0.38755600  0.91326600  1
  Li  Li2  1  0.89040000  0.61244400  0.41326600  1
  Li  Li3  1  0.39040000  0.88755600  0.58673400  1
  V  V4  1  0.59791000  0.03464100  0.86929200  1
  V  V5  1  0.09791000  0.46535900  0.13070800  1
  V  V6  1  0.40209000  0.53464100  0.63070800  1
  V  V7  1  0.90209000  0.96535900  0.36929200  1
  P  P8  1  0.88178000  0.07348000  0.62606100  1
  P  P9  1  0.39910800  0.15286100  0.36155800  1
  P  P10  1  0.08232000  0.19489400  0.82151900  1
  P  P11  1  0.58232000  0.30510600  0.17848100  1
  P  P12  1  0.89910800  0.34713900  0.63844200  1
  P  P13  1  0.38178000  0.42652000  0.37393900  1
  P  P14  1  0.11822000  0.57348000  0.87393900  1
  P  P15  1  0.60089200  0.65286100  0.13844200  1
  P  P16  1  0.91768000  0.69489400  0.67848100  1
  P  P17  1  0.41768000  0.80510600  0.32151900  1
  P  P18  1  0.10089200  0.84713900  0.86155800  1
  P  P19  1  0.61822000  0.92652000  0.12606100  1
  O  O20  1  0.49279000  0.01189300  0.04374300  1
  O  O21  1  0.63410400  0.03676000  0.67615900  1
  O  O22  1  0.55298400  0.06340000  0.42837000  1
  O  O23  1  0.08000600  0.08739100  0.72749500  1
  O  O24  1  0.14106100  0.11794800  0.32434000  1
  O  O25  1  0.85012700  0.19198400  0.89285800  1
  O  O26  1  0.33131100  0.18784800  0.87785800  1
  O  O27  1  0.57203200  0.18211700  0.25345300  1
  O  O28  1  0.88551800  0.21346300  0.57595700  1
  O  O29  1  0.38551800  0.28653700  0.42404300  1
  O  O30  1  0.07203200  0.31788300  0.74654700  1
  O  O31  1  0.83131100  0.31215200  0.12214200  1
  O  O32  1  0.35012700  0.30801600  0.10714200  1
  O  O33  1  0.64106100  0.38205200  0.67566000  1
  O  O34  1  0.58000600  0.41260900  0.27250500  1
  O  O35  1  0.05298400  0.43660000  0.57163000  1
  O  O36  1  0.13410400  0.46324000  0.32384100  1
  O  O37  1  0.99279000  0.48810700  0.95625700  1
  O  O38  1  0.50721000  0.51189300  0.45625700  1
  O  O39  1  0.36589600  0.53676000  0.82384100  1
  O  O40  1  0.44701600  0.56340000  0.07163000  1
  O  O41  1  0.91999400  0.58739100  0.77250500  1
  O  O42  1  0.85893900  0.61794800  0.17566000  1
  O  O43  1  0.14987300  0.69198400  0.60714200  1
  O  O44  1  0.66868900  0.68784800  0.62214200  1
  O  O45  1  0.42796800  0.68211700  0.24654700  1
  O  O46  1  0.11448200  0.71346300  0.92404300  1
  O  O47  1  0.61448200  0.78653700  0.07595700  1
  O  O48  1  0.92796800  0.81788300  0.75345300  1
  O  O49  1  0.16868900  0.81215200  0.37785800  1
  O  O50  1  0.64987300  0.80801600  0.39285800  1
  O  O51  1  0.35893900  0.88205200  0.82434000  1
  O  O52  1  0.41999400  0.91260900  0.22749500  1
  O  O53  1  0.94701600  0.93660000  0.92837000  1
  O  O54  1  0.86589600  0.96324000  0.17615900  1
  O  O55  1  0.00721000  0.98810700  0.54374300  1
