# generated using pymatgen
data_LiLa3Ti2O9
_symmetry_space_group_name_H-M   'P 1'
_cell_length_a   5.64916800
_cell_length_b   7.90302700
_cell_length_c   18.50987092
_cell_angle_alpha   64.82142635
_cell_angle_beta   90.00000000
_cell_angle_gamma   90.00000000
_symmetry_Int_Tables_number   1
_chemical_formula_structural   LiLa3Ti2O9
_chemical_formula_sum   'Li4 La12 Ti8 O36'
_cell_volume   747.86517356
_cell_formula_units_Z   4
loop_
 _symmetry_equiv_pos_site_id
 _symmetry_equiv_pos_as_xyz
  1  'x, y, z'
loop_
 _atom_site_type_symbol
 _atom_site_label
 _atom_site_symmetry_multiplicity
 _atom_site_fract_x
 _atom_site_fract_y
 _atom_site_fract_z
 _atom_site_occupancy
  Li  Li0  1  0.49892900  0.33327200  0.66555800  1
  Li  Li1  1  0.50107100  0.66672800  0.33444200  1
  Li  Li2  1  0.00107100  0.33327200  0.16555800  1
  Li  Li3  1  0.99892900  0.66672800  0.83444200  1
  La  La4  1  0.95804500  0.09166800  0.66776100  1
  La  La5  1  0.46801900  0.25843800  0.50296800  1
  La  La6  1  0.53198100  0.74156200  0.49703200  1
  La  La7  1  0.04195500  0.90833200  0.33223900  1
  La  La8  1  0.94950600  0.42658600  0.32782300  1
  La  La9  1  0.44950600  0.57341400  0.17217700  1
  La  La10  1  0.54195500  0.09166800  0.16776100  1
  La  La11  1  0.03198100  0.25843800  0.00296800  1
  La  La12  1  0.96801900  0.74156200  0.99703200  1
  La  La13  1  0.45804500  0.90833200  0.83223900  1
  La  La14  1  0.55049400  0.42658600  0.82782300  1
  La  La15  1  0.05049400  0.57341400  0.67217700  1
  Ti  Ti16  1  0.50842800  0.82708500  0.66902200  1
  Ti  Ti17  1  0.00000000  0.50000000  0.50000000  1
  Ti  Ti18  1  0.00000000  0.00000000  0.50000000  1
  Ti  Ti19  1  0.49157200  0.17291500  0.33097800  1
  Ti  Ti20  1  0.99157200  0.82708500  0.16902200  1
  Ti  Ti21  1  0.50000000  0.00000000  0.00000000  1
  Ti  Ti22  1  0.50000000  0.50000000  0.00000000  1
  Ti  Ti23  1  0.00842800  0.17291500  0.83097800  1
  O  O24  1  0.47393700  0.62579700  0.63595000  1
  O  O25  1  0.19622600  0.36386300  0.59289200  1
  O  O26  1  0.20518000  0.95343500  0.59270200  1
  O  O27  1  0.72043100  0.39466700  0.56581400  1
  O  O28  1  0.71731900  0.97550300  0.56763600  1
  O  O29  1  0.98547100  0.72532700  0.52789100  1
  O  O30  1  0.01452900  0.27467300  0.47210900  1
  O  O31  1  0.28268100  0.02449700  0.43236400  1
  O  O32  1  0.27956900  0.60533300  0.43418600  1
  O  O33  1  0.79482000  0.04656500  0.40729800  1
  O  O34  1  0.80377400  0.63613700  0.40710800  1
  O  O35  1  0.52606300  0.37420300  0.36405000  1
  O  O36  1  0.47870400  0.95307600  0.30919900  1
  O  O37  1  0.19827800  0.70039800  0.25699300  1
  O  O38  1  0.21807600  0.27772400  0.26910800  1
  O  O39  1  0.71807600  0.72227600  0.23089200  1
  O  O40  1  0.69827800  0.29960200  0.24300700  1
  O  O41  1  0.97870400  0.04692400  0.19080100  1
  O  O42  1  0.02606300  0.62579700  0.13595000  1
  O  O43  1  0.30377400  0.36386300  0.09289200  1
  O  O44  1  0.29482000  0.95343500  0.09270200  1
  O  O45  1  0.77956900  0.39466700  0.06581400  1
  O  O46  1  0.78268100  0.97550300  0.06763600  1
  O  O47  1  0.51452900  0.72532700  0.02789100  1
  O  O48  1  0.48547100  0.27467300  0.97210900  1
  O  O49  1  0.21731900  0.02449700  0.93236400  1
  O  O50  1  0.22043100  0.60533300  0.93418600  1
  O  O51  1  0.70518000  0.04656500  0.90729800  1
  O  O52  1  0.69622600  0.63613700  0.90710800  1
  O  O53  1  0.97393700  0.37420300  0.86405000  1
  O  O54  1  0.02129600  0.95307600  0.80919900  1
  O  O55  1  0.30172200  0.70039800  0.75699300  1
  O  O56  1  0.28192400  0.27772400  0.76910800  1
  O  O57  1  0.78192400  0.72227600  0.73089200  1
  O  O58  1  0.80172200  0.29960200  0.74300700  1
  O  O59  1  0.52129600  0.04692400  0.69080100  1
