# generated using pymatgen
data_LiCo2(CO3)3
_symmetry_space_group_name_H-M   'P 1'
_cell_length_a   7.39989200
_cell_length_b   7.54647124
_cell_length_c   7.59058769
_cell_angle_alpha   110.20907016
_cell_angle_beta   108.13941135
_cell_angle_gamma   108.21464655
_symmetry_Int_Tables_number   1
_chemical_formula_structural   LiCo2(CO3)3
_chemical_formula_sum   'Li2 Co4 C6 O18'
_cell_volume   333.44192262
_cell_formula_units_Z   2
loop_
 _symmetry_equiv_pos_site_id
 _symmetry_equiv_pos_as_xyz
  1  'x, y, z'
loop_
 _atom_site_type_symbol
 _atom_site_label
 _atom_site_symmetry_multiplicity
 _atom_site_fract_x
 _atom_site_fract_y
 _atom_site_fract_z
 _atom_site_occupancy
  Li  Li0  1  0.63940000  0.10437200  0.36177700  1
  Li  Li1  1  0.16801200  0.42750300  0.72541400  1
  Co  Co2  1  0.95834500  0.82977600  0.45624400  1
  Co  Co3  1  0.84164300  0.46663100  0.96294300  1
  Co  Co4  1  0.57086600  0.55367200  0.57495200  1
  Co  Co5  1  0.46647200  0.96377000  0.84043400  1
  C  C6  1  0.83069800  0.06621400  0.74157100  1
  C  C7  1  0.76628300  0.84477200  0.08334500  1
  C  C8  1  0.61809700  0.41466600  0.20400000  1
  C  C9  1  0.39104900  0.19381600  0.60417400  1
  C  C10  1  0.20424600  0.60482200  0.41923300  1
  C  C11  1  0.07708300  0.76060500  0.82450000  1
  O  O12  1  0.89048000  0.05301900  0.59156600  1
  O  O13  1  0.94430600  0.93008500  0.25558800  1
  O  O14  1  0.94065800  0.24046200  0.91690100  1
  O  O15  1  0.60757900  0.29790900  0.02282500  1
  O  O16  1  0.92220500  0.72518800  0.65291800  1
  O  O17  1  0.66640600  0.61451100  0.25945500  1
  O  O18  1  0.57899800  0.33424400  0.31846300  1
  O  O19  1  0.58398300  0.23568100  0.62567200  1
  O  O20  1  0.64757100  0.94171800  0.08144200  1
  O  O21  1  0.71142100  0.67320700  0.91601800  1
  O  O22  1  0.65547900  0.91027200  0.70199000  1
  O  O23  1  0.28189300  0.02355800  0.61284900  1
  O  O24  1  0.31582300  0.31961700  0.58211500  1
  O  O25  1  0.30831900  0.53752200  0.33675200  1
  O  O26  1  0.25482100  0.65804300  0.61936600  1
  O  O27  1  0.03970500  0.62549500  0.30916900  1
  O  O28  1  0.24978300  0.94363000  0.93856400  1
  O  O29  1  0.05797100  0.61222900  0.87566500  1
