# generated using pymatgen
data_LiVF5
_symmetry_space_group_name_H-M   'P 1'
_cell_length_a   6.22491400
_cell_length_b   7.55559200
_cell_length_c   7.93424200
_cell_angle_alpha   90.00000000
_cell_angle_beta   90.00000000
_cell_angle_gamma   90.00000000
_symmetry_Int_Tables_number   1
_chemical_formula_structural   LiVF5
_chemical_formula_sum   'Li4 V4 F20'
_cell_volume   373.17049323
_cell_formula_units_Z   4
loop_
 _symmetry_equiv_pos_site_id
 _symmetry_equiv_pos_as_xyz
  1  'x, y, z'
loop_
 _atom_site_type_symbol
 _atom_site_label
 _atom_site_symmetry_multiplicity
 _atom_site_fract_x
 _atom_site_fract_y
 _atom_site_fract_z
 _atom_site_occupancy
  Li  Li0  1  0.78714300  0.25000000  0.57489900  1
  Li  Li1  1  0.71285700  0.75000000  0.07489900  1
  Li  Li2  1  0.28714300  0.25000000  0.92510100  1
  Li  Li3  1  0.21285700  0.75000000  0.42510100  1
  V  V4  1  0.76351700  0.75000000  0.59991800  1
  V  V5  1  0.73648300  0.25000000  0.09991800  1
  V  V6  1  0.26351700  0.75000000  0.90008200  1
  V  V7  1  0.23648300  0.25000000  0.40008200  1
  F  F8  1  0.99522700  0.25000000  0.98972300  1
  F  F9  1  0.90407700  0.75000000  0.39437100  1
  F  F10  1  0.91527000  0.25000000  0.31601700  1
  F  F11  1  0.77976600  0.98691200  0.62839100  1
  F  F12  1  0.77976600  0.51308800  0.62839100  1
  F  F13  1  0.72023400  0.01308800  0.12839100  1
  F  F14  1  0.72023400  0.48691200  0.12839100  1
  F  F15  1  0.58473000  0.75000000  0.81601700  1
  F  F16  1  0.59592300  0.25000000  0.89437100  1
  F  F17  1  0.50477300  0.75000000  0.48972300  1
  F  F18  1  0.49522700  0.25000000  0.51027700  1
  F  F19  1  0.40407700  0.75000000  0.10562900  1
  F  F20  1  0.41527000  0.25000000  0.18398300  1
  F  F21  1  0.27976600  0.51308800  0.87160900  1
  F  F22  1  0.27976600  0.98691200  0.87160900  1
  F  F23  1  0.22023400  0.01308800  0.37160900  1
  F  F24  1  0.22023400  0.48691200  0.37160900  1
  F  F25  1  0.08473000  0.75000000  0.68398300  1
  F  F26  1  0.09592300  0.25000000  0.60562900  1
  F  F27  1  0.00477300  0.75000000  0.01027700  1
