# generated using pymatgen
data_Li17V16O32
_symmetry_space_group_name_H-M   'P 1'
_cell_length_a   8.51234158
_cell_length_b   8.51234158
_cell_length_c   10.39933279
_cell_angle_alpha   66.03502700
_cell_angle_beta   66.03502700
_cell_angle_gamma   90.07963546
_symmetry_Int_Tables_number   1
_chemical_formula_structural   Li17V16O32
_chemical_formula_sum   'Li17 V16 O32'
_cell_volume   616.60097724
_cell_formula_units_Z   1
loop_
 _symmetry_equiv_pos_site_id
 _symmetry_equiv_pos_as_xyz
  1  'x, y, z'
loop_
 _atom_site_type_symbol
 _atom_site_label
 _atom_site_symmetry_multiplicity
 _atom_site_fract_x
 _atom_site_fract_y
 _atom_site_fract_z
 _atom_site_occupancy
  Li  Li0  1  0.76043300  0.25216400  0.99531500  1
  Li  Li1  1  0.25216400  0.76043300  0.99531500  1
  Li  Li2  1  0.50175900  0.99334900  0.99384300  1
  Li  Li3  1  0.99334900  0.50175900  0.99384300  1
  Li  Li4  1  0.63103300  0.86884700  0.25168400  1
  Li  Li5  1  0.10848600  0.42225600  0.21434900  1
  Li  Li6  1  0.42225600  0.10848600  0.21434900  1
  Li  Li7  1  0.86884700  0.63103300  0.25168400  1
  Li  Li8  1  0.18675000  0.18675000  0.37514500  1
  Li  Li9  1  0.50505800  0.50505800  0.49964400  1
  Li  Li10  1  0.94987800  0.94987800  0.53239100  1
  Li  Li11  1  0.26597800  0.26597800  0.53557800  1
  Li  Li12  1  0.74755800  0.74755800  0.49593000  1
  Li  Li13  1  0.12218100  0.37536200  0.75678800  1
  Li  Li14  1  0.87398300  0.61599400  0.75379800  1
  Li  Li15  1  0.37536200  0.12218100  0.75678800  1
  Li  Li16  1  0.61599400  0.87398300  0.75379800  1
  V  V17  1  0.49831500  0.49831500  0.99991600  1
  V  V18  1  0.74936600  0.74936600  0.00089000  1
  V  V19  1  0.99704300  0.99704300  0.00630400  1
  V  V20  1  0.25113500  0.25113500  0.00043300  1
  V  V21  1  0.62260300  0.37408200  0.25028600  1
  V  V22  1  0.12549100  0.87338800  0.24689700  1
  V  V23  1  0.87338800  0.12549100  0.24689700  1
  V  V24  1  0.37408200  0.62260300  0.25028600  1
  V  V25  1  0.75212100  0.24884900  0.49849700  1
  V  V26  1  0.99954000  0.49524500  0.50172300  1
  V  V27  1  0.24884900  0.75212100  0.49849700  1
  V  V28  1  0.49524500  0.99954000  0.50172300  1
  V  V29  1  0.12432200  0.87488700  0.75094400  1
  V  V30  1  0.37637700  0.62623100  0.74767500  1
  V  V31  1  0.62623100  0.37637700  0.74767500  1
  V  V32  1  0.87488700  0.12432200  0.75094400  1
  O  O33  1  0.00674500  0.24456500  0.00868200  1
  O  O34  1  0.50496700  0.73481400  0.00370600  1
  O  O35  1  0.24456500  0.00674500  0.00868200  1
  O  O36  1  0.73481400  0.50496700  0.00370600  1
  O  O37  1  0.38312000  0.38312000  0.24731300  1
  O  O38  1  0.88175800  0.88175800  0.25463500  1
  O  O39  1  0.61991700  0.61991700  0.24463400  1
  O  O40  1  0.12748600  0.12748600  0.23981700  1
  O  O41  1  0.86300100  0.36471000  0.25299200  1
  O  O42  1  0.12775700  0.62011800  0.26035900  1
  O  O43  1  0.36471000  0.86300100  0.25299200  1
  O  O44  1  0.62011800  0.12775700  0.26035900  1
  O  O45  1  0.00949900  0.74207100  0.49334400  1
  O  O46  1  0.51344700  0.24760900  0.49175500  1
  O  O47  1  0.74207100  0.00949900  0.49334400  1
  O  O48  1  0.24760900  0.51344700  0.49175500  1
  O  O49  1  0.25150400  0.98760600  0.50528000  1
  O  O50  1  0.75302700  0.48465400  0.50629900  1
  O  O51  1  0.98760600  0.25150400  0.50528000  1
  O  O52  1  0.48465400  0.75302700  0.50629900  1
  O  O53  1  0.63590000  0.13574200  0.74551400  1
  O  O54  1  0.87389500  0.37180100  0.74172500  1
  O  O55  1  0.13574200  0.63590000  0.74551400  1
  O  O56  1  0.37180100  0.87389500  0.74172500  1
  O  O57  1  0.87504400  0.87504400  0.75847000  1
  O  O58  1  0.37593200  0.37593200  0.75879100  1
  O  O59  1  0.61322900  0.61322900  0.75200700  1
  O  O60  1  0.11290200  0.11290200  0.75568900  1
  O  O61  1  0.50057300  0.26284200  0.99155800  1
  O  O62  1  0.99383000  0.75228100  0.99330600  1
  O  O63  1  0.75228100  0.99383000  0.99330600  1
  O  O64  1  0.26284200  0.50057300  0.99155800  1
