# generated using pymatgen
data_Li4Cr3FeO8
_symmetry_space_group_name_H-M   'P 1'
_cell_length_a   5.12507900
_cell_length_b   5.88290632
_cell_length_c   10.60529652
_cell_angle_alpha   73.90845829
_cell_angle_beta   76.19410882
_cell_angle_gamma   73.30518593
_symmetry_Int_Tables_number   1
_chemical_formula_structural   Li4Cr3FeO8
_chemical_formula_sum   'Li8 Cr6 Fe2 O16'
_cell_volume   289.85002393
_cell_formula_units_Z   2
loop_
 _symmetry_equiv_pos_site_id
 _symmetry_equiv_pos_as_xyz
  1  'x, y, z'
loop_
 _atom_site_type_symbol
 _atom_site_label
 _atom_site_symmetry_multiplicity
 _atom_site_fract_x
 _atom_site_fract_y
 _atom_site_fract_z
 _atom_site_occupancy
  Li  Li0  1  0.99699400  0.31370300  0.62562800  1
  Li  Li1  1  0.00215400  0.93642000  0.87483200  1
  Li  Li2  1  0.00300600  0.68629700  0.37437200  1
  Li  Li3  1  0.99784600  0.06358000  0.12516800  1
  Li  Li4  1  0.00013600  0.81132000  0.62587500  1
  Li  Li5  1  0.00068600  0.43854500  0.87374300  1
  Li  Li6  1  0.99986400  0.18868000  0.37412500  1
  Li  Li7  1  0.99931400  0.56145500  0.12625700  1
  Cr  Cr8  1  0.49997800  0.12488500  0.75018300  1
  Cr  Cr9  1  0.50000000  0.50000000  0.50000000  1
  Cr  Cr10  1  0.50002200  0.87511500  0.24981700  1
  Cr  Cr11  1  0.49997800  0.25190200  0.00003700  1
  Cr  Cr12  1  0.50000000  0.00000000  0.50000000  1
  Cr  Cr13  1  0.50002200  0.74809800  0.99996300  1
  Fe  Fe14  1  0.50004100  0.62505600  0.74992900  1
  Fe  Fe15  1  0.49995900  0.37494400  0.25007100  1
  O  O16  1  0.27539000  0.70933200  0.18655500  1
  O  O17  1  0.72381500  0.53388200  0.31354700  1
  O  O18  1  0.27618500  0.46611800  0.68645300  1
  O  O19  1  0.72461000  0.29066800  0.81344500  1
  O  O20  1  0.72653600  0.91110300  0.06427400  1
  O  O21  1  0.27346400  0.08889700  0.93572600  1
  O  O22  1  0.27334200  0.83888800  0.43544800  1
  O  O23  1  0.72468800  0.66033300  0.56677500  1
  O  O24  1  0.27596000  0.21646600  0.18640600  1
  O  O25  1  0.72442600  0.04039000  0.31344000  1
  O  O26  1  0.27557400  0.95961000  0.68656000  1
  O  O27  1  0.72404000  0.78353400  0.81359400  1
  O  O28  1  0.27510500  0.58966600  0.93302100  1
  O  O29  1  0.27531200  0.33966700  0.43322500  1
  O  O30  1  0.72489500  0.41033400  0.06697900  1
  O  O31  1  0.72665800  0.16111200  0.56455200  1
