# generated using pymatgen
data_Li2TiCr(PO4)3
_symmetry_space_group_name_H-M   'P 1'
_cell_length_a   8.76676800
_cell_length_b   8.63123100
_cell_length_c   14.70878636
_cell_angle_alpha   54.45699609
_cell_angle_beta   90.00000000
_cell_angle_gamma   90.00000000
_symmetry_Int_Tables_number   1
_chemical_formula_structural   Li2TiCr(PO4)3
_chemical_formula_sum   'Li8 Ti4 Cr4 P12 O48'
_cell_volume   905.61255410
_cell_formula_units_Z   4
loop_
 _symmetry_equiv_pos_site_id
 _symmetry_equiv_pos_as_xyz
  1  'x, y, z'
loop_
 _atom_site_type_symbol
 _atom_site_label
 _atom_site_symmetry_multiplicity
 _atom_site_fract_x
 _atom_site_fract_y
 _atom_site_fract_z
 _atom_site_occupancy
  Li  Li0  1  0.78323600  0.95135200  0.82903700  1
  Li  Li1  1  0.71998900  0.59989800  0.17718300  1
  Li  Li2  1  0.28323600  0.04864800  0.67096300  1
  Li  Li3  1  0.21998900  0.40010200  0.32281700  1
  Li  Li4  1  0.71676400  0.95135200  0.32903700  1
  Li  Li5  1  0.78001100  0.59989800  0.67718300  1
  Li  Li6  1  0.21676400  0.04864800  0.17096300  1
  Li  Li7  1  0.28001100  0.40010200  0.82281700  1
  Ti  Ti8  1  0.95720600  0.13733400  0.61492600  1
  Ti  Ti9  1  0.45720600  0.86266600  0.88507400  1
  Ti  Ti10  1  0.54279400  0.13733400  0.11492600  1
  Ti  Ti11  1  0.04279400  0.86266600  0.38507400  1
  Cr  Cr12  1  0.53727100  0.36944900  0.38176700  1
  Cr  Cr13  1  0.03727100  0.63055100  0.11823300  1
  Cr  Cr14  1  0.96272900  0.36944900  0.88176700  1
  Cr  Cr15  1  0.46272900  0.63055100  0.61823300  1
  P  P16  1  0.25268700  0.46164600  0.50299700  1
  P  P17  1  0.11009300  0.04227100  0.85558500  1
  P  P18  1  0.38695300  0.75096300  0.14665100  1
  P  P19  1  0.61009300  0.95772900  0.64441500  1
  P  P20  1  0.88695300  0.24903700  0.35334900  1
  P  P21  1  0.75268700  0.53835400  0.99700300  1
  P  P22  1  0.24731300  0.46164600  0.00299700  1
  P  P23  1  0.11304700  0.75096300  0.64665100  1
  P  P24  1  0.38990700  0.04227100  0.35558500  1
  P  P25  1  0.61304700  0.24903700  0.85334900  1
  P  P26  1  0.88990700  0.95772900  0.14441500  1
  P  P27  1  0.74731300  0.53835400  0.49700300  1
  O  O28  1  0.85080600  0.36141300  0.57149100  1
  O  O29  1  0.65263800  0.52884200  0.41435900  1
  O  O30  1  0.60401900  0.07784700  0.84513700  1
  O  O31  1  0.88948500  0.76888900  0.15561800  1
  O  O32  1  0.15062100  0.27918400  0.57261900  1
  O  O33  1  0.34356100  0.43689600  0.42296700  1
  O  O34  1  0.07503400  0.87193200  0.97280000  1
  O  O35  1  0.41977100  0.82479900  0.02354700  1
  O  O36  1  0.27164200  0.02302300  0.81672000  1
  O  O37  1  0.22670900  0.66376000  0.18374500  1
  O  O38  1  0.51088000  0.60277600  0.21923400  1
  O  O39  1  0.98845600  0.05178800  0.77452800  1
  O  O40  1  0.01088000  0.39722400  0.28076600  1
  O  O41  1  0.48845600  0.94821200  0.72547200  1
  O  O42  1  0.77164200  0.97697700  0.68328000  1
  O  O43  1  0.72670900  0.33624000  0.31625500  1
  O  O44  1  0.57503400  0.12806800  0.52720000  1
  O  O45  1  0.91977100  0.17520100  0.47645300  1
  O  O46  1  0.65062100  0.72081600  0.92738100  1
  O  O47  1  0.84356100  0.56310400  0.07703300  1
  O  O48  1  0.10401900  0.92215300  0.65486300  1
  O  O49  1  0.38948500  0.23111100  0.34438200  1
  O  O50  1  0.35080600  0.63858700  0.92850900  1
  O  O51  1  0.15263800  0.47115800  0.08564100  1
  O  O52  1  0.64919400  0.36141300  0.07149100  1
  O  O53  1  0.84736200  0.52884200  0.91435900  1
  O  O54  1  0.61051500  0.76888900  0.65561800  1
  O  O55  1  0.89598100  0.07784700  0.34513700  1
  O  O56  1  0.15643900  0.43689600  0.92296700  1
  O  O57  1  0.34937900  0.27918400  0.07261900  1
  O  O58  1  0.08022900  0.82479900  0.52354700  1
  O  O59  1  0.42496600  0.87193200  0.47280000  1
  O  O60  1  0.22835800  0.02302300  0.31672000  1
  O  O61  1  0.27329100  0.66376000  0.68374500  1
  O  O62  1  0.51154400  0.05178800  0.27452800  1
  O  O63  1  0.98912000  0.60277600  0.71923400  1
  O  O64  1  0.01154400  0.94821200  0.22547200  1
  O  O65  1  0.48912000  0.39722400  0.78076600  1
  O  O66  1  0.77329100  0.33624000  0.81625500  1
  O  O67  1  0.72835800  0.97697700  0.18328000  1
  O  O68  1  0.58022900  0.17520100  0.97645300  1
  O  O69  1  0.92496600  0.12806800  0.02720000  1
  O  O70  1  0.65643900  0.56310400  0.57703300  1
  O  O71  1  0.84937900  0.72081600  0.42738100  1
  O  O72  1  0.11051500  0.23111100  0.84438200  1
  O  O73  1  0.39598100  0.92215300  0.15486300  1
  O  O74  1  0.14919400  0.63858700  0.42850900  1
  O  O75  1  0.34736200  0.47115800  0.58564100  1
