# generated using pymatgen
data_Li14V9(P2O7)8
_symmetry_space_group_name_H-M   'P 1'
_cell_length_a   10.87005716
_cell_length_b   9.76494458
_cell_length_c   12.98219736
_cell_angle_alpha   69.42382497
_cell_angle_beta   116.77764351
_cell_angle_gamma   107.91085067
_symmetry_Int_Tables_number   1
_chemical_formula_structural   Li14V9(P2O7)8
_chemical_formula_sum   'Li14 V9 P16 O56'
_cell_volume   1133.24738499
_cell_formula_units_Z   1
loop_
 _symmetry_equiv_pos_site_id
 _symmetry_equiv_pos_as_xyz
  1  'x, y, z'
loop_
 _atom_site_type_symbol
 _atom_site_label
 _atom_site_symmetry_multiplicity
 _atom_site_fract_x
 _atom_site_fract_y
 _atom_site_fract_z
 _atom_site_occupancy
  Li  Li0  1  0.01946751  0.14842127  0.88978943  1
  Li  Li1  1  0.12554476  0.93042648  0.58781644  1
  Li  Li2  1  0.37192962  0.04766532  0.91171766  1
  Li  Li3  1  0.13165745  0.42617019  0.09303408  1
  Li  Li4  1  0.37421056  0.54756323  0.41052029  1
  Li  Li5  1  0.50042785  0.36779926  0.81684056  1
  Li  Li6  1  0.49064358  0.86618891  0.32103324  1
  Li  Li7  1  0.50935642  0.13381109  0.67896676  1
  Li  Li8  1  0.49957215  0.63220074  0.18315944  1
  Li  Li9  1  0.62578944  0.45243677  0.58947971  1
  Li  Li10  1  0.86834255  0.57382981  0.90696592  1
  Li  Li11  1  0.62807038  0.95233468  0.08828234  1
  Li  Li12  1  0.87445524  0.06957352  0.41218456  1
  Li  Li13  1  0.98053249  0.85157873  0.11021057  1
  V  V14  1  0.22791502  0.70026875  0.92345884  1
  V  V15  1  0.00000000  0.50000000  0.50000000  1
  V  V16  1  0.26711610  0.56668297  0.70513591  1
  V  V17  1  0.22530271  0.19839998  0.42275117  1
  V  V18  1  0.74319056  0.93729389  0.80263429  1
  V  V19  1  0.25680944  0.06270611  0.19736571  1
  V  V20  1  0.77469729  0.80160002  0.57724883  1
  V  V21  1  0.73288390  0.43331703  0.29486409  1
  V  V22  1  0.77208498  0.29973125  0.07654116  1
  P  P23  1  0.05087933  0.97163167  0.77041505  1
  P  P24  1  0.30285472  0.35826324  0.98949214  1
  P  P25  1  0.04945466  0.47073033  0.27151588  1
  P  P26  1  0.46297332  0.81218806  0.86410323  1
  P  P27  1  0.20487639  0.23202099  0.66043404  1
  P  P28  1  0.29458970  0.85072788  0.48679090  1
  P  P29  1  0.20671463  0.72792286  0.16135467  1
  P  P30  1  0.53840904  0.69296541  0.63515389  1
  P  P31  1  0.46159096  0.30703459  0.36484611  1
  P  P32  1  0.79328537  0.27207714  0.83864533  1
  P  P33  1  0.70541030  0.14927212  0.51320910  1
  P  P34  1  0.79512361  0.76797901  0.33956596  1
  P  P35  1  0.53702668  0.18781194  0.13589677  1
  P  P36  1  0.95054534  0.52926967  0.72848412  1
  P  P37  1  0.69714528  0.64173676  0.01050786  1
  P  P38  1  0.94912067  0.02836833  0.22958495  1
  O  O39  1  0.01844944  0.59555045  0.83629946  1
  O  O40  1  0.19004138  0.92077706  0.85649665  1
  O  O41  1  0.04783103  0.54911585  0.66613207  1
  O  O42  1  0.09449094  0.15233063  0.72660149  1
  O  O43  1  0.31271197  0.75022836  0.78577403  1
  O  O44  1  0.45494207  0.84328426  0.97053468  1
  O  O45  1  0.19850122  0.70203453  0.51714202  1
  O  O46  1  0.27177786  0.97557642  0.51922375  1
  O  O47  1  0.31027437  0.40042906  0.86822901  1
  O  O48  1  0.18255169  0.39400941  0.61043925  1
  O  O49  1  0.08944238  0.65051705  0.22346633  1
  O  O50  1  0.01515481  0.09314622  0.33851862  1
  O  O51  1  0.15462001  0.15378305  0.56117523  1
  O  O52  1  0.30226637  0.89286451  0.36566886  1
  O  O53  1  0.18922937  0.42191953  0.35766572  1
  O  O54  1  0.18034330  0.88657491  0.11090664  1
  O  O55  1  0.53909253  0.94419257  0.79755509  1
  O  O56  1  0.54199055  0.67459863  0.91335037  1
  O  O57  1  0.35245366  0.20972541  0.75143849  1
  O  O58  1  0.04447129  0.04106474  0.16892543  1
  O  O59  1  0.15907152  0.64672716  0.06442511  1
  O  O60  1  0.45417644  0.82663264  0.58383419  1
  O  O61  1  0.46522992  0.55904465  0.70334916  1
  O  O62  1  0.35280138  0.70211721  0.25506363  1
  O  O63  1  0.71619249  0.51671711  0.97583889  1
  O  O64  1  0.80016788  0.78598797  0.98715609  1
  O  O65  1  0.31179932  0.24350472  0.28694852  1
  O  O66  1  0.45259281  0.33923551  0.47063869  1
  O  O67  1  0.54740719  0.66076449  0.52936131  1
  O  O68  1  0.68820068  0.75649528  0.71305148  1
  O  O69  1  0.19983212  0.21401203  0.01284391  1
  O  O70  1  0.28380751  0.48328289  0.02416111  1
  O  O71  1  0.64719862  0.29788279  0.74493637  1
  O  O72  1  0.53477008  0.44095535  0.29665084  1
  O  O73  1  0.54582356  0.17336736  0.41616581  1
  O  O74  1  0.84092848  0.35327284  0.93557489  1
  O  O75  1  0.95552871  0.95893526  0.83107457  1
  O  O76  1  0.64754634  0.79027459  0.24856151  1
  O  O77  1  0.45800945  0.32540137  0.08664963  1
  O  O78  1  0.46090747  0.05580743  0.20244491  1
  O  O79  1  0.81965670  0.11342509  0.88909336  1
  O  O80  1  0.81077063  0.57808047  0.64233428  1
  O  O81  1  0.69773363  0.10713549  0.63433114  1
  O  O82  1  0.84537999  0.84621695  0.43882477  1
  O  O83  1  0.98484519  0.90685378  0.66148138  1
  O  O84  1  0.91055762  0.34948295  0.77653367  1
  O  O85  1  0.81744831  0.60599059  0.38956075  1
  O  O86  1  0.68972563  0.59957094  0.13177099  1
  O  O87  1  0.72822214  0.02442358  0.48077625  1
  O  O88  1  0.80149878  0.29796547  0.48285798  1
  O  O89  1  0.54505793  0.15671574  0.02946532  1
  O  O90  1  0.68728803  0.24977164  0.21422597  1
  O  O91  1  0.90550906  0.84766937  0.27339851  1
  O  O92  1  0.95216897  0.45088415  0.33386793  1
  O  O93  1  0.80995862  0.07922294  0.14350335  1
  O  O94  1  0.98155056  0.40444955  0.16370054  1
