# generated using pymatgen
data_Li5V3P8O29
_symmetry_space_group_name_H-M   'P 1'
_cell_length_a   9.77823300
_cell_length_b   9.78497027
_cell_length_c   14.04448987
_cell_angle_alpha   89.92014778
_cell_angle_beta   90.21692463
_cell_angle_gamma   119.78990292
_symmetry_Int_Tables_number   1
_chemical_formula_structural   Li5V3P8O29
_chemical_formula_sum   'Li10 V6 P16 O58'
_cell_volume   1166.18878167
_cell_formula_units_Z   2
loop_
 _symmetry_equiv_pos_site_id
 _symmetry_equiv_pos_as_xyz
  1  'x, y, z'
loop_
 _atom_site_type_symbol
 _atom_site_label
 _atom_site_symmetry_multiplicity
 _atom_site_fract_x
 _atom_site_fract_y
 _atom_site_fract_z
 _atom_site_occupancy
  Li  Li0  1  0.90687800  0.67924400  0.44446300  1
  Li  Li1  1  0.31909100  0.22759600  0.44337200  1
  Li  Li2  1  0.33436100  0.09824800  0.93927500  1
  Li  Li3  1  0.89705100  0.23064900  0.93974700  1
  Li  Li4  1  0.22614000  0.90705300  0.56162300  1
  Li  Li5  1  0.77365900  0.08652200  0.43724100  1
  Li  Li6  1  0.09297000  0.76409600  0.05978100  1
  Li  Li7  1  0.09109800  0.32097000  0.56151700  1
  Li  Li8  1  0.23245700  0.33263500  0.05636300  1
  Li  Li9  1  0.92966900  0.94224100  0.99057400  1
  V  V10  1  0.43664300  0.00153200  0.74870000  1
  V  V11  1  0.56935100  0.99751200  0.24658100  1
  V  V12  1  0.00123800  0.56845400  0.25053500  1
  V  V13  1  0.99865300  0.43267400  0.75231700  1
  V  V14  1  0.57287300  0.57124400  0.75244200  1
  V  V15  1  0.43887700  0.43991600  0.24721800  1
  P  P16  1  0.77646800  0.69339400  0.15603500  1
  P  P17  1  0.91103700  0.68203500  0.66160700  1
  P  P18  1  0.31971200  0.23329800  0.65841400  1
  P  P19  1  0.66325000  0.33250800  0.87242400  1
  P  P20  1  0.66639400  0.33211700  0.36868300  1
  P  P21  1  0.31572000  0.08852700  0.15884900  1
  P  P22  1  0.23369200  0.91370100  0.34179800  1
  P  P23  1  0.91359800  0.22922700  0.15878200  1
  P  P24  1  0.09036700  0.77493300  0.84347300  1
  P  P25  1  0.76934900  0.08871900  0.65462000  1
  P  P26  1  0.69335800  0.91626100  0.83796200  1
  P  P27  1  0.33195700  0.66248700  0.63117500  1
  P  P28  1  0.33199300  0.66627200  0.12929500  1
  P  P29  1  0.68776700  0.77120200  0.34258900  1
  P  P30  1  0.09237300  0.32130300  0.34108100  1
  P  P31  1  0.23040500  0.31574900  0.84207500  1
  O  O32  1  0.76558800  0.75517200  0.42911500  1
  O  O33  1  0.74397200  0.66117800  0.66467800  1
  O  O34  1  0.01670600  0.79062100  0.93347500  1
  O  O35  1  0.91649100  0.66056700  0.16170400  1
  O  O36  1  0.61739600  0.53502100  0.17030100  1
  O  O37  1  0.67000200  0.48308900  0.82366800  1
  O  O38  1  0.47814500  0.38288000  0.67734600  1
  O  O39  1  0.22960000  0.22742500  0.93063800  1
  O  O40  1  0.33548600  0.25722100  0.16011700  1
  O  O41  1  0.81427200  0.48598000  0.33158100  1
  O  O42  1  0.90112900  0.52158300  0.67930600  1
  O  O43  1  0.51565000  0.33121800  0.32074300  1
  O  O44  1  0.65884300  0.33774900  0.97843700  1
  O  O45  1  0.65104000  0.33170300  0.47444400  1
  O  O46  1  0.50906400  0.18891100  0.83203200  1
  O  O47  1  0.91116000  0.38318700  0.17128000  1
  O  O48  1  0.80949600  0.32282900  0.83501600  1
  O  O49  1  0.33570100  0.08404100  0.65738500  1
  O  O50  1  0.20831000  0.00279800  0.25163500  1
  O  O51  1  0.24401700  0.00180500  0.43197300  1
  O  O52  1  0.22699600  0.00213800  0.07016300  1
  O  O53  1  0.47347400  0.09575000  0.17227400  1
  O  O54  1  0.67252400  0.18573900  0.33048600  1
  O  O55  1  0.26045600  0.91824500  0.83591100  1
  O  O56  1  0.62012200  0.10060200  0.67812000  1
  O  O57  1  0.91749000  0.25533600  0.66177900  1
  O  O58  1  0.00143700  0.79442900  0.75120900  1
  O  O59  1  0.99911200  0.75795300  0.57175000  1
  O  O60  1  0.00388300  0.24390700  0.43058800  1
  O  O61  1  0.08521600  0.74783800  0.34211600  1
  O  O62  1  0.38384500  0.90534000  0.32270700  1
  O  O63  1  0.74592900  0.08623100  0.16445100  1
  O  O64  1  0.32921100  0.81324300  0.66790800  1
  O  O65  1  0.53932000  0.91942600  0.83257300  1
  O  O66  1  0.80121300  0.00595700  0.91919800  1
  O  O67  1  0.75817200  0.01150000  0.56187600  1
  O  O68  1  0.78987200  0.99218700  0.74062400  1
  O  O69  1  0.66551500  0.91621200  0.34077800  1
  O  O70  1  0.18724100  0.67725500  0.16832200  1
  O  O71  1  0.09076500  0.62000100  0.83154100  1
  O  O72  1  0.48232200  0.80578300  0.17180100  1
  O  O73  1  0.32343900  0.64680600  0.02371500  1
  O  O74  1  0.33240900  0.65508500  0.52524400  1
  O  O75  1  0.47793700  0.66262600  0.68060900  1
  O  O76  1  0.10300900  0.48132700  0.32245800  1
  O  O77  1  0.18349500  0.51117000  0.67191400  1
  O  O78  1  0.66250800  0.74425400  0.83565400  1
  O  O79  1  0.79496500  0.79429000  0.25017200  1
  O  O80  1  0.78486200  0.78383600  0.07007300  1
  O  O81  1  0.52541100  0.61915000  0.32066600  1
  O  O82  1  0.32228600  0.50828200  0.17400700  1
  O  O83  1  0.38476300  0.47198800  0.82938600  1
  O  O84  1  0.08451900  0.33873100  0.84224200  1
  O  O85  1  0.99716600  0.22525900  0.06928300  1
  O  O86  1  0.00398800  0.20965900  0.25061600  1
  O  O87  1  0.25913900  0.33839600  0.34044300  1
  O  O88  1  0.24046200  0.24460500  0.56899500  1
  O  O89  1  0.20730600  0.20957100  0.74896300  1
