# generated using pymatgen
data_Li4Cr2Ni3Te3O16
_symmetry_space_group_name_H-M   'P 1'
_cell_length_a   6.10967700
_cell_length_b   6.12330064
_cell_length_c   9.64499541
_cell_angle_alpha   89.46443414
_cell_angle_beta   91.32431341
_cell_angle_gamma   118.81210308
_symmetry_Int_Tables_number   1
_chemical_formula_structural   Li4Cr2Ni3Te3O16
_chemical_formula_sum   'Li4 Cr2 Ni3 Te3 O16'
_cell_volume   316.07824689
_cell_formula_units_Z   1
loop_
 _symmetry_equiv_pos_site_id
 _symmetry_equiv_pos_as_xyz
  1  'x, y, z'
loop_
 _atom_site_type_symbol
 _atom_site_label
 _atom_site_symmetry_multiplicity
 _atom_site_fract_x
 _atom_site_fract_y
 _atom_site_fract_z
 _atom_site_occupancy
  Li  Li0  1  0.34255600  0.66287100  0.12766200  1
  Li  Li1  1  0.02495300  0.97589900  0.01547900  1
  Li  Li2  1  0.00974200  0.97872000  0.49348200  1
  Li  Li3  1  0.68483800  0.33619100  0.59406100  1
  Cr  Cr4  1  0.32094900  0.68041800  0.50259000  1
  Cr  Cr5  1  0.64159900  0.33130300  0.02712000  1
  Ni  Ni6  1  0.16982700  0.83384600  0.78354900  1
  Ni  Ni7  1  0.82736000  0.66347400  0.28510200  1
  Ni  Ni8  1  0.33701200  0.17325600  0.28699300  1
  Te  Te9  1  0.65917000  0.83036500  0.78573800  1
  Te  Te10  1  0.16438100  0.33970800  0.78774300  1
  Te  Te11  1  0.82853800  0.17310200  0.28766000  1
  O  O12  1  0.67469700  0.86298500  0.39941700  1
  O  O13  1  0.50454700  0.53811700  0.65791000  1
  O  O14  1  0.36302800  0.69423100  0.90141500  1
  O  O15  1  0.97092500  0.98024900  0.68235900  1
  O  O16  1  0.98718200  0.01149000  0.19416600  1
  O  O17  1  0.14205800  0.32794400  0.40277900  1
  O  O18  1  0.49515300  0.96292800  0.66106500  1
  O  O19  1  0.04616800  0.53271500  0.64941500  1
  O  O20  1  0.80831500  0.13366100  0.89896300  1
  O  O21  1  0.16958400  0.83741300  0.39809100  1
  O  O22  1  0.95532100  0.45891200  0.15590900  1
  O  O23  1  0.53481500  0.04133900  0.15915600  1
  O  O24  1  0.67676300  0.32836200  0.39436100  1
  O  O25  1  0.81935500  0.67778100  0.89734700  1
  O  O26  1  0.51760300  0.47740900  0.15635900  1
  O  O27  1  0.32385900  0.15561100  0.90627200  1
