# generated using pymatgen
data_Li3V3P8O29
_symmetry_space_group_name_H-M   'P 1'
_cell_length_a   9.75095500
_cell_length_b   9.75338476
_cell_length_c   14.38388350
_cell_angle_alpha   90.19018440
_cell_angle_beta   90.17885188
_cell_angle_gamma   119.78235140
_symmetry_Int_Tables_number   1
_chemical_formula_structural   Li3V3P8O29
_chemical_formula_sum   'Li6 V6 P16 O58'
_cell_volume   1187.26770784
_cell_formula_units_Z   2
loop_
 _symmetry_equiv_pos_site_id
 _symmetry_equiv_pos_as_xyz
  1  'x, y, z'
loop_
 _atom_site_type_symbol
 _atom_site_label
 _atom_site_symmetry_multiplicity
 _atom_site_fract_x
 _atom_site_fract_y
 _atom_site_fract_z
 _atom_site_occupancy
  Li  Li0  1  0.30327200  0.07976500  0.55668500  1
  Li  Li1  1  0.90868100  0.67713300  0.05312200  1
  Li  Li2  1  0.77296500  0.09319500  0.05219900  1
  Li  Li3  1  0.91472300  0.22584800  0.56336800  1
  Li  Li4  1  0.69817300  0.91309000  0.45208700  1
  Li  Li5  1  0.05792400  0.03812300  0.00040900  1
  V  V6  1  0.99700400  0.56471400  0.25520600  1
  V  V7  1  0.00549900  0.44013800  0.75041300  1
  V  V8  1  0.42933300  0.99683000  0.75562300  1
  V  V9  1  0.56199200  0.00078200  0.24365900  1
  V  V10  1  0.43648900  0.43304800  0.24464800  1
  V  V11  1  0.56335500  0.56389900  0.74996600  1
  P  P12  1  0.30419000  0.22583200  0.84153900  1
  P  P13  1  0.31946600  0.09222700  0.33989200  1
  P  P14  1  0.76931800  0.68650600  0.34153300  1
  P  P15  1  0.67141100  0.33556500  0.13157900  1
  P  P16  1  0.66298600  0.32637400  0.63345800  1
  P  P17  1  0.91245700  0.68874700  0.83948300  1
  P  P18  1  0.08478200  0.77542200  0.65885700  1
  P  P19  1  0.77748500  0.09104300  0.84032000  1
  P  P20  1  0.21490200  0.91206200  0.16156900  1
  P  P21  1  0.90671000  0.22639200  0.34474900  1
  P  P22  1  0.08267200  0.30643200  0.16605100  1
  P  P23  1  0.33858400  0.66833100  0.36313000  1
  P  P24  1  0.33477900  0.66651200  0.86714300  1
  P  P25  1  0.22652700  0.31221600  0.65892800  1
  P  P26  1  0.67931000  0.90766300  0.66371200  1
  P  P27  1  0.69457300  0.77600500  0.15862800  1
  O  O28  1  0.23064800  0.22438100  0.57575600  1
  O  O29  1  0.34219900  0.25937600  0.32652700  1
  O  O30  1  0.19565600  0.99306400  0.08046000  1
  O  O31  1  0.34491500  0.09005600  0.82928300  1
  O  O32  1  0.45900300  0.38576100  0.83154500  1
  O  O33  1  0.52036100  0.32884000  0.17464100  1
  O  O34  1  0.61833400  0.52597400  0.32069800  1
  O  O35  1  0.79642100  0.78784900  0.07891200  1
  O  O36  1  0.74041400  0.65515500  0.82828100  1
  O  O37  1  0.51787300  0.17511600  0.67571700  1
  O  O38  1  0.47990100  0.10012800  0.31368800  1
  O  O39  1  0.65295500  0.46695200  0.68187500  1
  O  O40  1  0.67784000  0.33463100  0.02844000  1
  O  O41  1  0.65621600  0.32330000  0.53036600  1
  O  O42  1  0.81526100  0.48887200  0.17386000  1
  O  O43  1  0.61719300  0.08752000  0.82813200  1
  O  O44  1  0.67780200  0.18600100  0.17123500  1
  O  O45  1  0.91300500  0.65827700  0.33269200  1
  O  O46  1  0.00754000  0.79977100  0.75421900  1
  O  O47  1  0.99969900  0.77259800  0.57403200  1
  O  O48  1  0.98170000  0.76484700  0.93050400  1
  O  O49  1  0.91250600  0.52999200  0.82353700  1
  O  O50  1  0.81836600  0.33391600  0.67141900  1
  O  O51  1  0.08001000  0.73644300  0.16576100  1
  O  O52  1  0.89733700  0.37861300  0.32246300  1
  O  O53  1  0.73974800  0.07735600  0.33296700  1
  O  O54  1  0.19872000  0.98691700  0.25866900  1
  O  O55  1  0.26195600  0.02001300  0.43150500  1
  O  O56  1  0.75730400  0.99626300  0.57660600  1
  O  O57  1  0.25766000  0.91876500  0.66444400  1
  O  O58  1  0.09303400  0.62122200  0.67873700  1
  O  O59  1  0.91619100  0.26164800  0.82671400  1
  O  O60  1  0.18305500  0.65940700  0.32179300  1
  O  O61  1  0.07627700  0.46141000  0.17546600  1
  O  O62  1  0.99275500  0.20102600  0.08674300  1
  O  O63  1  0.97478800  0.23251800  0.43780100  1
  O  O64  1  0.01217800  0.21327600  0.26348300  1
  O  O65  1  0.08321000  0.34157700  0.65935800  1
  O  O66  1  0.32918600  0.81380300  0.82411200  1
  O  O67  1  0.37866800  0.91775800  0.17013600  1
  O  O68  1  0.18683200  0.51752900  0.82133700  1
  O  O69  1  0.33112600  0.66651600  0.96976300  1
  O  O70  1  0.34924500  0.67778700  0.46564600  1
  O  O71  1  0.34325700  0.52624400  0.31667800  1
  O  O72  1  0.52064400  0.90154200  0.68154200  1
  O  O73  1  0.48083400  0.82042300  0.31719600  1
  O  O74  1  0.25774500  0.34621000  0.16653100  1
  O  O75  1  0.19934400  0.20734800  0.75068300  1
  O  O76  1  0.20843400  0.20221900  0.92544200  1
  O  O77  1  0.37922500  0.47237700  0.67689700  1
  O  O78  1  0.48211800  0.67010000  0.82188800  1
  O  O79  1  0.53825200  0.61628100  0.16851700  1
  O  O80  1  0.65747800  0.91501300  0.15889900  1
  O  O81  1  0.79203100  0.02370000  0.92991800  1
  O  O82  1  0.79275000  0.99685600  0.75195700  1
  O  O83  1  0.65497800  0.73889000  0.66634300  1
  O  O84  1  0.76468600  0.76707800  0.42769700  1
  O  O85  1  0.79084000  0.79959200  0.25421800  1
