# generated using pymatgen
data_Li6MnCr3(PO4)6
_symmetry_space_group_name_H-M   'P 1'
_cell_length_a   8.48463300
_cell_length_b   8.50940058
_cell_length_c   8.63222748
_cell_angle_alpha   61.28766410
_cell_angle_beta   62.04829061
_cell_angle_gamma   62.03776111
_symmetry_Int_Tables_number   1
_chemical_formula_structural   Li6MnCr3(PO4)6
_chemical_formula_sum   'Li6 Mn1 Cr3 P6 O24'
_cell_volume   458.33004918
_cell_formula_units_Z   1
loop_
 _symmetry_equiv_pos_site_id
 _symmetry_equiv_pos_as_xyz
  1  'x, y, z'
loop_
 _atom_site_type_symbol
 _atom_site_label
 _atom_site_symmetry_multiplicity
 _atom_site_fract_x
 _atom_site_fract_y
 _atom_site_fract_z
 _atom_site_occupancy
  Li  Li0  1  0.98804600  0.02348600  0.01663700  1
  Li  Li1  1  0.35329500  0.75287200  0.14447500  1
  Li  Li2  1  0.49281400  0.47531900  0.50374600  1
  Li  Li3  1  0.65125800  0.24025200  0.85115200  1
  Li  Li4  1  0.84492600  0.66397200  0.25270900  1
  Li  Li5  1  0.24852200  0.84348000  0.64775300  1
  Mn  Mn6  1  0.85655300  0.85343700  0.84956600  1
  Cr  Cr7  1  0.13919100  0.14045200  0.14523800  1
  Cr  Cr8  1  0.35403800  0.35878200  0.36269700  1
  Cr  Cr9  1  0.64538700  0.64289400  0.64597800  1
  P  P10  1  0.45000300  0.04850400  0.75224900  1
  P  P11  1  0.74929400  0.45173200  0.04721400  1
  P  P12  1  0.05105300  0.74950900  0.44903000  1
  P  P13  1  0.95519200  0.24917000  0.54017200  1
  P  P14  1  0.25016800  0.54400400  0.96270000  1
  P  P15  1  0.53788900  0.95803300  0.25414800  1
  O  O16  1  0.49005900  0.12698800  0.30297400  1
  O  O17  1  0.11655000  0.30015000  0.51514600  1
  O  O18  1  0.26722000  0.04637200  0.92204300  1
  O  O19  1  0.29572000  0.53225400  0.12121200  1
  O  O20  1  0.42911600  0.24049600  0.59416500  1
  O  O21  1  0.61120500  0.01967900  0.81190800  1
  O  O22  1  0.90808500  0.26224000  0.06938600  1
  O  O23  1  0.58038400  0.45315000  0.22948100  1
  O  O24  1  0.24658200  0.59368900  0.42409000  1
  O  O25  1  0.98389900  0.20357100  0.37751000  1
  O  O26  1  0.93363900  0.08316200  0.73390700  1
  O  O27  1  0.20869300  0.37163000  0.00248300  1
  O  O28  1  0.80955000  0.61647500  0.00984400  1
  O  O29  1  0.06823300  0.90610700  0.25350900  1
  O  O30  1  0.02912200  0.81132000  0.59864000  1
  O  O31  1  0.75892900  0.40689100  0.57145800  1
  O  O32  1  0.41000000  0.56684400  0.77033500  1
  O  O33  1  0.08718300  0.73604700  0.93118000  1
  O  O34  1  0.38167300  0.96954500  0.20136700  1
  O  O35  1  0.56240200  0.76389300  0.41802500  1
  O  O36  1  0.69283900  0.48106700  0.88728900  1
  O  O37  1  0.73260700  0.93979800  0.09981700  1
  O  O38  1  0.89066100  0.68635900  0.48516100  1
  O  O39  1  0.48901600  0.88637400  0.69260900  1
