# generated using pymatgen
data_Li6Bi5O14
_symmetry_space_group_name_H-M   'P 1'
_cell_length_a   8.20265854
_cell_length_b   8.20265854
_cell_length_c   10.66687200
_cell_angle_alpha   90.00000000
_cell_angle_beta   90.00000000
_cell_angle_gamma   95.33632883
_symmetry_Int_Tables_number   1
_chemical_formula_structural   Li6Bi5O14
_chemical_formula_sum   'Li12 Bi10 O28'
_cell_volume   714.59503862
_cell_formula_units_Z   2
loop_
 _symmetry_equiv_pos_site_id
 _symmetry_equiv_pos_as_xyz
  1  'x, y, z'
loop_
 _atom_site_type_symbol
 _atom_site_label
 _atom_site_symmetry_multiplicity
 _atom_site_fract_x
 _atom_site_fract_y
 _atom_site_fract_z
 _atom_site_occupancy
  Li  Li0  1  0.18483200  0.35369500  0.97644000  1
  Li  Li1  1  0.35369500  0.18483200  0.47644000  1
  Li  Li2  1  0.20438800  0.50489700  0.51058900  1
  Li  Li3  1  0.50489700  0.20438800  0.01058900  1
  Li  Li4  1  0.99360100  0.00639900  0.95557700  1
  Li  Li5  1  0.72768600  0.27231400  0.43306900  1
  Li  Li6  1  0.27231400  0.72768600  0.93306900  1
  Li  Li7  1  0.00639900  0.99360100  0.45557700  1
  Li  Li8  1  0.79561200  0.49510300  0.01058900  1
  Li  Li9  1  0.49510300  0.79561200  0.51058900  1
  Li  Li10  1  0.64630500  0.81516800  0.97644000  1
  Li  Li11  1  0.81516800  0.64630500  0.47644000  1
  Bi  Bi12  1  0.06516800  0.23837200  0.23538200  1
  Bi  Bi13  1  0.23837200  0.06516800  0.73538200  1
  Bi  Bi14  1  0.00079200  0.62828200  0.23018400  1
  Bi  Bi15  1  0.62828200  0.00079200  0.73018400  1
  Bi  Bi16  1  0.53752400  0.46247600  0.24690100  1
  Bi  Bi17  1  0.46247600  0.53752400  0.74690100  1
  Bi  Bi18  1  0.37171800  0.99920800  0.23018400  1
  Bi  Bi19  1  0.99920800  0.37171800  0.73018400  1
  Bi  Bi20  1  0.93483200  0.76162800  0.73538200  1
  Bi  Bi21  1  0.76162800  0.93483200  0.23538200  1
  O  O22  1  0.19231600  0.08078000  0.35914700  1
  O  O23  1  0.08078000  0.19231600  0.85914700  1
  O  O24  1  0.19963500  0.27539800  0.61787500  1
  O  O25  1  0.27539800  0.19963500  0.11787500  1
  O  O26  1  0.57564800  0.99443400  0.09743600  1
  O  O27  1  0.99443400  0.57564800  0.59743600  1
  O  O28  1  0.14614900  0.45795700  0.33576200  1
  O  O29  1  0.45795700  0.14614900  0.83576200  1
  O  O30  1  0.51334000  0.21479300  0.33267900  1
  O  O31  1  0.21479300  0.51334000  0.83267900  1
  O  O32  1  0.13427300  0.86572700  0.85608500  1
  O  O33  1  0.58909100  0.41090900  0.06259400  1
  O  O34  1  0.22222000  0.77778000  0.16040000  1
  O  O35  1  0.86572700  0.13427300  0.35608500  1
  O  O36  1  0.05962800  0.94037200  0.61850700  1
  O  O37  1  0.77778000  0.22222000  0.66040000  1
  O  O38  1  0.41090900  0.58909100  0.56259400  1
  O  O39  1  0.94037200  0.05962800  0.11850700  1
  O  O40  1  0.78520700  0.48666000  0.33267900  1
  O  O41  1  0.48666000  0.78520700  0.83267900  1
  O  O42  1  0.85385100  0.54204300  0.83576200  1
  O  O43  1  0.54204300  0.85385100  0.33576200  1
  O  O44  1  0.00556600  0.42435200  0.09743600  1
  O  O45  1  0.42435200  0.00556600  0.59743600  1
  O  O46  1  0.80036500  0.72460200  0.11787500  1
  O  O47  1  0.72460200  0.80036500  0.61787500  1
  O  O48  1  0.91922000  0.80768400  0.35914700  1
  O  O49  1  0.80768400  0.91922000  0.85914700  1
