# generated using pymatgen
data_Li7Mn7P6(O8F)3
_symmetry_space_group_name_H-M   'P 1'
_cell_length_a   13.60388748
_cell_length_b   13.60388748
_cell_length_c   6.51217200
_cell_angle_alpha   90.00000000
_cell_angle_beta   90.00000000
_cell_angle_gamma   119.99999748
_symmetry_Int_Tables_number   1
_chemical_formula_structural   Li7Mn7P6(O8F)3
_chemical_formula_sum   'Li14 Mn14 P12 O48 F6'
_cell_volume   1043.71654463
_cell_formula_units_Z   2
loop_
 _symmetry_equiv_pos_site_id
 _symmetry_equiv_pos_as_xyz
  1  'x, y, z'
loop_
 _atom_site_type_symbol
 _atom_site_label
 _atom_site_symmetry_multiplicity
 _atom_site_fract_x
 _atom_site_fract_y
 _atom_site_fract_z
 _atom_site_occupancy
  Li  Li0  1  0.13082900  0.70739500  0.99792300  1
  Li  Li1  1  0.12685600  0.70995700  0.52429300  1
  Li  Li2  1  0.42343400  0.13082900  0.49792300  1
  Li  Li3  1  0.41689800  0.12685600  0.02429300  1
  Li  Li4  1  0.70995700  0.58310200  0.02429300  1
  Li  Li5  1  0.70739500  0.57656600  0.49792300  1
  Li  Li6  1  0.00000000  0.00000000  0.99845700  1
  Li  Li7  1  0.00000000  0.00000000  0.49845700  1
  Li  Li8  1  0.29260500  0.42343400  0.99792300  1
  Li  Li9  1  0.29004300  0.41689800  0.52429300  1
  Li  Li10  1  0.58310200  0.87314400  0.52429300  1
  Li  Li11  1  0.57656600  0.86917100  0.99792300  1
  Li  Li12  1  0.87314400  0.29004300  0.02429300  1
  Li  Li13  1  0.86917100  0.29260500  0.49792300  1
  Mn  Mn14  1  0.25580400  0.18987000  0.25559900  1
  Mn  Mn15  1  0.18987000  0.93406600  0.75559900  1
  Mn  Mn16  1  0.50041300  0.39430600  0.75578000  1
  Mn  Mn17  1  0.10610700  0.50041300  0.25578000  1
  Mn  Mn18  1  0.06593400  0.25580400  0.75559900  1
  Mn  Mn19  1  0.39430600  0.89389300  0.25578000  1
  Mn  Mn20  1  0.33333300  0.66666700  0.49605100  1
  Mn  Mn21  1  0.66666700  0.33333300  0.99605100  1
  Mn  Mn22  1  0.60569400  0.10610700  0.75578000  1
  Mn  Mn23  1  0.93406600  0.74419600  0.25559900  1
  Mn  Mn24  1  0.89389300  0.49958700  0.75578000  1
  Mn  Mn25  1  0.49958700  0.60569400  0.25578000  1
  Mn  Mn26  1  0.81013000  0.06593400  0.25559900  1
  Mn  Mn27  1  0.74419600  0.81013000  0.75559900  1
  P  P28  1  0.25062400  0.18570400  0.75491800  1
  P  P29  1  0.18570400  0.93508000  0.25491800  1
  P  P30  1  0.48848400  0.36931300  0.26127400  1
  P  P31  1  0.11917100  0.48848400  0.76127400  1
  P  P32  1  0.36931300  0.88082900  0.76127400  1
  P  P33  1  0.06492000  0.25062400  0.25491800  1
  P  P34  1  0.93508000  0.74937600  0.75491800  1
  P  P35  1  0.63068700  0.11917100  0.26127400  1
  P  P36  1  0.88082900  0.51151600  0.26127400  1
  P  P37  1  0.51151600  0.63068700  0.76127400  1
  P  P38  1  0.81429600  0.06492000  0.75491800  1
  P  P39  1  0.74937600  0.81429600  0.25491800  1
  O  O40  1  0.11900900  0.13317600  0.75526600  1
  O  O41  1  0.13317600  0.01416700  0.25526600  1
  O  O42  1  0.00073100  0.68152000  0.75092400  1
  O  O43  1  0.37651100  0.37463500  0.24461500  1
  O  O44  1  0.28374900  0.14095300  0.56422200  1
  O  O45  1  0.14095300  0.85720400  0.06422200  1
  O  O46  1  0.28448100  0.14378300  0.94886800  1
  O  O47  1  0.14378300  0.85930100  0.44886800  1
  O  O48  1  0.31921100  0.00073100  0.25092400  1
  O  O49  1  0.00187600  0.37651100  0.74461500  1
  O  O50  1  0.55395600  0.43852000  0.45234700  1
  O  O51  1  0.11543600  0.55395600  0.95234700  1
  O  O52  1  0.45915600  0.24499000  0.26755700  1
  O  O53  1  0.13973200  0.56496200  0.56542400  1
  O  O54  1  0.56496200  0.42523000  0.06542400  1
  O  O55  1  0.68152000  0.68078900  0.25092400  1
  O  O56  1  0.24499000  0.78583400  0.76755700  1
  O  O57  1  0.37463500  0.99812400  0.74461500  1
  O  O58  1  0.98583300  0.11900900  0.25526600  1
  O  O59  1  0.21416600  0.45915600  0.76755700  1
  O  O60  1  0.14069900  0.28448100  0.44886800  1
  O  O61  1  0.43852000  0.88456400  0.95234700  1
  O  O62  1  0.14279600  0.28374900  0.06422200  1
  O  O63  1  0.57477000  0.13973200  0.06542400  1
  O  O64  1  0.42523000  0.86026800  0.56542400  1
  O  O65  1  0.85720400  0.71625100  0.56422200  1
  O  O66  1  0.56148000  0.11543600  0.45234700  1
  O  O67  1  0.85930100  0.71551900  0.94886800  1
  O  O68  1  0.78583400  0.54084400  0.26755700  1
  O  O69  1  0.01416700  0.88099100  0.75526600  1
  O  O70  1  0.62536500  0.00187600  0.24461500  1
  O  O71  1  0.75501000  0.21416600  0.26755700  1
  O  O72  1  0.31848000  0.31921100  0.75092400  1
  O  O73  1  0.43503800  0.57477000  0.56542400  1
  O  O74  1  0.86026800  0.43503800  0.06542400  1
  O  O75  1  0.54084400  0.75501000  0.76755700  1
  O  O76  1  0.88456400  0.44604400  0.45234700  1
  O  O77  1  0.44604400  0.56148000  0.95234700  1
  O  O78  1  0.99812400  0.62348900  0.24461500  1
  O  O79  1  0.68078900  0.99926900  0.75092400  1
  O  O80  1  0.85621700  0.14069900  0.94886800  1
  O  O81  1  0.71551900  0.85621700  0.44886800  1
  O  O82  1  0.85904700  0.14279600  0.56422200  1
  O  O83  1  0.71625100  0.85904700  0.06422200  1
  O  O84  1  0.62348900  0.62536500  0.74461500  1
  O  O85  1  0.99926900  0.31848000  0.25092400  1
  O  O86  1  0.86682400  0.98583300  0.75526600  1
  O  O87  1  0.88099100  0.86682400  0.25526600  1
  F  F88  1  0.25000900  0.72694600  0.28279100  1
  F  F89  1  0.52306300  0.25000900  0.78279100  1
  F  F90  1  0.72694600  0.47693700  0.78279100  1
  F  F91  1  0.27305400  0.52306300  0.28279100  1
  F  F92  1  0.47693700  0.74999100  0.28279100  1
  F  F93  1  0.74999100  0.27305400  0.78279100  1
