# generated using pymatgen
data_LiSnPO4
_symmetry_space_group_name_H-M   'P 1'
_cell_length_a   9.03547863
_cell_length_b   9.03547863
_cell_length_c   9.03547890
_cell_angle_alpha   107.28062755
_cell_angle_beta   107.28062755
_cell_angle_gamma   107.28061624
_symmetry_Int_Tables_number   1
_chemical_formula_structural   LiSnPO4
_chemical_formula_sum   'Li6 Sn6 P6 O24'
_cell_volume   609.56257157
_cell_formula_units_Z   6
loop_
 _symmetry_equiv_pos_site_id
 _symmetry_equiv_pos_as_xyz
  1  'x, y, z'
loop_
 _atom_site_type_symbol
 _atom_site_label
 _atom_site_symmetry_multiplicity
 _atom_site_fract_x
 _atom_site_fract_y
 _atom_site_fract_z
 _atom_site_occupancy
  Li  Li0  1  0.88772300  0.13249200  0.72202800  1
  Li  Li1  1  0.41877600  0.21636500  0.61175700  1
  Li  Li2  1  0.61175700  0.41877600  0.21636500  1
  Li  Li3  1  0.13249200  0.72202800  0.88772300  1
  Li  Li4  1  0.21636500  0.61175700  0.41877600  1
  Li  Li5  1  0.72202800  0.88772300  0.13249200  1
  Sn  Sn6  1  0.44575800  0.05519900  0.22307600  1
  Sn  Sn7  1  0.77392200  0.54155400  0.93879300  1
  Sn  Sn8  1  0.05519900  0.22307600  0.44575800  1
  Sn  Sn9  1  0.93879300  0.77392200  0.54155400  1
  Sn  Sn10  1  0.22307600  0.44575800  0.05519900  1
  Sn  Sn11  1  0.54155400  0.93879300  0.77392200  1
  P  P12  1  0.27846700  0.10579000  0.86231600  1
  P  P13  1  0.78638300  0.38134100  0.58251700  1
  P  P14  1  0.86231600  0.27846700  0.10579000  1
  P  P15  1  0.38134100  0.58251700  0.78638300  1
  P  P16  1  0.58251700  0.78638300  0.38134100  1
  P  P17  1  0.10579000  0.86231600  0.27846700  1
  O  O18  1  0.90166600  0.25598100  0.94625900  1
  O  O19  1  0.38860500  0.10565800  0.75802800  1
  O  O20  1  0.10332800  0.10011500  0.76023100  1
  O  O21  1  0.89512300  0.27493300  0.59015000  1
  O  O22  1  0.27316100  0.03597400  0.37509700  1
  O  O23  1  0.76023100  0.10332800  0.10011500  1
  O  O24  1  0.66053700  0.32757800  0.66431700  1
  O  O25  1  0.68174100  0.34265800  0.39479800  1
  O  O26  1  0.34265800  0.39479800  0.68174100  1
  O  O27  1  0.90628400  0.57536600  0.69056800  1
  O  O28  1  0.75802800  0.38860500  0.10565800  1
  O  O29  1  0.57536600  0.69056800  0.90628400  1
  O  O30  1  0.37509700  0.27316100  0.03597400  1
  O  O31  1  0.27493300  0.59015000  0.89512300  1
  O  O32  1  0.03597400  0.37509700  0.27316100  1
  O  O33  1  0.66431700  0.66053700  0.32757800  1
  O  O34  1  0.32757800  0.66431700  0.66053700  1
  O  O35  1  0.39479800  0.68174100  0.34265800  1
  O  O36  1  0.69056800  0.90628400  0.57536600  1
  O  O37  1  0.25598100  0.94625900  0.90166600  1
  O  O38  1  0.94625900  0.90166600  0.25598100  1
  O  O39  1  0.10565800  0.75802800  0.38860500  1
  O  O40  1  0.59015000  0.89512300  0.27493300  1
  O  O41  1  0.10011500  0.76023100  0.10332800  1
