# generated using pymatgen
data_Na2Li2CoO4
_symmetry_space_group_name_H-M   'P 1'
_cell_length_a   8.39200700
_cell_length_b   6.49693400
_cell_length_c   10.26099663
_cell_angle_alpha   51.14915150
_cell_angle_beta   90.00000000
_cell_angle_gamma   90.00000000
_symmetry_Int_Tables_number   1
_chemical_formula_structural   Na2Li2CoO4
_chemical_formula_sum   'Na8 Li8 Co4 O16'
_cell_volume   435.69191319
_cell_formula_units_Z   4
loop_
 _symmetry_equiv_pos_site_id
 _symmetry_equiv_pos_as_xyz
  1  'x, y, z'
loop_
 _atom_site_type_symbol
 _atom_site_label
 _atom_site_symmetry_multiplicity
 _atom_site_fract_x
 _atom_site_fract_y
 _atom_site_fract_z
 _atom_site_occupancy
  Na  Na0  1  0.97804500  0.24284200  0.50153800  1
  Na  Na1  1  0.02195500  0.75715800  0.49846200  1
  Na  Na2  1  0.73881200  0.26396000  0.24862000  1
  Na  Na3  1  0.76118800  0.26396000  0.74862000  1
  Na  Na4  1  0.52195500  0.24284200  0.00153800  1
  Na  Na5  1  0.47804500  0.75715800  0.99846200  1
  Na  Na6  1  0.23881200  0.73604000  0.25138000  1
  Na  Na7  1  0.26118800  0.73604000  0.75138000  1
  Li  Li8  1  0.91005200  0.69006800  0.78905900  1
  Li  Li9  1  0.86320800  0.76130600  0.99280200  1
  Li  Li10  1  0.63679200  0.76130600  0.49280200  1
  Li  Li11  1  0.58994800  0.69006800  0.28905900  1
  Li  Li12  1  0.41005200  0.30993200  0.71094100  1
  Li  Li13  1  0.36320800  0.23869400  0.50719800  1
  Li  Li14  1  0.13679200  0.23869400  0.00719800  1
  Li  Li15  1  0.08994800  0.30993200  0.21094100  1
  Co  Co16  1  0.87254600  0.79428000  0.22301600  1
  Co  Co17  1  0.62745400  0.79428000  0.72301600  1
  Co  Co18  1  0.37254600  0.20572000  0.27698400  1
  Co  Co19  1  0.12745400  0.20572000  0.77698400  1
  O  O20  1  0.97112400  0.55823700  0.20983300  1
  O  O21  1  0.00635100  0.02634200  0.20583900  1
  O  O22  1  0.78351600  0.60018800  0.42977900  1
  O  O23  1  0.78217100  0.92274700  0.56649900  1
  O  O24  1  0.71782900  0.92274700  0.06649900  1
  O  O25  1  0.71648400  0.60018800  0.92977900  1
  O  O26  1  0.49364900  0.02634200  0.70583900  1
  O  O27  1  0.52887600  0.55823700  0.70983300  1
  O  O28  1  0.47112400  0.44176300  0.29016700  1
  O  O29  1  0.50635100  0.97365800  0.29416100  1
  O  O30  1  0.28351600  0.39981200  0.07022100  1
  O  O31  1  0.28217100  0.07725300  0.93350100  1
  O  O32  1  0.21782900  0.07725300  0.43350100  1
  O  O33  1  0.21648400  0.39981200  0.57022100  1
  O  O34  1  0.99364900  0.97365800  0.79416100  1
  O  O35  1  0.02887600  0.44176300  0.79016700  1
