# generated using pymatgen
data_Li4Nb3Co3(TeO8)2
_symmetry_space_group_name_H-M   'P 1'
_cell_length_a   6.10443966
_cell_length_b   10.69897646
_cell_length_c   12.11123257
_cell_angle_alpha   115.32881354
_cell_angle_beta   75.46123747
_cell_angle_gamma   89.93693319
_symmetry_Int_Tables_number   1
_chemical_formula_structural   Li4Nb3Co3(TeO8)2
_chemical_formula_sum   'Li8 Nb6 Co6 Te4 O32'
_cell_volume   686.72284244
_cell_formula_units_Z   2
loop_
 _symmetry_equiv_pos_site_id
 _symmetry_equiv_pos_as_xyz
  1  'x, y, z'
loop_
 _atom_site_type_symbol
 _atom_site_label
 _atom_site_symmetry_multiplicity
 _atom_site_fract_x
 _atom_site_fract_y
 _atom_site_fract_z
 _atom_site_occupancy
  Li  Li0  1  0.54648400  0.78873700  0.90652000  1
  Li  Li1  1  0.04652000  0.28871800  0.90653000  1
  Li  Li2  1  0.00226700  0.99760400  0.99595200  1
  Li  Li3  1  0.50215500  0.49759700  0.99593900  1
  Li  Li4  1  0.25803000  0.73573700  0.48415300  1
  Li  Li5  1  0.75807600  0.23575000  0.48415300  1
  Li  Li6  1  0.29987000  0.36313600  0.40052800  1
  Li  Li7  1  0.79991000  0.86312400  0.40051800  1
  Nb  Nb8  1  0.88269100  0.29821000  0.23473900  1
  Nb  Nb9  1  0.38271100  0.79820900  0.23474700  1
  Nb  Nb10  1  0.38791100  0.45689900  0.71854300  1
  Nb  Nb11  1  0.88793600  0.95685300  0.71853700  1
  Nb  Nb12  1  0.89199300  0.45698800  0.71910100  1
  Nb  Nb13  1  0.39200100  0.95689000  0.71907700  1
  Co  Co14  1  0.14529000  0.66834300  0.71040800  1
  Co  Co15  1  0.64527400  0.16831500  0.71043100  1
  Co  Co16  1  0.13656300  0.52088300  0.21461500  1
  Co  Co17  1  0.63657000  0.02097800  0.21457100  1
  Co  Co18  1  0.64868400  0.52095700  0.21468600  1
  Co  Co19  1  0.14876800  0.02095100  0.21472200  1
  Te  Te20  1  0.75244100  0.61141800  0.49561600  1
  Te  Te21  1  0.25244200  0.11143600  0.49561000  1
  Te  Te22  1  0.49065600  0.18139300  0.01832100  1
  Te  Te23  1  0.99069500  0.68140000  0.01836200  1
  O  O24  1  0.82447500  0.65863400  0.35157500  1
  O  O25  1  0.32449200  0.15864900  0.35154800  1
  O  O26  1  0.94548600  0.37665800  0.10766300  1
  O  O27  1  0.44501600  0.87682300  0.10772100  1
  O  O28  1  0.85055500  0.15546800  0.29954400  1
  O  O29  1  0.35018500  0.65555100  0.29962100  1
  O  O30  1  0.59606200  0.40511000  0.80855500  1
  O  O31  1  0.09604800  0.90509600  0.80856100  1
  O  O32  1  0.44976300  0.38534800  0.10073500  1
  O  O33  1  0.94988000  0.88531100  0.10083600  1
  O  O34  1  0.69789000  0.44670600  0.60432200  1
  O  O35  1  0.19788500  0.94669300  0.60431600  1
  O  O36  1  0.19987500  0.45020700  0.59740300  1
  O  O37  1  0.69987200  0.95018300  0.59740500  1
  O  O38  1  0.09116100  0.42184200  0.81852400  1
  O  O39  1  0.59115700  0.92182200  0.81852700  1
  O  O40  1  0.95478900  0.72676600  0.58985400  1
  O  O41  1  0.45474500  0.22680600  0.58984400  1
  O  O42  1  0.45545500  0.72629000  0.58994800  1
  O  O43  1  0.95570300  0.22634000  0.58988000  1
  O  O44  1  0.06622200  0.41200800  0.33322800  1
  O  O45  1  0.56653700  0.91189700  0.33310200  1
  O  O46  1  0.60119200  0.41278200  0.33382700  1
  O  O47  1  0.10127700  0.91278900  0.33386100  1
  O  O48  1  0.34718700  0.64965100  0.82696700  1
  O  O49  1  0.84710600  0.14962100  0.82698900  1
  O  O50  1  0.82586700  0.64974900  0.82707400  1
  O  O51  1  0.32586100  0.14970600  0.82704400  1
  O  O52  1  0.69708600  0.13809100  0.10261300  1
  O  O53  1  0.19714700  0.63815100  0.10259200  1
  O  O54  1  0.20041300  0.13830500  0.10280900  1
  O  O55  1  0.70043300  0.63825600  0.10281100  1
