# generated using pymatgen
data_Li2Mn3TeO8
_symmetry_space_group_name_H-M   'P 1'
_cell_length_a   6.06526562
_cell_length_b   6.06526562
_cell_length_c   9.89478300
_cell_angle_alpha   90.00000000
_cell_angle_beta   90.00000000
_cell_angle_gamma   119.99999587
_symmetry_Int_Tables_number   1
_chemical_formula_structural   Li2Mn3TeO8
_chemical_formula_sum   'Li4 Mn6 Te2 O16'
_cell_volume   315.23655601
_cell_formula_units_Z   2
loop_
 _symmetry_equiv_pos_site_id
 _symmetry_equiv_pos_as_xyz
  1  'x, y, z'
loop_
 _atom_site_type_symbol
 _atom_site_label
 _atom_site_symmetry_multiplicity
 _atom_site_fract_x
 _atom_site_fract_y
 _atom_site_fract_z
 _atom_site_occupancy
  Li  Li0  1  0.33333300  0.66666700  0.91204600  1
  Li  Li1  1  0.00000000  0.00000000  0.98163400  1
  Li  Li2  1  0.00000000  0.00000000  0.48163400  1
  Li  Li3  1  0.66666700  0.33333300  0.41204600  1
  Mn  Mn4  1  0.17071000  0.82929000  0.21119500  1
  Mn  Mn5  1  0.17071000  0.34142000  0.21119500  1
  Mn  Mn6  1  0.65858000  0.82929000  0.21119500  1
  Mn  Mn7  1  0.34142000  0.17071000  0.71119500  1
  Mn  Mn8  1  0.82929000  0.65858000  0.71119500  1
  Mn  Mn9  1  0.82929000  0.17071000  0.71119500  1
  Te  Te10  1  0.33333300  0.66666700  0.48292300  1
  Te  Te11  1  0.66666700  0.33333300  0.98292300  1
  O  O12  1  0.17333000  0.82667000  0.58921700  1
  O  O13  1  0.03853100  0.51926600  0.35721900  1
  O  O14  1  0.33333300  0.66666700  0.11419800  1
  O  O15  1  0.00000000  0.00000000  0.29012700  1
  O  O16  1  0.00000000  0.00000000  0.79012700  1
  O  O17  1  0.17333000  0.34666000  0.58921700  1
  O  O18  1  0.48073400  0.96146900  0.35721900  1
  O  O19  1  0.48073400  0.51926600  0.35721900  1
  O  O20  1  0.34666000  0.17333000  0.08921700  1
  O  O21  1  0.65334000  0.82667000  0.58921700  1
  O  O22  1  0.51926600  0.48073400  0.85721900  1
  O  O23  1  0.51926600  0.03853100  0.85721900  1
  O  O24  1  0.66666700  0.33333300  0.61419800  1
  O  O25  1  0.82667000  0.65334000  0.08921700  1
  O  O26  1  0.96146900  0.48073400  0.85721900  1
  O  O27  1  0.82667000  0.17333000  0.08921700  1
