# generated using pymatgen
data_Li2MnVP2(HO5)2
_symmetry_space_group_name_H-M   'P 1'
_cell_length_a   5.46923300
_cell_length_b   7.41603920
_cell_length_c   10.22881963
_cell_angle_alpha   105.59391432
_cell_angle_beta   96.67193132
_cell_angle_gamma   110.27975014
_symmetry_Int_Tables_number   1
_chemical_formula_structural   Li2MnVP2(HO5)2
_chemical_formula_sum   'Li4 Mn2 V2 P4 H4 O20'
_cell_volume   364.63647825
_cell_formula_units_Z   2
loop_
 _symmetry_equiv_pos_site_id
 _symmetry_equiv_pos_as_xyz
  1  'x, y, z'
loop_
 _atom_site_type_symbol
 _atom_site_label
 _atom_site_symmetry_multiplicity
 _atom_site_fract_x
 _atom_site_fract_y
 _atom_site_fract_z
 _atom_site_occupancy
  Li  Li0  1  0.10773500  0.71160200  0.54101200  1
  Li  Li1  1  0.39256000  0.78397700  0.96068300  1
  Li  Li2  1  0.61377700  0.21676100  0.03796200  1
  Li  Li3  1  0.88778500  0.28677000  0.46089500  1
  Mn  Mn4  1  0.25299900  0.25280400  0.75176100  1
  Mn  Mn5  1  0.50060100  0.50140700  0.50058900  1
  V  V6  1  0.74469500  0.74625500  0.24926900  1
  V  V7  1  0.00068000  0.99872000  0.99825900  1
  P  P8  1  0.08853400  0.45467200  0.22221600  1
  P  P9  1  0.58931500  0.95499600  0.72049900  1
  P  P10  1  0.40368700  0.04474300  0.27774500  1
  P  P11  1  0.91634700  0.54483400  0.77909100  1
  H  H12  1  0.21822900  0.15481600  0.48875500  1
  H  H13  1  0.28914500  0.35174400  0.01122200  1
  H  H14  1  0.71116900  0.64780200  0.98718600  1
  H  H15  1  0.78362700  0.84796700  0.51358800  1
  O  O16  1  0.04350400  0.78103200  0.85142600  1
  O  O17  1  0.15014200  0.94835300  0.32860100  1
  O  O18  1  0.14877300  0.48184300  0.82638500  1
  O  O19  1  0.33584300  0.99542200  0.11598800  1
  O  O20  1  0.14756900  0.50409100  0.38152800  1
  O  O21  1  0.26759400  0.21979500  0.94292300  1
  O  O22  1  0.45987300  0.71923500  0.64894700  1
  O  O23  1  0.24034500  0.28739700  0.55654400  1
  O  O24  1  0.34401700  0.55098300  0.17182800  1
  O  O25  1  0.63095400  0.97705700  0.32185000  1
  O  O26  1  0.35718300  0.02097500  0.68057400  1
  O  O27  1  0.66918300  0.45258300  0.83381200  1
  O  O28  1  0.76107300  0.71435300  0.44543100  1
  O  O29  1  0.53115700  0.27986900  0.34925000  1
  O  O30  1  0.73620300  0.78092600  0.05654200  1
  O  O31  1  0.85127400  0.49501800  0.61934500  1
  O  O32  1  0.66501700  0.00351000  0.88245000  1
  O  O33  1  0.86088500  0.51968900  0.17270300  1
  O  O34  1  0.83436000  0.04824100  0.66490600  1
  O  O35  1  0.96416300  0.21975800  0.14823400  1
