# generated using pymatgen
data_Li4Cr2Si4O13
_symmetry_space_group_name_H-M   'P 1'
_cell_length_a   5.00001500
_cell_length_b   13.71204900
_cell_length_c   14.06537800
_cell_angle_alpha   90.00000000
_cell_angle_beta   90.00000000
_cell_angle_gamma   90.00000000
_symmetry_Int_Tables_number   1
_chemical_formula_structural   Li4Cr2Si4O13
_chemical_formula_sum   'Li16 Cr8 Si16 O52'
_cell_volume   964.32865467
_cell_formula_units_Z   4
loop_
 _symmetry_equiv_pos_site_id
 _symmetry_equiv_pos_as_xyz
  1  'x, y, z'
loop_
 _atom_site_type_symbol
 _atom_site_label
 _atom_site_symmetry_multiplicity
 _atom_site_fract_x
 _atom_site_fract_y
 _atom_site_fract_z
 _atom_site_occupancy
  Li  Li0  1  0.17497900  0.04217000  0.22122800  1
  Li  Li1  1  0.66136200  0.10928700  0.92091200  1
  Li  Li2  1  0.64714500  0.13404700  0.10935500  1
  Li  Li3  1  0.25120100  0.21060900  0.83775900  1
  Li  Li4  1  0.75120100  0.28939100  0.33775900  1
  Li  Li5  1  0.14714500  0.36595300  0.60935500  1
  Li  Li6  1  0.16136200  0.39071300  0.42091200  1
  Li  Li7  1  0.67497900  0.45783000  0.72122800  1
  Li  Li8  1  0.32502100  0.54217000  0.22122800  1
  Li  Li9  1  0.83863800  0.60928700  0.92091200  1
  Li  Li10  1  0.85285500  0.63404700  0.10935500  1
  Li  Li11  1  0.24879900  0.71060900  0.83775900  1
  Li  Li12  1  0.74879900  0.78939100  0.33775900  1
  Li  Li13  1  0.35285500  0.86595300  0.60935500  1
  Li  Li14  1  0.33863800  0.89071300  0.42091200  1
  Li  Li15  1  0.82502100  0.95783000  0.72122800  1
  Cr  Cr16  1  0.35736600  0.07951500  0.62595100  1
  Cr  Cr17  1  0.17880300  0.17113200  0.42222700  1
  Cr  Cr18  1  0.67880300  0.32886800  0.92222700  1
  Cr  Cr19  1  0.85736600  0.42048500  0.12595100  1
  Cr  Cr20  1  0.14263400  0.57951500  0.62595100  1
  Cr  Cr21  1  0.32119700  0.67113200  0.42222700  1
  Cr  Cr22  1  0.82119700  0.82886800  0.92222700  1
  Cr  Cr23  1  0.64263400  0.92048500  0.12595100  1
  Si  Si24  1  0.15236200  0.02083800  0.00087600  1
  Si  Si25  1  0.68445100  0.06086900  0.31701500  1
  Si  Si26  1  0.84766200  0.18969700  0.72900900  1
  Si  Si27  1  0.17190600  0.22693000  0.04592700  1
  Si  Si28  1  0.67190600  0.27307000  0.54592700  1
  Si  Si29  1  0.34766200  0.31030300  0.22900900  1
  Si  Si30  1  0.18445100  0.43913100  0.81701500  1
  Si  Si31  1  0.65236200  0.47916200  0.50087600  1
  Si  Si32  1  0.34763800  0.52083800  0.00087600  1
  Si  Si33  1  0.81554900  0.56086900  0.31701500  1
  Si  Si34  1  0.65233800  0.68969700  0.72900900  1
  Si  Si35  1  0.32809400  0.72693000  0.04592700  1
  Si  Si36  1  0.82809400  0.77307000  0.54592700  1
  Si  Si37  1  0.15233800  0.81030300  0.22900900  1
  Si  Si38  1  0.31554900  0.93913100  0.81701500  1
  Si  Si39  1  0.84763800  0.97916200  0.50087600  1
  O  O40  1  0.42902000  0.02508800  0.05936200  1
  O  O41  1  0.76662800  0.03395800  0.20708600  1
  O  O42  1  0.21966000  0.03344500  0.88611500  1
  O  O43  1  0.05868900  0.06705300  0.52065200  1
  O  O44  1  0.36660000  0.07496200  0.33767900  1
  O  O45  1  0.67439800  0.09252300  0.70730300  1
  O  O46  1  0.98832900  0.12554700  0.02496700  1
  O  O47  1  0.85879100  0.15603400  0.34451000  1
  O  O48  1  0.16430700  0.17653300  0.70585300  1
  O  O49  1  0.47488600  0.18132400  0.52540300  1
  O  O50  1  0.24419900  0.21689200  0.16037300  1
  O  O51  1  0.82029300  0.21727800  0.84216700  1
  O  O52  1  0.44780000  0.21902100  0.98513400  1
  O  O53  1  0.94780000  0.28097900  0.48513400  1
  O  O54  1  0.32029300  0.28272200  0.34216700  1
  O  O55  1  0.74419900  0.28310800  0.66037300  1
  O  O56  1  0.97488600  0.31867600  0.02540300  1
  O  O57  1  0.66430700  0.32346700  0.20585300  1
  O  O58  1  0.35879100  0.34396600  0.84451000  1
  O  O59  1  0.48832900  0.37445300  0.52496700  1
  O  O60  1  0.17439800  0.40747700  0.20730300  1
  O  O61  1  0.86660000  0.42503800  0.83767900  1
  O  O62  1  0.55868900  0.43294700  0.02065200  1
  O  O63  1  0.71966000  0.46655500  0.38611500  1
  O  O64  1  0.26662800  0.46604200  0.70708600  1
  O  O65  1  0.92902000  0.47491200  0.55936200  1
  O  O66  1  0.07098000  0.52508800  0.05936200  1
  O  O67  1  0.73337200  0.53395800  0.20708600  1
  O  O68  1  0.28034000  0.53344500  0.88611500  1
  O  O69  1  0.44131100  0.56705300  0.52065200  1
  O  O70  1  0.13340000  0.57496200  0.33767900  1
  O  O71  1  0.82560200  0.59252300  0.70730300  1
  O  O72  1  0.51167100  0.62554700  0.02496700  1
  O  O73  1  0.64120900  0.65603400  0.34451000  1
  O  O74  1  0.33569300  0.67653300  0.70585300  1
  O  O75  1  0.02511400  0.68132400  0.52540300  1
  O  O76  1  0.25580100  0.71689200  0.16037300  1
  O  O77  1  0.67970700  0.71727800  0.84216700  1
  O  O78  1  0.05220000  0.71902100  0.98513400  1
  O  O79  1  0.55220000  0.78097900  0.48513400  1
  O  O80  1  0.17970700  0.78272200  0.34216700  1
  O  O81  1  0.75580100  0.78310800  0.66037300  1
  O  O82  1  0.52511400  0.81867600  0.02540300  1
  O  O83  1  0.83569300  0.82346700  0.20585300  1
  O  O84  1  0.14120900  0.84396600  0.84451000  1
  O  O85  1  0.01167100  0.87445300  0.52496700  1
  O  O86  1  0.32560200  0.90747700  0.20730300  1
  O  O87  1  0.63340000  0.92503800  0.83767900  1
  O  O88  1  0.94131100  0.93294700  0.02065200  1
  O  O89  1  0.78034000  0.96655500  0.38611500  1
  O  O90  1  0.23337200  0.96604200  0.70708600  1
  O  O91  1  0.57098000  0.97491200  0.55936200  1
