# generated using pymatgen
data_Li5V12O32
_symmetry_space_group_name_H-M   'P 1'
_cell_length_a   7.69185627
_cell_length_b   7.69185627
_cell_length_c   12.16220709
_cell_angle_alpha   74.29894484
_cell_angle_beta   74.29894484
_cell_angle_gamma   56.48995696
_symmetry_Int_Tables_number   1
_chemical_formula_structural   Li5V12O32
_chemical_formula_sum   'Li5 V12 O32'
_cell_volume   570.96116627
_cell_formula_units_Z   1
loop_
 _symmetry_equiv_pos_site_id
 _symmetry_equiv_pos_as_xyz
  1  'x, y, z'
loop_
 _atom_site_type_symbol
 _atom_site_label
 _atom_site_symmetry_multiplicity
 _atom_site_fract_x
 _atom_site_fract_y
 _atom_site_fract_z
 _atom_site_occupancy
  Li  Li0  1  0.12455500  0.12455500  0.68399600  1
  Li  Li1  1  0.62537700  0.62537700  0.68437000  1
  Li  Li2  1  0.37667800  0.87243100  0.31615700  1
  Li  Li3  1  0.87243100  0.37667800  0.31615700  1
  Li  Li4  1  0.08720800  0.08720800  0.05164700  1
  V  V5  1  0.83734700  0.83734700  0.80663300  1
  V  V6  1  0.33977600  0.33977600  0.80364600  1
  V  V7  1  0.54658600  0.04616600  0.46324300  1
  V  V8  1  0.04616600  0.54658600  0.46324300  1
  V  V9  1  0.27672100  0.27672100  0.07939600  1
  V  V10  1  0.77232100  0.77232100  0.07961400  1
  V  V11  1  0.72714500  0.22827400  0.91948700  1
  V  V12  1  0.22827400  0.72714500  0.91948700  1
  V  V13  1  0.95354900  0.95354900  0.53749400  1
  V  V14  1  0.45337700  0.45337700  0.53669300  1
  V  V15  1  0.65898800  0.15938400  0.19679300  1
  V  V16  1  0.15938400  0.65898800  0.19679300  1
  O  O17  1  0.11974200  0.61876100  0.82621900  1
  O  O18  1  0.61876100  0.11974200  0.82621900  1
  O  O19  1  0.23369800  0.23369800  0.95467400  1
  O  O20  1  0.73407500  0.73407500  0.95259800  1
  O  O21  1  0.84068400  0.84068400  0.46036700  1
  O  O22  1  0.34095200  0.34095200  0.46022300  1
  O  O23  1  0.76430700  0.76430700  0.72095800  1
  O  O24  1  0.26358200  0.26358200  0.72216100  1
  O  O25  1  0.52421900  0.02577500  0.32723200  1
  O  O26  1  0.02577500  0.52421900  0.32723200  1
  O  O27  1  0.93188100  0.43198400  0.56237900  1
  O  O28  1  0.43198400  0.93188100  0.56237900  1
  O  O29  1  0.56598900  0.06519600  0.07169900  1
  O  O30  1  0.06519600  0.56598900  0.07169900  1
  O  O31  1  0.33417400  0.83620000  0.81007100  1
  O  O32  1  0.83620000  0.33417400  0.81007100  1
  O  O33  1  0.16275200  0.16275200  0.18249400  1
  O  O34  1  0.66496500  0.66496500  0.18930000  1
  O  O35  1  0.43519700  0.43519700  0.93054500  1
  O  O36  1  0.93610000  0.93610000  0.92791200  1
  O  O37  1  0.06788600  0.06788600  0.43788200  1
  O  O38  1  0.56801400  0.56801400  0.43795700  1
  O  O39  1  0.97422500  0.97422500  0.67329800  1
  O  O40  1  0.47378400  0.47378400  0.67352800  1
  O  O41  1  0.73672300  0.23504900  0.27853000  1
  O  O42  1  0.23504900  0.73672300  0.27853000  1
  O  O43  1  0.65876800  0.15926200  0.53980400  1
  O  O44  1  0.15926200  0.65876800  0.53980400  1
  O  O45  1  0.25743300  0.77798800  0.04614200  1
  O  O46  1  0.77798800  0.25743300  0.04614200  1
  O  O47  1  0.88145100  0.88145100  0.17472900  1
  O  O48  1  0.38177700  0.38177700  0.17254600  1
