# generated using pymatgen
data_Li13Co15O28
_symmetry_space_group_name_H-M   'P 1'
_cell_length_a   7.73024500
_cell_length_b   8.33398725
_cell_length_c   8.77102724
_cell_angle_alpha   103.29165849
_cell_angle_beta   103.77767257
_cell_angle_gamma   105.83481934
_symmetry_Int_Tables_number   1
_chemical_formula_structural   Li13Co15O28
_chemical_formula_sum   'Li13 Co15 O28'
_cell_volume   500.99368954
_cell_formula_units_Z   1
loop_
 _symmetry_equiv_pos_site_id
 _symmetry_equiv_pos_as_xyz
  1  'x, y, z'
loop_
 _atom_site_type_symbol
 _atom_site_label
 _atom_site_symmetry_multiplicity
 _atom_site_fract_x
 _atom_site_fract_y
 _atom_site_fract_z
 _atom_site_occupancy
  Li  Li0  1  0.21225600  0.64382700  0.85543400  1
  Li  Li1  1  0.42689500  0.28381200  0.21399400  1
  Li  Li2  1  0.35669800  0.07246900  0.42922600  1
  Li  Li3  1  0.14074900  0.42770200  0.07125300  1
  Li  Li4  1  0.28471000  0.85536600  0.64449800  1
  Li  Li5  1  0.85925100  0.57229800  0.92874700  1
  Li  Li6  1  0.07074800  0.21488700  0.28495200  1
  Li  Li7  1  0.78774400  0.35617300  0.14456600  1
  Li  Li8  1  0.00000000  0.00000000  0.50000000  1
  Li  Li9  1  0.57310500  0.71618800  0.78600600  1
  Li  Li10  1  0.71529000  0.14463400  0.35550200  1
  Li  Li11  1  0.92925200  0.78511300  0.71504800  1
  Li  Li12  1  0.64330200  0.92753100  0.57077400  1
  Co  Co13  1  0.50000000  0.50000000  0.00000000  1
  Co  Co14  1  0.50000000  0.00000000  0.00000000  1
  Co  Co15  1  0.42547200  0.78739500  0.21614400  1
  Co  Co16  1  0.21463300  0.14143200  0.85271400  1
  Co  Co17  1  0.14060700  0.92902600  0.07149900  1
  Co  Co18  1  0.35323300  0.56896700  0.42996000  1
  Co  Co19  1  0.08398200  0.71518400  0.28400400  1
  Co  Co20  1  0.27880600  0.35609500  0.63980300  1
  Co  Co21  1  0.85939300  0.07097400  0.92850100  1
  Co  Co22  1  0.78536700  0.85856800  0.14728600  1
  Co  Co23  1  0.00000000  0.50000000  0.50000000  1
  Co  Co24  1  0.57452800  0.21260500  0.78385600  1
  Co  Co25  1  0.91601800  0.28481600  0.71599600  1
  Co  Co26  1  0.72119400  0.64390500  0.36019700  1
  Co  Co27  1  0.64676700  0.43103300  0.57004000  1
  O  O28  1  0.50790300  0.74177100  0.00371500  1
  O  O29  1  0.49209700  0.25822900  0.99628500  1
  O  O30  1  0.42575100  0.03070800  0.19885500  1
  O  O31  1  0.22999500  0.39312500  0.86224900  1
  O  O32  1  0.44564600  0.54125100  0.21208000  1
  O  O33  1  0.21918000  0.90145200  0.86708600  1
  O  O34  1  0.35529600  0.80840200  0.42943800  1
  O  O35  1  0.55435400  0.45874900  0.78792000  1
  O  O36  1  0.13530800  0.17034200  0.05853600  1
  O  O37  1  0.36304600  0.33575000  0.43443400  1
  O  O38  1  0.14192900  0.68364100  0.07861700  1
  O  O39  1  0.86469200  0.82965800  0.94146400  1
  O  O40  1  0.28098400  0.11315100  0.65144500  1
  O  O41  1  0.07447800  0.95702200  0.27825100  1
  O  O42  1  0.07541700  0.47423800  0.30201000  1
  O  O43  1  0.85807100  0.31635900  0.92138300  1
  O  O44  1  0.26743500  0.59432000  0.62829600  1
  O  O45  1  0.01047100  0.27180000  0.51354200  1
  O  O46  1  0.98952900  0.72820000  0.48645800  1
  O  O47  1  0.77000500  0.60687500  0.13775100  1
  O  O48  1  0.78082000  0.09854800  0.13291400  1
  O  O49  1  0.57424900  0.96929200  0.80114500  1
  O  O50  1  0.92458300  0.52576200  0.69799000  1
  O  O51  1  0.92552200  0.04297800  0.72174900  1
  O  O52  1  0.71901600  0.88684900  0.34855500  1
  O  O53  1  0.73256500  0.40568000  0.37170400  1
  O  O54  1  0.64470400  0.19159800  0.57056200  1
  O  O55  1  0.63695400  0.66425000  0.56556600  1
