# generated using pymatgen
data_Li24Ti5Cr7O36
_symmetry_space_group_name_H-M   'P 1'
_cell_length_a   5.05217300
_cell_length_b   9.78099537
_cell_length_c   13.41169231
_cell_angle_alpha   80.94222266
_cell_angle_beta   79.18032631
_cell_angle_gamma   85.34030278
_symmetry_Int_Tables_number   1
_chemical_formula_structural   Li24Ti5Cr7O36
_chemical_formula_sum   'Li24 Ti5 Cr7 O36'
_cell_volume   641.93019499
_cell_formula_units_Z   1
loop_
 _symmetry_equiv_pos_site_id
 _symmetry_equiv_pos_as_xyz
  1  'x, y, z'
loop_
 _atom_site_type_symbol
 _atom_site_label
 _atom_site_symmetry_multiplicity
 _atom_site_fract_x
 _atom_site_fract_y
 _atom_site_fract_z
 _atom_site_occupancy
  Li  Li0  1  0.66480300  0.00093500  0.16723400  1
  Li  Li1  1  0.56620000  0.00190500  0.38583600  1
  Li  Li2  1  0.24723700  0.74919100  0.75079400  1
  Li  Li3  1  0.58508100  0.75052100  0.08291300  1
  Li  Li4  1  0.06534600  0.49881300  0.88806300  1
  Li  Li5  1  0.40655100  0.50051100  0.22121900  1
  Li  Li6  1  0.16603200  0.50051600  0.66749700  1
  Li  Li7  1  0.50046000  0.50119400  0.00032900  1
  Li  Li8  1  0.26743500  0.50277200  0.44421600  1
  Li  Li9  1  0.08383100  0.25025600  0.58354000  1
  Li  Li10  1  0.99081600  0.99696700  0.50001500  1
  Li  Li11  1  0.77156200  0.99835800  0.94887100  1
  Li  Li12  1  0.10440600  0.99676700  0.28188900  1
  Li  Li13  1  0.89804700  0.99800500  0.71924200  1
  Li  Li14  1  0.22610200  0.00194200  0.05091300  1
  Li  Li15  1  0.91806500  0.74999900  0.41750200  1
  Li  Li16  1  0.73800900  0.49854900  0.55581700  1
  Li  Li17  1  0.82357900  0.49881900  0.33429500  1
  Li  Li18  1  0.59879600  0.50129100  0.77722200  1
  Li  Li19  1  0.93125900  0.49861200  0.11229800  1
  Li  Li20  1  0.41637400  0.25039600  0.91546400  1
  Li  Li21  1  0.34237600  0.00182300  0.83277100  1
  Li  Li22  1  0.74791300  0.24996200  0.25009900  1
  Li  Li23  1  0.43457600  0.00178200  0.61261300  1
  Ti  Ti24  1  0.35608000  0.75758500  0.52617100  1
  Ti  Ti25  1  0.97497300  0.24727000  0.80676000  1
  Ti  Ti26  1  0.19724300  0.24686200  0.36168300  1
  Ti  Ti27  1  0.30007400  0.25478900  0.13882200  1
  Ti  Ti28  1  0.03570900  0.74486900  0.19168200  1
  Cr  Cr29  1  0.85678100  0.24905600  0.02683600  1
  Cr  Cr30  1  0.47875800  0.75078500  0.30582300  1
  Cr  Cr31  1  0.69591100  0.74712100  0.86481500  1
  Cr  Cr32  1  0.79616700  0.74829500  0.64194200  1
  Cr  Cr33  1  0.52644200  0.25305800  0.69263800  1
  Cr  Cr34  1  0.64298900  0.24900700  0.47466000  1
  Cr  Cr35  1  0.14058700  0.75185100  0.96797100  1
  O  O36  1  0.93245000  0.86169600  0.06874100  1
  O  O37  1  0.71826600  0.63319900  0.21328000  1
  O  O38  1  0.42432000  0.36203100  0.57597000  1
  O  O39  1  0.50085600  0.36191100  0.35941700  1
  O  O40  1  0.61509300  0.36653300  0.11922800  1
  O  O41  1  0.25584500  0.86554900  0.40528800  1
  O  O42  1  0.22481600  0.13443400  0.71363900  1
  O  O43  1  0.33527500  0.13872300  0.47863600  1
  O  O44  1  0.55654000  0.13542200  0.04670800  1
  O  O45  1  0.00816900  0.86239100  0.85837500  1
  O  O46  1  0.11503500  0.86416100  0.62079800  1
  O  O47  1  0.33732200  0.86193200  0.19052100  1
  O  O48  1  0.40335400  0.13625500  0.26196400  1
  O  O49  1  0.82549200  0.63784100  0.97451500  1
  O  O50  1  0.04475300  0.63552200  0.55095700  1
  O  O51  1  0.17095900  0.63834200  0.31056300  1
  O  O52  1  0.90158200  0.63700800  0.76622700  1
  O  O53  1  0.24075800  0.63698100  0.09251100  1
  O  O54  1  0.76083300  0.36127800  0.90780900  1
  O  O55  1  0.09460300  0.36515300  0.23786700  1
  O  O56  1  0.83081000  0.36114200  0.68926200  1
  O  O57  1  0.94213200  0.36536500  0.45339900  1
  O  O58  1  0.16311300  0.36205500  0.02152900  1
  O  O59  1  0.59953600  0.85959500  0.73683200  1
  O  O60  1  0.66558400  0.13752700  0.80777600  1
  O  O61  1  0.88332300  0.13374200  0.38092900  1
  O  O62  1  0.99629200  0.13842900  0.14156000  1
  O  O63  1  0.46221900  0.86510700  0.94744400  1
  O  O64  1  0.66456300  0.86402700  0.52289500  1
  O  O65  1  0.77770500  0.86461300  0.28510000  1
  O  O66  1  0.74245300  0.13898600  0.59194400  1
  O  O67  1  0.37085600  0.63580700  0.88395100  1
  O  O68  1  0.50751200  0.63663900  0.64466600  1
  O  O69  1  0.57107200  0.63849600  0.42560000  1
  O  O70  1  0.28209300  0.36712500  0.78611400  1
  O  O71  1  0.07784800  0.13454700  0.92753200  1
