# generated using pymatgen
data_Li4Fe2Ni3Sn3O16
_symmetry_space_group_name_H-M   'P 1'
_cell_length_a   6.02123200
_cell_length_b   6.02289276
_cell_length_c   9.61598913
_cell_angle_alpha   88.51425186
_cell_angle_beta   88.85640246
_cell_angle_gamma   60.63545588
_symmetry_Int_Tables_number   1
_chemical_formula_structural   Li4Fe2Ni3Sn3O16
_chemical_formula_sum   'Li4 Fe2 Ni3 Sn3 O16'
_cell_volume   303.80819625
_cell_formula_units_Z   1
loop_
 _symmetry_equiv_pos_site_id
 _symmetry_equiv_pos_as_xyz
  1  'x, y, z'
loop_
 _atom_site_type_symbol
 _atom_site_label
 _atom_site_symmetry_multiplicity
 _atom_site_fract_x
 _atom_site_fract_y
 _atom_site_fract_z
 _atom_site_occupancy
  Li  Li0  1  0.32728400  0.31999800  0.11561600  1
  Li  Li1  1  0.02127800  0.02318500  0.00723100  1
  Li  Li2  1  0.01453000  0.01546100  0.49716500  1
  Li  Li3  1  0.66420800  0.66022200  0.60178800  1
  Fe  Fe4  1  0.32721700  0.33733800  0.50325400  1
  Fe  Fe5  1  0.66046000  0.65576100  0.01150200  1
  Ni  Ni6  1  0.16809100  0.16917700  0.78142800  1
  Ni  Ni7  1  0.33977700  0.82611900  0.28437400  1
  Ni  Ni8  1  0.82990500  0.34117100  0.28591300  1
  Sn  Sn9  1  0.16783700  0.65933100  0.78833600  1
  Sn  Sn10  1  0.65918300  0.16681900  0.78731100  1
  Sn  Sn11  1  0.82819500  0.83382700  0.28592500  1
  O  O12  1  0.16966900  0.68294300  0.40048200  1
  O  O13  1  0.48050200  0.48255400  0.65223700  1
  O  O14  1  0.33240900  0.32966400  0.90734900  1
  O  O15  1  0.99715300  0.99782000  0.68173300  1
  O  O16  1  0.99630200  0.02708000  0.19210200  1
  O  O17  1  0.67895400  0.17176600  0.40208900  1
  O  O18  1  0.03488200  0.47272300  0.65890900  1
  O  O19  1  0.46860700  0.03669300  0.65740700  1
  O  O20  1  0.83808500  0.83664900  0.91604200  1
  O  O21  1  0.15561900  0.18414900  0.39163000  1
  O  O22  1  0.50517700  0.95341400  0.16132200  1
  O  O23  1  0.95763400  0.50576600  0.16223400  1
  O  O24  1  0.66972000  0.64165900  0.39276900  1
  O  O25  1  0.33050500  0.83944600  0.90061700  1
  O  O26  1  0.53241200  0.50053700  0.16773400  1
  O  O27  1  0.84410400  0.32903100  0.89765900  1
