# generated using pymatgen
data_Li2CoP2O7
_symmetry_space_group_name_H-M   'P 1'
_cell_length_a   5.11947900
_cell_length_b   8.11099900
_cell_length_c   14.17029054
_cell_angle_alpha   67.75143257
_cell_angle_beta   90.00000000
_cell_angle_gamma   90.00000000
_symmetry_Int_Tables_number   1
_chemical_formula_structural   Li2CoP2O7
_chemical_formula_sum   'Li8 Co4 P8 O28'
_cell_volume   544.60138340
_cell_formula_units_Z   4
loop_
 _symmetry_equiv_pos_site_id
 _symmetry_equiv_pos_as_xyz
  1  'x, y, z'
loop_
 _atom_site_type_symbol
 _atom_site_label
 _atom_site_symmetry_multiplicity
 _atom_site_fract_x
 _atom_site_fract_y
 _atom_site_fract_z
 _atom_site_occupancy
  Li  Li0  1  0.18293000  0.97592400  0.67842400  1
  Li  Li1  1  0.31707000  0.97592400  0.17842400  1
  Li  Li2  1  0.71917700  0.42541200  0.83821300  1
  Li  Li3  1  0.21917700  0.57458800  0.66178700  1
  Li  Li4  1  0.78082300  0.42541200  0.33821300  1
  Li  Li5  1  0.28082300  0.57458800  0.16178700  1
  Li  Li6  1  0.68293000  0.02407600  0.82157600  1
  Li  Li7  1  0.81707000  0.02407600  0.32157600  1
  Co  Co8  1  0.28676500  0.72345000  0.87814200  1
  Co  Co9  1  0.21323500  0.72345000  0.37814200  1
  Co  Co10  1  0.78676500  0.27655000  0.62185800  1
  Co  Co11  1  0.71323500  0.27655000  0.12185800  1
  P  P12  1  0.70656400  0.81241000  0.69243100  1
  P  P13  1  0.71137000  0.69883200  0.52134200  1
  P  P14  1  0.79343600  0.81241000  0.19243100  1
  P  P15  1  0.21137000  0.30116800  0.97865800  1
  P  P16  1  0.78863000  0.69883200  0.02134200  1
  P  P17  1  0.20656400  0.18759000  0.80756900  1
  P  P18  1  0.28863000  0.30116800  0.47865800  1
  P  P19  1  0.29343600  0.18759000  0.30756900  1
  O  O20  1  0.27052000  0.00274700  0.80647000  1
  O  O21  1  0.22948000  0.00274700  0.30647000  1
  O  O22  1  0.65574000  0.78362300  0.91778600  1
  O  O23  1  0.75213800  0.84608600  0.57274400  1
  O  O24  1  0.41670800  0.76294000  0.71606900  1
  O  O25  1  0.89620800  0.67001000  0.75706600  1
  O  O26  1  0.41524000  0.67624800  0.51328300  1
  O  O27  1  0.84426000  0.78362300  0.41778600  1
  O  O28  1  0.74786200  0.84608600  0.07274400  1
  O  O29  1  0.35507000  0.46698600  0.90667600  1
  O  O30  1  0.08329200  0.76294000  0.21606900  1
  O  O31  1  0.60379200  0.67001000  0.25706600  1
  O  O32  1  0.85507000  0.53301400  0.59332400  1
  O  O33  1  0.08476000  0.67624800  0.01328300  1
  O  O34  1  0.91524000  0.32375200  0.98671700  1
  O  O35  1  0.14493000  0.46698600  0.40667600  1
  O  O36  1  0.39620800  0.32999000  0.74293400  1
  O  O37  1  0.91670800  0.23706000  0.78393100  1
  O  O38  1  0.64493000  0.53301400  0.09332400  1
  O  O39  1  0.25213800  0.15391400  0.92725600  1
  O  O40  1  0.15574000  0.21637700  0.58221400  1
  O  O41  1  0.58476000  0.32375200  0.48671700  1
  O  O42  1  0.10379200  0.32999000  0.24293400  1
  O  O43  1  0.58329200  0.23706000  0.28393100  1
  O  O44  1  0.24786200  0.15391400  0.42725600  1
  O  O45  1  0.34426000  0.21637700  0.08221400  1
  O  O46  1  0.77052000  0.99725300  0.69353000  1
  O  O47  1  0.72948000  0.99725300  0.19353000  1
