# generated using pymatgen
data_Li4Mn5Sb3O16
_symmetry_space_group_name_H-M   'P 1'
_cell_length_a   6.19055433
_cell_length_b   6.19055433
_cell_length_c   9.93039499
_cell_angle_alpha   89.67469059
_cell_angle_beta   89.67469059
_cell_angle_gamma   59.32982061
_symmetry_Int_Tables_number   1
_chemical_formula_structural   Li4Mn5Sb3O16
_chemical_formula_sum   'Li4 Mn5 Sb3 O16'
_cell_volume   327.32132826
_cell_formula_units_Z   1
loop_
 _symmetry_equiv_pos_site_id
 _symmetry_equiv_pos_as_xyz
  1  'x, y, z'
loop_
 _atom_site_type_symbol
 _atom_site_label
 _atom_site_symmetry_multiplicity
 _atom_site_fract_x
 _atom_site_fract_y
 _atom_site_fract_z
 _atom_site_occupancy
  Li  Li0  1  0.66228400  0.66228400  0.12689400  1
  Li  Li1  1  0.99014900  0.99014900  0.00777100  1
  Li  Li2  1  0.99747800  0.99747800  0.49333200  1
  Li  Li3  1  0.32432400  0.32432400  0.60141800  1
  Mn  Mn4  1  0.67646500  0.67646500  0.48879700  1
  Mn  Mn5  1  0.83177900  0.83177900  0.78340300  1
  Mn  Mn6  1  0.34431000  0.34431000  0.01425500  1
  Mn  Mn7  1  0.16984900  0.66393700  0.28562000  1
  Mn  Mn8  1  0.66393700  0.16984900  0.28562000  1
  Sb  Sb9  1  0.33745700  0.83062800  0.78413700  1
  Sb  Sb10  1  0.83062800  0.33745700  0.78413700  1
  Sb  Sb11  1  0.17122300  0.17122300  0.28393200  1
  O  O12  1  0.31505600  0.85006300  0.39546900  1
  O  O13  1  0.51131500  0.51131500  0.67006800  1
  O  O14  1  0.65230400  0.65230400  0.90252800  1
  O  O15  1  0.01156100  0.01156100  0.67709700  1
  O  O16  1  0.01162100  0.01162100  0.18269300  1
  O  O17  1  0.85006300  0.31505600  0.39546900  1
  O  O18  1  0.51034500  0.96313200  0.67223800  1
  O  O19  1  0.96313200  0.51034500  0.67223800  1
  O  O20  1  0.15361000  0.15361000  0.89691500  1
  O  O21  1  0.84951000  0.84951000  0.38753500  1
  O  O22  1  0.03272700  0.48307700  0.16736600  1
  O  O23  1  0.48307700  0.03272700  0.16736600  1
  O  O24  1  0.32285700  0.32285700  0.40187600  1
  O  O25  1  0.16126400  0.69144700  0.89210400  1
  O  O26  1  0.47954700  0.47954700  0.17982300  1
  O  O27  1  0.69144700  0.16126400  0.89210400  1
