# generated using pymatgen
data_Li3Sb(PO4)2
_symmetry_space_group_name_H-M   'P 1'
_cell_length_a   6.46814200
_cell_length_b   4.76801800
_cell_length_c   10.59232513
_cell_angle_alpha   88.53779437
_cell_angle_beta   90.00000000
_cell_angle_gamma   90.00000000
_symmetry_Int_Tables_number   1
_chemical_formula_structural   Li3Sb(PO4)2
_chemical_formula_sum   'Li6 Sb2 P4 O16'
_cell_volume   326.56323874
_cell_formula_units_Z   2
loop_
 _symmetry_equiv_pos_site_id
 _symmetry_equiv_pos_as_xyz
  1  'x, y, z'
loop_
 _atom_site_type_symbol
 _atom_site_label
 _atom_site_symmetry_multiplicity
 _atom_site_fract_x
 _atom_site_fract_y
 _atom_site_fract_z
 _atom_site_occupancy
  Li  Li0  1  0.00000000  0.00000000  0.00000000  1
  Li  Li1  1  0.50000000  0.00000000  0.00000000  1
  Li  Li2  1  0.25000000  0.50847800  0.78572700  1
  Li  Li3  1  0.00000000  0.50000000  0.50000000  1
  Li  Li4  1  0.50000000  0.50000000  0.50000000  1
  Li  Li5  1  0.75000000  0.49152200  0.21427300  1
  Sb  Sb6  1  0.75000000  0.01415900  0.71825800  1
  Sb  Sb7  1  0.25000000  0.98584100  0.28174200  1
  P  P8  1  0.75000000  0.58618000  0.91714000  1
  P  P9  1  0.25000000  0.09690700  0.59030500  1
  P  P10  1  0.75000000  0.90309300  0.40969500  1
  P  P11  1  0.25000000  0.41382000  0.08286000  1
  O  O12  1  0.25000000  0.28388200  0.95149100  1
  O  O13  1  0.75000000  0.26371000  0.92110300  1
  O  O14  1  0.94052600  0.71251300  0.83863400  1
  O  O15  1  0.55947400  0.71251300  0.83863400  1
  O  O16  1  0.44223000  0.22725200  0.65502200  1
  O  O17  1  0.05777000  0.22725200  0.65502200  1
  O  O18  1  0.25000000  0.77796400  0.58727200  1
  O  O19  1  0.75000000  0.75844800  0.54855200  1
  O  O20  1  0.25000000  0.24155200  0.45144800  1
  O  O21  1  0.75000000  0.22203600  0.41272800  1
  O  O22  1  0.94223000  0.77274800  0.34497800  1
  O  O23  1  0.55777000  0.77274800  0.34497800  1
  O  O24  1  0.44052600  0.28748700  0.16136600  1
  O  O25  1  0.05947400  0.28748700  0.16136600  1
  O  O26  1  0.25000000  0.73629000  0.07889700  1
  O  O27  1  0.75000000  0.71611800  0.04850900  1
