# generated using pymatgen
data_Li2MnCo3O8
_symmetry_space_group_name_H-M   'P 1'
_cell_length_a   8.11967700
_cell_length_b   8.11967700
_cell_length_c   8.11967700
_cell_angle_alpha   90.00000000
_cell_angle_beta   90.00000000
_cell_angle_gamma   90.00000000
_symmetry_Int_Tables_number   1
_chemical_formula_structural   Li2MnCo3O8
_chemical_formula_sum   'Li8 Mn4 Co12 O32'
_cell_volume   535.32344011
_cell_formula_units_Z   4
loop_
 _symmetry_equiv_pos_site_id
 _symmetry_equiv_pos_as_xyz
  1  'x, y, z'
loop_
 _atom_site_type_symbol
 _atom_site_label
 _atom_site_symmetry_multiplicity
 _atom_site_fract_x
 _atom_site_fract_y
 _atom_site_fract_z
 _atom_site_occupancy
  Li  Li0  1  0.49738600  0.49738600  0.49738600  1
  Li  Li1  1  0.75261400  0.75261400  0.75261400  1
  Li  Li2  1  0.74738600  0.24738600  0.25261400  1
  Li  Li3  1  0.00261400  0.50261400  0.99738600  1
  Li  Li4  1  0.99738600  0.00261400  0.50261400  1
  Li  Li5  1  0.25261400  0.74738600  0.24738600  1
  Li  Li6  1  0.24738600  0.25261400  0.74738600  1
  Li  Li7  1  0.50261400  0.99738600  0.00261400  1
  Mn  Mn8  1  0.62500000  0.37500000  0.87500000  1
  Mn  Mn9  1  0.87500000  0.62500000  0.37500000  1
  Mn  Mn10  1  0.12500000  0.12500000  0.12500000  1
  Mn  Mn11  1  0.37500000  0.87500000  0.62500000  1
  Co  Co12  1  0.62479000  0.62521000  0.12500000  1
  Co  Co13  1  0.62500000  0.87521000  0.37479000  1
  Co  Co14  1  0.62521000  0.12500000  0.62479000  1
  Co  Co15  1  0.87479000  0.87500000  0.12479000  1
  Co  Co16  1  0.87500000  0.12479000  0.87479000  1
  Co  Co17  1  0.87521000  0.37479000  0.62500000  1
  Co  Co18  1  0.12479000  0.87479000  0.87500000  1
  Co  Co19  1  0.12500000  0.62479000  0.62521000  1
  Co  Co20  1  0.12521000  0.37500000  0.37521000  1
  Co  Co21  1  0.37479000  0.62500000  0.87521000  1
  Co  Co22  1  0.37500000  0.37521000  0.12521000  1
  Co  Co23  1  0.37521000  0.12521000  0.37500000  1
  O  O24  1  0.61163500  0.61241100  0.88880300  1
  O  O25  1  0.61119700  0.38836500  0.11241100  1
  O  O26  1  0.60973200  0.10973200  0.39026800  1
  O  O27  1  0.63758900  0.63836500  0.36119700  1
  O  O28  1  0.61241100  0.88880300  0.61163500  1
  O  O29  1  0.64026800  0.85973200  0.14026800  1
  O  O30  1  0.63880300  0.13758900  0.86163500  1
  O  O31  1  0.63836500  0.36119700  0.63758900  1
  O  O32  1  0.86163500  0.63880300  0.13758900  1
  O  O33  1  0.86119700  0.86241100  0.36163500  1
  O  O34  1  0.85973200  0.14026800  0.64026800  1
  O  O35  1  0.88758900  0.11119700  0.11163500  1
  O  O36  1  0.86241100  0.36163500  0.86119700  1
  O  O37  1  0.89026800  0.89026800  0.89026800  1
  O  O38  1  0.88880300  0.61163500  0.61241100  1
  O  O39  1  0.88836500  0.38758900  0.38880300  1
  O  O40  1  0.11163500  0.88758900  0.11119700  1
  O  O41  1  0.11119700  0.11163500  0.88758900  1
  O  O42  1  0.10973200  0.39026800  0.60973200  1
  O  O43  1  0.13758900  0.86163500  0.63880300  1
  O  O44  1  0.11241100  0.61119700  0.38836500  1
  O  O45  1  0.14026800  0.64026800  0.85973200  1
  O  O46  1  0.13880300  0.36241100  0.13836500  1
  O  O47  1  0.13836500  0.13880300  0.36241100  1
  O  O48  1  0.36163500  0.86119700  0.86241100  1
  O  O49  1  0.36119700  0.63758900  0.63836500  1
  O  O50  1  0.35973200  0.35973200  0.35973200  1
  O  O51  1  0.38758900  0.38880300  0.88836500  1
  O  O52  1  0.36241100  0.13836500  0.13880300  1
  O  O53  1  0.39026800  0.60973200  0.10973200  1
  O  O54  1  0.38880300  0.88836500  0.38758900  1
  O  O55  1  0.38836500  0.11241100  0.61119700  1
