# generated using pymatgen
data_LiV2(PO4)3
_symmetry_space_group_name_H-M   'P 1'
_cell_length_a   8.74363000
_cell_length_b   8.86734500
_cell_length_c   12.17461600
_cell_angle_alpha   90.00000000
_cell_angle_beta   90.00000000
_cell_angle_gamma   90.00000000
_symmetry_Int_Tables_number   1
_chemical_formula_structural   LiV2(PO4)3
_chemical_formula_sum   'Li4 V8 P12 O48'
_cell_volume   943.93186972
_cell_formula_units_Z   4
loop_
 _symmetry_equiv_pos_site_id
 _symmetry_equiv_pos_as_xyz
  1  'x, y, z'
loop_
 _atom_site_type_symbol
 _atom_site_label
 _atom_site_symmetry_multiplicity
 _atom_site_fract_x
 _atom_site_fract_y
 _atom_site_fract_z
 _atom_site_occupancy
  Li  Li0  1  0.18026100  0.68627800  0.25000000  1
  Li  Li1  1  0.18026100  0.81372200  0.75000000  1
  Li  Li2  1  0.81973900  0.18627800  0.25000000  1
  Li  Li3  1  0.81973900  0.31372200  0.75000000  1
  V  V4  1  0.24634600  0.02403100  0.10441400  1
  V  V5  1  0.24634600  0.02403100  0.39558600  1
  V  V6  1  0.24634600  0.47596900  0.60441400  1
  V  V7  1  0.24634600  0.47596900  0.89558600  1
  V  V8  1  0.75365400  0.97596900  0.89558600  1
  V  V9  1  0.75365400  0.52403100  0.10441400  1
  V  V10  1  0.75365400  0.52403100  0.39558600  1
  V  V11  1  0.75365400  0.97596900  0.60441400  1
  P  P12  1  0.02964900  0.75000000  0.00000000  1
  P  P13  1  0.02964900  0.75000000  0.50000000  1
  P  P14  1  0.39840400  0.37310300  0.12913700  1
  P  P15  1  0.39840400  0.12689700  0.62913700  1
  P  P16  1  0.39840400  0.12689700  0.87086300  1
  P  P17  1  0.39840400  0.37310300  0.37086300  1
  P  P18  1  0.60159600  0.62689700  0.87086300  1
  P  P19  1  0.60159600  0.62689700  0.62913700  1
  P  P20  1  0.60159600  0.87310300  0.12913700  1
  P  P21  1  0.60159600  0.87310300  0.37086300  1
  P  P22  1  0.97035100  0.25000000  0.00000000  1
  P  P23  1  0.97035100  0.25000000  0.50000000  1
  O  O24  1  0.06467000  0.14303400  0.42667900  1
  O  O25  1  0.06467000  0.35696600  0.57332100  1
  O  O26  1  0.06467000  0.14303400  0.07332100  1
  O  O27  1  0.06467000  0.35696600  0.92667900  1
  O  O28  1  0.13035500  0.83452900  0.41457300  1
  O  O29  1  0.13035500  0.83452900  0.08542700  1
  O  O30  1  0.13035500  0.66547100  0.91457300  1
  O  O31  1  0.13035500  0.66547100  0.58542700  1
  O  O32  1  0.21130600  0.01537400  0.25000000  1
  O  O33  1  0.21130600  0.48462700  0.75000000  1
  O  O34  1  0.29387100  0.03065100  0.55797700  1
  O  O35  1  0.29387100  0.46934900  0.05797700  1
  O  O36  1  0.29387100  0.46934900  0.44202300  1
  O  O37  1  0.29387100  0.03065100  0.94202300  1
  O  O38  1  0.34411400  0.06676900  0.75000000  1
  O  O39  1  0.34411400  0.43323100  0.25000000  1
  O  O40  1  0.37172800  0.20440500  0.37750100  1
  O  O41  1  0.37172800  0.29559500  0.62249900  1
  O  O42  1  0.37172800  0.29559500  0.87750100  1
  O  O43  1  0.37172800  0.20440500  0.12249900  1
  O  O44  1  0.43048600  0.60068500  0.61925200  1
  O  O45  1  0.43048600  0.89931500  0.11925200  1
  O  O46  1  0.43048600  0.89931500  0.38074800  1
  O  O47  1  0.43048600  0.60068500  0.88074800  1
  O  O48  1  0.56951400  0.10068500  0.88074800  1
  O  O49  1  0.56951400  0.39931500  0.38074800  1
  O  O50  1  0.56951400  0.39931500  0.11925200  1
  O  O51  1  0.56951400  0.10068500  0.61925200  1
  O  O52  1  0.62827200  0.70440500  0.12249900  1
  O  O53  1  0.62827200  0.70440500  0.37750100  1
  O  O54  1  0.62827200  0.79559500  0.87750100  1
  O  O55  1  0.62827200  0.79559500  0.62249900  1
  O  O56  1  0.65588600  0.56676900  0.75000000  1
  O  O57  1  0.65588600  0.93323100  0.25000000  1
  O  O58  1  0.70612900  0.53065100  0.55797700  1
  O  O59  1  0.70612900  0.53065100  0.94202300  1
  O  O60  1  0.70612900  0.96934900  0.05797700  1
  O  O61  1  0.70612900  0.96934900  0.44202300  1
  O  O62  1  0.78869400  0.51537400  0.25000000  1
  O  O63  1  0.78869400  0.98462600  0.75000000  1
  O  O64  1  0.86964500  0.16547100  0.58542700  1
  O  O65  1  0.86964500  0.33452900  0.08542700  1
  O  O66  1  0.86964500  0.33452900  0.41457300  1
  O  O67  1  0.86964500  0.16547100  0.91457300  1
  O  O68  1  0.93533000  0.85696600  0.92667900  1
  O  O69  1  0.93533000  0.64303400  0.07332100  1
  O  O70  1  0.93533000  0.64303400  0.42667900  1
  O  O71  1  0.93533000  0.85696600  0.57332100  1
