# generated using pymatgen
data_Li7MgNi7O16
_symmetry_space_group_name_H-M   'P 1'
_cell_length_a   5.02092800
_cell_length_b   5.74454619
_cell_length_c   9.83455017
_cell_angle_alpha   105.88888529
_cell_angle_beta   100.89363621
_cell_angle_gamma   90.07699887
_symmetry_Int_Tables_number   1
_chemical_formula_structural   Li7MgNi7O16
_chemical_formula_sum   'Li7 Mg1 Ni7 O16'
_cell_volume   267.48039025
_cell_formula_units_Z   1
loop_
 _symmetry_equiv_pos_site_id
 _symmetry_equiv_pos_as_xyz
  1  'x, y, z'
loop_
 _atom_site_type_symbol
 _atom_site_label
 _atom_site_symmetry_multiplicity
 _atom_site_fract_x
 _atom_site_fract_y
 _atom_site_fract_z
 _atom_site_occupancy
  Li  Li0  1  0.24762200  0.86546900  0.74292200  1
  Li  Li1  1  0.23790200  0.37877200  0.74837400  1
  Li  Li2  1  0.50324900  0.25234000  0.99863000  1
  Li  Li3  1  0.75237800  0.13453100  0.25707800  1
  Li  Li4  1  0.76209800  0.62122800  0.25162600  1
  Li  Li5  1  0.49675100  0.74766000  0.00137000  1
  Li  Li6  1  0.00000000  0.00000000  0.50000000  1
  Mg  Mg7  1  0.00000000  0.00000000  0.00000000  1
  Ni  Ni8  1  0.74653200  0.62812000  0.74911500  1
  Ni  Ni9  1  0.73601800  0.13321100  0.75119700  1
  Ni  Ni10  1  0.00000000  0.50000000  0.00000000  1
  Ni  Ni11  1  0.25346800  0.37188000  0.25088500  1
  Ni  Ni12  1  0.26398200  0.86678900  0.24880300  1
  Ni  Ni13  1  0.50693700  0.75100100  0.50041300  1
  Ni  Ni14  1  0.49306300  0.24899900  0.49958700  1
  O  O15  1  0.08005900  0.20139700  0.87206200  1
  O  O16  1  0.63059000  0.94438000  0.86472200  1
  O  O17  1  0.36941000  0.05562000  0.13527800  1
  O  O18  1  0.91316900  0.32527400  0.12726300  1
  O  O19  1  0.62676500  0.42031800  0.86518300  1
  O  O20  1  0.08683100  0.67472600  0.87273700  1
  O  O21  1  0.37323500  0.57968200  0.13481700  1
  O  O22  1  0.91994100  0.79860300  0.12793800  1
  O  O23  1  0.58412700  0.41755800  0.37524400  1
  O  O24  1  0.16557900  0.69286600  0.36658000  1
  O  O25  1  0.84528500  0.84874100  0.63560000  1
  O  O26  1  0.59912100  0.91973700  0.37572200  1
  O  O27  1  0.41587300  0.58244200  0.62475600  1
  O  O28  1  0.15471500  0.15125900  0.36440000  1
  O  O29  1  0.40087900  0.08026300  0.62427800  1
  O  O30  1  0.83442100  0.30713400  0.63342000  1
