# generated using pymatgen
data_LiP2WO8
_symmetry_space_group_name_H-M   'P 1'
_cell_length_a   8.06584300
_cell_length_b   4.98429700
_cell_length_c   16.17842961
_cell_angle_alpha   84.27110153
_cell_angle_beta   90.00000000
_cell_angle_gamma   90.00000000
_symmetry_Int_Tables_number   1
_chemical_formula_structural   LiP2WO8
_chemical_formula_sum   'Li4 P8 W4 O32'
_cell_volume   647.16564751
_cell_formula_units_Z   4
loop_
 _symmetry_equiv_pos_site_id
 _symmetry_equiv_pos_as_xyz
  1  'x, y, z'
loop_
 _atom_site_type_symbol
 _atom_site_label
 _atom_site_symmetry_multiplicity
 _atom_site_fract_x
 _atom_site_fract_y
 _atom_site_fract_z
 _atom_site_occupancy
  Li  Li0  1  0.83662300  0.62558100  0.47291000  1
  Li  Li1  1  0.33662300  0.37441900  0.02709000  1
  Li  Li2  1  0.66337700  0.62558100  0.97291000  1
  Li  Li3  1  0.16337700  0.37441900  0.52709000  1
  P  P4  1  0.62930400  0.87560800  0.24538200  1
  P  P5  1  0.19400300  0.84625600  0.41862600  1
  P  P6  1  0.69400300  0.15374400  0.08137400  1
  P  P7  1  0.12930400  0.12439200  0.25461800  1
  P  P8  1  0.87069600  0.87560800  0.74538200  1
  P  P9  1  0.30599700  0.84625600  0.91862600  1
  P  P10  1  0.80599700  0.15374400  0.58137400  1
  P  P11  1  0.37069600  0.12439200  0.75461800  1
  W  W12  1  0.03779700  0.35361300  0.85685600  1
  W  W13  1  0.53779700  0.64638700  0.64314400  1
  W  W14  1  0.46220300  0.35361300  0.35685600  1
  W  W15  1  0.96220300  0.64638700  0.14314400  1
  O  O16  1  0.72369900  0.40409200  0.61186600  1
  O  O17  1  0.49157400  0.36098700  0.74136100  1
  O  O18  1  0.80770500  0.78212200  0.23647000  1
  O  O19  1  0.38158700  0.53499400  0.57786600  1
  O  O20  1  0.88158700  0.46500600  0.92213400  1
  O  O21  1  0.08026400  0.75825600  0.48938500  1
  O  O22  1  0.82387400  0.93403500  0.06566700  1
  O  O23  1  0.11831700  0.93013300  0.18777600  1
  O  O24  1  0.99157400  0.63901300  0.75863900  1
  O  O25  1  0.22369900  0.59590800  0.88813400  1
  O  O26  1  0.57555600  0.02724000  0.15671000  1
  O  O27  1  0.07555600  0.97276000  0.34329000  1
  O  O28  1  0.61831700  0.06986700  0.31222400  1
  O  O29  1  0.69229500  0.78212200  0.73647000  1
  O  O30  1  0.32387400  0.06596500  0.43433300  1
  O  O31  1  0.58026400  0.24174400  0.01061500  1
  O  O32  1  0.41973600  0.75825600  0.98938500  1
  O  O33  1  0.67612600  0.93403500  0.56566700  1
  O  O34  1  0.30770500  0.21787800  0.26353000  1
  O  O35  1  0.38168300  0.93013300  0.68777600  1
  O  O36  1  0.92444400  0.02724000  0.65671000  1
  O  O37  1  0.42444400  0.97276000  0.84329000  1
  O  O38  1  0.77630100  0.40409200  0.11186600  1
  O  O39  1  0.00842600  0.36098700  0.24136100  1
  O  O40  1  0.88168300  0.06986700  0.81222400  1
  O  O41  1  0.17612600  0.06596500  0.93433300  1
  O  O42  1  0.91973600  0.24174400  0.51061500  1
  O  O43  1  0.11841300  0.53499400  0.07786600  1
  O  O44  1  0.61841300  0.46500600  0.42213400  1
  O  O45  1  0.19229500  0.21787800  0.76353000  1
  O  O46  1  0.50842600  0.63901300  0.25863900  1
  O  O47  1  0.27630100  0.59590800  0.38813400  1
