# generated using pymatgen
data_Li3Mn2F9
_symmetry_space_group_name_H-M   'P 1'
_cell_length_a   5.29811400
_cell_length_b   5.32864186
_cell_length_c   15.17729131
_cell_angle_alpha   92.08517508
_cell_angle_beta   93.16868914
_cell_angle_gamma   118.37619038
_symmetry_Int_Tables_number   1
_chemical_formula_structural   Li3Mn2F9
_chemical_formula_sum   'Li6 Mn4 F18'
_cell_volume   375.46284732
_cell_formula_units_Z   2
loop_
 _symmetry_equiv_pos_site_id
 _symmetry_equiv_pos_as_xyz
  1  'x, y, z'
loop_
 _atom_site_type_symbol
 _atom_site_label
 _atom_site_symmetry_multiplicity
 _atom_site_fract_x
 _atom_site_fract_y
 _atom_site_fract_z
 _atom_site_occupancy
  Li  Li0  1  0.24862200  0.97828200  0.54580700  1
  Li  Li1  1  0.38602500  0.10025600  0.75414400  1
  Li  Li2  1  0.55821600  0.23256400  0.95518200  1
  Li  Li3  1  0.46940800  0.74253100  0.04248700  1
  Li  Li4  1  0.72544000  0.04052800  0.45224600  1
  Li  Li5  1  0.59453800  0.88126600  0.25381600  1
  Mn  Mn6  1  0.83117900  0.83135000  0.85157700  1
  Mn  Mn7  1  0.65207600  0.69015500  0.65055600  1
  Mn  Mn8  1  0.32288800  0.32018000  0.35020800  1
  Mn  Mn9  1  0.18710300  0.15415700  0.14973900  1
  F  F10  1  0.48688000  0.46940700  0.23075400  1
  F  F11  1  0.25688100  0.97513400  0.87317500  1
  F  F12  1  0.91766100  0.66569700  0.58397300  1
  F  F13  1  0.39332000  0.28930500  0.63257700  1
  F  F14  1  0.62471600  0.61936100  0.94590300  1
  F  F15  1  0.25609300  0.94452900  0.23718400  1
  F  F16  1  0.73164900  0.48489800  0.78647000  1
  F  F17  1  0.64559000  0.33530000  0.40564700  1
  F  F18  1  0.40399200  0.06135900  0.06063300  1
  F  F19  1  0.84889300  0.15365000  0.90393800  1
  F  F20  1  0.56063900  0.89931100  0.55816800  1
  F  F21  1  0.97404100  0.23181100  0.28593300  1
  F  F22  1  0.47475000  0.74157700  0.37080900  1
  F  F23  1  0.15290600  0.40928500  0.07869100  1
  F  F24  1  0.96569900  0.99656300  0.73462000  1
  F  F25  1  0.11229900  0.11202500  0.44508600  1
  F  F26  1  0.79080700  0.88474100  0.12992600  1
  F  F27  1  0.42749000  0.75447800  0.73075000  1
