# generated using pymatgen
data_Li3Fe2(PO3)7
_symmetry_space_group_name_H-M   'P 1'
_cell_length_a   6.85411600
_cell_length_b   7.13161186
_cell_length_c   19.07468092
_cell_angle_alpha   87.93083987
_cell_angle_beta   100.28473496
_cell_angle_gamma   113.81172793
_symmetry_Int_Tables_number   1
_chemical_formula_structural   Li3Fe2(PO3)7
_chemical_formula_sum   'Li6 Fe4 P14 O42'
_cell_volume   838.64353809
_cell_formula_units_Z   2
loop_
 _symmetry_equiv_pos_site_id
 _symmetry_equiv_pos_as_xyz
  1  'x, y, z'
loop_
 _atom_site_type_symbol
 _atom_site_label
 _atom_site_symmetry_multiplicity
 _atom_site_fract_x
 _atom_site_fract_y
 _atom_site_fract_z
 _atom_site_occupancy
  Li  Li0  1  0.25456300  0.79530600  0.75638300  1
  Li  Li1  1  0.44355600  0.24260500  0.57318100  1
  Li  Li2  1  0.83828000  0.85775000  0.88007800  1
  Li  Li3  1  0.16172000  0.14225000  0.11992200  1
  Li  Li4  1  0.55644400  0.75739500  0.42681900  1
  Li  Li5  1  0.74543700  0.20469400  0.24361700  1
  Fe  Fe6  1  0.60471200  0.81373700  0.61682700  1
  Fe  Fe7  1  0.37679100  0.14049700  0.87382100  1
  Fe  Fe8  1  0.62320900  0.85950300  0.12617900  1
  Fe  Fe9  1  0.39528800  0.18626300  0.38317300  1
  P  P10  1  0.29713000  0.72704900  0.96500500  1
  P  P11  1  0.19141900  0.77648900  0.49797500  1
  P  P12  1  0.01775000  0.69430600  0.06862600  1
  P  P13  1  0.09140500  0.42599200  0.40023600  1
  P  P14  1  0.04245700  0.11155500  0.72172600  1
  P  P15  1  0.35465200  0.83240300  0.26867000  1
  P  P16  1  0.46510900  0.46328900  0.75014300  1
  P  P17  1  0.53489100  0.53671100  0.24985700  1
  P  P18  1  0.64534800  0.16759700  0.73133000  1
  P  P19  1  0.95754300  0.88844500  0.27827400  1
  P  P20  1  0.90859500  0.57400800  0.59976400  1
  P  P21  1  0.98225000  0.30569400  0.93137400  1
  P  P22  1  0.80858100  0.22351100  0.50202500  1
  P  P23  1  0.70287000  0.27295100  0.03499500  1
  O  O24  1  0.09786100  0.75609400  0.99112700  1
  O  O25  1  0.97794100  0.71645000  0.53248500  1
  O  O26  1  0.30864400  0.81906000  0.89279200  1
  O  O27  1  0.07147600  0.65305400  0.66576100  1
  O  O28  1  0.22151700  0.48325800  0.95717000  1
  O  O29  1  0.02366000  0.12695700  0.90830000  1
  O  O30  1  0.09269300  0.64661800  0.42275700  1
  O  O31  1  0.27753800  0.00161600  0.48596800  1
  O  O32  1  0.09668000  0.77475500  0.25342700  1
  O  O33  1  0.50000400  0.79876200  0.02086100  1
  O  O34  1  0.11585700  0.00567500  0.78468400  1
  O  O35  1  0.24955100  0.29668500  0.69930700  1
  O  O36  1  0.33826000  0.68691600  0.54145400  1
  O  O37  1  0.16371500  0.61359100  0.11395800  1
  O  O38  1  0.32643300  0.45865900  0.40442800  1
  O  O39  1  0.43289900  0.43480100  0.82626900  1
  O  O40  1  0.45362900  0.91675200  0.34479100  1
  O  O41  1  0.45988500  0.95888300  0.21027600  1
  O  O42  1  0.07765900  0.01785700  0.34439600  1
  O  O43  1  0.51526200  0.67065700  0.71979900  1
  O  O44  1  0.34760200  0.60593900  0.26384500  1
  O  O45  1  0.65239800  0.39406100  0.73615500  1
  O  O46  1  0.48473800  0.32934300  0.28020100  1
  O  O47  1  0.92234100  0.98214300  0.65560400  1
  O  O48  1  0.54011500  0.04111700  0.78972400  1
  O  O49  1  0.54637100  0.08324800  0.65520900  1
  O  O50  1  0.56710100  0.56519900  0.17373100  1
  O  O51  1  0.67356700  0.54134100  0.59557200  1
  O  O52  1  0.83628500  0.38640900  0.88604200  1
  O  O53  1  0.66174000  0.31308400  0.45854600  1
  O  O54  1  0.75044900  0.70331500  0.30069300  1
  O  O55  1  0.88414300  0.99432500  0.21531600  1
  O  O56  1  0.49999600  0.20123800  0.97913900  1
  O  O57  1  0.90332000  0.22524500  0.74657300  1
  O  O58  1  0.72246200  0.99838400  0.51403200  1
  O  O59  1  0.90730700  0.35338200  0.57724300  1
  O  O60  1  0.97634000  0.87304300  0.09170000  1
  O  O61  1  0.77848300  0.51674200  0.04283000  1
  O  O62  1  0.92852400  0.34694600  0.33423900  1
  O  O63  1  0.69135600  0.18094000  0.10720800  1
  O  O64  1  0.02205900  0.28355000  0.46751500  1
  O  O65  1  0.90213900  0.24390600  0.00887300  1
