# generated using pymatgen
data_Li3V3(PO4)4
_symmetry_space_group_name_H-M   'P 1'
_cell_length_a   8.56369700
_cell_length_b   9.11185274
_cell_length_c   9.16457419
_cell_angle_alpha   104.19335437
_cell_angle_beta   115.04002002
_cell_angle_gamma   102.13025615
_symmetry_Int_Tables_number   1
_chemical_formula_structural   Li3V3(PO4)4
_chemical_formula_sum   'Li6 V6 P8 O32'
_cell_volume   586.64698046
_cell_formula_units_Z   2
loop_
 _symmetry_equiv_pos_site_id
 _symmetry_equiv_pos_as_xyz
  1  'x, y, z'
loop_
 _atom_site_type_symbol
 _atom_site_label
 _atom_site_symmetry_multiplicity
 _atom_site_fract_x
 _atom_site_fract_y
 _atom_site_fract_z
 _atom_site_occupancy
  Li  Li0  1  0.79762600  0.53510500  0.99020700  1
  Li  Li1  1  0.80929300  0.16265900  0.05077800  1
  Li  Li2  1  0.59046000  0.30685200  0.12065400  1
  Li  Li3  1  0.40954000  0.69314800  0.87934600  1
  Li  Li4  1  0.19070700  0.83734100  0.94922200  1
  Li  Li5  1  0.20237400  0.46489500  0.00979300  1
  V  V6  1  0.00185500  0.80352300  0.50233200  1
  V  V7  1  0.35697300  0.81302400  0.38165500  1
  V  V8  1  0.28877500  0.26212200  0.22248000  1
  V  V9  1  0.71122500  0.73787800  0.77752000  1
  V  V10  1  0.64302700  0.18697600  0.61834500  1
  V  V11  1  0.99814500  0.19647700  0.49766800  1
  P  P12  1  0.56316800  0.63040300  0.33087800  1
  P  P13  1  0.01810800  0.92454900  0.19381300  1
  P  P14  1  0.55482800  0.02831400  0.22816400  1
  P  P15  1  0.04796400  0.47055100  0.30428500  1
  P  P16  1  0.95203600  0.52944900  0.69571500  1
  P  P17  1  0.44517200  0.97168600  0.77183600  1
  P  P18  1  0.98189200  0.07545100  0.80618700  1
  P  P19  1  0.43683200  0.36959700  0.66912200  1
  O  O20  1  0.83347400  0.79089200  0.04775400  1
  O  O21  1  0.45570500  0.87442200  0.07114100  1
  O  O22  1  0.84706300  0.41721200  0.15947700  1
  O  O23  1  0.39502700  0.66556400  0.20930600  1
  O  O24  1  0.73502500  0.71023900  0.32306800  1
  O  O25  1  0.17660100  0.86326800  0.19717100  1
  O  O26  1  0.51138400  0.44509000  0.26177300  1
  O  O27  1  0.75766400  0.11194800  0.27821100  1
  O  O28  1  0.15959400  0.41979800  0.21490200  1
  O  O29  1  0.44778800  0.14465800  0.19569500  1
  O  O30  1  0.57330800  0.70740200  0.51015200  1
  O  O31  1  0.03109400  0.96114100  0.37637500  1
  O  O32  1  0.13261300  0.66325400  0.39000800  1
  O  O33  1  0.92901000  0.61007000  0.56383800  1
  O  O34  1  0.04877500  0.08888900  0.16987000  1
  O  O35  1  0.43616000  0.99726900  0.60167400  1
  O  O36  1  0.56384000  0.00273100  0.39832600  1
  O  O37  1  0.95122500  0.91111100  0.83013000  1
  O  O38  1  0.07099000  0.38993000  0.43616200  1
  O  O39  1  0.86738700  0.33674600  0.60999200  1
  O  O40  1  0.96890600  0.03885900  0.62362500  1
  O  O41  1  0.42669200  0.29259800  0.48984800  1
  O  O42  1  0.55221200  0.85534200  0.80430500  1
  O  O43  1  0.84040600  0.58020200  0.78509800  1
  O  O44  1  0.24233600  0.88805200  0.72178900  1
  O  O45  1  0.48861600  0.55491000  0.73822700  1
  O  O46  1  0.82339900  0.13673200  0.80282900  1
  O  O47  1  0.26497500  0.28976100  0.67693200  1
  O  O48  1  0.60497300  0.33443600  0.79069400  1
  O  O49  1  0.15293700  0.58278800  0.84052300  1
  O  O50  1  0.54429500  0.12557800  0.92885900  1
  O  O51  1  0.16652600  0.20910800  0.95224600  1
