# generated using pymatgen
data_Li2Sn(PO3)4
_symmetry_space_group_name_H-M   'P 1'
_cell_length_a   14.31529400
_cell_length_b   7.74774300
_cell_length_c   12.08978864
_cell_angle_alpha   59.59913874
_cell_angle_beta   90.00000000
_cell_angle_gamma   90.00000000
_symmetry_Int_Tables_number   1
_chemical_formula_structural   Li2Sn(PO3)4
_chemical_formula_sum   'Li8 Sn4 P16 O48'
_cell_volume   1156.52850947
_cell_formula_units_Z   4
loop_
 _symmetry_equiv_pos_site_id
 _symmetry_equiv_pos_as_xyz
  1  'x, y, z'
loop_
 _atom_site_type_symbol
 _atom_site_label
 _atom_site_symmetry_multiplicity
 _atom_site_fract_x
 _atom_site_fract_y
 _atom_site_fract_z
 _atom_site_occupancy
  Li  Li0  1  0.79599100  0.39972400  0.69553300  1
  Li  Li1  1  0.36133500  0.06471900  0.07185000  1
  Li  Li2  1  0.29599100  0.60027600  0.80446700  1
  Li  Li3  1  0.86133500  0.93528100  0.42815000  1
  Li  Li4  1  0.13866500  0.06471900  0.57185000  1
  Li  Li5  1  0.70400900  0.39972400  0.19553300  1
  Li  Li6  1  0.63866500  0.93528100  0.92815000  1
  Li  Li7  1  0.20400900  0.60027600  0.30446700  1
  Sn  Sn8  1  0.35784700  0.74233500  0.48246300  1
  Sn  Sn9  1  0.85784700  0.25766500  0.01753700  1
  Sn  Sn10  1  0.14215300  0.74233500  0.98246300  1
  Sn  Sn11  1  0.64215300  0.25766500  0.51753700  1
  P  P12  1  0.16550200  0.42803200  0.63396900  1
  P  P13  1  0.58533800  0.56970000  0.64501800  1
  P  P14  1  0.69522500  0.86967600  0.20061000  1
  P  P15  1  0.08533800  0.43030000  0.85498200  1
  P  P16  1  0.08881700  0.05471200  0.11238100  1
  P  P17  1  0.66550200  0.57196800  0.86603100  1
  P  P18  1  0.58881700  0.94528800  0.38761900  1
  P  P19  1  0.19522500  0.13032400  0.29939000  1
  P  P20  1  0.80477500  0.86967600  0.70061000  1
  P  P21  1  0.41118300  0.05471200  0.61238100  1
  P  P22  1  0.33449800  0.42803200  0.13396900  1
  P  P23  1  0.91118300  0.94528800  0.88761900  1
  P  P24  1  0.91466200  0.56970000  0.14501800  1
  P  P25  1  0.30477500  0.13032400  0.79939000  1
  P  P26  1  0.41466200  0.43030000  0.35498200  1
  P  P27  1  0.83449800  0.57196800  0.36603100  1
  O  O28  1  0.25537000  0.35010000  0.73421200  1
  O  O29  1  0.66194400  0.42203500  0.66168200  1
  O  O30  1  0.12116500  0.20936800  0.96650000  1
  O  O31  1  0.85109100  0.70531000  0.41980800  1
  O  O32  1  0.63900000  0.88763500  0.09177300  1
  O  O33  1  0.48834700  0.52672900  0.62047800  1
  O  O34  1  0.08206100  0.39945800  0.73263600  1
  O  O35  1  0.14339600  0.86314500  0.15333600  1
  O  O36  1  0.68325800  0.35443000  0.95790100  1
  O  O37  1  0.18325800  0.64557000  0.54209900  1
  O  O38  1  0.62586100  0.83446700  0.31465600  1
  O  O39  1  0.58206100  0.60054200  0.76736400  1
  O  O40  1  0.98834700  0.47327100  0.87952200  1
  O  O41  1  0.62116500  0.79063200  0.53350000  1
  O  O42  1  0.98427300  0.04545400  0.12320600  1
  O  O43  1  0.76723100  0.02355900  0.18338500  1
  O  O44  1  0.26723100  0.97644100  0.31661500  1
  O  O45  1  0.48427300  0.95454600  0.37679400  1
  O  O46  1  0.16194400  0.57796500  0.83831800  1
  O  O47  1  0.75537000  0.64990000  0.76578800  1
  O  O48  1  0.12586100  0.16553300  0.18534400  1
  O  O49  1  0.64890900  0.70531000  0.91980800  1
  O  O50  1  0.86100000  0.88763500  0.59177300  1
  O  O51  1  0.35660400  0.86314500  0.65333600  1
  O  O52  1  0.64339600  0.13685500  0.34666400  1
  O  O53  1  0.13900000  0.11236500  0.40822700  1
  O  O54  1  0.35109100  0.29469000  0.08019200  1
  O  O55  1  0.87413900  0.83446700  0.81465600  1
  O  O56  1  0.24463000  0.35010000  0.23421200  1
  O  O57  1  0.83805600  0.42203500  0.16168200  1
  O  O58  1  0.51572700  0.04545400  0.62320600  1
  O  O59  1  0.73276900  0.02355900  0.68338500  1
  O  O60  1  0.23276900  0.97644100  0.81661500  1
  O  O61  1  0.01572700  0.95454600  0.87679400  1
  O  O62  1  0.37883500  0.20936800  0.46650000  1
  O  O63  1  0.01165300  0.52672900  0.12047800  1
  O  O64  1  0.41793900  0.39945800  0.23263600  1
  O  O65  1  0.37413900  0.16553300  0.68534400  1
  O  O66  1  0.81674200  0.35443000  0.45790100  1
  O  O67  1  0.31674200  0.64557000  0.04209900  1
  O  O68  1  0.85660400  0.13685500  0.84666400  1
  O  O69  1  0.91793900  0.60054200  0.26736400  1
  O  O70  1  0.51165300  0.47327100  0.37952200  1
  O  O71  1  0.36100000  0.11236500  0.90822700  1
  O  O72  1  0.14890900  0.29469000  0.58019200  1
  O  O73  1  0.87883500  0.79063200  0.03350000  1
  O  O74  1  0.33805600  0.57796500  0.33831800  1
  O  O75  1  0.74463000  0.64990000  0.26578800  1
