# generated using pymatgen
data_Li3V3P8O29
_symmetry_space_group_name_H-M   'P 1'
_cell_length_a   9.74868300
_cell_length_b   9.75999927
_cell_length_c   14.11162558
_cell_angle_alpha   89.92892671
_cell_angle_beta   89.87542537
_cell_angle_gamma   60.04368977
_symmetry_Int_Tables_number   1
_chemical_formula_structural   Li3V3P8O29
_chemical_formula_sum   'Li6 V6 P16 O58'
_cell_volume   1163.30449330
_cell_formula_units_Z   2
loop_
 _symmetry_equiv_pos_site_id
 _symmetry_equiv_pos_as_xyz
  1  'x, y, z'
loop_
 _atom_site_type_symbol
 _atom_site_label
 _atom_site_symmetry_multiplicity
 _atom_site_fract_x
 _atom_site_fract_y
 _atom_site_fract_z
 _atom_site_occupancy
  Li  Li0  1  0.22608800  0.08860200  0.55601400  1
  Li  Li1  1  0.08766800  0.68559200  0.55707100  1
  Li  Li2  1  0.23494600  0.66901800  0.06016200  1
  Li  Li3  1  0.66938000  0.09663400  0.06022300  1
  Li  Li4  1  0.68535500  0.22544100  0.55724500  1
  Li  Li5  1  0.01339300  0.03049700  0.00391500  1
  V  V6  1  0.43388700  0.56670700  0.25351900  1
  V  V7  1  0.56688800  0.43608500  0.75205800  1
  V  V8  1  0.43515600  0.99824700  0.75362800  1
  V  V9  1  0.56483700  0.99788800  0.25147700  1
  V  V10  1  0.00395500  0.43032100  0.24585500  1
  V  V11  1  0.99745700  0.56391300  0.75407200  1
  P  P12  1  0.08302200  0.22299000  0.84379900  1
  P  P13  1  0.22650900  0.08796300  0.34142600  1
  P  P14  1  0.08524600  0.68272400  0.34311300  1
  P  P15  1  0.33562800  0.33443900  0.12846400  1
  P  P16  1  0.33359800  0.33289300  0.63050200  1
  P  P17  1  0.22642000  0.68615700  0.84289300  1
  P  P18  1  0.31442600  0.77222500  0.65936600  1
  P  P19  1  0.68706800  0.08699500  0.84314200  1
  P  P20  1  0.30807800  0.91414100  0.15766800  1
  P  P21  1  0.68316100  0.22796100  0.34265200  1
  P  P22  1  0.77500900  0.31027000  0.16005500  1
  P  P23  1  0.67081200  0.66322000  0.36952500  1
  P  P24  1  0.66559400  0.66700200  0.87104200  1
  P  P25  1  0.91494300  0.31377800  0.65772000  1
  P  P26  1  0.77226800  0.91275400  0.65985700  1
  P  P27  1  0.91523700  0.77573000  0.15940300  1
  O  O28  1  0.00659200  0.23186700  0.57228900  1
  O  O29  1  0.08389700  0.25743000  0.33105400  1
  O  O30  1  0.21189800  0.99458200  0.07317800  1
  O  O31  1  0.25735300  0.08659800  0.83100900  1
  O  O32  1  0.08374500  0.38224400  0.82913500  1
  O  O33  1  0.18845700  0.33113600  0.17352700  1
  O  O34  1  0.09479900  0.52230700  0.32102600  1
  O  O35  1  0.00767400  0.78401500  0.07758400  1
  O  O36  1  0.08546100  0.65599500  0.83052700  1
  O  O37  1  0.33467900  0.18209200  0.67237700  1
  O  O38  1  0.38060600  0.09683100  0.31987700  1
  O  O39  1  0.18298100  0.48136800  0.67378700  1
  O  O40  1  0.33479900  0.33936500  0.02308600  1
  O  O41  1  0.33387000  0.33380300  0.52519600  1
  O  O42  1  0.32840400  0.48825600  0.17030400  1
  O  O43  1  0.52654800  0.09086900  0.82637400  1
  O  O44  1  0.48850500  0.18511900  0.16806400  1
  O  O45  1  0.25580300  0.65765000  0.33146500  1
  O  O46  1  0.21144400  0.79765300  0.75560100  1
  O  O47  1  0.22935200  0.76257300  0.57559900  1
  O  O48  1  0.22236500  0.76159900  0.93476300  1
  O  O49  1  0.38291700  0.52633100  0.82540200  1
  O  O50  1  0.48365300  0.33417100  0.67230500  1
  O  O51  1  0.34418000  0.73903000  0.16304900  1
  O  O52  1  0.52123300  0.38083800  0.32168900  1
  O  O53  1  0.65654700  0.08470400  0.33066200  1
  O  O54  1  0.20935800  0.99197200  0.25463100  1
  O  O55  1  0.23933100  0.00985200  0.43315800  1
  O  O56  1  0.76344000  0.00713800  0.57600200  1
  O  O57  1  0.33963400  0.91739800  0.66038100  1
  O  O58  1  0.47593700  0.61907200  0.67793000  1
  O  O59  1  0.65746300  0.25773400  0.82996000  1
  O  O60  1  0.52306500  0.66000500  0.32366000  1
  O  O61  1  0.61670500  0.46705400  0.17192900  1
  O  O62  1  0.78544700  0.20975900  0.07766100  1
  O  O63  1  0.74961900  0.23768700  0.43472300  1
  O  O64  1  0.79784100  0.21012100  0.25662000  1
  O  O65  1  0.74351000  0.34035000  0.65996400  1
  O  O66  1  0.51672000  0.81460700  0.82525500  1
  O  O67  1  0.46578900  0.91596300  0.17153000  1
  O  O68  1  0.66745100  0.51804600  0.82496900  1
  O  O69  1  0.66428000  0.66780800  0.97545800  1
  O  O70  1  0.66610800  0.66827800  0.47398400  1
  O  O71  1  0.81814200  0.52187400  0.32242900  1
  O  O72  1  0.61832900  0.90586400  0.67885600  1
  O  O73  1  0.66091200  0.81680500  0.32229200  1
  O  O74  1  0.91381100  0.34467100  0.16382200  1
  O  O75  1  0.99568100  0.20776200  0.75103300  1
  O  O76  1  0.00635800  0.20909600  0.93030200  1
  O  O77  1  0.90633000  0.47507500  0.67808200  1
  O  O78  1  0.81336800  0.66864600  0.82535400  1
  O  O79  1  0.91494500  0.61781400  0.17042400  1
  O  O80  1  0.74176900  0.91671400  0.15984200  1
  O  O81  1  0.76197900  0.01678700  0.93527800  1
  O  O82  1  0.79830800  0.99030700  0.75584500  1
  O  O83  1  0.91682300  0.74207500  0.66107100  1
  O  O84  1  0.01025100  0.75138500  0.43504800  1
  O  O85  1  0.98858300  0.79899200  0.25718900  1
