# generated using pymatgen
data_Li2Mn(FeO3)2
_symmetry_space_group_name_H-M   'P 1'
_cell_length_a   6.70192200
_cell_length_b   6.73787601
_cell_length_c   8.42105896
_cell_angle_alpha   71.07402419
_cell_angle_beta   70.74166413
_cell_angle_gamma   83.07259900
_symmetry_Int_Tables_number   1
_chemical_formula_structural   Li2Mn(FeO3)2
_chemical_formula_sum   'Li6 Mn3 Fe6 O18'
_cell_volume   339.54099202
_cell_formula_units_Z   3
loop_
 _symmetry_equiv_pos_site_id
 _symmetry_equiv_pos_as_xyz
  1  'x, y, z'
loop_
 _atom_site_type_symbol
 _atom_site_label
 _atom_site_symmetry_multiplicity
 _atom_site_fract_x
 _atom_site_fract_y
 _atom_site_fract_z
 _atom_site_occupancy
  Li  Li0  1  0.49997000  0.82701400  0.66849000  1
  Li  Li1  1  0.16812800  0.82565200  0.00248000  1
  Li  Li2  1  0.16785100  0.50243100  0.32878100  1
  Li  Li3  1  0.83214900  0.49756900  0.67121900  1
  Li  Li4  1  0.83187200  0.17434800  0.99752000  1
  Li  Li5  1  0.50003000  0.17298600  0.33151000  1
  Mn  Mn6  1  0.50000000  0.50000000  0.50000000  1
  Mn  Mn7  1  0.16823400  0.49914300  0.83368600  1
  Mn  Mn8  1  0.83176600  0.50085700  0.16631400  1
  Fe  Fe9  1  0.83170200  0.84205900  0.83209600  1
  Fe  Fe10  1  0.50291500  0.83409600  0.16459200  1
  Fe  Fe11  1  0.16334000  0.83794400  0.49838600  1
  Fe  Fe12  1  0.49708500  0.16590400  0.83540800  1
  Fe  Fe13  1  0.16829800  0.15794100  0.16790400  1
  Fe  Fe14  1  0.83666000  0.16205600  0.50161400  1
  O  O15  1  0.82313400  0.80628900  0.07848700  1
  O  O16  1  0.48067000  0.80528800  0.42260400  1
  O  O17  1  0.15807800  0.79883900  0.75514200  1
  O  O18  1  0.81275800  0.48683900  0.40903000  1
  O  O19  1  0.47999800  0.49341800  0.73644600  1
  O  O20  1  0.81481800  0.16209900  0.75060500  1
  O  O21  1  0.52000200  0.50658200  0.26355400  1
  O  O22  1  0.18724200  0.51316100  0.59097000  1
  O  O23  1  0.51933000  0.19471200  0.57739600  1
  O  O24  1  0.13699800  0.49440500  0.07826200  1
  O  O25  1  0.49148300  0.14604600  0.08622100  1
  O  O26  1  0.15628700  0.15658300  0.40701900  1
  O  O27  1  0.86300200  0.50559500  0.92173800  1
  O  O28  1  0.17686600  0.19371100  0.92151300  1
  O  O29  1  0.84192200  0.20116100  0.24485800  1
  O  O30  1  0.50851700  0.85395400  0.91377900  1
  O  O31  1  0.18518200  0.83790100  0.24939500  1
  O  O32  1  0.84371300  0.84341700  0.59298100  1
