# generated using pymatgen
data_Li2Mn3F8
_symmetry_space_group_name_H-M   'P 1'
_cell_length_a   8.84197300
_cell_length_b   8.84197300
_cell_length_c   8.84197300
_cell_angle_alpha   90.00000000
_cell_angle_beta   90.00000000
_cell_angle_gamma   90.00000000
_symmetry_Int_Tables_number   1
_chemical_formula_structural   Li2Mn3F8
_chemical_formula_sum   'Li8 Mn12 F32'
_cell_volume   691.26975105
_cell_formula_units_Z   4
loop_
 _symmetry_equiv_pos_site_id
 _symmetry_equiv_pos_as_xyz
  1  'x, y, z'
loop_
 _atom_site_type_symbol
 _atom_site_label
 _atom_site_symmetry_multiplicity
 _atom_site_fract_x
 _atom_site_fract_y
 _atom_site_fract_z
 _atom_site_occupancy
  Li  Li0  1  0.98571600  0.98571600  0.98571600  1
  Li  Li1  1  0.01428400  0.48571600  0.51428400  1
  Li  Li2  1  0.26428400  0.26428400  0.26428400  1
  Li  Li3  1  0.23571600  0.73571600  0.76428400  1
  Li  Li4  1  0.51428400  0.01428400  0.48571600  1
  Li  Li5  1  0.48571600  0.51428400  0.01428400  1
  Li  Li6  1  0.76428400  0.23571600  0.73571600  1
  Li  Li7  1  0.73571600  0.76428400  0.23571600  1
  Mn  Mn8  1  0.14999100  0.10000900  0.62500000  1
  Mn  Mn9  1  0.10000900  0.62500000  0.14999100  1
  Mn  Mn10  1  0.12500000  0.35000900  0.89999100  1
  Mn  Mn11  1  0.39999100  0.37500000  0.64999100  1
  Mn  Mn12  1  0.37500000  0.64999100  0.39999100  1
  Mn  Mn13  1  0.35000900  0.89999100  0.12500000  1
  Mn  Mn14  1  0.62500000  0.14999100  0.10000900  1
  Mn  Mn15  1  0.64999100  0.39999100  0.37500000  1
  Mn  Mn16  1  0.60000900  0.87500000  0.85000900  1
  Mn  Mn17  1  0.89999100  0.12500000  0.35000900  1
  Mn  Mn18  1  0.85000900  0.60000900  0.87500000  1
  Mn  Mn19  1  0.87500000  0.85000900  0.60000900  1
  F  F20  1  0.13269600  0.14125300  0.38567600  1
  F  F21  1  0.14125300  0.38567600  0.13269600  1
  F  F22  1  0.10874700  0.11730400  0.86432400  1
  F  F23  1  0.11730400  0.86432400  0.10874700  1
  F  F24  1  0.14708800  0.35291200  0.64708800  1
  F  F25  1  0.13567600  0.60874700  0.38269600  1
  F  F26  1  0.10291200  0.60291200  0.89708800  1
  F  F27  1  0.11432400  0.86730400  0.64125300  1
  F  F28  1  0.38567600  0.13269600  0.14125300  1
  F  F29  1  0.38269600  0.13567600  0.60874700  1
  F  F30  1  0.39708800  0.39708800  0.39708800  1
  F  F31  1  0.36432400  0.39125300  0.88269600  1
  F  F32  1  0.35291200  0.64708800  0.14708800  1
  F  F33  1  0.39125300  0.88269600  0.36432400  1
  F  F34  1  0.35874700  0.61432400  0.63269600  1
  F  F35  1  0.36730400  0.85874700  0.88567600  1
  F  F36  1  0.64708800  0.14708800  0.35291200  1
  F  F37  1  0.60874700  0.38269600  0.13567600  1
  F  F38  1  0.63269600  0.35874700  0.61432400  1
  F  F39  1  0.61432400  0.63269600  0.35874700  1
  F  F40  1  0.64125300  0.11432400  0.86730400  1
  F  F41  1  0.61730400  0.63567600  0.89125300  1
  F  F42  1  0.60291200  0.89708800  0.10291200  1
  F  F43  1  0.63567600  0.89125300  0.61730400  1
  F  F44  1  0.86432400  0.10874700  0.11730400  1
  F  F45  1  0.89708800  0.10291200  0.60291200  1
  F  F46  1  0.88269600  0.36432400  0.39125300  1
  F  F47  1  0.86730400  0.64125300  0.11432400  1
  F  F48  1  0.89125300  0.61730400  0.63567600  1
  F  F49  1  0.88567600  0.36730400  0.85874700  1
  F  F50  1  0.85874700  0.88567600  0.36730400  1
  F  F51  1  0.85291200  0.85291200  0.85291200  1
