# generated using pymatgen
data_Li2V3(P2O7)2
_symmetry_space_group_name_H-M   'P 1'
_cell_length_a   5.60403498
_cell_length_b   12.95299572
_cell_length_c   7.48277057
_cell_angle_alpha   75.93535662
_cell_angle_beta   82.77308567
_cell_angle_gamma   90.71298749
_symmetry_Int_Tables_number   1
_chemical_formula_structural   Li2V3(P2O7)2
_chemical_formula_sum   'Li4 V6 P8 O28'
_cell_volume   522.17600094
_cell_formula_units_Z   2
loop_
 _symmetry_equiv_pos_site_id
 _symmetry_equiv_pos_as_xyz
  1  'x, y, z'
loop_
 _atom_site_type_symbol
 _atom_site_label
 _atom_site_symmetry_multiplicity
 _atom_site_fract_x
 _atom_site_fract_y
 _atom_site_fract_z
 _atom_site_occupancy
  Li  Li0  1  0.65620400  0.01275500  0.69052400  1
  Li  Li1  1  0.15627900  0.51270600  0.69049700  1
  Li  Li2  1  0.84373500  0.48724800  0.30950800  1
  Li  Li3  1  0.34373800  0.98729300  0.30949700  1
  V  V4  1  0.49997600  0.50002200  0.99997400  1
  V  V5  1  0.95025700  0.75759100  0.31123300  1
  V  V6  1  0.04957200  0.24255100  0.68867900  1
  V  V7  1  0.00002000  0.99997200  0.00001600  1
  V  V8  1  0.45010800  0.25741800  0.31102600  1
  V  V9  1  0.54982000  0.74246600  0.68897600  1
  P  P10  1  0.56332000  0.36823100  0.65600600  1
  P  P11  1  0.06330500  0.86828900  0.65591100  1
  P  P12  1  0.93669400  0.13173000  0.34406900  1
  P  P13  1  0.43671000  0.63174000  0.34402800  1
  P  P14  1  0.50556400  0.15673200  0.93217500  1
  P  P15  1  0.00550300  0.65676400  0.93208900  1
  P  P16  1  0.99446100  0.34325600  0.06788700  1
  P  P17  1  0.49447300  0.84324300  0.06785300  1
  O  O18  1  0.28638700  0.12200100  0.85055500  1
  O  O19  1  0.78621000  0.62209700  0.85049000  1
  O  O20  1  0.21370800  0.37795600  0.14949300  1
  O  O21  1  0.71373500  0.87793300  0.14944900  1
  O  O22  1  0.37751900  0.32758300  0.55010800  1
  O  O23  1  0.87747000  0.82762200  0.55004900  1
  O  O24  1  0.12255900  0.17237700  0.44992800  1
  O  O25  1  0.62253200  0.67241000  0.44991100  1
  O  O26  1  0.46529000  0.13653800  0.14219300  1
  O  O27  1  0.96525500  0.63654300  0.14209700  1
  O  O28  1  0.03476000  0.36344100  0.85788000  1
  O  O29  1  0.53472600  0.86346700  0.85783900  1
  O  O30  1  0.49852600  0.46919100  0.71689900  1
  O  O31  1  0.99836900  0.96921100  0.71689100  1
  O  O32  1  0.00157200  0.03080300  0.28310100  1
  O  O33  1  0.50154300  0.53079800  0.28308000  1
  O  O34  1  0.54680600  0.28290800  0.85812700  1
  O  O35  1  0.04681300  0.78293800  0.85798400  1
  O  O36  1  0.95318400  0.21708200  0.14200900  1
  O  O37  1  0.45317600  0.71707600  0.14190700  1
  O  O38  1  0.68269500  0.13159600  0.44783300  1
  O  O39  1  0.18269700  0.63160100  0.44778100  1
  O  O40  1  0.81734800  0.36835500  0.55225900  1
  O  O41  1  0.31732800  0.86843900  0.55218300  1
  O  O42  1  0.75691300  0.38823900  0.14291400  1
  O  O43  1  0.25693200  0.88823100  0.14292800  1
  O  O44  1  0.74317900  0.11178200  0.85715100  1
  O  O45  1  0.24303300  0.61177400  0.85701100  1
