# generated using pymatgen
data_Li8Fe7(PO4)8
_symmetry_space_group_name_H-M   'P 1'
_cell_length_a   7.75840160
_cell_length_b   7.75840160
_cell_length_c   11.31403528
_cell_angle_alpha   75.05284062
_cell_angle_beta   104.94715938
_cell_angle_gamma   76.23383903
_symmetry_Int_Tables_number   1
_chemical_formula_structural   Li8Fe7(PO4)8
_chemical_formula_sum   'Li8 Fe7 P8 O32'
_cell_volume   600.94665261
_cell_formula_units_Z   1
loop_
 _symmetry_equiv_pos_site_id
 _symmetry_equiv_pos_as_xyz
  1  'x, y, z'
loop_
 _atom_site_type_symbol
 _atom_site_label
 _atom_site_symmetry_multiplicity
 _atom_site_fract_x
 _atom_site_fract_y
 _atom_site_fract_z
 _atom_site_occupancy
  Li  Li0  1  0.25870700  0.25091000  0.51898100  1
  Li  Li1  1  0.49909000  0.49129300  0.51898100  1
  Li  Li2  1  0.74841900  0.75614800  0.49670900  1
  Li  Li3  1  0.99385200  0.00158100  0.49670900  1
  Li  Li4  1  0.74523600  0.76777300  0.99549100  1
  Li  Li5  1  0.98222700  0.00476400  0.99549100  1
  Li  Li6  1  0.49876500  0.48709900  0.99354200  1
  Li  Li7  1  0.26290100  0.25123500  0.99354200  1
  Fe  Fe8  1  0.00883000  0.74117000  0.78223100  1
  Fe  Fe9  1  0.97559800  0.27003100  0.71909000  1
  Fe  Fe10  1  0.47996900  0.77440200  0.71909000  1
  Fe  Fe11  1  0.02750200  0.72249800  0.27968700  1
  Fe  Fe12  1  0.52542800  0.22457200  0.28169300  1
  Fe  Fe13  1  0.49888600  0.75238400  0.22300100  1
  Fe  Fe14  1  0.99761600  0.25111400  0.22300100  1
  P  P15  1  0.27655100  0.96510100  0.90149500  1
  P  P16  1  0.78489900  0.47344900  0.90149500  1
  P  P17  1  0.63792600  0.11207400  0.59847200  1
  P  P18  1  0.13177500  0.61822500  0.58976100  1
  P  P19  1  0.36720000  0.88273100  0.40604500  1
  P  P20  1  0.86726900  0.38280000  0.40604500  1
  P  P21  1  0.21755800  0.53244200  0.09484600  1
  P  P22  1  0.71711900  0.03288100  0.09867200  1
  O  O23  1  0.21039600  0.53960400  0.95407700  1
  O  O24  1  0.71143600  0.03856400  0.96194600  1
  O  O25  1  0.93537300  0.31401700  0.88958100  1
  O  O26  1  0.43598300  0.81462700  0.88958100  1
  O  O27  1  0.25120600  0.17279400  0.82474700  1
  O  O28  1  0.07194200  0.95977600  0.83399900  1
  O  O29  1  0.57720600  0.49879400  0.82474700  1
  O  O30  1  0.79022400  0.67805800  0.83399900  1
  O  O31  1  0.21041900  0.74659200  0.66588500  1
  O  O32  1  0.00340800  0.53958100  0.66588500  1
  O  O33  1  0.50493300  0.03010000  0.66314700  1
  O  O34  1  0.71990000  0.24506700  0.66314700  1
  O  O35  1  0.28233600  0.46766400  0.57857600  1
  O  O36  1  0.80005300  0.94994700  0.59977200  1
  O  O37  1  0.49615900  0.74956600  0.54919800  1
  O  O38  1  0.00043400  0.25384100  0.54919800  1
  O  O39  1  0.50361300  0.24638700  0.45952400  1
  O  O40  1  0.98745400  0.76254600  0.45646000  1
  O  O41  1  0.70649800  0.54452700  0.40440000  1
  O  O42  1  0.20547300  0.04350200  0.40440000  1
  O  O43  1  0.99786400  0.45204000  0.33436600  1
  O  O44  1  0.50597200  0.94849600  0.34108800  1
  O  O45  1  0.29796000  0.75213600  0.33436600  1
  O  O46  1  0.80150400  0.24402800  0.34108800  1
  O  O47  1  0.71812300  0.82931100  0.17369700  1
  O  O48  1  0.21666600  0.32943500  0.16351400  1
  O  O49  1  0.42056500  0.53333400  0.16351400  1
  O  O50  1  0.92068900  0.03187700  0.17369700  1
  O  O51  1  0.05870800  0.69129200  0.09818000  1
  O  O52  1  0.55631400  0.19368600  0.10106200  1
  O  O53  1  0.80057000  0.45272400  0.04338800  1
  O  O54  1  0.29727600  0.94943000  0.04338800  1
