# generated using pymatgen
data_Li5Nb6NiO18
_symmetry_space_group_name_H-M   'P 1'
_cell_length_a   7.67100200
_cell_length_b   9.04688264
_cell_length_c   11.24015109
_cell_angle_alpha   105.62576375
_cell_angle_beta   95.56237836
_cell_angle_gamma   113.21042405
_symmetry_Int_Tables_number   1
_chemical_formula_structural   Li5Nb6NiO18
_chemical_formula_sum   'Li10 Nb12 Ni2 O36'
_cell_volume   672.00089183
_cell_formula_units_Z   2
loop_
 _symmetry_equiv_pos_site_id
 _symmetry_equiv_pos_as_xyz
  1  'x, y, z'
loop_
 _atom_site_type_symbol
 _atom_site_label
 _atom_site_symmetry_multiplicity
 _atom_site_fract_x
 _atom_site_fract_y
 _atom_site_fract_z
 _atom_site_occupancy
  Li  Li0  1  0.21302200  0.00074100  0.28698200  1
  Li  Li1  1  0.04671500  0.66668600  0.45379100  1
  Li  Li2  1  0.37984100  0.33380500  0.12064500  1
  Li  Li3  1  0.04672000  0.66723800  0.95383900  1
  Li  Li4  1  0.71233300  0.99924300  0.78657600  1
  Li  Li5  1  0.54597400  0.66646400  0.45398200  1
  Li  Li6  1  0.87942100  0.33268600  0.12040300  1
  Li  Li7  1  0.54616100  0.66693700  0.95346600  1
  Li  Li8  1  0.37894100  0.33277800  0.62010600  1
  Li  Li9  1  0.88010100  0.33336600  0.62024900  1
  Nb  Nb10  1  0.32942800  0.66578900  0.16681100  1
  Nb  Nb11  1  0.49723700  0.99959700  0.50289000  1
  Nb  Nb12  1  0.16652800  0.33545700  0.33415400  1
  Nb  Nb13  1  0.49705500  0.00002500  0.00068800  1
  Nb  Nb14  1  0.33078600  0.66386400  0.66654700  1
  Nb  Nb15  1  0.99709100  0.99978300  0.50103500  1
  Nb  Nb16  1  0.83307200  0.66661400  0.16848000  1
  Nb  Nb17  1  0.66589200  0.33484000  0.33489500  1
  Nb  Nb18  1  0.16417100  0.33480200  0.83444700  1
  Nb  Nb19  1  0.83082600  0.66503700  0.66796800  1
  Nb  Nb20  1  0.99771500  0.00073900  0.00285100  1
  Nb  Nb21  1  0.66658700  0.33359700  0.83576800  1
  Ni  Ni22  1  0.71307200  0.00187200  0.29019100  1
  Ni  Ni23  1  0.21159700  0.99821000  0.78931200  1
  O  O24  1  0.01908200  0.87011900  0.10637300  1
  O  O25  1  0.35082100  0.78587400  0.02279900  1
  O  O26  1  0.05357300  0.58102500  0.12362200  1
  O  O27  1  0.01883200  0.86807000  0.60293000  1
  O  O28  1  0.39382700  0.87890100  0.29517600  1
  O  O29  1  0.31533300  0.46231300  0.00442100  1
  O  O30  1  0.64098600  0.75198900  0.16597700  1
  O  O31  1  0.35037900  0.78576500  0.52243000  1
  O  O32  1  0.71960500  0.91247900  0.46235000  1
  O  O33  1  0.05430000  0.58211200  0.62423300  1
  O  O34  1  0.35367900  0.53792600  0.27280500  1
  O  O35  1  0.06487200  0.21450800  0.12965300  1
  O  O36  1  0.40197200  0.87901500  0.79443000  1
  O  O37  1  0.98241500  0.79596000  0.33725000  1
  O  O38  1  0.31639500  0.46336000  0.50486900  1
  O  O39  1  0.64066500  0.75046000  0.66637400  1
  O  O40  1  0.68468900  0.45332900  0.18936700  1
  O  O41  1  0.02223900  0.12080000  0.35470900  1
  O  O42  1  0.39014600  0.24979400  0.29112300  1
  O  O43  1  0.72223900  0.91591500  0.95811200  1
  O  O44  1  0.35231100  0.53625900  0.77356700  1
  O  O45  1  0.06473700  0.21373900  0.62973900  1
  O  O46  1  0.73112600  0.54691000  0.46271600  1
  O  O47  1  0.98456900  0.79572300  0.83828500  1
  O  O48  1  0.65045800  0.13182500  0.16863900  1
  O  O49  1  0.97253000  0.41807700  0.33305800  1
  O  O50  1  0.30621100  0.08412500  0.50001500  1
  O  O51  1  0.01477900  0.12130400  0.85607000  1
  O  O52  1  0.68400700  0.45288500  0.68878900  1
  O  O53  1  0.38893300  0.24763700  0.79008100  1
  O  O54  1  0.68871900  0.20446600  0.44038900  1
  O  O55  1  0.73146300  0.54683800  0.96228600  1
  O  O56  1  0.64902700  0.13005900  0.67139300  1
  O  O57  1  0.30698200  0.08744000  0.00605700  1
  O  O58  1  0.97237900  0.41880900  0.83316200  1
  O  O59  1  0.68663400  0.20402000  0.93947700  1
