# generated using pymatgen
data_Li7Mn4P9O32
_symmetry_space_group_name_H-M   'P 1'
_cell_length_a   13.58603700
_cell_length_b   13.58603700
_cell_length_c   6.60293800
_cell_angle_alpha   90.00000000
_cell_angle_beta   90.00000000
_cell_angle_gamma   90.00000000
_symmetry_Int_Tables_number   1
_chemical_formula_structural   Li7Mn4P9O32
_chemical_formula_sum   'Li14 Mn8 P18 O64'
_cell_volume   1218.77294623
_cell_formula_units_Z   2
loop_
 _symmetry_equiv_pos_site_id
 _symmetry_equiv_pos_as_xyz
  1  'x, y, z'
loop_
 _atom_site_type_symbol
 _atom_site_label
 _atom_site_symmetry_multiplicity
 _atom_site_fract_x
 _atom_site_fract_y
 _atom_site_fract_z
 _atom_site_occupancy
  Li  Li0  1  0.00000000  0.00000000  0.00000000  1
  Li  Li1  1  0.50000000  0.00000000  0.13798700  1
  Li  Li2  1  0.50000000  0.00000000  0.63798700  1
  Li  Li3  1  0.74188600  0.09176800  0.83746200  1
  Li  Li4  1  0.59176800  0.24188600  0.33746200  1
  Li  Li5  1  0.09176800  0.25811400  0.16253800  1
  Li  Li6  1  0.24188600  0.40823200  0.66253800  1
  Li  Li7  1  0.50000000  0.50000000  0.50000000  1
  Li  Li8  1  0.00000000  0.50000000  0.36201300  1
  Li  Li9  1  0.00000000  0.50000000  0.86201300  1
  Li  Li10  1  0.75811400  0.59176800  0.66253800  1
  Li  Li11  1  0.90823200  0.74188600  0.16253800  1
  Li  Li12  1  0.40823200  0.75811400  0.33746200  1
  Li  Li13  1  0.25811400  0.90823200  0.83746200  1
  Mn  Mn14  1  0.19838200  0.11988600  0.61497400  1
  Mn  Mn15  1  0.88011400  0.19838200  0.38502600  1
  Mn  Mn16  1  0.38011400  0.30161800  0.11497400  1
  Mn  Mn17  1  0.69838200  0.38011400  0.88502600  1
  Mn  Mn18  1  0.30161800  0.61988600  0.88502600  1
  Mn  Mn19  1  0.61988600  0.69838200  0.11497400  1
  Mn  Mn20  1  0.11988600  0.80161800  0.38502600  1
  Mn  Mn21  1  0.80161800  0.88011400  0.61497400  1
  P  P22  1  0.00000000  0.00000000  0.50000000  1
  P  P23  1  0.69173000  0.06221900  0.38752300  1
  P  P24  1  0.24484900  0.10803400  0.12776900  1
  P  P25  1  0.56221900  0.19173000  0.88752300  1
  P  P26  1  0.89196600  0.24484900  0.87223100  1
  P  P27  1  0.39196600  0.25515100  0.62776900  1
  P  P28  1  0.06221900  0.30827000  0.61247700  1
  P  P29  1  0.74484900  0.39196600  0.37223100  1
  P  P30  1  0.19173000  0.43778100  0.11247700  1
  P  P31  1  0.50000000  0.50000000  0.00000000  1
  P  P32  1  0.80827000  0.56221900  0.11247700  1
  P  P33  1  0.25515100  0.60803400  0.37223100  1
  P  P34  1  0.93778100  0.69173000  0.61247700  1
  P  P35  1  0.60803400  0.74484900  0.62776900  1
  P  P36  1  0.10803400  0.75515100  0.87223100  1
  P  P37  1  0.43778100  0.80827000  0.88752300  1
  P  P38  1  0.75515100  0.89196600  0.12776900  1
  P  P39  1  0.30827000  0.93778100  0.38752300  1
  O  O40  1  0.72074000  0.00320700  0.18312000  1
  O  O41  1  0.74289600  0.01512700  0.57115100  1
  O  O42  1  0.06537600  0.06264400  0.64388900  1
  O  O43  1  0.93735600  0.06537600  0.35611100  1
  O  O44  1  0.58040600  0.06609800  0.39779900  1
  O  O45  1  0.56609800  0.08040600  0.89779900  1
  O  O46  1  0.19048500  0.09304200  0.92969300  1
  O  O47  1  0.17605600  0.14440600  0.29336200  1
  O  O48  1  0.73408400  0.16572300  0.34897200  1
  O  O49  1  0.34273300  0.16426200  0.10954800  1
  O  O50  1  0.33573800  0.15726700  0.60954800  1
  O  O51  1  0.85559400  0.17605600  0.70663800  1
  O  O52  1  0.90695800  0.19048500  0.07030700  1
  O  O53  1  0.50320700  0.22074000  0.68312000  1
  O  O54  1  0.66572300  0.23408400  0.84897200  1
  O  O55  1  0.51512700  0.24289600  0.07115100  1
  O  O56  1  0.01512700  0.25710400  0.42884900  1
  O  O57  1  0.16572300  0.26591600  0.65102800  1
  O  O58  1  0.00320700  0.27926000  0.81688000  1
  O  O59  1  0.40695800  0.30951500  0.42969300  1
  O  O60  1  0.35559400  0.32394400  0.79336200  1
  O  O61  1  0.83573800  0.34273300  0.89045200  1
  O  O62  1  0.84273300  0.33573800  0.39045200  1
  O  O63  1  0.23408400  0.33427700  0.15102800  1
  O  O64  1  0.67605600  0.35559400  0.20663800  1
  O  O65  1  0.69048500  0.40695800  0.57030700  1
  O  O66  1  0.06609800  0.41959400  0.60220100  1
  O  O67  1  0.08040600  0.43390200  0.10220100  1
  O  O68  1  0.43735600  0.43462400  0.14388900  1
  O  O69  1  0.56537600  0.43735600  0.85611100  1
  O  O70  1  0.24289600  0.48487300  0.92884900  1
  O  O71  1  0.22074000  0.49679300  0.31688000  1
  O  O72  1  0.77926000  0.50320700  0.31688000  1
  O  O73  1  0.75710400  0.51512700  0.92884900  1
  O  O74  1  0.43462400  0.56264400  0.85611100  1
  O  O75  1  0.56264400  0.56537600  0.14388900  1
  O  O76  1  0.91959400  0.56609800  0.10220100  1
  O  O77  1  0.93390200  0.58040600  0.60220100  1
  O  O78  1  0.30951500  0.59304200  0.57030700  1
  O  O79  1  0.32394400  0.64440600  0.20663800  1
  O  O80  1  0.76591600  0.66572300  0.15102800  1
  O  O81  1  0.15726700  0.66426200  0.39045200  1
  O  O82  1  0.16426200  0.65726700  0.89045200  1
  O  O83  1  0.64440600  0.67605600  0.79336200  1
  O  O84  1  0.59304200  0.69048500  0.42969300  1
  O  O85  1  0.99679300  0.72074000  0.81688000  1
  O  O86  1  0.83427700  0.73408400  0.65102800  1
  O  O87  1  0.98487300  0.74289600  0.42884900  1
  O  O88  1  0.48487300  0.75710400  0.07115100  1
  O  O89  1  0.33427700  0.76591600  0.84897200  1
  O  O90  1  0.49679300  0.77926000  0.68312000  1
  O  O91  1  0.09304200  0.80951500  0.07030700  1
  O  O92  1  0.14440600  0.82394400  0.70663800  1
  O  O93  1  0.66426200  0.84273300  0.60954800  1
  O  O94  1  0.65726700  0.83573800  0.10954800  1
  O  O95  1  0.26591600  0.83427700  0.34897200  1
  O  O96  1  0.82394400  0.85559400  0.29336200  1
  O  O97  1  0.80951500  0.90695800  0.92969300  1
  O  O98  1  0.43390200  0.91959400  0.89779900  1
  O  O99  1  0.41959400  0.93390200  0.39779900  1
  O  O100  1  0.06264400  0.93462400  0.35611100  1
  O  O101  1  0.93462400  0.93735600  0.64388900  1
  O  O102  1  0.25710400  0.98487300  0.57115100  1
  O  O103  1  0.27926000  0.99679300  0.18312000  1
