# generated using pymatgen
data_Li2Mn4OF8
_symmetry_space_group_name_H-M   'P 1'
_cell_length_a   5.44894990
_cell_length_b   5.44894990
_cell_length_c   14.68950102
_cell_angle_alpha   89.28651843
_cell_angle_beta   89.28651843
_cell_angle_gamma   59.03524878
_symmetry_Int_Tables_number   1
_chemical_formula_structural   Li2Mn4OF8
_chemical_formula_sum   'Li4 Mn8 O2 F16'
_cell_volume   373.95059365
_cell_formula_units_Z   2
loop_
 _symmetry_equiv_pos_site_id
 _symmetry_equiv_pos_as_xyz
  1  'x, y, z'
loop_
 _atom_site_type_symbol
 _atom_site_label
 _atom_site_symmetry_multiplicity
 _atom_site_fract_x
 _atom_site_fract_y
 _atom_site_fract_z
 _atom_site_occupancy
  Li  Li0  1  0.99935900  0.99159400  0.84420200  1
  Li  Li1  1  0.98613400  0.03383300  0.63398600  1
  Li  Li2  1  0.99159400  0.99935900  0.34420200  1
  Li  Li3  1  0.03383300  0.98613400  0.13398600  1
  Mn  Mn4  1  0.64433000  0.67566500  0.98005800  1
  Mn  Mn5  1  0.68265300  0.65554000  0.68325800  1
  Mn  Mn6  1  0.65554000  0.68265300  0.18325800  1
  Mn  Mn7  1  0.67566500  0.64433000  0.48005800  1
  Mn  Mn8  1  0.32911700  0.32848100  0.81491700  1
  Mn  Mn9  1  0.32848100  0.32911700  0.31491700  1
  Mn  Mn10  1  0.34486800  0.30784800  0.03281000  1
  Mn  Mn11  1  0.30784800  0.34486800  0.53281000  1
  O  O12  1  0.38549100  0.94562100  0.08201000  1
  O  O13  1  0.94562100  0.38549100  0.58201000  1
  F  F14  1  0.30305900  0.69907300  0.25203200  1
  F  F15  1  0.33594300  0.69750700  0.58259200  1
  F  F16  1  0.69750700  0.33594300  0.08259200  1
  F  F17  1  0.69907300  0.30305900  0.75203200  1
  F  F18  1  0.99058000  0.32016300  0.25457600  1
  F  F19  1  0.66735900  0.98860700  0.58385400  1
  F  F20  1  0.02114100  0.33923400  0.91592400  1
  F  F21  1  0.32016300  0.99058000  0.75457600  1
  F  F22  1  0.98860700  0.66735900  0.08385400  1
  F  F23  1  0.33923400  0.02114100  0.41592400  1
  F  F24  1  0.03396600  0.64534500  0.41269600  1
  F  F25  1  0.99844000  0.69916200  0.75400900  1
  F  F26  1  0.31746500  0.63095200  0.91631100  1
  F  F27  1  0.64534500  0.03396600  0.91269600  1
  F  F28  1  0.69916200  0.99844000  0.25400900  1
  F  F29  1  0.63095200  0.31746500  0.41631100  1
