# generated using pymatgen
data_K2Li2CoO4
_symmetry_space_group_name_H-M   'P 1'
_cell_length_a   9.12620100
_cell_length_b   5.50888900
_cell_length_c   11.16134841
_cell_angle_alpha   68.25051216
_cell_angle_beta   90.00000000
_cell_angle_gamma   90.00000000
_symmetry_Int_Tables_number   1
_chemical_formula_structural   K2Li2CoO4
_chemical_formula_sum   'K8 Li8 Co4 O16'
_cell_volume   521.19343785
_cell_formula_units_Z   4
loop_
 _symmetry_equiv_pos_site_id
 _symmetry_equiv_pos_as_xyz
  1  'x, y, z'
loop_
 _atom_site_type_symbol
 _atom_site_label
 _atom_site_symmetry_multiplicity
 _atom_site_fract_x
 _atom_site_fract_y
 _atom_site_fract_z
 _atom_site_occupancy
  K  K0  1  0.49849200  0.70380800  0.64150600  1
  K  K1  1  0.25393200  0.21089700  0.14371400  1
  K  K2  1  0.99849200  0.29619200  0.85849400  1
  K  K3  1  0.24606800  0.21089700  0.64371400  1
  K  K4  1  0.75393200  0.78910300  0.35628600  1
  K  K5  1  0.00150800  0.70380800  0.14150600  1
  K  K6  1  0.74606800  0.78910300  0.85628600  1
  K  K7  1  0.50150800  0.29619200  0.35849400  1
  Li  Li8  1  0.24334200  0.60638200  0.81368000  1
  Li  Li9  1  0.98262600  0.65177300  0.56924700  1
  Li  Li10  1  0.48262600  0.34822700  0.93075300  1
  Li  Li11  1  0.74334200  0.39361800  0.68632000  1
  Li  Li12  1  0.25665800  0.60638200  0.31368000  1
  Li  Li13  1  0.51737400  0.65177300  0.06924700  1
  Li  Li14  1  0.01737400  0.34822700  0.43075300  1
  Li  Li15  1  0.75665800  0.39361800  0.18632000  1
  Co  Co16  1  0.21370900  0.87104700  0.45291100  1
  Co  Co17  1  0.71370900  0.12895300  0.04708900  1
  Co  Co18  1  0.28629100  0.87104700  0.95291100  1
  Co  Co19  1  0.78629100  0.12895300  0.54708900  1
  O  O20  1  0.79209000  0.77329000  0.60740500  1
  O  O21  1  0.18802100  0.72325000  0.62756000  1
  O  O22  1  0.57344500  0.27561900  0.11557400  1
  O  O23  1  0.88518500  0.22969300  0.09218700  1
  O  O24  1  0.68802100  0.27675000  0.87244000  1
  O  O25  1  0.29209000  0.22671000  0.89259500  1
  O  O26  1  0.38518500  0.77030700  0.40781300  1
  O  O27  1  0.07344500  0.72438100  0.38442600  1
  O  O28  1  0.92655500  0.27561900  0.61557400  1
  O  O29  1  0.61481500  0.22969300  0.59218700  1
  O  O30  1  0.70791000  0.77329000  0.10740500  1
  O  O31  1  0.31197900  0.72325000  0.12756000  1
  O  O32  1  0.11481500  0.77030700  0.90781300  1
  O  O33  1  0.42655500  0.72438100  0.88442600  1
  O  O34  1  0.81197900  0.27675000  0.37244000  1
  O  O35  1  0.20791000  0.22671000  0.39259500  1
