# generated using pymatgen
data_Li2V3FeO8
_symmetry_space_group_name_H-M   'P 1'
_cell_length_a   8.41990200
_cell_length_b   8.41990200
_cell_length_c   8.52910100
_cell_angle_alpha   90.00000000
_cell_angle_beta   90.00000000
_cell_angle_gamma   90.00000000
_symmetry_Int_Tables_number   1
_chemical_formula_structural   Li2V3FeO8
_chemical_formula_sum   'Li8 V12 Fe4 O32'
_cell_volume   604.66848047
_cell_formula_units_Z   4
loop_
 _symmetry_equiv_pos_site_id
 _symmetry_equiv_pos_as_xyz
  1  'x, y, z'
loop_
 _atom_site_type_symbol
 _atom_site_label
 _atom_site_symmetry_multiplicity
 _atom_site_fract_x
 _atom_site_fract_y
 _atom_site_fract_z
 _atom_site_occupancy
  Li  Li0  1  0.49618900  0.74721300  0.87287300  1
  Li  Li1  1  0.25278700  0.50381100  0.62712700  1
  Li  Li2  1  0.75278700  0.99618900  0.62287300  1
  Li  Li3  1  0.99618900  0.75278700  0.37712700  1
  Li  Li4  1  0.50381100  0.25278700  0.37287300  1
  Li  Li5  1  0.74721300  0.49618900  0.12712700  1
  Li  Li6  1  0.24721300  0.00381100  0.12287300  1
  Li  Li7  1  0.00381100  0.24721300  0.87712700  1
  V  V8  1  0.87393000  0.62113500  0.75083100  1
  V  V9  1  0.63144200  0.36855800  0.75000000  1
  V  V10  1  0.37886500  0.12607000  0.74916900  1
  V  V11  1  0.87886500  0.37393000  0.50083100  1
  V  V12  1  0.13144200  0.13144200  0.50000000  1
  V  V13  1  0.37393000  0.87886500  0.49916900  1
  V  V14  1  0.12607000  0.37886500  0.25083100  1
  V  V15  1  0.36855800  0.63144200  0.25000000  1
  V  V16  1  0.62113500  0.87393000  0.24916900  1
  V  V17  1  0.12113500  0.62607000  0.00083100  1
  V  V18  1  0.86855800  0.86855800  0.00000000  1
  V  V19  1  0.62607000  0.12113500  0.99916900  1
  Fe  Fe20  1  0.12546600  0.87453400  0.75000000  1
  Fe  Fe21  1  0.62546600  0.62546600  0.50000000  1
  Fe  Fe22  1  0.87453400  0.12546600  0.25000000  1
  Fe  Fe23  1  0.37453400  0.37453400  0.00000000  1
  O  O24  1  0.10595700  0.62995800  0.76405000  1
  O  O25  1  0.88883300  0.85902900  0.76228500  1
  O  O26  1  0.61810300  0.12420400  0.76672100  1
  O  O27  1  0.64983800  0.61796200  0.73899000  1
  O  O28  1  0.38203800  0.35016200  0.76101000  1
  O  O29  1  0.87579600  0.38189700  0.73327900  1
  O  O30  1  0.14097100  0.11116700  0.73771500  1
  O  O31  1  0.37004200  0.89404300  0.73595000  1
  O  O32  1  0.87004200  0.60595700  0.51405000  1
  O  O33  1  0.64097100  0.38883300  0.51228500  1
  O  O34  1  0.37579600  0.11810300  0.51672100  1
  O  O35  1  0.88203800  0.14983800  0.48899000  1
  O  O36  1  0.14983800  0.88203800  0.51101000  1
  O  O37  1  0.11810300  0.37579600  0.48327900  1
  O  O38  1  0.38883300  0.64097100  0.48771500  1
  O  O39  1  0.60595700  0.87004200  0.48595000  1
  O  O40  1  0.89404300  0.37004200  0.26405000  1
  O  O41  1  0.11116700  0.14097100  0.26228500  1
  O  O42  1  0.38189700  0.87579600  0.26672100  1
  O  O43  1  0.35016200  0.38203800  0.23899000  1
  O  O44  1  0.61796200  0.64983800  0.26101000  1
  O  O45  1  0.12420400  0.61810300  0.23327900  1
  O  O46  1  0.85902900  0.88883300  0.23771500  1
  O  O47  1  0.62995800  0.10595700  0.23595000  1
  O  O48  1  0.12995800  0.39404300  0.01405000  1
  O  O49  1  0.35902900  0.61116700  0.01228500  1
  O  O50  1  0.62420400  0.88189700  0.01672100  1
  O  O51  1  0.11796200  0.85016200  0.98899000  1
  O  O52  1  0.85016200  0.11796200  0.01101000  1
  O  O53  1  0.88189700  0.62420400  0.98327900  1
  O  O54  1  0.61116700  0.35902900  0.98771500  1
  O  O55  1  0.39404300  0.12995800  0.98595000  1
