# generated using pymatgen
data_LiFeSi3O8
_symmetry_space_group_name_H-M   'P 1'
_cell_length_a   7.69853831
_cell_length_b   7.69993453
_cell_length_c   7.11054306
_cell_angle_alpha   83.24422188
_cell_angle_beta   109.30919516
_cell_angle_gamma   62.32473279
_symmetry_Int_Tables_number   1
_chemical_formula_structural   LiFeSi3O8
_chemical_formula_sum   'Li2 Fe2 Si6 O16'
_cell_volume   333.21600969
_cell_formula_units_Z   2
loop_
 _symmetry_equiv_pos_site_id
 _symmetry_equiv_pos_as_xyz
  1  'x, y, z'
loop_
 _atom_site_type_symbol
 _atom_site_label
 _atom_site_symmetry_multiplicity
 _atom_site_fract_x
 _atom_site_fract_y
 _atom_site_fract_z
 _atom_site_occupancy
  Li  Li0  1  0.26899622  0.72652936  0.14638451  1
  Li  Li1  1  0.73100378  0.27347064  0.85361549  1
  Fe  Fe2  1  0.45282023  0.79046043  0.63298160  1
  Fe  Fe3  1  0.54717977  0.20953957  0.36701840  1
  Si  Si4  1  0.22657450  0.56651983  0.70668624  1
  Si  Si5  1  0.85493896  0.84928194  0.80413792  1
  Si  Si6  1  0.15609287  0.20661482  0.75877799  1
  Si  Si7  1  0.84390713  0.79338518  0.24122201  1
  Si  Si8  1  0.14506104  0.15071806  0.19586208  1
  Si  Si9  1  0.77342550  0.43348017  0.29331376  1
  O  O10  1  0.10619936  0.73006579  0.81979893  1
  O  O11  1  0.31834594  0.98884682  0.74491703  1
  O  O12  1  0.07249209  0.65523981  0.45463820  1
  O  O13  1  0.28609519  0.90356939  0.33057680  1
  O  O14  1  0.08215199  0.16746966  0.94509081  1
  O  O15  1  0.45703679  0.54508221  0.74151391  1
  O  O16  1  0.27060986  0.34054892  0.80900833  1
  O  O17  1  0.73844555  0.72803401  0.71790453  1
  O  O18  1  0.26155445  0.27196599  0.28209547  1
  O  O19  1  0.72939014  0.65945108  0.19099167  1
  O  O20  1  0.54296321  0.45491779  0.25848609  1
  O  O21  1  0.91784801  0.83253034  0.05490919  1
  O  O22  1  0.71390481  0.09643061  0.66942320  1
  O  O23  1  0.92750791  0.34476019  0.54536180  1
  O  O24  1  0.68165406  0.01115318  0.25508297  1
  O  O25  1  0.89380064  0.26993421  0.18020107  1
