# generated using pymatgen
data_Li10Fe(SiO5)2
_symmetry_space_group_name_H-M   'P 1'
_cell_length_a   15.33846705
_cell_length_b   15.33846705
_cell_length_c   5.16096556
_cell_angle_alpha   81.06344763
_cell_angle_beta   81.06344763
_cell_angle_gamma   23.21584785
_symmetry_Int_Tables_number   1
_chemical_formula_structural   Li10Fe(SiO5)2
_chemical_formula_sum   'Li20 Fe2 Si4 O20'
_cell_volume   472.58112051
_cell_formula_units_Z   2
loop_
 _symmetry_equiv_pos_site_id
 _symmetry_equiv_pos_as_xyz
  1  'x, y, z'
loop_
 _atom_site_type_symbol
 _atom_site_label
 _atom_site_symmetry_multiplicity
 _atom_site_fract_x
 _atom_site_fract_y
 _atom_site_fract_z
 _atom_site_occupancy
  Li  Li0  1  0.49047300  0.49047300  0.25923400  1
  Li  Li1  1  0.22493000  0.63971300  0.89544900  1
  Li  Li2  1  0.63971300  0.22493000  0.89544900  1
  Li  Li3  1  0.86779500  0.86779500  0.78011200  1
  Li  Li4  1  0.08391800  0.65302600  0.23994800  1
  Li  Li5  1  0.65302600  0.08391800  0.23994800  1
  Li  Li6  1  0.32514800  0.32514800  0.93407700  1
  Li  Li7  1  0.04817500  0.56124900  0.60251700  1
  Li  Li8  1  0.56124900  0.04817500  0.60251700  1
  Li  Li9  1  0.26966300  0.26966300  0.32432800  1
  Li  Li10  1  0.73033700  0.73033700  0.67567200  1
  Li  Li11  1  0.95182500  0.43875100  0.39748300  1
  Li  Li12  1  0.43875100  0.95182500  0.39748300  1
  Li  Li13  1  0.67485200  0.67485200  0.06592300  1
  Li  Li14  1  0.34697400  0.91608200  0.76005200  1
  Li  Li15  1  0.91608200  0.34697400  0.76005200  1
  Li  Li16  1  0.13220500  0.13220500  0.21988800  1
  Li  Li17  1  0.77507000  0.36028700  0.10455100  1
  Li  Li18  1  0.36028700  0.77507000  0.10455100  1
  Li  Li19  1  0.50952700  0.50952700  0.74076600  1
  Fe  Fe20  1  0.96367600  0.96367600  0.17513800  1
  Fe  Fe21  1  0.03632400  0.03632400  0.82486200  1
  Si  Si22  1  0.39922900  0.39922900  0.50825300  1
  Si  Si23  1  0.78072200  0.78072200  0.12860000  1
  Si  Si24  1  0.21927800  0.21927800  0.87140000  1
  Si  Si25  1  0.60077100  0.60077100  0.49174700  1
  O  O26  1  0.44946900  0.44946900  0.60039500  1
  O  O27  1  0.90729100  0.90729100  0.05364400  1
  O  O28  1  0.40300300  0.40300300  0.18302900  1
  O  O29  1  0.15525700  0.58646700  0.62610300  1
  O  O30  1  0.58646700  0.15525700  0.62610300  1
  O  O31  1  0.03099000  0.58146300  0.21677000  1
  O  O32  1  0.58146300  0.03099000  0.21677000  1
  O  O33  1  0.78624300  0.78624300  0.80595100  1
  O  O34  1  0.27172300  0.27172300  0.71992200  1
  O  O35  1  0.72827700  0.72827700  0.28007800  1
  O  O36  1  0.21375700  0.21375700  0.19404900  1
  O  O37  1  0.96901000  0.41853700  0.78323000  1
  O  O38  1  0.41853700  0.96901000  0.78323000  1
  O  O39  1  0.41353300  0.84474300  0.37389700  1
  O  O40  1  0.84474300  0.41353300  0.37389700  1
  O  O41  1  0.59699700  0.59699700  0.81697100  1
  O  O42  1  0.09270900  0.09270900  0.94635600  1
  O  O43  1  0.55053100  0.55053100  0.39960500  1
  O  O44  1  0.24944000  0.75056000  0.00000000  1
  O  O45  1  0.75056000  0.24944000  0.00000000  1
