# generated using pymatgen
data_Li2VO2
_symmetry_space_group_name_H-M   'P 1'
_cell_length_a   3.23017336
_cell_length_b   3.23017336
_cell_length_c   5.19309900
_cell_angle_alpha   90.00000000
_cell_angle_beta   90.00000000
_cell_angle_gamma   119.99998683
_symmetry_Int_Tables_number   1
_chemical_formula_structural   Li2VO2
_chemical_formula_sum   'Li2 V1 O2'
_cell_volume   46.92550473
_cell_formula_units_Z   1
loop_
 _symmetry_equiv_pos_site_id
 _symmetry_equiv_pos_as_xyz
  1  'x, y, z'
loop_
 _atom_site_type_symbol
 _atom_site_label
 _atom_site_symmetry_multiplicity
 _atom_site_fract_x
 _atom_site_fract_y
 _atom_site_fract_z
 _atom_site_occupancy
  Li  Li0  1  0.33333300  0.66666700  0.13464800  1
  Li  Li1  1  0.66666700  0.33333300  0.86535200  1
  V  V2  1  0.00000000  0.00000000  0.50000000  1
  O  O3  1  0.33333300  0.66666700  0.74015300  1
  O  O4  1  0.66666700  0.33333300  0.25984700  1
