# generated using pymatgen
data_Li3Fe(PO4)2
_symmetry_space_group_name_H-M   'P 1'
_cell_length_a   8.82907888
_cell_length_b   8.83171453
_cell_length_c   10.06685836
_cell_angle_alpha   74.55839674
_cell_angle_beta   111.36418580
_cell_angle_gamma   73.69530734
_symmetry_Int_Tables_number   1
_chemical_formula_structural   Li3Fe(PO4)2
_chemical_formula_sum   'Li12 Fe4 P8 O32'
_cell_volume   639.21864986
_cell_formula_units_Z   4
loop_
 _symmetry_equiv_pos_site_id
 _symmetry_equiv_pos_as_xyz
  1  'x, y, z'
loop_
 _atom_site_type_symbol
 _atom_site_label
 _atom_site_symmetry_multiplicity
 _atom_site_fract_x
 _atom_site_fract_y
 _atom_site_fract_z
 _atom_site_occupancy
  Li  Li0  1  0.55762600  0.79227400  0.01539900  1
  Li  Li1  1  0.05766900  0.29225300  0.01542300  1
  Li  Li2  1  0.94236300  0.70771100  0.98461500  1
  Li  Li3  1  0.44234200  0.20770400  0.98462800  1
  Li  Li4  1  0.51938100  0.99672000  0.27378200  1
  Li  Li5  1  0.01939100  0.49670500  0.27378000  1
  Li  Li6  1  0.98063200  0.50327200  0.72625300  1
  Li  Li7  1  0.48061700  0.00328900  0.72625200  1
  Li  Li8  1  0.89693000  0.80273300  0.34462000  1
  Li  Li9  1  0.39696200  0.30275400  0.34462100  1
  Li  Li10  1  0.60309100  0.69725600  0.65539800  1
  Li  Li11  1  0.10304000  0.19725100  0.65538500  1
  Fe  Fe12  1  0.22899200  0.72751300  0.25144500  1
  Fe  Fe13  1  0.27090200  0.77242000  0.74853700  1
  Fe  Fe14  1  0.72909400  0.22754400  0.25138200  1
  Fe  Fe15  1  0.77101600  0.27256400  0.74850100  1
  P  P16  1  0.78496800  0.98859600  0.04628500  1
  P  P17  1  0.28496200  0.48855300  0.04629300  1
  P  P18  1  0.71502800  0.51147300  0.95368100  1
  P  P19  1  0.21506200  0.01139900  0.95371900  1
  P  P20  1  0.69067500  0.54195700  0.39869100  1
  P  P21  1  0.19073000  0.04194500  0.39871500  1
  P  P22  1  0.80925500  0.95809500  0.60128000  1
  P  P23  1  0.30934600  0.45799300  0.60128900  1
  O  O24  1  0.33476800  0.62186200  0.96280000  1
  O  O25  1  0.83473500  0.12190200  0.96276100  1
  O  O26  1  0.16523200  0.87812600  0.03720600  1
  O  O27  1  0.66519900  0.37817300  0.03712200  1
  O  O28  1  0.36075200  0.04221400  0.06862800  1
  O  O29  1  0.86079700  0.54217900  0.06865200  1
  O  O30  1  0.13919500  0.45781800  0.93138700  1
  O  O31  1  0.63921200  0.95776000  0.93140300  1
  O  O32  1  0.75726200  0.67260000  0.33358700  1
  O  O33  1  0.25718800  0.17271700  0.33355000  1
  O  O34  1  0.74282300  0.82731400  0.66647000  1
  O  O35  1  0.24271900  0.32736600  0.66641500  1
  O  O36  1  0.70704000  0.03929200  0.41738300  1
  O  O37  1  0.20702600  0.53930100  0.41738000  1
  O  O38  1  0.79296700  0.46071800  0.58260400  1
  O  O39  1  0.29295000  0.96071100  0.58263200  1
  O  O40  1  0.71605100  0.04429500  0.15671500  1
  O  O41  1  0.21604800  0.54429300  0.15669700  1
  O  O42  1  0.95097600  0.80926500  0.15662400  1
  O  O43  1  0.45099400  0.30928200  0.15660500  1
  O  O44  1  0.54898700  0.69073500  0.84336400  1
  O  O45  1  0.04904900  0.19071700  0.84341300  1
  O  O46  1  0.78398400  0.45572000  0.84331100  1
  O  O47  1  0.28394100  0.95568700  0.84328300  1
  O  O48  1  0.48883600  0.63322600  0.34639300  1
  O  O49  1  0.98885700  0.13324500  0.34639300  1
  O  O50  1  0.72877000  0.39230100  0.34646300  1
  O  O51  1  0.22877100  0.89231700  0.34642600  1
  O  O52  1  0.77123800  0.10771300  0.65359200  1
  O  O53  1  0.27121200  0.60763300  0.65351600  1
  O  O54  1  0.01110500  0.86680000  0.65359400  1
  O  O55  1  0.51124400  0.36674700  0.65365700  1
