# generated using pymatgen
data_Li2AlFeO4
_symmetry_space_group_name_H-M   'P 1'
_cell_length_a   10.91757800
_cell_length_b   5.15811700
_cell_length_c   8.25800179
_cell_angle_alpha   51.23965402
_cell_angle_beta   90.00000000
_cell_angle_gamma   90.00000000
_symmetry_Int_Tables_number   1
_chemical_formula_structural   Li2AlFeO4
_chemical_formula_sum   'Li8 Al4 Fe4 O16'
_cell_volume   362.62671281
_cell_formula_units_Z   4
loop_
 _symmetry_equiv_pos_site_id
 _symmetry_equiv_pos_as_xyz
  1  'x, y, z'
loop_
 _atom_site_type_symbol
 _atom_site_label
 _atom_site_symmetry_multiplicity
 _atom_site_fract_x
 _atom_site_fract_y
 _atom_site_fract_z
 _atom_site_occupancy
  Li  Li0  1  0.16471600  0.31817500  0.99267100  1
  Li  Li1  1  0.92105600  0.53540600  0.76009500  1
  Li  Li2  1  0.42105600  0.46459400  0.73990500  1
  Li  Li3  1  0.66471600  0.68182500  0.50732900  1
  Li  Li4  1  0.33528400  0.31817500  0.49267100  1
  Li  Li5  1  0.57894400  0.53540600  0.26009500  1
  Li  Li6  1  0.07894400  0.46459400  0.23990500  1
  Li  Li7  1  0.83528400  0.68182500  0.00732900  1
  Al  Al8  1  0.58678900  0.92968800  0.75521200  1
  Al  Al9  1  0.08678900  0.07031200  0.74478800  1
  Al  Al10  1  0.91321100  0.92968800  0.25521200  1
  Al  Al11  1  0.41321100  0.07031200  0.24478800  1
  Fe  Fe12  1  0.33448400  0.82089200  0.99676600  1
  Fe  Fe13  1  0.83448400  0.17910800  0.50323400  1
  Fe  Fe14  1  0.16551600  0.82089200  0.49676600  1
  Fe  Fe15  1  0.66551600  0.17910800  0.00323400  1
  O  O16  1  0.66307800  0.83274900  0.97855200  1
  O  O17  1  0.16812400  0.73880400  0.97003700  1
  O  O18  1  0.93157400  0.96224300  0.74851900  1
  O  O19  1  0.59095600  0.57182900  0.76636200  1
  O  O20  1  0.09095600  0.42817100  0.73363800  1
  O  O21  1  0.43157400  0.03775700  0.75148100  1
  O  O22  1  0.66812400  0.26119600  0.52996300  1
  O  O23  1  0.16307800  0.16725100  0.52144800  1
  O  O24  1  0.83692200  0.83274900  0.47855200  1
  O  O25  1  0.33187600  0.73880400  0.47003700  1
  O  O26  1  0.56842600  0.96224300  0.24851900  1
  O  O27  1  0.90904400  0.57182900  0.26636200  1
  O  O28  1  0.40904400  0.42817100  0.23363800  1
  O  O29  1  0.06842600  0.03775700  0.25148100  1
  O  O30  1  0.83187600  0.26119600  0.02996300  1
  O  O31  1  0.33692200  0.16725100  0.02144800  1
