# generated using pymatgen
data_Li3FeCu3O8
_symmetry_space_group_name_H-M   'P 1'
_cell_length_a   5.94608121
_cell_length_b   5.94608121
_cell_length_c   5.94608130
_cell_angle_alpha   58.94721443
_cell_angle_beta   58.94721443
_cell_angle_gamma   58.94720875
_symmetry_Int_Tables_number   1
_chemical_formula_structural   Li3FeCu3O8
_chemical_formula_sum   'Li3 Fe1 Cu3 O8'
_cell_volume   145.08334584
_cell_formula_units_Z   1
loop_
 _symmetry_equiv_pos_site_id
 _symmetry_equiv_pos_as_xyz
  1  'x, y, z'
loop_
 _atom_site_type_symbol
 _atom_site_label
 _atom_site_symmetry_multiplicity
 _atom_site_fract_x
 _atom_site_fract_y
 _atom_site_fract_z
 _atom_site_occupancy
  Li  Li0  1  0.00000000  0.00000000  0.50000000  1
  Li  Li1  1  0.50000000  0.00000000  0.00000000  1
  Li  Li2  1  0.00000000  0.50000000  0.00000000  1
  Fe  Fe3  1  0.00000000  0.00000000  0.00000000  1
  Cu  Cu4  1  0.50000000  0.50000000  0.00000000  1
  Cu  Cu5  1  0.00000000  0.50000000  0.50000000  1
  Cu  Cu6  1  0.50000000  0.00000000  0.50000000  1
  O  O7  1  0.25734800  0.25734800  0.25734800  1
  O  O8  1  0.76532100  0.76532100  0.24881700  1
  O  O9  1  0.24881700  0.76532100  0.76532100  1
  O  O10  1  0.74265200  0.74265200  0.74265200  1
  O  O11  1  0.76532100  0.24881700  0.76532100  1
  O  O12  1  0.23467900  0.23467900  0.75118300  1
  O  O13  1  0.75118300  0.23467900  0.23467900  1
  O  O14  1  0.23467900  0.75118300  0.23467900  1
