# generated using pymatgen
data_NaLi2CoPCO7
_symmetry_space_group_name_H-M   'P 1'
_cell_length_a   5.08370786
_cell_length_b   6.60725919
_cell_length_c   17.07291045
_cell_angle_alpha   90.22415248
_cell_angle_beta   85.09805740
_cell_angle_gamma   90.02591651
_symmetry_Int_Tables_number   1
_chemical_formula_structural   NaLi2CoPCO7
_chemical_formula_sum   'Na4 Li8 Co4 P4 C4 O28'
_cell_volume   571.36650511
_cell_formula_units_Z   4
loop_
 _symmetry_equiv_pos_site_id
 _symmetry_equiv_pos_as_xyz
  1  'x, y, z'
loop_
 _atom_site_type_symbol
 _atom_site_label
 _atom_site_symmetry_multiplicity
 _atom_site_fract_x
 _atom_site_fract_y
 _atom_site_fract_z
 _atom_site_occupancy
  Na  Na0  1  0.27313200  0.48371800  0.13175700  1
  Na  Na1  1  0.27412600  0.48218700  0.63162500  1
  Na  Na2  1  0.72725700  0.98379500  0.36916800  1
  Na  Na3  1  0.72692800  0.98328600  0.86839000  1
  Li  Li4  1  0.78863900  0.23099300  0.05206400  1
  Li  Li5  1  0.78754800  0.23053800  0.55246900  1
  Li  Li6  1  0.21269800  0.73026600  0.44732200  1
  Li  Li7  1  0.21159100  0.73093300  0.94808200  1
  Li  Li8  1  0.26924400  0.00846000  0.13672500  1
  Li  Li9  1  0.26542700  0.00974600  0.63730900  1
  Li  Li10  1  0.73203300  0.50912200  0.36223200  1
  Li  Li11  1  0.73081900  0.50933900  0.86241200  1
  Co  Co12  1  0.78979100  0.75562200  0.66985200  1
  Co  Co13  1  0.20887600  0.24827900  0.32941600  1
  Co  Co14  1  0.79273000  0.75557000  0.17018400  1
  Co  Co15  1  0.20727200  0.25453200  0.83008000  1
  P  P16  1  0.72986000  0.24821000  0.20566400  1
  P  P17  1  0.72995000  0.24748300  0.70587900  1
  P  P18  1  0.27101100  0.74685500  0.29413300  1
  P  P19  1  0.26999800  0.74667600  0.79463600  1
  C  C20  1  0.68875500  0.74074300  0.02323700  1
  C  C21  1  0.69097400  0.74032300  0.52285200  1
  C  C22  1  0.30903700  0.23989400  0.47694000  1
  C  C23  1  0.31153000  0.24061000  0.97682300  1
  O  O24  1  0.39486300  0.21555800  0.04564900  1
  O  O25  1  0.39422500  0.21400100  0.54553200  1
  O  O26  1  0.60620300  0.71675600  0.45405900  1
  O  O27  1  0.60560400  0.71673700  0.95425700  1
  O  O28  1  0.93752400  0.74149500  0.03485900  1
  O  O29  1  0.93969700  0.74443100  0.53402900  1
  O  O30  1  0.06013200  0.23889600  0.46573100  1
  O  O31  1  0.06265200  0.24150400  0.96530800  1
  O  O32  1  0.51756100  0.76415500  0.08454700  1
  O  O33  1  0.52069000  0.76023600  0.58463500  1
  O  O34  1  0.47857900  0.26802300  0.41560800  1
  O  O35  1  0.48256400  0.26483700  0.91559300  1
  O  O36  1  0.84656800  0.06651200  0.15491700  1
  O  O37  1  0.84754500  0.06658600  0.65478100  1
  O  O38  1  0.15296800  0.56561900  0.34384200  1
  O  O39  1  0.15224100  0.56582000  0.84514100  1
  O  O40  1  0.80209200  0.43497600  0.15269300  1
  O  O41  1  0.79901100  0.43492100  0.65281800  1
  O  O42  1  0.20225800  0.93407500  0.34828700  1
  O  O43  1  0.19947300  0.93448000  0.84780900  1
  O  O44  1  0.15509700  0.76414800  0.21371000  1
  O  O45  1  0.15357000  0.76102000  0.71406100  1
  O  O46  1  0.84385500  0.26069200  0.28661800  1
  O  O47  1  0.84553100  0.26144900  0.78643100  1
  O  O48  1  0.42341600  0.22591500  0.21924000  1
  O  O49  1  0.42383800  0.22257300  0.71985700  1
  O  O50  1  0.57718500  0.72352300  0.28000100  1
  O  O51  1  0.57582000  0.72236100  0.78073400  1
