# generated using pymatgen
data_LiCo5O8
_symmetry_space_group_name_H-M   'P 1'
_cell_length_a   8.11380900
_cell_length_b   8.11380900
_cell_length_c   8.11380900
_cell_angle_alpha   90.00000000
_cell_angle_beta   90.00000000
_cell_angle_gamma   90.00000000
_symmetry_Int_Tables_number   1
_chemical_formula_structural   LiCo5O8
_chemical_formula_sum   'Li4 Co20 O32'
_cell_volume   534.16366183
_cell_formula_units_Z   4
loop_
 _symmetry_equiv_pos_site_id
 _symmetry_equiv_pos_as_xyz
  1  'x, y, z'
loop_
 _atom_site_type_symbol
 _atom_site_label
 _atom_site_symmetry_multiplicity
 _atom_site_fract_x
 _atom_site_fract_y
 _atom_site_fract_z
 _atom_site_occupancy
  Li  Li0  1  0.12500000  0.87500000  0.37500000  1
  Li  Li1  1  0.37500000  0.12500000  0.87500000  1
  Li  Li2  1  0.62500000  0.62500000  0.62500000  1
  Li  Li3  1  0.87500000  0.37500000  0.12500000  1
  Co  Co4  1  0.00008800  0.00008800  0.00008800  1
  Co  Co5  1  0.99991200  0.50008800  0.49991200  1
  Co  Co6  1  0.12536600  0.12463400  0.62500000  1
  Co  Co7  1  0.12463400  0.62500000  0.12536600  1
  Co  Co8  1  0.12500000  0.37463400  0.87536600  1
  Co  Co9  1  0.24991200  0.24991200  0.24991200  1
  Co  Co10  1  0.25008800  0.75008800  0.74991200  1
  Co  Co11  1  0.37536600  0.37500000  0.62536600  1
  Co  Co12  1  0.37500000  0.62536600  0.37536600  1
  Co  Co13  1  0.37463400  0.87536600  0.12500000  1
  Co  Co14  1  0.49991200  0.99991200  0.50008800  1
  Co  Co15  1  0.50008800  0.49991200  0.99991200  1
  Co  Co16  1  0.62500000  0.12536600  0.12463400  1
  Co  Co17  1  0.62536600  0.37536600  0.37500000  1
  Co  Co18  1  0.62463400  0.87500000  0.87463400  1
  Co  Co19  1  0.74991200  0.25008800  0.75008800  1
  Co  Co20  1  0.75008800  0.74991200  0.25008800  1
  Co  Co21  1  0.87536600  0.12500000  0.37463400  1
  Co  Co22  1  0.87463400  0.62463400  0.87500000  1
  Co  Co23  1  0.87500000  0.87463400  0.62463400  1
  O  O24  1  0.12860500  0.39099500  0.10676400  1
  O  O25  1  0.13801300  0.36198700  0.63801300  1
  O  O26  1  0.14323600  0.85900500  0.12139500  1
  O  O27  1  0.10676400  0.12860500  0.39099500  1
  O  O28  1  0.10900500  0.89323600  0.62860500  1
  O  O29  1  0.12139500  0.14323600  0.85900500  1
  O  O30  1  0.14099500  0.62139500  0.35676400  1
  O  O31  1  0.11198700  0.61198700  0.88801300  1
  O  O32  1  0.39099500  0.10676400  0.12860500  1
  O  O33  1  0.38801300  0.38801300  0.38801300  1
  O  O34  1  0.35676400  0.14099500  0.62139500  1
  O  O35  1  0.35900500  0.37860500  0.85676400  1
  O  O36  1  0.36198700  0.63801300  0.13801300  1
  O  O37  1  0.37860500  0.85676400  0.35900500  1
  O  O38  1  0.37139500  0.60900500  0.60676400  1
  O  O39  1  0.39323600  0.87139500  0.89099500  1
  O  O40  1  0.63801300  0.13801300  0.36198700  1
  O  O41  1  0.62139500  0.35676400  0.14099500  1
  O  O42  1  0.60676400  0.37139500  0.60900500  1
  O  O43  1  0.60900500  0.60676400  0.37139500  1
  O  O44  1  0.62860500  0.10900500  0.89323600  1
  O  O45  1  0.64323600  0.64099500  0.87860500  1
  O  O46  1  0.61198700  0.88801300  0.11198700  1
  O  O47  1  0.64099500  0.87860500  0.64323600  1
  O  O48  1  0.85900500  0.12139500  0.14323600  1
  O  O49  1  0.88801300  0.11198700  0.61198700  1
  O  O50  1  0.85676400  0.35900500  0.37860500  1
  O  O51  1  0.89323600  0.62860500  0.10900500  1
  O  O52  1  0.87860500  0.64323600  0.64099500  1
  O  O53  1  0.89099500  0.39323600  0.87139500  1
  O  O54  1  0.87139500  0.89099500  0.39323600  1
  O  O55  1  0.86198700  0.86198700  0.86198700  1
