# generated using pymatgen
data_Li6V3P8O29
_symmetry_space_group_name_H-M   'P 1'
_cell_length_a   9.79732500
_cell_length_b   9.81368839
_cell_length_c   13.90405239
_cell_angle_alpha   90.15667852
_cell_angle_beta   89.96985225
_cell_angle_gamma   119.79500394
_symmetry_Int_Tables_number   1
_chemical_formula_structural   Li6V3P8O29
_chemical_formula_sum   'Li12 V6 P16 O58'
_cell_volume   1160.12127919
_cell_formula_units_Z   2
loop_
 _symmetry_equiv_pos_site_id
 _symmetry_equiv_pos_as_xyz
  1  'x, y, z'
loop_
 _atom_site_type_symbol
 _atom_site_label
 _atom_site_symmetry_multiplicity
 _atom_site_fract_x
 _atom_site_fract_y
 _atom_site_fract_z
 _atom_site_occupancy
  Li  Li0  1  0.31373800  0.08943500  0.93941600  1
  Li  Li1  1  0.66349300  0.33180600  0.11736700  1
  Li  Li2  1  0.90886900  0.22235400  0.93901900  1
  Li  Li3  1  0.77489700  0.68555400  0.93827900  1
  Li  Li4  1  0.09920700  0.33502200  0.55745400  1
  Li  Li5  1  0.90229200  0.66745300  0.43793200  1
  Li  Li6  1  0.22761400  0.32305800  0.06292600  1
  Li  Li7  1  0.09491400  0.77353300  0.06015600  1
  Li  Li8  1  0.23781900  0.90571400  0.55838100  1
  Li  Li9  1  0.66523800  0.76878800  0.55682700  1
  Li  Li10  1  0.67627500  0.90415700  0.06240800  1
  Li  Li11  1  0.01172300  0.03442800  0.49207800  1
  V  V12  1  0.99997600  0.43062200  0.74937000  1
  V  V13  1  0.00183300  0.56377700  0.25016900  1
  V  V14  1  0.43620700  0.43284000  0.25421400  1
  V  V15  1  0.56468700  0.56727500  0.74809900  1
  V  V16  1  0.43309400  0.00005600  0.74838100  1
  V  V17  1  0.56709400  0.00225600  0.25595700  1
  P  P18  1  0.31832100  0.08855400  0.15829900  1
  P  P19  1  0.31029000  0.22611200  0.65809500  1
  P  P20  1  0.77462600  0.08443000  0.65785400  1
  P  P21  1  0.66668200  0.33339000  0.87294700  1
  P  P22  1  0.67009200  0.33660200  0.37212800  1
  P  P23  1  0.90875900  0.22725100  0.15844600  1
  P  P24  1  0.08744800  0.31281900  0.34373100  1
  P  P25  1  0.77095400  0.68001700  0.15629800  1
  P  P26  1  0.23353100  0.32015900  0.84430900  1
  P  P27  1  0.91211800  0.68297600  0.65732400  1
  P  P28  1  0.08823000  0.76743600  0.84132800  1
  P  P29  1  0.33198800  0.66653700  0.62664800  1
  P  P30  1  0.33576200  0.66705500  0.12883300  1
  P  P31  1  0.22542300  0.91204200  0.34373500  1
  P  P32  1  0.68534100  0.77299300  0.34174200  1
  P  P33  1  0.67987900  0.91278000  0.84337000  1
  O  O34  1  0.21910800  0.99180100  0.43446100  1
  O  O35  1  0.33864000  0.08329600  0.65947600  1
  O  O36  1  0.24556000  0.24623800  0.93624100  1
  O  O37  1  0.33336500  0.25219800  0.15551900  1
  O  O38  1  0.48438900  0.10924100  0.17293100  1
  O  O39  1  0.51263400  0.18672000  0.83424000  1
  O  O40  1  0.62056200  0.08734600  0.66886500  1
  O  O41  1  0.75343900  0.99790600  0.93585600  1
  O  O42  1  0.74626000  0.07846800  0.15574800  1
  O  O43  1  0.52202400  0.33378500  0.32456500  1
  O  O44  1  0.46715900  0.37900400  0.66963700  1
  O  O45  1  0.67140200  0.18945100  0.32688600  1
  O  O46  1  0.66696700  0.33361200  0.98157000  1
  O  O47  1  0.67117400  0.34347500  0.47866100  1
  O  O48  1  0.81360400  0.32467500  0.83485700  1
  O  O49  1  0.62730000  0.51437000  0.17087500  1
  O  O50  1  0.67320300  0.48677000  0.83383700  1
  O  O51  1  0.91724900  0.25519500  0.65991000  1
  O  O52  1  0.99590500  0.20686600  0.24998900  1
  O  O53  1  0.00758400  0.22521300  0.43385700  1
  O  O54  1  0.00329600  0.24763200  0.06867500  1
  O  O55  1  0.88428000  0.37092300  0.17464600  1
  O  O56  1  0.81646000  0.48952700  0.32990000  1
  O  O57  1  0.08383000  0.33540300  0.84262600  1
  O  O58  1  0.90601000  0.52590900  0.67168000  1
  O  O59  1  0.74425900  0.66210300  0.65896400  1
  O  O60  1  0.21260100  0.20388800  0.75725000  1
  O  O61  1  0.20644100  0.21437000  0.57578400  1
  O  O62  1  0.77427100  0.77148000  0.43064600  1
  O  O63  1  0.25426200  0.34066600  0.33626100  1
  O  O64  1  0.08457200  0.46811000  0.33203300  1
  O  O65  1  0.92071400  0.66551700  0.15394800  1
  O  O66  1  0.18996900  0.51066200  0.66757200  1
  O  O67  1  0.09820700  0.61786700  0.82274200  1
  O  O68  1  0.99939000  0.75585200  0.93223100  1
  O  O69  1  0.99894700  0.77068900  0.56796800  1
  O  O70  1  0.99850500  0.79097700  0.75081700  1
  O  O71  1  0.07940300  0.74635000  0.33815900  1
  O  O72  1  0.33713600  0.51799100  0.16940900  1
  O  O73  1  0.38181200  0.47998700  0.82481200  1
  O  O74  1  0.18345900  0.66524400  0.17052800  1
  O  O75  1  0.33156600  0.66655800  0.02152600  1
  O  O76  1  0.33224400  0.66708400  0.51918100  1
  O  O77  1  0.31940700  0.80984000  0.66807800  1
  O  O78  1  0.52741000  0.62007700  0.33010900  1
  O  O79  1  0.48900100  0.67939900  0.66759000  1
  O  O80  1  0.25246300  0.91607500  0.84155100  1
  O  O81  1  0.20984500  0.00243000  0.25008700  1
  O  O82  1  0.24169600  0.99476100  0.06846900  1
  O  O83  1  0.37741600  0.90425400  0.32954400  1
  O  O84  1  0.48310400  0.81808500  0.17041900  1
  O  O85  1  0.52014000  0.90232200  0.82327300  1
  O  O86  1  0.66454300  0.74825800  0.84099100  1
  O  O87  1  0.75486800  0.75791700  0.06711100  1
  O  O88  1  0.79186500  0.78854500  0.24810100  1
  O  O89  1  0.66372900  0.91593400  0.33982400  1
  O  O90  1  0.78815600  0.99381300  0.57507200  1
  O  O91  1  0.79655200  0.00838900  0.75687200  1
