# generated using pymatgen
data_LiNbSn3(PO4)6
_symmetry_space_group_name_H-M   'P 1'
_cell_length_a   8.99997529
_cell_length_b   8.99997529
_cell_length_c   8.99997520
_cell_angle_alpha   58.33432497
_cell_angle_beta   58.33432497
_cell_angle_gamma   58.33433164
_symmetry_Int_Tables_number   1
_chemical_formula_structural   LiNbSn3(PO4)6
_chemical_formula_sum   'Li1 Nb1 Sn3 P6 O24'
_cell_volume   495.81687881
_cell_formula_units_Z   1
loop_
 _symmetry_equiv_pos_site_id
 _symmetry_equiv_pos_as_xyz
  1  'x, y, z'
loop_
 _atom_site_type_symbol
 _atom_site_label
 _atom_site_symmetry_multiplicity
 _atom_site_fract_x
 _atom_site_fract_y
 _atom_site_fract_z
 _atom_site_occupancy
  Li  Li0  1  0.00671200  0.00671200  0.00671200  1
  Nb  Nb1  1  0.85568900  0.85568900  0.85568900  1
  Sn  Sn2  1  0.14619400  0.14619400  0.14619400  1
  Sn  Sn3  1  0.35853300  0.35853300  0.35853300  1
  Sn  Sn4  1  0.64314500  0.64314500  0.64314500  1
  P  P5  1  0.03791400  0.45461400  0.75223900  1
  P  P6  1  0.45461400  0.75223900  0.03791400  1
  P  P7  1  0.75223900  0.03791400  0.45461400  1
  P  P8  1  0.25162800  0.96210600  0.54005000  1
  P  P9  1  0.54005000  0.25162800  0.96210600  1
  P  P10  1  0.96210600  0.54005000  0.25162800  1
  O  O11  1  0.13219100  0.51805400  0.27210400  1
  O  O12  1  0.27210400  0.13219100  0.51805400  1
  O  O13  1  0.06131600  0.27110300  0.92074700  1
  O  O14  1  0.51805400  0.27210400  0.13219100  1
  O  O15  1  0.21568600  0.44517300  0.58192500  1
  O  O16  1  0.99516300  0.62122600  0.79889100  1
  O  O17  1  0.27110300  0.92074700  0.06131600  1
  O  O18  1  0.44517300  0.58192500  0.21568600  1
  O  O19  1  0.58192500  0.21568600  0.44517300  1
  O  O20  1  0.21389700  0.98821100  0.37860500  1
  O  O21  1  0.07876400  0.93351900  0.72289300  1
  O  O22  1  0.37860500  0.21389700  0.98821100  1
  O  O23  1  0.62122600  0.79889100  0.99516300  1
  O  O24  1  0.92074700  0.06131600  0.27110300  1
  O  O25  1  0.79889100  0.99516300  0.62122600  1
  O  O26  1  0.41704600  0.78368500  0.56517200  1
  O  O27  1  0.56517200  0.41704600  0.78368500  1
  O  O28  1  0.72289300  0.07876400  0.93351900  1
  O  O29  1  0.98821100  0.37860500  0.21389700  1
  O  O30  1  0.78368500  0.56517200  0.41704600  1
  O  O31  1  0.48194300  0.72168000  0.87218400  1
  O  O32  1  0.93351900  0.72289300  0.07876400  1
  O  O33  1  0.72168000  0.87218400  0.48194300  1
  O  O34  1  0.87218400  0.48194300  0.72168000  1
