# generated using pymatgen
data_Li2VPO4F
_symmetry_space_group_name_H-M   'P 1'
_cell_length_a   5.16959900
_cell_length_b   11.50344200
_cell_length_c   13.16305100
_cell_angle_alpha   90.00000000
_cell_angle_beta   90.00000000
_cell_angle_gamma   90.00000000
_symmetry_Int_Tables_number   1
_chemical_formula_structural   Li2VPO4F
_chemical_formula_sum   'Li16 V8 P8 O32 F8'
_cell_volume   782.78271596
_cell_formula_units_Z   8
loop_
 _symmetry_equiv_pos_site_id
 _symmetry_equiv_pos_as_xyz
  1  'x, y, z'
loop_
 _atom_site_type_symbol
 _atom_site_label
 _atom_site_symmetry_multiplicity
 _atom_site_fract_x
 _atom_site_fract_y
 _atom_site_fract_z
 _atom_site_occupancy
  Li  Li0  1  0.21605300  0.17631000  0.24318800  1
  Li  Li1  1  0.21605300  0.67631000  0.75681200  1
  Li  Li2  1  0.23132700  0.41030800  0.63302100  1
  Li  Li3  1  0.23132700  0.91030800  0.36697900  1
  Li  Li4  1  0.26867300  0.41030800  0.13302100  1
  Li  Li5  1  0.26867300  0.91030800  0.86697900  1
  Li  Li6  1  0.28394700  0.67631000  0.25681200  1
  Li  Li7  1  0.28394700  0.17631000  0.74318800  1
  Li  Li8  1  0.71605300  0.82369000  0.25681200  1
  Li  Li9  1  0.71605300  0.32369000  0.74318800  1
  Li  Li10  1  0.73132700  0.08969200  0.13302100  1
  Li  Li11  1  0.73132700  0.58969200  0.86697900  1
  Li  Li12  1  0.76867300  0.08969200  0.63302100  1
  Li  Li13  1  0.76867300  0.58969200  0.36697900  1
  Li  Li14  1  0.78394700  0.82369000  0.75681200  1
  Li  Li15  1  0.78394700  0.32369000  0.24318800  1
  V  V16  1  0.22054200  0.17139800  0.51251000  1
  V  V17  1  0.22054200  0.67139800  0.48749000  1
  V  V18  1  0.27945800  0.17139800  0.01251000  1
  V  V19  1  0.27945800  0.67139800  0.98749000  1
  V  V20  1  0.72054200  0.32860200  0.01251000  1
  V  V21  1  0.72054200  0.82860200  0.98749000  1
  V  V22  1  0.77945800  0.32860200  0.51251000  1
  V  V23  1  0.77945800  0.82860200  0.48749000  1
  P  P24  1  0.20620400  0.41455100  0.86950300  1
  P  P25  1  0.20620400  0.91455100  0.13049700  1
  P  P26  1  0.29379600  0.41455100  0.36950300  1
  P  P27  1  0.29379600  0.91455100  0.63049700  1
  P  P28  1  0.70620400  0.08544900  0.36950300  1
  P  P29  1  0.70620400  0.58544900  0.63049700  1
  P  P30  1  0.79379600  0.58544900  0.13049700  1
  P  P31  1  0.79379600  0.08544900  0.86950300  1
  O  O32  1  0.09653500  0.59398000  0.12352900  1
  O  O33  1  0.09653500  0.09398000  0.87647100  1
  O  O34  1  0.17751100  0.35483000  0.46664000  1
  O  O35  1  0.17751100  0.85483000  0.53336000  1
  O  O36  1  0.18671500  0.35451900  0.27384400  1
  O  O37  1  0.18671500  0.85451900  0.72615600  1
  O  O38  1  0.20885100  0.04377700  0.62987000  1
  O  O39  1  0.20885100  0.54377700  0.37013000  1
  O  O40  1  0.29114900  0.04377700  0.12987000  1
  O  O41  1  0.29114900  0.54377700  0.87013000  1
  O  O42  1  0.31328500  0.85451900  0.22615600  1
  O  O43  1  0.31328500  0.35451900  0.77384400  1
  O  O44  1  0.32248900  0.35483000  0.96664000  1
  O  O45  1  0.32248900  0.85483000  0.03336000  1
  O  O46  1  0.40346500  0.09398000  0.37647100  1
  O  O47  1  0.40346500  0.59398000  0.62352900  1
  O  O48  1  0.59653500  0.90602000  0.62352900  1
  O  O49  1  0.59653500  0.40602000  0.37647100  1
  O  O50  1  0.67751100  0.64517000  0.03336000  1
  O  O51  1  0.67751100  0.14517000  0.96664000  1
  O  O52  1  0.68671500  0.64548100  0.22615600  1
  O  O53  1  0.68671500  0.14548100  0.77384400  1
  O  O54  1  0.70885100  0.45622300  0.12987000  1
  O  O55  1  0.70885100  0.95622300  0.87013000  1
  O  O56  1  0.79114900  0.95622300  0.37013000  1
  O  O57  1  0.79114900  0.45622300  0.62987000  1
  O  O58  1  0.81328500  0.14548100  0.27384400  1
  O  O59  1  0.81328500  0.64548100  0.72615600  1
  O  O60  1  0.82248900  0.14517000  0.46664000  1
  O  O61  1  0.82248900  0.64517000  0.53336000  1
  O  O62  1  0.90346500  0.90602000  0.12352900  1
  O  O63  1  0.90346500  0.40602000  0.87647100  1
  F  F64  1  0.00000000  0.25000000  0.10413800  1
  F  F65  1  0.00000000  0.25000000  0.63238200  1
  F  F66  1  0.00000000  0.75000000  0.36761800  1
  F  F67  1  0.00000000  0.75000000  0.89586200  1
  F  F68  1  0.50000000  0.25000000  0.13238200  1
  F  F69  1  0.50000000  0.25000000  0.60413800  1
  F  F70  1  0.50000000  0.75000000  0.39586200  1
  F  F71  1  0.50000000  0.75000000  0.86761800  1
