# generated using pymatgen
data_Li3MnV(PO4)3
_symmetry_space_group_name_H-M   'P 1'
_cell_length_a   9.83647900
_cell_length_b   9.85937551
_cell_length_c   9.86788639
_cell_angle_alpha   86.16424974
_cell_angle_beta   87.28021969
_cell_angle_gamma   87.77032757
_symmetry_Int_Tables_number   1
_chemical_formula_structural   Li3MnV(PO4)3
_chemical_formula_sum   'Li12 Mn4 V4 P12 O48'
_cell_volume   953.17029764
_cell_formula_units_Z   4
loop_
 _symmetry_equiv_pos_site_id
 _symmetry_equiv_pos_as_xyz
  1  'x, y, z'
loop_
 _atom_site_type_symbol
 _atom_site_label
 _atom_site_symmetry_multiplicity
 _atom_site_fract_x
 _atom_site_fract_y
 _atom_site_fract_z
 _atom_site_occupancy
  Li  Li0  1  0.98045500  0.00187400  0.04774500  1
  Li  Li1  1  0.13946200  0.05446100  0.73925800  1
  Li  Li2  1  0.72946200  0.13066100  0.07205700  1
  Li  Li3  1  0.64418300  0.23061400  0.55569000  1
  Li  Li4  1  0.94583800  0.27425300  0.85625800  1
  Li  Li5  1  0.43199700  0.36684300  0.76980900  1
  Li  Li6  1  0.76569200  0.44314900  0.35710600  1
  Li  Li7  1  0.45349200  0.49808600  0.51496500  1
  Li  Li8  1  0.54593200  0.64455200  0.23694900  1
  Li  Li9  1  0.34951200  0.76508900  0.46801400  1
  Li  Li10  1  0.03807100  0.72549500  0.15568700  1
  Li  Li11  1  0.26698100  0.85353900  0.94783300  1
  Mn  Mn12  1  0.25545000  0.24799100  0.24524600  1
  Mn  Mn13  1  0.97374400  0.74029800  0.52642400  1
  Mn  Mn14  1  0.75248800  0.75884300  0.74223600  1
  Mn  Mn15  1  0.52962000  0.97309000  0.76214400  1
  V  V16  1  0.47587700  0.02914800  0.26247400  1
  V  V17  1  0.03626500  0.24873000  0.46586600  1
  V  V18  1  0.24164300  0.46874900  0.01951600  1
  V  V19  1  0.74752300  0.53694100  0.96065000  1
  P  P20  1  0.85413700  0.05420200  0.67441900  1
  P  P21  1  0.33019800  0.14634600  0.95568300  1
  P  P22  1  0.35719500  0.17186000  0.55463900  1
  P  P23  1  0.94708300  0.32817400  0.14377800  1
  P  P24  1  0.54718500  0.35440400  0.16763300  1
  P  P25  1  0.83574700  0.44848400  0.64301000  1
  P  P26  1  0.18005300  0.54515600  0.33810700  1
  P  P27  1  0.45240200  0.64802800  0.81605600  1
  P  P28  1  0.04758600  0.67828500  0.84633100  1
  P  P29  1  0.65460100  0.82597700  0.45176700  1
  P  P30  1  0.67039900  0.85218400  0.05034300  1
  P  P31  1  0.15232600  0.95009900  0.32424700  1
  O  O32  1  0.40356700  0.03353600  0.62755900  1
  O  O33  1  0.22272200  0.05343700  0.91135600  1
  O  O34  1  0.12562800  0.11129600  0.33042700  1
  O  O35  1  0.33364600  0.12135900  0.11775300  1
  O  O36  1  0.70097000  0.09360600  0.69509500  1
  O  O37  1  0.47377700  0.11219500  0.89545200  1
  O  O38  1  0.94484500  0.09853600  0.78480700  1
  O  O39  1  0.90092200  0.11803500  0.53257900  1
  O  O40  1  0.38646600  0.16396200  0.39813600  1
  O  O41  1  0.20174200  0.18662000  0.58934800  1
  O  O42  1  0.58197800  0.19939100  0.19418700  1
  O  O43  1  0.90142900  0.21207400  0.06100900  1
  O  O44  1  0.10508000  0.33307200  0.11496600  1
  O  O45  1  0.44219500  0.28847100  0.59726900  1
  O  O46  1  0.30065200  0.30021500  0.91661600  1
  O  O47  1  0.91184600  0.31168100  0.29949500  1
  O  O48  1  0.38506500  0.37607000  0.16192300  1
  O  O49  1  0.17565700  0.38246000  0.36985300  1
  O  O50  1  0.60900800  0.39863900  0.02663700  1
  O  O51  1  0.97344600  0.37563300  0.60570100  1
  O  O52  1  0.72251000  0.40600300  0.55494400  1
  O  O53  1  0.59010200  0.44193800  0.27951900  1
  O  O54  1  0.80679900  0.41629400  0.79901400  1
  O  O55  1  0.88189400  0.46684700  0.09226000  1
  O  O56  1  0.10384100  0.53311000  0.88984800  1
  O  O57  1  0.19031500  0.57803600  0.18071700  1
  O  O58  1  0.30281200  0.59138400  0.40803900  1
  O  O59  1  0.41699300  0.56325000  0.70017100  1
  O  O60  1  0.04174700  0.60865300  0.38274500  1
  O  O61  1  0.38798500  0.59337400  0.95424500  1
  O  O62  1  0.84858100  0.60735900  0.61586700  1
  O  O63  1  0.61501600  0.63061600  0.82593100  1
  O  O64  1  0.68645400  0.69434600  0.08173400  1
  O  O65  1  0.08602300  0.71194300  0.69514700  1
  O  O66  1  0.55695900  0.72008100  0.40976500  1
  O  O67  1  0.88449500  0.67528000  0.86958900  1
  O  O68  1  0.09163300  0.78186400  0.94309700  1
  O  O69  1  0.80575900  0.79599600  0.41631100  1
  O  O70  1  0.40982200  0.80129700  0.80262700  1
  O  O71  1  0.62687100  0.83248700  0.61297500  1
  O  O72  1  0.09871100  0.88022000  0.46106300  1
  O  O73  1  0.08727400  0.90609900  0.19928500  1
  O  O74  1  0.53534100  0.89528700  0.12515100  1
  O  O75  1  0.30964200  0.91952600  0.32391200  1
  O  O76  1  0.65441100  0.88311600  0.89132000  1
  O  O77  1  0.79059200  0.93386600  0.08615900  1
  O  O78  1  0.87582200  0.89504000  0.67060400  1
  O  O79  1  0.61161400  0.97079800  0.39259000  1
