# generated using pymatgen
data_Na3Li3Mn2P2(CO7)2
_symmetry_space_group_name_H-M   'P 1'
_cell_length_a   8.48700299
_cell_length_b   8.81192174
_cell_length_c   8.54127931
_cell_angle_alpha   86.63159801
_cell_angle_beta   106.10865594
_cell_angle_gamma   89.52781593
_symmetry_Int_Tables_number   1
_chemical_formula_structural   Na3Li3Mn2P2(CO7)2
_chemical_formula_sum   'Na6 Li6 Mn4 P4 C4 O28'
_cell_volume   612.43407081
_cell_formula_units_Z   2
loop_
 _symmetry_equiv_pos_site_id
 _symmetry_equiv_pos_as_xyz
  1  'x, y, z'
loop_
 _atom_site_type_symbol
 _atom_site_label
 _atom_site_symmetry_multiplicity
 _atom_site_fract_x
 _atom_site_fract_y
 _atom_site_fract_z
 _atom_site_occupancy
  Na  Na0  1  0.12694800  0.25365500  0.13638500  1
  Na  Na1  1  0.62691000  0.25356000  0.63627900  1
  Na  Na2  1  0.88046300  0.25040800  0.38068600  1
  Na  Na3  1  0.38055200  0.25034200  0.88067300  1
  Na  Na4  1  0.12017200  0.75482200  0.61529400  1
  Na  Na5  1  0.62019100  0.75490900  0.11529300  1
  Li  Li6  1  0.27225600  0.10383400  0.50769600  1
  Li  Li7  1  0.77225200  0.10385600  0.00776200  1
  Li  Li8  1  0.88859200  0.72384500  0.85492700  1
  Li  Li9  1  0.38864100  0.72397400  0.35496000  1
  Li  Li10  1  0.72583500  0.89731500  0.50797200  1
  Li  Li11  1  0.22582500  0.89738500  0.00795500  1
  Mn  Mn12  1  0.50985100  0.36080300  0.26388300  1
  Mn  Mn13  1  0.98725300  0.64548800  0.22473700  1
  Mn  Mn14  1  0.00962800  0.36063700  0.76382300  1
  Mn  Mn15  1  0.48734800  0.64540400  0.72468700  1
  P  P16  1  0.23341600  0.41242200  0.48098700  1
  P  P17  1  0.73351500  0.41240000  0.98100800  1
  P  P18  1  0.76116000  0.59427000  0.50854000  1
  P  P19  1  0.26109000  0.59431900  0.00846700  1
  C  C20  1  0.97593500  0.04194100  0.74241300  1
  C  C21  1  0.47597100  0.04199800  0.24240400  1
  C  C22  1  0.02826500  0.95223000  0.27315500  1
  C  C23  1  0.52827500  0.95221700  0.77315600  1
  O  O24  1  0.06967900  0.08430400  0.32922400  1
  O  O25  1  0.56969100  0.08426900  0.82922600  1
  O  O26  1  0.10054600  0.06466700  0.86584900  1
  O  O27  1  0.60057600  0.06466300  0.36586800  1
  O  O28  1  0.89472800  0.15889200  0.65418800  1
  O  O29  1  0.39478500  0.15895500  0.15422800  1
  O  O30  1  0.36713300  0.30962100  0.44220400  1
  O  O31  1  0.86734700  0.30963800  0.94233900  1
  O  O32  1  0.18359600  0.32344600  0.62185100  1
  O  O33  1  0.68363000  0.32351000  0.12186600  1
  O  O34  1  0.08234400  0.42985400  0.32713600  1
  O  O35  1  0.58254000  0.42974200  0.82709400  1
  O  O36  1  0.70817100  0.43184900  0.45863100  1
  O  O37  1  0.20817600  0.43185100  0.95862900  1
  O  O38  1  0.29573300  0.57398700  0.52505800  1
  O  O39  1  0.79572400  0.57399800  0.02505700  1
  O  O40  1  0.90154000  0.57842300  0.67327200  1
  O  O41  1  0.40154900  0.57853000  0.17321800  1
  O  O42  1  0.82208200  0.68638500  0.37740000  1
  O  O43  1  0.32203200  0.68642500  0.87730500  1
  O  O44  1  0.61642800  0.69178100  0.53353300  1
  O  O45  1  0.11619700  0.69175600  0.03335000  1
  O  O46  1  0.11962900  0.83301300  0.34173100  1
  O  O47  1  0.61960000  0.83298200  0.84170800  1
  O  O48  1  0.89972800  0.93664100  0.15134400  1
  O  O49  1  0.39971500  0.93665300  0.65131100  1
  O  O50  1  0.92836500  0.90603100  0.70210100  1
  O  O51  1  0.42839600  0.90610200  0.20213400  1
