# generated using pymatgen
data_Li7Mn8(BO3)8
_symmetry_space_group_name_H-M   'P 1'
_cell_length_a   5.24560600
_cell_length_b   9.14256809
_cell_length_c   10.46356630
_cell_angle_alpha   88.01188000
_cell_angle_beta   88.86396118
_cell_angle_gamma   89.88602964
_symmetry_Int_Tables_number   1
_chemical_formula_structural   Li7Mn8(BO3)8
_chemical_formula_sum   'Li7 Mn8 B8 O24'
_cell_volume   501.41388188
_cell_formula_units_Z   1
loop_
 _symmetry_equiv_pos_site_id
 _symmetry_equiv_pos_as_xyz
  1  'x, y, z'
loop_
 _atom_site_type_symbol
 _atom_site_label
 _atom_site_symmetry_multiplicity
 _atom_site_fract_x
 _atom_site_fract_y
 _atom_site_fract_z
 _atom_site_occupancy
  Li  Li0  1  0.91772400  0.91772700  0.60056400  1
  Li  Li1  1  0.60028100  0.57020000  0.83580500  1
  Li  Li2  1  0.56007100  0.58956100  0.32933700  1
  Li  Li3  1  0.41622200  0.41989400  0.58327900  1
  Li  Li4  1  0.42822900  0.41573100  0.08486800  1
  Li  Li5  1  0.09056800  0.07131100  0.83846100  1
  Li  Li6  1  0.06221500  0.08996500  0.33677500  1
  Mn  Mn7  1  0.92153000  0.24981500  0.61759200  1
  Mn  Mn8  1  0.92214400  0.59767200  0.11486700  1
  Mn  Mn9  1  0.57838600  0.90854500  0.86785200  1
  Mn  Mn10  1  0.57003300  0.25107000  0.36493500  1
  Mn  Mn11  1  0.42353800  0.74490800  0.61623000  1
  Mn  Mn12  1  0.41766400  0.07594000  0.12131500  1
  Mn  Mn13  1  0.08748300  0.40721500  0.87093000  1
  Mn  Mn14  1  0.07380500  0.75677000  0.36670300  1
  B  B15  1  0.92487300  0.57790200  0.62727600  1
  B  B16  1  0.91698700  0.26024800  0.13036100  1
  B  B17  1  0.59189100  0.24360300  0.87492700  1
  B  B18  1  0.58410700  0.92031000  0.38141900  1
  B  B19  1  0.42013700  0.08128000  0.63324100  1
  B  B20  1  0.40469900  0.74857400  0.11393700  1
  B  B21  1  0.08090300  0.74618900  0.86385200  1
  B  B22  1  0.07404100  0.42417900  0.37601400  1
  O  O23  1  0.95978300  0.87854000  0.85548100  1
  O  O24  1  0.94744800  0.62061000  0.90306200  1
  O  O25  1  0.95569000  0.29053500  0.40972400  1
  O  O26  1  0.92786800  0.54317100  0.33291400  1
  O  O27  1  0.84407400  0.22970900  0.83421800  1
  O  O28  1  0.84021900  0.93764600  0.40426300  1
  O  O29  1  0.66270600  0.56501500  0.64280200  1
  O  O30  1  0.65212000  0.26647600  0.15696400  1
  O  O31  1  0.57195600  0.95807000  0.67464700  1
  O  O32  1  0.53646600  0.20754700  0.58477800  1
  O  O33  1  0.53018900  0.61688600  0.13127800  1
  O  O34  1  0.52560000  0.87108000  0.05252900  1
  O  O35  1  0.48122700  0.37913900  0.89060000  1
  O  O36  1  0.46765800  0.78434200  0.41064800  1
  O  O37  1  0.44497000  0.11694400  0.90311500  1
  O  O38  1  0.43564200  0.03527000  0.33324200  1
  O  O39  1  0.34334400  0.73427300  0.83197000  1
  O  O40  1  0.33594800  0.43571400  0.38989500  1
  O  O41  1  0.16042700  0.06920600  0.64265200  1
  O  O42  1  0.16085200  0.76750600  0.16209700  1
  O  O43  1  0.08007900  0.45727300  0.65830700  1
  O  O44  1  0.03495600  0.70980400  0.58477100  1
  O  O45  1  0.04850900  0.13474300  0.15551500  1
  O  O46  1  0.04406400  0.38506300  0.07996200  1
