# generated using pymatgen
data_Li3Sb2(PO4)3
_symmetry_space_group_name_H-M   'P 1'
_cell_length_a   8.83753260
_cell_length_b   8.83753260
_cell_length_c   9.07987956
_cell_angle_alpha   63.49713761
_cell_angle_beta   63.49713761
_cell_angle_gamma   63.30265872
_symmetry_Int_Tables_number   1
_chemical_formula_structural   Li3Sb2(PO4)3
_chemical_formula_sum   'Li6 Sb4 P6 O24'
_cell_volume   539.52619409
_cell_formula_units_Z   2
loop_
 _symmetry_equiv_pos_site_id
 _symmetry_equiv_pos_as_xyz
  1  'x, y, z'
loop_
 _atom_site_type_symbol
 _atom_site_label
 _atom_site_symmetry_multiplicity
 _atom_site_fract_x
 _atom_site_fract_y
 _atom_site_fract_z
 _atom_site_occupancy
  Li  Li0  1  0.17969700  0.46177300  0.28567700  1
  Li  Li1  1  0.88256700  0.11743300  0.75000000  1
  Li  Li2  1  0.53822700  0.82030300  0.21432300  1
  Li  Li3  1  0.46177300  0.17969700  0.78567700  1
  Li  Li4  1  0.11743300  0.88256700  0.25000000  1
  Li  Li5  1  0.82030300  0.53822700  0.71432300  1
  Sb  Sb6  1  0.65768500  0.14562200  0.14436100  1
  Sb  Sb7  1  0.85437800  0.34231500  0.35563900  1
  Sb  Sb8  1  0.14562200  0.65768500  0.64436100  1
  Sb  Sb9  1  0.34231500  0.85437800  0.85563900  1
  P  P10  1  0.95227300  0.75389300  0.07327100  1
  P  P11  1  0.58331500  0.41668500  0.75000000  1
  P  P12  1  0.75389300  0.95227300  0.57327100  1
  P  P13  1  0.24610700  0.04772700  0.42672900  1
  P  P14  1  0.41668500  0.58331500  0.25000000  1
  P  P15  1  0.04772700  0.24610700  0.92672900  1
  O  O16  1  0.75536900  0.88151400  0.11680800  1
  O  O17  1  0.24472900  0.98800000  0.61368800  1
  O  O18  1  0.56090000  0.56415800  0.81097700  1
  O  O19  1  0.96165100  0.56327100  0.20684800  1
  O  O20  1  0.07524200  0.81617200  0.09774000  1
  O  O21  1  0.77201700  0.40056300  0.60358800  1
  O  O22  1  0.59943700  0.22798300  0.89641200  1
  O  O23  1  0.18382800  0.92475800  0.40226000  1
  O  O24  1  0.88151400  0.75536900  0.61680800  1
  O  O25  1  0.43672900  0.03834900  0.29315200  1
  O  O26  1  0.43584200  0.43910000  0.68902300  1
  O  O27  1  0.01200000  0.75527100  0.88631200  1
  O  O28  1  0.98800000  0.24472900  0.11368800  1
  O  O29  1  0.56415800  0.56090000  0.31097700  1
  O  O30  1  0.56327100  0.96165100  0.70684800  1
  O  O31  1  0.11848600  0.24463100  0.38319200  1
  O  O32  1  0.81617200  0.07524200  0.59774000  1
  O  O33  1  0.40056300  0.77201700  0.10358800  1
  O  O34  1  0.22798300  0.59943700  0.39641200  1
  O  O35  1  0.92475800  0.18382800  0.90226000  1
  O  O36  1  0.03834900  0.43672900  0.79315200  1
  O  O37  1  0.43910000  0.43584200  0.18902300  1
  O  O38  1  0.75527100  0.01200000  0.38631200  1
  O  O39  1  0.24463100  0.11848600  0.88319200  1
