# generated using pymatgen
data_Li4Mn2Si3O10
_symmetry_space_group_name_H-M   'P 1'
_cell_length_a   5.40043806
_cell_length_b   5.40043806
_cell_length_c   17.20884901
_cell_angle_alpha   81.45668858
_cell_angle_beta   81.45668858
_cell_angle_gamma   60.81818119
_symmetry_Int_Tables_number   1
_chemical_formula_structural   Li4Mn2Si3O10
_chemical_formula_sum   'Li8 Mn4 Si6 O20'
_cell_volume   431.64004865
_cell_formula_units_Z   2
loop_
 _symmetry_equiv_pos_site_id
 _symmetry_equiv_pos_as_xyz
  1  'x, y, z'
loop_
 _atom_site_type_symbol
 _atom_site_label
 _atom_site_symmetry_multiplicity
 _atom_site_fract_x
 _atom_site_fract_y
 _atom_site_fract_z
 _atom_site_occupancy
  Li  Li0  1  0.83097600  0.67743200  0.94744000  1
  Li  Li1  1  0.57897800  0.79019800  0.77073700  1
  Li  Li2  1  0.67743200  0.83097600  0.44744000  1
  Li  Li3  1  0.79019800  0.57897800  0.27073700  1
  Li  Li4  1  0.20980200  0.42102200  0.72926300  1
  Li  Li5  1  0.32256800  0.16902400  0.55256000  1
  Li  Li6  1  0.42102200  0.20980200  0.22926300  1
  Li  Li7  1  0.16902400  0.32256800  0.05256000  1
  Mn  Mn8  1  0.19749300  0.01364400  0.91592400  1
  Mn  Mn9  1  0.01364400  0.19749300  0.41592400  1
  Mn  Mn10  1  0.98635600  0.80250700  0.58407600  1
  Mn  Mn11  1  0.80250700  0.98635600  0.08407600  1
  Si  Si12  1  0.65939800  0.46421700  0.59912200  1
  Si  Si13  1  0.88366400  0.11633600  0.75000000  1
  Si  Si14  1  0.53578300  0.34060200  0.90087800  1
  Si  Si15  1  0.46421700  0.65939800  0.09912200  1
  Si  Si16  1  0.11633600  0.88366400  0.25000000  1
  Si  Si17  1  0.34060200  0.53578300  0.40087800  1
  O  O18  1  0.91859700  0.83987400  0.71341600  1
  O  O19  1  0.83987400  0.91859700  0.21341600  1
  O  O20  1  0.61071300  0.78078000  0.56476300  1
  O  O21  1  0.57101900  0.62912400  0.88856800  1
  O  O22  1  0.78040200  0.41131200  0.68791600  1
  O  O23  1  0.78054100  0.07580700  0.95220200  1
  O  O24  1  0.92419300  0.21945900  0.54779800  1
  O  O25  1  0.78078000  0.61071300  0.06476300  1
  O  O26  1  0.62912400  0.57101900  0.38856800  1
  O  O27  1  0.58868800  0.21959800  0.81208400  1
  O  O28  1  0.41131200  0.78040200  0.18791600  1
  O  O29  1  0.37087600  0.42898100  0.61143200  1
  O  O30  1  0.21922000  0.38928700  0.93523700  1
  O  O31  1  0.07580700  0.78054100  0.45220200  1
  O  O32  1  0.21945900  0.92419300  0.04779800  1
  O  O33  1  0.21959800  0.58868800  0.31208400  1
  O  O34  1  0.42898100  0.37087600  0.11143200  1
  O  O35  1  0.38928700  0.21922000  0.43523700  1
  O  O36  1  0.16012600  0.08140300  0.78658400  1
  O  O37  1  0.08140300  0.16012600  0.28658400  1
