# generated using pymatgen
data_Li2PWO6
_symmetry_space_group_name_H-M   'P 1'
_cell_length_a   8.45004919
_cell_length_b   8.45004919
_cell_length_c   7.18555170
_cell_angle_alpha   77.41431519
_cell_angle_beta   77.41431519
_cell_angle_gamma   73.50866056
_symmetry_Int_Tables_number   1
_chemical_formula_structural   Li2PWO6
_chemical_formula_sum   'Li8 P4 W4 O24'
_cell_volume   473.42251881
_cell_formula_units_Z   4
loop_
 _symmetry_equiv_pos_site_id
 _symmetry_equiv_pos_as_xyz
  1  'x, y, z'
loop_
 _atom_site_type_symbol
 _atom_site_label
 _atom_site_symmetry_multiplicity
 _atom_site_fract_x
 _atom_site_fract_y
 _atom_site_fract_z
 _atom_site_occupancy
  Li  Li0  1  0.33755100  0.93110900  0.41329600  1
  Li  Li1  1  0.93110900  0.33755100  0.91329600  1
  Li  Li2  1  0.98986000  0.01014000  0.25000000  1
  Li  Li3  1  0.40743200  0.59256800  0.25000000  1
  Li  Li4  1  0.01014000  0.98986000  0.75000000  1
  Li  Li5  1  0.59256800  0.40743200  0.75000000  1
  Li  Li6  1  0.06889100  0.66244900  0.08670400  1
  Li  Li7  1  0.66244900  0.06889100  0.58670400  1
  P  P8  1  0.92715700  0.30275200  0.46086800  1
  P  P9  1  0.30275200  0.92715700  0.96086800  1
  P  P10  1  0.69724800  0.07284300  0.03913200  1
  P  P11  1  0.07284300  0.69724800  0.53913200  1
  W  W12  1  0.71263000  0.72000600  0.37113300  1
  W  W13  1  0.72000600  0.71263000  0.87113300  1
  W  W14  1  0.27999400  0.28737000  0.12886700  1
  W  W15  1  0.28737000  0.27999400  0.62886700  1
  O  O16  1  0.96836700  0.73877400  0.36993600  1
  O  O17  1  0.66010400  0.96635200  0.24312200  1
  O  O18  1  0.73877400  0.96836700  0.86993600  1
  O  O19  1  0.96635200  0.66010400  0.74312200  1
  O  O20  1  0.82399200  0.66903200  0.11172000  1
  O  O21  1  0.78845600  0.46560900  0.49591700  1
  O  O22  1  0.66903200  0.82399200  0.61172000  1
  O  O23  1  0.50297300  0.69696200  0.39613700  1
  O  O24  1  0.46560900  0.78845600  0.99591700  1
  O  O25  1  0.85945100  0.15276900  0.46774800  1
  O  O26  1  0.69696200  0.50297300  0.89613700  1
  O  O27  1  0.15276900  0.85945100  0.96774800  1
  O  O28  1  0.84723100  0.14054900  0.03225200  1
  O  O29  1  0.30303800  0.49702700  0.10386300  1
  O  O30  1  0.14054900  0.84723100  0.53225200  1
  O  O31  1  0.53439100  0.21154400  0.00408300  1
  O  O32  1  0.49702700  0.30303800  0.60386300  1
  O  O33  1  0.33096800  0.17600800  0.38828000  1
  O  O34  1  0.21154400  0.53439100  0.50408300  1
  O  O35  1  0.17600800  0.33096800  0.88828000  1
  O  O36  1  0.03364800  0.33989600  0.25687800  1
  O  O37  1  0.26122600  0.03163300  0.13006400  1
  O  O38  1  0.33989600  0.03364800  0.75687800  1
  O  O39  1  0.03163300  0.26122600  0.63006400  1
