# generated using pymatgen
data_Li2V3O7
_symmetry_space_group_name_H-M   'P 1'
_cell_length_a   10.58557537
_cell_length_b   10.58557537
_cell_length_c   9.52925400
_cell_angle_alpha   90.00000000
_cell_angle_beta   90.00000000
_cell_angle_gamma   119.99999605
_symmetry_Int_Tables_number   1
_chemical_formula_structural   Li2V3O7
_chemical_formula_sum   'Li12 V18 O42'
_cell_volume   924.73754224
_cell_formula_units_Z   6
loop_
 _symmetry_equiv_pos_site_id
 _symmetry_equiv_pos_as_xyz
  1  'x, y, z'
loop_
 _atom_site_type_symbol
 _atom_site_label
 _atom_site_symmetry_multiplicity
 _atom_site_fract_x
 _atom_site_fract_y
 _atom_site_fract_z
 _atom_site_occupancy
  Li  Li0  1  0.05046500  0.52122300  0.33527700  1
  Li  Li1  1  0.47075800  0.94953500  0.33527700  1
  Li  Li2  1  0.33333300  0.66666700  0.67467400  1
  Li  Li3  1  0.33333300  0.66666700  0.03456400  1
  Li  Li4  1  0.00000000  0.00000000  0.10841200  1
  Li  Li5  1  0.00000000  0.00000000  0.60841200  1
  Li  Li6  1  0.47877700  0.52924200  0.33527700  1
  Li  Li7  1  0.52924200  0.47877700  0.83527700  1
  Li  Li8  1  0.52122300  0.05046500  0.83527700  1
  Li  Li9  1  0.66666700  0.33333300  0.17467400  1
  Li  Li10  1  0.66666700  0.33333300  0.53456400  1
  Li  Li11  1  0.94953500  0.47075800  0.83527700  1
  V  V12  1  0.12652600  0.79461700  0.19921900  1
  V  V13  1  0.16218900  0.83905200  0.85123500  1
  V  V14  1  0.20425100  0.87291300  0.50520600  1
  V  V15  1  0.12708700  0.33133800  0.50520600  1
  V  V16  1  0.16094800  0.32313700  0.85123500  1
  V  V17  1  0.20538300  0.33190900  0.19921900  1
  V  V18  1  0.33190900  0.20538300  0.69921900  1
  V  V19  1  0.32313700  0.16094800  0.35123500  1
  V  V20  1  0.66809100  0.87347400  0.19921900  1
  V  V21  1  0.33133800  0.12708700  0.00520600  1
  V  V22  1  0.67686300  0.83781100  0.85123500  1
  V  V23  1  0.66866200  0.79574900  0.50520600  1
  V  V24  1  0.79574900  0.66866200  0.00520600  1
  V  V25  1  0.83781100  0.67686300  0.35123500  1
  V  V26  1  0.87347400  0.66809100  0.69921900  1
  V  V27  1  0.79461700  0.12652600  0.69921900  1
  V  V28  1  0.83905200  0.16218900  0.35123500  1
  V  V29  1  0.87291300  0.20425100  0.00520600  1
  O  O30  1  0.06943000  0.83326500  0.67019700  1
  O  O31  1  0.04346200  0.72612500  0.39040500  1
  O  O32  1  0.17308600  0.92807800  0.03389900  1
  O  O33  1  0.27649400  0.95446900  0.31246100  1
  O  O34  1  0.15789500  0.65725100  0.16073100  1
  O  O35  1  0.25079200  0.74741500  0.85059200  1
  O  O36  1  0.04553100  0.32202600  0.31246100  1
  O  O37  1  0.33566800  0.83619800  0.54861800  1
  O  O38  1  0.16380200  0.49947000  0.54861800  1
  O  O39  1  0.07192200  0.24500800  0.03389900  1
  O  O40  1  0.25258500  0.50337700  0.85059200  1
  O  O41  1  0.16673500  0.23616500  0.67019700  1
  O  O42  1  0.34274900  0.50064400  0.16073100  1
  O  O43  1  0.49935600  0.84210500  0.16073100  1
  O  O44  1  0.27387500  0.31733700  0.39040500  1
  O  O45  1  0.49662300  0.74920800  0.85059200  1
  O  O46  1  0.23616500  0.16673500  0.17019700  1
  O  O47  1  0.31733700  0.27387500  0.89040500  1
  O  O48  1  0.50053000  0.66433200  0.54861800  1
  O  O49  1  0.24500800  0.07192200  0.53389900  1
  O  O50  1  0.68266300  0.95653800  0.39040500  1
  O  O51  1  0.32202600  0.04553100  0.81246100  1
  O  O52  1  0.76383500  0.93057000  0.67019700  1
  O  O53  1  0.50064400  0.34274900  0.66073100  1
  O  O54  1  0.67797400  0.72350600  0.31246100  1
  O  O55  1  0.75499200  0.82691400  0.03389900  1
  O  O56  1  0.50337700  0.25258500  0.35059200  1
  O  O57  1  0.72350600  0.67797400  0.81246100  1
  O  O58  1  0.49947000  0.16380200  0.04861800  1
  O  O59  1  0.66433200  0.50053000  0.04861800  1
  O  O60  1  0.82691400  0.75499200  0.53389900  1
  O  O61  1  0.74920800  0.49662300  0.35059200  1
  O  O62  1  0.93057000  0.76383500  0.17019700  1
  O  O63  1  0.84210500  0.49935600  0.66073100  1
  O  O64  1  0.65725100  0.15789500  0.66073100  1
  O  O65  1  0.95653800  0.68266300  0.89040500  1
  O  O66  1  0.74741500  0.25079200  0.35059200  1
  O  O67  1  0.83619800  0.33566800  0.04861800  1
  O  O68  1  0.72612500  0.04346200  0.89040500  1
  O  O69  1  0.83326500  0.06943000  0.17019700  1
  O  O70  1  0.95446900  0.27649400  0.81246100  1
  O  O71  1  0.92807800  0.17308600  0.53389900  1
