# generated using pymatgen
data_Li5Mn5O12
_symmetry_space_group_name_H-M   'P 1'
_cell_length_a   5.02970500
_cell_length_b   5.05125404
_cell_length_c   19.75772841
_cell_angle_alpha   92.41319194
_cell_angle_beta   93.45206473
_cell_angle_gamma   118.71060598
_symmetry_Int_Tables_number   1
_chemical_formula_structural   Li5Mn5O12
_chemical_formula_sum   'Li10 Mn10 O24'
_cell_volume   438.00971978
_cell_formula_units_Z   2
loop_
 _symmetry_equiv_pos_site_id
 _symmetry_equiv_pos_as_xyz
  1  'x, y, z'
loop_
 _atom_site_type_symbol
 _atom_site_label
 _atom_site_symmetry_multiplicity
 _atom_site_fract_x
 _atom_site_fract_y
 _atom_site_fract_z
 _atom_site_occupancy
  Li  Li0  1  0.07759000  0.90051400  0.26533600  1
  Li  Li1  1  0.12849600  0.62193400  0.37505800  1
  Li  Li2  1  0.27547100  0.77901200  0.76426800  1
  Li  Li3  1  0.58230400  0.39493100  0.76585400  1
  Li  Li4  1  0.47219800  0.97520200  0.48587800  1
  Li  Li5  1  0.62146500  0.12582300  0.87536200  1
  Li  Li6  1  0.85383200  0.66575000  0.48412500  1
  Li  Li7  1  0.96894500  0.47533500  0.98551100  1
  Li  Li8  1  0.77286400  0.28216700  0.26430700  1
  Li  Li9  1  0.66683300  0.85833200  0.98502000  1
  Mn  Mn10  1  0.21164100  0.03825300  0.62487300  1
  Mn  Mn11  1  0.45057200  0.29969900  0.37485600  1
  Mn  Mn12  1  0.95905500  0.80082300  0.87487000  1
  Mn  Mn13  1  0.37780600  0.87232000  0.12525600  1
  Mn  Mn14  1  0.71073500  0.53679100  0.12439200  1
  Mn  Mn15  1  0.28632900  0.45310700  0.87528600  1
  Mn  Mn16  1  0.04492300  0.20833900  0.12529200  1
  Mn  Mn17  1  0.87945800  0.37038800  0.62520200  1
  Mn  Mn18  1  0.54261700  0.70733900  0.62503800  1
  Mn  Mn19  1  0.78755100  0.96177900  0.37490400  1
  O  O20  1  0.25829600  0.10692200  0.82240700  1
  O  O21  1  0.14222400  0.99787100  0.42782000  1
  O  O22  1  0.52380700  0.35259500  0.57511900  1
  O  O23  1  0.02681000  0.52655000  0.18051000  1
  O  O24  1  0.65465500  0.51747900  0.92932500  1
  O  O25  1  0.28093400  0.77504300  0.93030400  1
  O  O26  1  0.22227800  0.72740200  0.56880200  1
  O  O27  1  0.40132300  0.22201200  0.17456500  1
  O  O28  1  0.75021700  0.61025300  0.32203000  1
  O  O29  1  0.52512700  0.02401000  0.68112000  1
  O  O30  1  0.90068500  0.72482600  0.67500100  1
  O  O31  1  0.46103600  0.98217900  0.31966900  1
  O  O32  1  0.08828400  0.24442400  0.32065400  1
  O  O33  1  0.24224500  0.39703400  0.67530200  1
  O  O34  1  0.00825600  0.84769900  0.07385100  1
  O  O35  1  0.77095100  0.28624900  0.43010200  1
  O  O36  1  0.72772600  0.21753400  0.06914300  1
  O  O37  1  0.96481500  0.47889400  0.81990300  1
  O  O38  1  0.59037200  0.73589300  0.82080900  1
  O  O39  1  0.35465800  0.52385500  0.07549700  1
  O  O40  1  0.50714300  0.65912500  0.42907900  1
  O  O41  1  0.84939700  0.01032600  0.57471700  1
  O  O42  1  0.98697100  0.14671200  0.92773500  1
  O  O43  1  0.74851100  0.89714300  0.17608600  1
