# generated using pymatgen
data_Li8Mn7Fe(PO4)12
_symmetry_space_group_name_H-M   'P 1'
_cell_length_a   8.57066800
_cell_length_b   8.79515090
_cell_length_c   11.95575625
_cell_angle_alpha   89.78373926
_cell_angle_beta   89.94647460
_cell_angle_gamma   89.82740527
_symmetry_Int_Tables_number   1
_chemical_formula_structural   Li8Mn7Fe(PO4)12
_chemical_formula_sum   'Li8 Mn7 Fe1 P12 O48'
_cell_volume   901.21782098
_cell_formula_units_Z   1
loop_
 _symmetry_equiv_pos_site_id
 _symmetry_equiv_pos_as_xyz
  1  'x, y, z'
loop_
 _atom_site_type_symbol
 _atom_site_label
 _atom_site_symmetry_multiplicity
 _atom_site_fract_x
 _atom_site_fract_y
 _atom_site_fract_z
 _atom_site_occupancy
  Li  Li0  1  0.21551900  0.72194500  0.18099000  1
  Li  Li1  1  0.21433000  0.77748900  0.81969400  1
  Li  Li2  1  0.28530100  0.22235600  0.31798300  1
  Li  Li3  1  0.28520900  0.27966900  0.68141400  1
  Li  Li4  1  0.71636900  0.72114600  0.32006200  1
  Li  Li5  1  0.71619100  0.77569300  0.68152400  1
  Li  Li6  1  0.78449600  0.22269000  0.18074800  1
  Li  Li7  1  0.78387200  0.27844900  0.81895800  1
  Mn  Mn8  1  0.24698500  0.96282600  0.61312900  1
  Mn  Mn9  1  0.24846800  0.53577100  0.38561700  1
  Mn  Mn10  1  0.25183800  0.03658600  0.11329700  1
  Mn  Mn11  1  0.25073500  0.46504100  0.88612200  1
  Mn  Mn12  1  0.74810000  0.53635300  0.11511600  1
  Mn  Mn13  1  0.74794400  0.96310500  0.88672100  1
  Mn  Mn14  1  0.75205600  0.03655900  0.38600300  1
  Fe  Fe15  1  0.75289700  0.46264200  0.61405100  1
  P  P16  1  0.03811800  0.24624200  0.49957500  1
  P  P17  1  0.46414000  0.75069400  0.99977600  1
  P  P18  1  0.53544000  0.24978600  0.99991900  1
  P  P19  1  0.96554200  0.75069700  0.50077500  1
  P  P20  1  0.10543000  0.39406200  0.14703000  1
  P  P21  1  0.10563200  0.10614200  0.85201900  1
  P  P22  1  0.39267800  0.60939100  0.64559600  1
  P  P23  1  0.39401000  0.89376500  0.35290700  1
  P  P24  1  0.60522300  0.10420900  0.64703900  1
  P  P25  1  0.60405000  0.39387000  0.35157700  1
  P  P26  1  0.89406200  0.60549300  0.85652400  1
  P  P27  1  0.89406400  0.89415700  0.14736400  1
  O  O28  1  0.05916000  0.64437100  0.42516400  1
  O  O29  1  0.05976300  0.86004300  0.57547600  1
  O  O30  1  0.07495000  0.89728400  0.15741900  1
  O  O31  1  0.07455100  0.60552300  0.84516800  1
  O  O32  1  0.14733700  0.15637900  0.58272800  1
  O  O33  1  0.14677600  0.33211900  0.41854400  1
  O  O34  1  0.15596400  0.43822400  0.02901300  1
  O  O35  1  0.15543700  0.06082500  0.97079500  1
  O  O36  1  0.15961800  0.23206500  0.17999500  1
  O  O37  1  0.15819900  0.26546600  0.81841500  1
  O  O38  1  0.17766000  0.51532900  0.22682400  1
  O  O39  1  0.17838200  0.98318800  0.77302300  1
  O  O40  1  0.32130100  0.01619800  0.27382200  1
  O  O41  1  0.31870000  0.48964000  0.72606400  1
  O  O42  1  0.33468600  0.77243200  0.67715500  1
  O  O43  1  0.34110100  0.73400500  0.31974500  1
  O  O44  1  0.34342900  0.56307400  0.52773500  1
  O  O45  1  0.34478300  0.93819100  0.47222900  1
  O  O46  1  0.35696300  0.83779800  0.08352100  1
  O  O47  1  0.35824800  0.66721500  0.91723800  1
  O  O48  1  0.42356700  0.10036800  0.65701100  1
  O  O49  1  0.42412400  0.39616700  0.34023100  1
  O  O50  1  0.44198800  0.14154600  0.07559200  1
  O  O51  1  0.44220500  0.35691200  0.92436900  1
  O  O52  1  0.55668100  0.64369800  0.07566600  1
  O  O53  1  0.55825300  0.85898900  0.92394100  1
  O  O54  1  0.57139600  0.60803800  0.65736500  1
  O  O55  1  0.57461800  0.89612000  0.34298600  1
  O  O56  1  0.64350900  0.33521500  0.08108900  1
  O  O57  1  0.64437200  0.16091100  0.91707800  1
  O  O58  1  0.65527800  0.06031100  0.52845100  1
  O  O59  1  0.65644600  0.43843400  0.46849300  1
  O  O60  1  0.65776100  0.23181500  0.31882800  1
  O  O61  1  0.65695500  0.26531600  0.67987300  1
  O  O62  1  0.67672600  0.51504400  0.27100900  1
  O  O63  1  0.67785700  0.98213000  0.72691100  1
  O  O64  1  0.82133200  0.01621200  0.22658200  1
  O  O65  1  0.82296400  0.48568800  0.77751900  1
  O  O66  1  0.84158500  0.73413100  0.18117200  1
  O  O67  1  0.84024400  0.76886300  0.82205600  1
  O  O68  1  0.84582400  0.56616900  0.97591000  1
  O  O69  1  0.84424200  0.93928700  0.02846000  1
  O  O70  1  0.85800300  0.66387300  0.58230600  1
  O  O71  1  0.85823400  0.83830400  0.41739900  1
  O  O72  1  0.92477400  0.10281000  0.84174600  1
  O  O73  1  0.92583400  0.39533600  0.15852900  1
  O  O74  1  0.94478300  0.13936900  0.42375100  1
  O  O75  1  0.94474300  0.35275300  0.57408000  1
