# generated using pymatgen
data_LiCo2OF3
_symmetry_space_group_name_H-M   'P 1'
_cell_length_a   8.14518799
_cell_length_b   8.14518799
_cell_length_c   8.14518799
_cell_angle_alpha   137.37338579
_cell_angle_beta   115.43096102
_cell_angle_gamma   80.49080983
_symmetry_Int_Tables_number   1
_chemical_formula_structural   LiCo2OF3
_chemical_formula_sum   'Li4 Co8 O4 F12'
_cell_volume   320.30035271
_cell_formula_units_Z   4
loop_
 _symmetry_equiv_pos_site_id
 _symmetry_equiv_pos_as_xyz
  1  'x, y, z'
loop_
 _atom_site_type_symbol
 _atom_site_label
 _atom_site_symmetry_multiplicity
 _atom_site_fract_x
 _atom_site_fract_y
 _atom_site_fract_z
 _atom_site_occupancy
  Li  Li0  1  0.51357300  0.86568000  0.64789300  1
  Li  Li1  1  0.78221200  0.13432000  0.64789300  1
  Li  Li2  1  0.72861500  0.36752200  0.36109300  1
  Li  Li3  1  0.99357000  0.63247800  0.36109300  1
  Co  Co4  1  0.72957600  0.74664100  0.98293500  1
  Co  Co5  1  0.13063800  0.14235500  0.50806800  1
  Co  Co6  1  0.36571300  0.85764500  0.98828300  1
  Co  Co7  1  0.98272600  0.00000000  0.98272600  1
  Co  Co8  1  0.23629400  0.25335900  0.98293500  1
  Co  Co9  1  0.52736100  0.50000000  0.02736100  1
  Co  Co10  1  0.13063800  0.62256900  0.98828300  1
  Co  Co11  1  0.36571300  0.37743100  0.50806800  1
  O  O12  1  0.48985200  0.72895400  0.76089800  1
  O  O13  1  0.03194400  0.27104600  0.76089800  1
  O  O14  1  0.21735400  0.00000000  0.21735400  1
  O  O15  1  0.29315900  0.50000000  0.79315900  1
  F  F16  1  0.63238600  0.86694600  0.25105500  1
  F  F17  1  0.75759000  0.00000000  0.75759000  1
  F  F18  1  0.38411000  0.13305400  0.76544000  1
  F  F19  1  0.12322500  0.88873000  0.75649900  1
  F  F20  1  0.63238600  0.38133100  0.76544000  1
  F  F21  1  0.46384000  0.23721100  0.22662900  1
  F  F22  1  0.86776900  0.11127000  0.23449600  1
  F  F23  1  0.12322500  0.36672700  0.23449600  1
  F  F24  1  0.38411000  0.61866900  0.25105500  1
  F  F25  1  0.75523500  0.50000000  0.25523500  1
  F  F26  1  0.98941900  0.76278900  0.22662900  1
  F  F27  1  0.86776900  0.63327300  0.75649900  1
