# generated using pymatgen
data_Li10Mn3Cr3(NiO8)2
_symmetry_space_group_name_H-M   'P 1'
_cell_length_a   5.91736000
_cell_length_b   5.98685480
_cell_length_c   9.80622628
_cell_angle_alpha   90.87883864
_cell_angle_beta   90.90461926
_cell_angle_gamma   119.08516758
_symmetry_Int_Tables_number   1
_chemical_formula_structural   Li10Mn3Cr3(NiO8)2
_chemical_formula_sum   'Li10 Mn3 Cr3 Ni2 O16'
_cell_volume   303.44823602
_cell_formula_units_Z   1
loop_
 _symmetry_equiv_pos_site_id
 _symmetry_equiv_pos_as_xyz
  1  'x, y, z'
loop_
 _atom_site_type_symbol
 _atom_site_label
 _atom_site_symmetry_multiplicity
 _atom_site_fract_x
 _atom_site_fract_y
 _atom_site_fract_z
 _atom_site_occupancy
  Li  Li0  1  0.01577600  0.99422800  0.48247100  1
  Li  Li1  1  0.19658700  0.39774300  0.06251100  1
  Li  Li2  1  0.35520700  0.67734900  0.28328200  1
  Li  Li3  1  0.68706300  0.33600200  0.78327200  1
  Li  Li4  1  0.81708700  0.18613800  0.56313900  1
  Li  Li5  1  0.40009800  0.18157500  0.56491300  1
  Li  Li6  1  0.21554100  0.81316700  0.05405800  1
  Li  Li7  1  0.61788400  0.79656400  0.05763400  1
  Li  Li8  1  0.80262300  0.59830700  0.55463000  1
  Li  Li9  1  0.01765200  0.01134600  0.98348200  1
  Mn  Mn10  1  0.84920100  0.17619600  0.28619300  1
  Mn  Mn11  1  0.67882700  0.83056800  0.78440600  1
  Mn  Mn12  1  0.84647500  0.66565500  0.28461000  1
  Cr  Cr13  1  0.18539700  0.33733800  0.78666100  1
  Cr  Cr14  1  0.35240800  0.17159800  0.28586900  1
  Cr  Cr15  1  0.18399600  0.83085800  0.78534500  1
  Ni  Ni16  1  0.34321400  0.65423500  0.53037600  1
  Ni  Ni17  1  0.67877200  0.33599300  0.02952400  1
  O  O18  1  0.34124100  0.16099300  0.90400400  1
  O  O19  1  0.16855400  0.31901500  0.40333700  1
  O  O20  1  0.53179200  0.02539000  0.16721000  1
  O  O21  1  0.03095100  0.50763400  0.66642600  1
  O  O22  1  0.18108200  0.84132500  0.39482800  1
  O  O23  1  0.85272500  0.16419500  0.89642400  1
  O  O24  1  0.50587800  0.50462100  0.67229300  1
  O  O25  1  0.52146700  0.49299600  0.17117500  1
  O  O26  1  0.32870400  0.65696500  0.90879200  1
  O  O27  1  0.67379900  0.30390000  0.40865200  1
  O  O28  1  0.50528500  0.97001100  0.66988000  1
  O  O29  1  0.99940100  0.52166900  0.16159600  1
  O  O30  1  0.68519200  0.80089600  0.41141400  1
  O  O31  1  0.85279800  0.68771000  0.89937300  1
  O  O32  1  0.04280900  0.01406300  0.66870300  1
  O  O33  1  0.02117800  0.03612400  0.17044100  1
