# generated using pymatgen
data_Li4V8O13F3
_symmetry_space_group_name_H-M   'P 1'
_cell_length_a   6.00080200
_cell_length_b   6.00098854
_cell_length_c   10.51876355
_cell_angle_alpha   90.65053301
_cell_angle_beta   106.10772598
_cell_angle_gamma   118.30111789
_symmetry_Int_Tables_number   1
_chemical_formula_structural   Li4V8O13F3
_chemical_formula_sum   'Li4 V8 O13 F3'
_cell_volume   315.81353766
_cell_formula_units_Z   1
loop_
 _symmetry_equiv_pos_site_id
 _symmetry_equiv_pos_as_xyz
  1  'x, y, z'
loop_
 _atom_site_type_symbol
 _atom_site_label
 _atom_site_symmetry_multiplicity
 _atom_site_fract_x
 _atom_site_fract_y
 _atom_site_fract_z
 _atom_site_occupancy
  Li  Li0  1  0.12297400  0.32856100  0.94210900  1
  Li  Li1  1  0.88389000  0.16180000  0.55738800  1
  Li  Li2  1  0.10983900  0.83306400  0.44585000  1
  Li  Li3  1  0.88977600  0.66901100  0.05732100  1
  V  V4  1  0.48169800  0.24122900  0.76109000  1
  V  V5  1  0.50545500  0.49468800  0.50106800  1
  V  V6  1  0.00109400  0.75209200  0.75550100  1
  V  V7  1  0.48871700  0.00781700  0.99587200  1
  V  V8  1  0.49824100  0.24931800  0.24941100  1
  V  V9  1  0.49897800  0.74824500  0.75035600  1
  V  V10  1  0.99749300  0.24896300  0.24951100  1
  V  V11  1  0.49809000  0.74977400  0.24921600  1
  O  O12  1  0.24940000  0.11690500  0.86615100  1
  O  O13  1  0.70724900  0.12368800  0.86262600  1
  O  O14  1  0.73048200  0.60600100  0.85482500  1
  O  O15  1  0.26127500  0.16239100  0.37048100  1
  O  O16  1  0.26971200  0.66694800  0.87169800  1
  O  O17  1  0.70515300  0.60935900  0.37118200  1
  O  O18  1  0.26220300  0.88727500  0.64953100  1
  O  O19  1  0.73804900  0.10948500  0.35295100  1
  O  O20  1  0.29977400  0.37484200  0.63483600  1
  O  O21  1  0.73641300  0.33795000  0.12937800  1
  O  O22  1  0.73128400  0.82753100  0.62963100  1
  O  O23  1  0.25861400  0.38959300  0.14769300  1
  O  O24  1  0.29275900  0.89085900  0.12823100  1
  F  F25  1  0.74883900  0.37262000  0.62929600  1
  F  F26  1  0.24918400  0.61971000  0.37554400  1
  F  F27  1  0.74834000  0.87974800  0.12563500  1
