# generated using pymatgen
data_Li3Mn3(PO4)4
_symmetry_space_group_name_H-M   'P 1'
_cell_length_a   8.10125700
_cell_length_b   9.06890771
_cell_length_c   13.42394240
_cell_angle_alpha   94.58377159
_cell_angle_beta   90.09851814
_cell_angle_gamma   90.02273154
_symmetry_Int_Tables_number   1
_chemical_formula_structural   Li3Mn3(PO4)4
_chemical_formula_sum   'Li9 Mn9 P12 O48'
_cell_volume   983.09497068
_cell_formula_units_Z   3
loop_
 _symmetry_equiv_pos_site_id
 _symmetry_equiv_pos_as_xyz
  1  'x, y, z'
loop_
 _atom_site_type_symbol
 _atom_site_label
 _atom_site_symmetry_multiplicity
 _atom_site_fract_x
 _atom_site_fract_y
 _atom_site_fract_z
 _atom_site_occupancy
  Li  Li0  1  0.51475400  0.34261000  0.83389400  1
  Li  Li1  1  0.48490600  0.99219300  0.49805600  1
  Li  Li2  1  0.85387700  0.44250400  0.82660000  1
  Li  Li3  1  0.35243700  0.05527200  0.17509100  1
  Li  Li4  1  0.99601400  0.82065200  0.83968900  1
  Li  Li5  1  0.00870300  0.51344900  0.49808900  1
  Li  Li6  1  0.01671600  0.15652500  0.16637100  1
  Li  Li7  1  0.14765600  0.89226600  0.50575500  1
  Li  Li8  1  0.49303400  0.68183000  0.16305100  1
  Mn  Mn9  1  0.14417000  0.22416300  0.83197800  1
  Mn  Mn10  1  0.85717900  0.10794800  0.50185800  1
  Mn  Mn11  1  0.34807300  0.71453200  0.84429500  1
  Mn  Mn12  1  0.35079600  0.38880000  0.49912700  1
  Mn  Mn13  1  0.64490800  0.94172700  0.83599900  1
  Mn  Mn14  1  0.64545400  0.61464100  0.49616100  1
  Mn  Mn15  1  0.64101500  0.27292100  0.16874200  1
  Mn  Mn16  1  0.15211800  0.55590300  0.17127600  1
  Mn  Mn17  1  0.84989600  0.78683200  0.15549600  1
  P  P18  1  0.80396000  0.14596200  0.94555500  1
  P  P19  1  0.30274600  0.02345700  0.71959900  1
  P  P20  1  0.70167300  0.63516500  0.94433700  1
  P  P21  1  0.69832800  0.30927600  0.61354700  1
  P  P22  1  0.20290200  0.51895200  0.72158500  1
  P  P23  1  0.19392700  0.18717100  0.38587000  1
  P  P24  1  0.79762500  0.81479400  0.61254900  1
  P  P25  1  0.80114600  0.47611800  0.27784600  1
  P  P26  1  0.29803300  0.69717100  0.38894000  1
  P  P27  1  0.30285500  0.35464800  0.05474000  1
  P  P28  1  0.70386000  0.98062500  0.27912400  1
  P  P29  1  0.20018200  0.86422100  0.05586300  1
  O  O30  1  0.13244200  0.01587500  0.77590900  1
  O  O31  1  0.63316400  0.15078200  0.88920800  1
  O  O32  1  0.93312800  0.24441700  0.89818500  1
  O  O33  1  0.29287500  0.31658300  0.94288400  1
  O  O34  1  0.34352300  0.19169300  0.75077700  1
  O  O35  1  0.63659400  0.47880200  0.92712300  1
  O  O36  1  0.65674800  0.14161000  0.58256600  1
  O  O37  1  0.70303200  0.34974400  0.72353600  1
  O  O38  1  0.08277100  0.41314700  0.76877200  1
  O  O39  1  0.71016700  0.01395400  0.39185700  1
  O  O40  1  0.06723900  0.08859200  0.43666000  1
  O  O41  1  0.37868100  0.51805800  0.77240900  1
  O  O42  1  0.86444200  0.65563100  0.89161000  1
  O  O43  1  0.36606000  0.18338000  0.44224800  1
  O  O44  1  0.86797100  0.31766900  0.55682200  1
  O  O45  1  0.56918600  0.74845000  0.89891700  1
  O  O46  1  0.20497400  0.81504600  0.94126900  1
  O  O47  1  0.57068900  0.41076400  0.56061500  1
  O  O48  1  0.20872600  0.48609800  0.60839400  1
  O  O49  1  0.58243600  0.08584400  0.23135300  1
  O  O50  1  0.15604700  0.68462000  0.75312700  1
  O  O51  1  0.20270200  0.15101200  0.27533200  1
  O  O52  1  0.15498400  0.35665000  0.41699900  1
  O  O53  1  0.13622600  0.02113000  0.07223400  1
  O  O54  1  0.84151000  0.97633800  0.91829200  1
  O  O55  1  0.84162900  0.64741200  0.58170700  1
  O  O56  1  0.78990500  0.84849600  0.72532100  1
  O  O57  1  0.84217600  0.30835000  0.25118000  1
  O  O58  1  0.42974500  0.92174400  0.77178900  1
  O  O59  1  0.79076100  0.51554000  0.39007300  1
  O  O60  1  0.42967200  0.58351900  0.43600300  1
  O  O61  1  0.79189300  0.18582200  0.05705800  1
  O  O62  1  0.43109500  0.25364800  0.10173800  1
  O  O63  1  0.13412100  0.67662600  0.44073500  1
  O  O64  1  0.62254800  0.81541700  0.56014200  1
  O  O65  1  0.13118700  0.35020900  0.10923400  1
  O  O66  1  0.63173200  0.48432000  0.22235200  1
  O  O67  1  0.91887200  0.91875500  0.56510700  1
  O  O68  1  0.29770900  0.98442800  0.60938700  1
  O  O69  1  0.93117800  0.57782800  0.23163000  1
  O  O70  1  0.29686400  0.64529400  0.27541100  1
  O  O71  1  0.36285400  0.85322500  0.40769500  1
  O  O72  1  0.34382100  0.52278000  0.08411200  1
  O  O73  1  0.65893100  0.81444300  0.24689900  1
  O  O74  1  0.70660400  0.68469700  0.05853000  1
  O  O75  1  0.06892300  0.75127600  0.10108600  1
  O  O76  1  0.36423700  0.84438500  0.10768900  1
  O  O77  1  0.87828000  0.98357000  0.22693600  1
