# generated using pymatgen
data_Li2Mn2(SO4)3
_symmetry_space_group_name_H-M   'P 1'
_cell_length_a   8.77032900
_cell_length_b   9.02385000
_cell_length_c   12.60576600
_cell_angle_alpha   90.00000000
_cell_angle_beta   90.00000000
_cell_angle_gamma   90.00000000
_symmetry_Int_Tables_number   1
_chemical_formula_structural   Li2Mn2(SO4)3
_chemical_formula_sum   'Li8 Mn8 S12 O48'
_cell_volume   997.64721371
_cell_formula_units_Z   4
loop_
 _symmetry_equiv_pos_site_id
 _symmetry_equiv_pos_as_xyz
  1  'x, y, z'
loop_
 _atom_site_type_symbol
 _atom_site_label
 _atom_site_symmetry_multiplicity
 _atom_site_fract_x
 _atom_site_fract_y
 _atom_site_fract_z
 _atom_site_occupancy
  Li  Li0  1  0.21592700  0.27774400  0.18121800  1
  Li  Li1  1  0.78407300  0.77774400  0.18121800  1
  Li  Li2  1  0.28407300  0.77774400  0.31878200  1
  Li  Li3  1  0.71592700  0.27774400  0.31878200  1
  Li  Li4  1  0.28407300  0.72225600  0.68121800  1
  Li  Li5  1  0.71592700  0.22225600  0.68121800  1
  Li  Li6  1  0.21592700  0.22225600  0.81878200  1
  Li  Li7  1  0.78407300  0.72225600  0.81878200  1
  Mn  Mn8  1  0.25246800  0.95894300  0.10923800  1
  Mn  Mn9  1  0.74753200  0.45894300  0.10923800  1
  Mn  Mn10  1  0.75246800  0.95894300  0.39076200  1
  Mn  Mn11  1  0.24753200  0.45894300  0.39076200  1
  Mn  Mn12  1  0.24753200  0.04105700  0.60923800  1
  Mn  Mn13  1  0.75246800  0.54105700  0.60923800  1
  Mn  Mn14  1  0.25246800  0.54105700  0.89076200  1
  Mn  Mn15  1  0.74753200  0.04105700  0.89076200  1
  S  S16  1  0.45267700  0.25000000  0.00000000  1
  S  S17  1  0.54732300  0.75000000  0.00000000  1
  S  S18  1  0.10236000  0.60571500  0.14751900  1
  S  S19  1  0.89764000  0.10571500  0.14751900  1
  S  S20  1  0.39764000  0.10571500  0.35248100  1
  S  S21  1  0.60236000  0.60571500  0.35248100  1
  S  S22  1  0.04732300  0.75000000  0.50000000  1
  S  S23  1  0.95267700  0.25000000  0.50000000  1
  S  S24  1  0.39764000  0.39428500  0.64751900  1
  S  S25  1  0.60236000  0.89428500  0.64751900  1
  S  S26  1  0.10236000  0.89428500  0.85248100  1
  S  S27  1  0.89764000  0.39428500  0.85248100  1
  O  O28  1  0.13605500  0.57861000  0.03546200  1
  O  O29  1  0.86394500  0.07861000  0.03546200  1
  O  O30  1  0.54472100  0.36189800  0.05507000  1
  O  O31  1  0.45527900  0.86189800  0.05507000  1
  O  O32  1  0.35123300  0.17675900  0.08020900  1
  O  O33  1  0.64876700  0.67675900  0.08020900  1
  O  O34  1  0.06670500  0.11432800  0.16300500  1
  O  O35  1  0.93329500  0.61432800  0.16300500  1
  O  O36  1  0.17165700  0.74900900  0.18349700  1
  O  O37  1  0.82834300  0.24900900  0.18349700  1
  O  O38  1  0.83538300  0.98263500  0.21444100  1
  O  O39  1  0.16461700  0.48263500  0.21444100  1
  O  O40  1  0.33538300  0.98263500  0.28555900  1
  O  O41  1  0.66461700  0.48263500  0.28555900  1
  O  O42  1  0.67165700  0.74900900  0.31650300  1
  O  O43  1  0.32834300  0.24900900  0.31650300  1
  O  O44  1  0.43329500  0.61432800  0.33699500  1
  O  O45  1  0.56670500  0.11432800  0.33699500  1
  O  O46  1  0.14876700  0.67675900  0.41979100  1
  O  O47  1  0.85123300  0.17675900  0.41979100  1
  O  O48  1  0.04472100  0.36189800  0.44493000  1
  O  O49  1  0.95527900  0.86189800  0.44493000  1
  O  O50  1  0.63605500  0.57861000  0.46453800  1
  O  O51  1  0.36394500  0.07861000  0.46453800  1
  O  O52  1  0.36394500  0.42139000  0.53546200  1
  O  O53  1  0.63605500  0.92139000  0.53546200  1
  O  O54  1  0.04472100  0.13810200  0.55507000  1
  O  O55  1  0.95527900  0.63810200  0.55507000  1
  O  O56  1  0.14876700  0.82324100  0.58020900  1
  O  O57  1  0.85123300  0.32324100  0.58020900  1
  O  O58  1  0.43329500  0.88567200  0.66300500  1
  O  O59  1  0.56670500  0.38567200  0.66300500  1
  O  O60  1  0.32834300  0.25099100  0.68349700  1
  O  O61  1  0.67165700  0.75099100  0.68349700  1
  O  O62  1  0.33538300  0.51736500  0.71444100  1
  O  O63  1  0.66461700  0.01736500  0.71444100  1
  O  O64  1  0.16461700  0.01736500  0.78555900  1
  O  O65  1  0.83538300  0.51736500  0.78555900  1
  O  O66  1  0.17165700  0.75099100  0.81650300  1
  O  O67  1  0.82834300  0.25099100  0.81650300  1
  O  O68  1  0.06670500  0.38567200  0.83699500  1
  O  O69  1  0.93329500  0.88567200  0.83699500  1
  O  O70  1  0.35123300  0.32324100  0.91979100  1
  O  O71  1  0.64876700  0.82324100  0.91979100  1
  O  O72  1  0.45527900  0.63810200  0.94493000  1
  O  O73  1  0.54472100  0.13810200  0.94493000  1
  O  O74  1  0.13605500  0.92139000  0.96453800  1
  O  O75  1  0.86394500  0.42139000  0.96453800  1
