# generated using pymatgen
data_LiMnP2HO7
_symmetry_space_group_name_H-M   'P 1'
_cell_length_a   6.59504643
_cell_length_b   6.58612478
_cell_length_c   6.67121789
_cell_angle_alpha   69.47848802
_cell_angle_beta   90.35046866
_cell_angle_gamma   96.58280137
_symmetry_Int_Tables_number   1
_chemical_formula_structural   LiMnP2HO7
_chemical_formula_sum   'Li2 Mn2 P4 H2 O14'
_cell_volume   269.41108781
_cell_formula_units_Z   2
loop_
 _symmetry_equiv_pos_site_id
 _symmetry_equiv_pos_as_xyz
  1  'x, y, z'
loop_
 _atom_site_type_symbol
 _atom_site_label
 _atom_site_symmetry_multiplicity
 _atom_site_fract_x
 _atom_site_fract_y
 _atom_site_fract_z
 _atom_site_occupancy
  Li  Li0  1  0.11887100  0.23833500  0.84496400  1
  Li  Li1  1  0.88117300  0.76168300  0.15492300  1
  Mn  Mn2  1  0.34696200  0.10449500  0.27747000  1
  Mn  Mn3  1  0.65266600  0.89563200  0.72238600  1
  P  P4  1  0.15837500  0.77256900  0.77188300  1
  P  P5  1  0.38634100  0.64008200  0.18292000  1
  P  P6  1  0.61373900  0.35992200  0.81711600  1
  P  P7  1  0.84155800  0.22739700  0.22817100  1
  H  H8  1  0.16621200  0.65556100  0.50388200  1
  H  H9  1  0.83392300  0.34439600  0.49617800  1
  O  O10  1  0.09227400  0.60427100  0.65520500  1
  O  O11  1  0.02145500  0.13098100  0.16709900  1
  O  O12  1  0.24302100  0.61528300  0.98656900  1
  O  O13  1  0.26390000  0.76891800  0.28465100  1
  O  O14  1  0.32592500  0.94556200  0.63894500  1
  O  O15  1  0.39446400  0.40627400  0.32579200  1
  O  O16  1  0.41139900  0.23139200  0.92590000  1
  O  O17  1  0.58864100  0.76865100  0.07410200  1
  O  O18  1  0.60560900  0.59371700  0.67419900  1
  O  O19  1  0.67396100  0.05449300  0.36101900  1
  O  O20  1  0.73616300  0.23106000  0.71541200  1
  O  O21  1  0.75704800  0.38476500  0.01344800  1
  O  O22  1  0.97847000  0.86893200  0.83290600  1
  O  O23  1  0.90785100  0.39563000  0.34486100  1
