# generated using pymatgen
data_LiVSiO4
_symmetry_space_group_name_H-M   'P 1'
_cell_length_a   5.51378251
_cell_length_b   8.45920800
_cell_length_c   5.90599625
_cell_angle_alpha   89.99967224
_cell_angle_beta   90.00000000
_cell_angle_gamma   89.99999042
_symmetry_Int_Tables_number   1
_chemical_formula_structural   LiVSiO4
_chemical_formula_sum   'Li4 V4 Si4 O16'
_cell_volume   275.46885382
_cell_formula_units_Z   4
loop_
 _symmetry_equiv_pos_site_id
 _symmetry_equiv_pos_as_xyz
  1  'x, y, z'
loop_
 _atom_site_type_symbol
 _atom_site_label
 _atom_site_symmetry_multiplicity
 _atom_site_fract_x
 _atom_site_fract_y
 _atom_site_fract_z
 _atom_site_occupancy
  Li  Li0  1  0.00000000  0.99499400  0.00000000  1
  Li  Li1  1  0.50000000  0.49499400  0.50000000  1
  Li  Li2  1  0.50000000  0.25500600  0.00000000  1
  Li  Li3  1  0.00000000  0.75500600  0.50000000  1
  V  V4  1  0.50000000  0.87500000  0.25000000  1
  V  V5  1  0.00000000  0.37500000  0.25000000  1
  V  V6  1  0.00000000  0.37500000  0.75000000  1
  V  V7  1  0.50000000  0.87500000  0.75000000  1
  Si  Si8  1  0.25000000  0.62500000  0.00000000  1
  Si  Si9  1  0.75000000  0.12500000  0.50000000  1
  Si  Si10  1  0.75000000  0.62500000  0.00000000  1
  Si  Si11  1  0.25000000  0.12500000  0.50000000  1
  O  O12  1  0.24020400  0.41181000  0.00000000  1
  O  O13  1  0.74020400  0.91181000  0.50000000  1
  O  O14  1  0.75979600  0.41181000  0.00000000  1
  O  O15  1  0.25979600  0.91181000  0.50000000  1
  O  O16  1  0.25979600  0.83819000  0.00000000  1
  O  O17  1  0.75979600  0.33819000  0.50000000  1
  O  O18  1  0.74020400  0.83819000  0.00000000  1
  O  O19  1  0.24020400  0.33819000  0.50000000  1
  O  O20  1  0.00000000  0.62173600  0.79293300  1
  O  O21  1  0.50000000  0.12173600  0.29293300  1
  O  O22  1  0.50000000  0.62826400  0.79293200  1
  O  O23  1  0.00000000  0.12826400  0.29293200  1
  O  O24  1  0.50000000  0.62826400  0.20706700  1
  O  O25  1  0.00000000  0.12826400  0.70706700  1
  O  O26  1  0.00000000  0.62173600  0.20706800  1
  O  O27  1  0.50000000  0.12173600  0.70706800  1
