# generated using pymatgen
data_Li3MnV(PO4)3
_symmetry_space_group_name_H-M   'P 1'
_cell_length_a   8.95209305
_cell_length_b   8.44602667
_cell_length_c   14.69488560
_cell_angle_alpha   90.43791667
_cell_angle_beta   74.12141837
_cell_angle_gamma   63.21681597
_symmetry_Int_Tables_number   1
_chemical_formula_structural   Li3MnV(PO4)3
_chemical_formula_sum   'Li12 Mn4 V4 P12 O48'
_cell_volume   942.87359197
_cell_formula_units_Z   4
loop_
 _symmetry_equiv_pos_site_id
 _symmetry_equiv_pos_as_xyz
  1  'x, y, z'
loop_
 _atom_site_type_symbol
 _atom_site_label
 _atom_site_symmetry_multiplicity
 _atom_site_fract_x
 _atom_site_fract_y
 _atom_site_fract_z
 _atom_site_occupancy
  Li  Li0  1  0.14794770  0.25535324  0.33190612  1
  Li  Li1  1  0.14952657  0.79602107  0.13267243  1
  Li  Li2  1  0.15120523  0.29517193  0.63237666  1
  Li  Li3  1  0.14952843  0.72477300  0.46032721  1
  Li  Li4  1  0.14995557  0.22539966  0.96101500  1
  Li  Li5  1  0.14862155  0.75747082  0.83297488  1
  Li  Li6  1  0.85039290  0.24265658  0.16778468  1
  Li  Li7  1  0.85330754  0.77369745  0.03833154  1
  Li  Li8  1  0.84949042  0.27511293  0.53913793  1
  Li  Li9  1  0.85061422  0.70302679  0.36782281  1
  Li  Li10  1  0.84949746  0.20436266  0.86847010  1
  Li  Li11  1  0.85121513  0.74348537  0.66808182  1
  Mn  Mn12  1  0.04294165  0.97765926  0.32573481  1
  Mn  Mn13  1  0.56256957  0.22190051  0.07365180  1
  Mn  Mn14  1  0.43765357  0.28113792  0.42409452  1
  Mn  Mn15  1  0.56053209  0.72136141  0.57598565  1
  V  V16  1  0.04574175  0.47857125  0.82588104  1
  V  V17  1  0.43508534  0.78171996  0.92708032  1
  V  V18  1  0.95454673  0.52137753  0.17373174  1
  V  V19  1  0.95244176  0.02471071  0.67534467  1
  P  P20  1  0.25139188  0.08581778  0.12471379  1
  P  P21  1  0.25001000  0.02278851  0.47809368  1
  P  P22  1  0.25209960  0.51918112  0.26830021  1
  P  P23  1  0.24976937  0.02253489  0.77065179  1
  P  P24  1  0.24918048  0.58771672  0.62584170  1
  P  P25  1  0.25053273  0.52106277  0.97848954  1
  P  P26  1  0.74800375  0.48135910  0.02025391  1
  P  P27  1  0.74836788  0.41621506  0.37573587  1
  P  P28  1  0.75396554  0.97179763  0.22947049  1
  P  P29  1  0.74995459  0.47708326  0.73057251  1
  P  P30  1  0.74585840  0.97946784  0.52119858  1
  P  P31  1  0.74915154  0.91617835  0.87580631  1
  O  O32  1  0.09953924  0.25867093  0.10376070  1
  O  O33  1  0.19611663  0.06786069  0.23175031  1
  O  O34  1  0.09772569  0.61499055  0.07710800  1
  O  O35  1  0.09721936  0.11755148  0.57640707  1
  O  O36  1  0.09933158  0.47302068  0.26667834  1
  O  O37  1  0.42627425  0.09159689  0.09676294  1
  O  O38  1  0.26697804  0.18303988  0.43174768  1
  O  O39  1  0.19905055  0.71374447  0.24995356  1
  O  O40  1  0.19320672  0.22048549  0.75444858  1
  O  O41  1  0.26359863  0.49991777  0.37145515  1
  O  O42  1  0.42528508  0.38709751  0.19411482  1
  O  O43  1  0.09882084  0.76212230  0.60527843  1
  O  O44  1  0.26639569  0.92799012  0.06148016  1
  O  O45  1  0.26149102  0.43048299  0.56522768  1
  O  O46  1  0.58384493  0.10001264  0.30377333  1
  O  O47  1  0.19372684  0.57202898  0.73421686  1
  O  O48  1  0.18935971  0.92998999  0.41345964  1
  O  O49  1  0.18895255  0.42703523  0.91608977  1
  O  O50  1  0.74916317  0.99197723  0.12618574  1
  O  O51  1  0.57915437  0.61548249  0.00279542  1
  O  O52  1  0.57783924  0.11490358  0.50522174  1
  O  O53  1  0.09586211  0.97903947  0.76887298  1
  O  O54  1  0.73209960  0.32300702  0.06819844  1
  O  O55  1  0.57441421  0.40741502  0.40235245  1
  O  O56  1  0.42396603  0.59422308  0.59834644  1
  O  O57  1  0.26206381  0.68127693  0.93182902  1
  O  O58  1  0.91088372  0.01562955  0.23223821  1
  O  O59  1  0.41725712  0.88563070  0.49309559  1
  O  O60  1  0.41957025  0.38723948  0.99290349  1
  O  O61  1  0.26369384  0.99919679  0.87327326  1
  O  O62  1  0.80660660  0.57565527  0.08318827  1
  O  O63  1  0.80734896  0.07140663  0.58437920  1
  O  O64  1  0.80449147  0.43096622  0.26736465  1
  O  O65  1  0.42052893  0.89537617  0.69544352  1
  O  O66  1  0.72972648  0.57824599  0.43687525  1
  O  O67  1  0.73302656  0.07497957  0.93908325  1
  O  O68  1  0.89970641  0.24707488  0.39719688  1
  O  O69  1  0.58004967  0.60689447  0.80638352  1
  O  O70  1  0.73917864  0.49511966  0.62820790  1
  O  O71  1  0.80996347  0.77500091  0.24759983  1
  O  O72  1  0.80547893  0.27964553  0.74878920  1
  O  O73  1  0.72831638  0.82064752  0.56989506  1
  O  O74  1  0.57895222  0.90674166  0.90112798  1
  O  O75  1  0.90313892  0.52281236  0.73314199  1
  O  O76  1  0.90157877  0.87925150  0.42475417  1
  O  O77  1  0.90080696  0.38542650  0.92214291  1
  O  O78  1  0.80554962  0.93361861  0.76806064  1
  O  O79  1  0.90156225  0.74230450  0.89580288  1
