# generated using pymatgen
data_Li2Bi(PO3)5
_symmetry_space_group_name_H-M   'P 1'
_cell_length_a   7.12089461
_cell_length_b   7.12089461
_cell_length_c   13.40791843
_cell_angle_alpha   88.11868773
_cell_angle_beta   88.11868773
_cell_angle_gamma   114.13480412
_symmetry_Int_Tables_number   1
_chemical_formula_structural   Li2Bi(PO3)5
_chemical_formula_sum   'Li4 Bi2 P10 O30'
_cell_volume   619.31412468
_cell_formula_units_Z   2
loop_
 _symmetry_equiv_pos_site_id
 _symmetry_equiv_pos_as_xyz
  1  'x, y, z'
loop_
 _atom_site_type_symbol
 _atom_site_label
 _atom_site_symmetry_multiplicity
 _atom_site_fract_x
 _atom_site_fract_y
 _atom_site_fract_z
 _atom_site_occupancy
  Li  Li0  1  0.68555500  0.28246700  0.72325800  1
  Li  Li1  1  0.28246700  0.68555500  0.22325800  1
  Li  Li2  1  0.23678600  0.27792300  0.59578600  1
  Li  Li3  1  0.27792300  0.23678600  0.09578600  1
  Bi  Bi4  1  0.10768600  0.87870500  0.76007100  1
  Bi  Bi5  1  0.87870500  0.10768600  0.26007100  1
  P  P6  1  0.37167000  0.97455100  0.50360000  1
  P  P7  1  0.73060200  0.59991900  0.56404300  1
  P  P8  1  0.58737400  0.84716600  0.84926500  1
  P  P9  1  0.97455100  0.37167000  0.00360000  1
  P  P10  1  0.59991900  0.73060200  0.06404300  1
  P  P11  1  0.84716600  0.58737400  0.34926500  1
  P  P12  1  0.82063000  0.06612700  0.52821400  1
  P  P13  1  0.06612700  0.82063000  0.02821400  1
  P  P14  1  0.23851700  0.44083000  0.81820300  1
  P  P15  1  0.44083000  0.23851700  0.31820300  1
  O  O16  1  0.81151800  0.90807800  0.82304800  1
  O  O17  1  0.90807800  0.81151800  0.32304800  1
  O  O18  1  0.84947400  0.59982200  0.65556400  1
  O  O19  1  0.59982200  0.84947400  0.15556400  1
  O  O20  1  0.75367200  0.82432800  0.53001200  1
  O  O21  1  0.82432800  0.75367200  0.03001200  1
  O  O22  1  0.54695300  0.84675900  0.96832400  1
  O  O23  1  0.84675900  0.54695300  0.46832400  1
  O  O24  1  0.49231800  0.97338800  0.79385800  1
  O  O25  1  0.97338800  0.49231800  0.29385800  1
  O  O26  1  0.78376700  0.33160500  0.95209800  1
  O  O27  1  0.33160500  0.78376700  0.45209800  1
  O  O28  1  0.15567900  0.91936600  0.92667800  1
  O  O29  1  0.50941400  0.45795500  0.57379700  1
  O  O30  1  0.91936600  0.15567900  0.42667800  1
  O  O31  1  0.47336400  0.60424800  0.82797100  1
  O  O32  1  0.45795500  0.50941400  0.07379700  1
  O  O33  1  0.60424800  0.47336400  0.32797100  1
  O  O34  1  0.93958800  0.16342200  0.61621000  1
  O  O35  1  0.16342200  0.93958800  0.11621000  1
  O  O36  1  0.60417200  0.08376600  0.54294200  1
  O  O37  1  0.08376600  0.60417200  0.04294200  1
  O  O38  1  0.11482500  0.55235900  0.77738400  1
  O  O39  1  0.55235900  0.11482500  0.27738400  1
  O  O40  1  0.15800900  0.35949100  0.93045300  1
  O  O41  1  0.35949100  0.15800900  0.43045300  1
  O  O42  1  0.25299400  0.26756000  0.76143500  1
  O  O43  1  0.26756000  0.25299400  0.26143500  1
  O  O44  1  0.24263400  0.98774400  0.59358700  1
  O  O45  1  0.98774400  0.24263400  0.09358700  1
