# generated using pymatgen
data_LiVF5
_symmetry_space_group_name_H-M   'P 1'
_cell_length_a   5.99398230
_cell_length_b   5.99398230
_cell_length_c   10.87727700
_cell_angle_alpha   90.00000000
_cell_angle_beta   90.00000000
_cell_angle_gamma   98.87053668
_symmetry_Int_Tables_number   1
_chemical_formula_structural   LiVF5
_chemical_formula_sum   'Li4 V4 F20'
_cell_volume   386.12268363
_cell_formula_units_Z   4
loop_
 _symmetry_equiv_pos_site_id
 _symmetry_equiv_pos_as_xyz
  1  'x, y, z'
loop_
 _atom_site_type_symbol
 _atom_site_label
 _atom_site_symmetry_multiplicity
 _atom_site_fract_x
 _atom_site_fract_y
 _atom_site_fract_z
 _atom_site_occupancy
  Li  Li0  1  0.84708800  0.15291200  0.00000000  1
  Li  Li1  1  0.65291200  0.34708800  0.50000000  1
  Li  Li2  1  0.34708800  0.65291200  0.50000000  1
  Li  Li3  1  0.15291200  0.84708800  0.00000000  1
  V  V4  1  0.15444300  0.15444300  0.39405900  1
  V  V5  1  0.34555700  0.34555700  0.89405900  1
  V  V6  1  0.65444300  0.65444300  0.10594100  1
  V  V7  1  0.84555700  0.84555700  0.60594100  1
  F  F8  1  0.86904400  0.13095600  0.50000000  1
  F  F9  1  0.99689100  0.99689100  0.73285000  1
  F  F10  1  0.42121400  0.07964400  0.35154600  1
  F  F11  1  0.42035600  0.07878600  0.85154600  1
  F  F12  1  0.17087400  0.17087400  0.02557300  1
  F  F13  1  0.63095600  0.36904400  0.00000000  1
  F  F14  1  0.32912600  0.32912600  0.52557300  1
  F  F15  1  0.07964400  0.42121400  0.35154600  1
  F  F16  1  0.07878600  0.42035600  0.85154600  1
  F  F17  1  0.50310900  0.50310900  0.23285000  1
  F  F18  1  0.49689100  0.49689100  0.76715000  1
  F  F19  1  0.92121400  0.57964400  0.14845400  1
  F  F20  1  0.92035600  0.57878600  0.64845400  1
  F  F21  1  0.67087400  0.67087400  0.47442700  1
  F  F22  1  0.36904400  0.63095600  0.00000000  1
  F  F23  1  0.82912600  0.82912600  0.97442700  1
  F  F24  1  0.57964400  0.92121400  0.14845400  1
  F  F25  1  0.57878600  0.92035600  0.64845400  1
  F  F26  1  0.00310900  0.00310900  0.26715000  1
  F  F27  1  0.13095600  0.86904400  0.50000000  1
