# generated using pymatgen
data_Li2V3FeO8
_symmetry_space_group_name_H-M   'P 1'
_cell_length_a   8.42309400
_cell_length_b   8.42309400
_cell_length_c   8.51480000
_cell_angle_alpha   90.00000000
_cell_angle_beta   90.00000000
_cell_angle_gamma   90.00000000
_symmetry_Int_Tables_number   1
_chemical_formula_structural   Li2V3FeO8
_chemical_formula_sum   'Li8 V12 Fe4 O32'
_cell_volume   604.11239451
_cell_formula_units_Z   4
loop_
 _symmetry_equiv_pos_site_id
 _symmetry_equiv_pos_as_xyz
  1  'x, y, z'
loop_
 _atom_site_type_symbol
 _atom_site_label
 _atom_site_symmetry_multiplicity
 _atom_site_fract_x
 _atom_site_fract_y
 _atom_site_fract_z
 _atom_site_occupancy
  Li  Li0  1  0.75233400  0.50568700  0.00213200  1
  Li  Li1  1  0.99743100  0.74885700  0.24745000  1
  Li  Li2  1  0.50568700  0.24766600  0.25213200  1
  Li  Li3  1  0.74885700  0.00256900  0.49745000  1
  Li  Li4  1  0.24766600  0.49431300  0.50213200  1
  Li  Li5  1  0.00256900  0.25114300  0.74745000  1
  Li  Li6  1  0.49431300  0.75233400  0.75213200  1
  Li  Li7  1  0.25114300  0.99743100  0.99745000  1
  V  V8  1  0.87812200  0.12956100  0.12310300  1
  V  V9  1  0.13080400  0.37412700  0.12676200  1
  V  V10  1  0.37638700  0.62393300  0.12632900  1
  V  V11  1  0.12956100  0.12187800  0.37310300  1
  V  V12  1  0.37412700  0.86919600  0.37676200  1
  V  V13  1  0.62393300  0.62361300  0.37632900  1
  V  V14  1  0.12187800  0.87043900  0.62310300  1
  V  V15  1  0.86919600  0.62587300  0.62676200  1
  V  V16  1  0.62361300  0.37606700  0.62632900  1
  V  V17  1  0.87043900  0.87812200  0.87310300  1
  V  V18  1  0.62587300  0.13080400  0.87676200  1
  V  V19  1  0.37606700  0.37638700  0.87632900  1
  Fe  Fe20  1  0.62846900  0.87498600  0.12773000  1
  Fe  Fe21  1  0.87498600  0.37153100  0.37773000  1
  Fe  Fe22  1  0.37153100  0.12501400  0.62773000  1
  Fe  Fe23  1  0.12501400  0.62846900  0.87773000  1
  O  O24  1  0.87146800  0.89886400  0.10945900  1
  O  O25  1  0.64073400  0.11304000  0.11245100  1
  O  O26  1  0.37786500  0.39606400  0.11330800  1
  O  O27  1  0.88150000  0.35232700  0.13472800  1
  O  O28  1  0.13975600  0.61246800  0.11472000  1
  O  O29  1  0.11569800  0.13506900  0.13863100  1
  O  O30  1  0.38241500  0.85041800  0.13523900  1
  O  O31  1  0.61513200  0.63592000  0.14234600  1
  O  O32  1  0.89886400  0.12853200  0.35945900  1
  O  O33  1  0.11304000  0.35926600  0.36245100  1
  O  O34  1  0.39606400  0.62213500  0.36330800  1
  O  O35  1  0.35232700  0.11850000  0.38472800  1
  O  O36  1  0.61246800  0.86024400  0.36472000  1
  O  O37  1  0.13506900  0.88430200  0.38863100  1
  O  O38  1  0.85041800  0.61758500  0.38523900  1
  O  O39  1  0.63592000  0.38486800  0.39234600  1
  O  O40  1  0.12853200  0.10113600  0.60945900  1
  O  O41  1  0.35926600  0.88696000  0.61245100  1
  O  O42  1  0.62213500  0.60393600  0.61330800  1
  O  O43  1  0.11850000  0.64767300  0.63472800  1
  O  O44  1  0.86024400  0.38753200  0.61472000  1
  O  O45  1  0.88430200  0.86493100  0.63863100  1
  O  O46  1  0.61758500  0.14958200  0.63523900  1
  O  O47  1  0.38486800  0.36408000  0.64234600  1
  O  O48  1  0.10113600  0.87146800  0.85945900  1
  O  O49  1  0.88696000  0.64073400  0.86245100  1
  O  O50  1  0.60393600  0.37786500  0.86330800  1
  O  O51  1  0.64767300  0.88150000  0.88472800  1
  O  O52  1  0.38753200  0.13975600  0.86472000  1
  O  O53  1  0.86493100  0.11569800  0.88863100  1
  O  O54  1  0.14958200  0.38241500  0.88523900  1
  O  O55  1  0.36408000  0.61513200  0.89234600  1
