# generated using pymatgen
data_Li3V3P8O29
_symmetry_space_group_name_H-M   'P 1'
_cell_length_a   9.70765600
_cell_length_b   9.74800440
_cell_length_c   14.32604695
_cell_angle_alpha   90.95973787
_cell_angle_beta   89.60826244
_cell_angle_gamma   119.68491644
_symmetry_Int_Tables_number   1
_chemical_formula_structural   Li3V3P8O29
_chemical_formula_sum   'Li6 V6 P16 O58'
_cell_volume   1177.59430881
_cell_formula_units_Z   2
loop_
 _symmetry_equiv_pos_site_id
 _symmetry_equiv_pos_as_xyz
  1  'x, y, z'
loop_
 _atom_site_type_symbol
 _atom_site_label
 _atom_site_symmetry_multiplicity
 _atom_site_fract_x
 _atom_site_fract_y
 _atom_site_fract_z
 _atom_site_occupancy
  Li  Li0  1  0.76872100  0.67356500  0.94414700  1
  Li  Li1  1  0.91288900  0.67607200  0.43831900  1
  Li  Li2  1  0.23315300  0.32925100  0.05858200  1
  Li  Li3  1  0.67440700  0.77311800  0.55154600  1
  Li  Li4  1  0.00014000  0.99581400  0.99968200  1
  Li  Li5  1  0.06387600  0.07527500  0.49389600  1
  V  V6  1  0.99664200  0.43267100  0.74684300  1
  V  V7  1  0.00534800  0.56257400  0.24772400  1
  V  V8  1  0.43453600  0.43006800  0.25385800  1
  V  V9  1  0.56008300  0.56186600  0.74962700  1
  V  V10  1  0.43761200  0.99835600  0.75455400  1
  V  V11  1  0.56004800  0.00139300  0.24801000  1
  P  P12  1  0.29703700  0.07982400  0.15669400  1
  P  P13  1  0.30795600  0.21594100  0.66431400  1
  P  P14  1  0.77822500  0.07968100  0.66173400  1
  P  P15  1  0.66885300  0.33794200  0.86602200  1
  P  P16  1  0.67136400  0.33708300  0.36780900  1
  P  P17  1  0.91304900  0.21584500  0.16133500  1
  P  P18  1  0.08220100  0.30553000  0.34388200  1
  P  P19  1  0.77452600  0.68203000  0.15920900  1
  P  P20  1  0.22149300  0.31352800  0.84262000  1
  P  P21  1  0.90978500  0.68447900  0.65368400  1
  P  P22  1  0.08306700  0.78043800  0.83477700  1
  P  P23  1  0.33405800  0.66728500  0.63403800  1
  P  P24  1  0.33662900  0.66233300  0.13270200  1
  P  P25  1  0.21819900  0.91844100  0.34159800  1
  P  P26  1  0.68397900  0.77749900  0.33680800  1
  P  P27  1  0.69932100  0.91674700  0.84571500  1
  O  O28  1  0.19458800  0.99428500  0.42578000  1
  O  O29  1  0.35043200  0.08332200  0.67130200  1
  O  O30  1  0.21529600  0.24137800  0.93414500  1
  O  O31  1  0.34200100  0.25797700  0.16534900  1
  O  O32  1  0.45382800  0.07313500  0.16922500  1
  O  O33  1  0.52174800  0.18924700  0.82378200  1
  O  O34  1  0.61712100  0.07490800  0.67460700  1
  O  O35  1  0.79732500  0.98600200  0.93039700  1
  O  O36  1  0.73712600  0.08439500  0.16570600  1
  O  O37  1  0.52186700  0.33807300  0.32191900  1
  O  O38  1  0.46370800  0.37907900  0.67613700  1
  O  O39  1  0.66610300  0.18970800  0.31869800  1
  O  O40  1  0.67565300  0.35560900  0.96913900  1
  O  O41  1  0.66637200  0.34080100  0.47106000  1
  O  O42  1  0.81440700  0.33553100  0.81950200  1
  O  O43  1  0.61651100  0.52798500  0.17377700  1
  O  O44  1  0.66967500  0.48769000  0.82219200  1
  O  O45  1  0.91236300  0.25528100  0.66630400  1
  O  O46  1  0.99192100  0.19511000  0.25472500  1
  O  O47  1  0.01440200  0.21585900  0.43006700  1
  O  O48  1  0.00268100  0.20411100  0.07984400  1
  O  O49  1  0.91959300  0.37881800  0.17310200  1
  O  O50  1  0.81799600  0.48784100  0.32784200  1
  O  O51  1  0.08320100  0.34708600  0.82869600  1
  O  O52  1  0.90997000  0.52795100  0.67092600  1
  O  O53  1  0.73710100  0.65636900  0.66405200  1
  O  O54  1  0.20678600  0.19663200  0.75869300  1
  O  O55  1  0.21478200  0.20647400  0.58146500  1
  O  O56  1  0.76637000  0.77326500  0.42426400  1
  O  O57  1  0.25880900  0.34783500  0.32917200  1
  O  O58  1  0.07663300  0.46026800  0.33082900  1
  O  O59  1  0.91407800  0.64829400  0.17204300  1
  O  O60  1  0.18565700  0.52175000  0.67648400  1
  O  O61  1  0.07634300  0.61879800  0.82533900  1
  O  O62  1  0.99230400  0.79703400  0.91432800  1
  O  O63  1  0.97524000  0.75734500  0.56201600  1
  O  O64  1  0.00893700  0.80223500  0.73797400  1
  O  O65  1  0.08600400  0.74011000  0.33525100  1
  O  O66  1  0.33210800  0.51050300  0.17069000  1
  O  O67  1  0.37976400  0.47047100  0.82516400  1
  O  O68  1  0.18751300  0.66097300  0.18157700  1
  O  O69  1  0.32852300  0.65937100  0.02946300  1
  O  O70  1  0.34706800  0.67296200  0.53086300  1
  O  O71  1  0.33586100  0.81292500  0.68339500  1
  O  O72  1  0.52548300  0.62004800  0.32276500  1
  O  O73  1  0.48641200  0.66923800  0.67634100  1
  O  O74  1  0.25867400  0.91470700  0.83379200  1
  O  O75  1  0.19543800  0.99805900  0.24924300  1
  O  O76  1  0.19898100  0.00732500  0.07236300  1
  O  O77  1  0.38201700  0.92719400  0.32810200  1
  O  O78  1  0.47928700  0.81076900  0.17966200  1
  O  O79  1  0.54419500  0.92553600  0.83373100  1
  O  O80  1  0.65408400  0.73814200  0.83530100  1
  O  O81  1  0.78913500  0.76255400  0.06947100  1
  O  O82  1  0.79374900  0.79679400  0.24725700  1
  O  O83  1  0.65338500  0.91783200  0.33287200  1
  O  O84  1  0.79089400  0.99362300  0.57828800  1
  O  O85  1  0.80256000  0.00047400  0.75379700  1
