# generated using pymatgen
data_Li2Ni3SbO8
_symmetry_space_group_name_H-M   'P 1'
_cell_length_a   5.81284933
_cell_length_b   5.81284933
_cell_length_c   9.51311700
_cell_angle_alpha   90.00000000
_cell_angle_beta   90.00000000
_cell_angle_gamma   119.99999243
_symmetry_Int_Tables_number   1
_chemical_formula_structural   Li2Ni3SbO8
_chemical_formula_sum   'Li4 Ni6 Sb2 O16'
_cell_volume   278.37590109
_cell_formula_units_Z   2
loop_
 _symmetry_equiv_pos_site_id
 _symmetry_equiv_pos_as_xyz
  1  'x, y, z'
loop_
 _atom_site_type_symbol
 _atom_site_label
 _atom_site_symmetry_multiplicity
 _atom_site_fract_x
 _atom_site_fract_y
 _atom_site_fract_z
 _atom_site_occupancy
  Li  Li0  1  0.33333300  0.66666700  0.90159100  1
  Li  Li1  1  0.00000000  0.00000000  0.99066900  1
  Li  Li2  1  0.00000000  0.00000000  0.49066900  1
  Li  Li3  1  0.66666700  0.33333300  0.40159100  1
  Ni  Ni4  1  0.17390900  0.83500600  0.21413500  1
  Ni  Ni5  1  0.16499400  0.33890300  0.21413500  1
  Ni  Ni6  1  0.66109700  0.82609100  0.21413500  1
  Ni  Ni7  1  0.33890300  0.16499400  0.71413500  1
  Ni  Ni8  1  0.82609100  0.66109700  0.71413500  1
  Ni  Ni9  1  0.83500600  0.17390900  0.71413500  1
  Sb  Sb10  1  0.33333300  0.66666700  0.48627600  1
  Sb  Sb11  1  0.66666700  0.33333300  0.98627600  1
  O  O12  1  0.18273800  0.85568100  0.59347500  1
  O  O13  1  0.03194100  0.54260900  0.34475200  1
  O  O14  1  0.33333300  0.66666700  0.11880400  1
  O  O15  1  0.00000000  0.00000000  0.29947200  1
  O  O16  1  0.00000000  0.00000000  0.79947200  1
  O  O17  1  0.14431900  0.32705700  0.59347500  1
  O  O18  1  0.51066800  0.96805900  0.34475200  1
  O  O19  1  0.45739100  0.48933200  0.34475200  1
  O  O20  1  0.32705700  0.14431900  0.09347500  1
  O  O21  1  0.67294300  0.81726200  0.59347500  1
  O  O22  1  0.48933200  0.45739100  0.84475200  1
  O  O23  1  0.54260900  0.03194100  0.84475200  1
  O  O24  1  0.66666700  0.33333300  0.61880400  1
  O  O25  1  0.81726200  0.67294300  0.09347500  1
  O  O26  1  0.96805900  0.51066800  0.84475200  1
  O  O27  1  0.85568100  0.18273800  0.09347500  1
