# generated using pymatgen
data_Li3V2F12
_symmetry_space_group_name_H-M   'P 1'
_cell_length_a   10.52845700
_cell_length_b   5.31815100
_cell_length_c   10.48349396
_cell_angle_alpha   80.21437148
_cell_angle_beta   90.00000000
_cell_angle_gamma   90.00000000
_symmetry_Int_Tables_number   1
_chemical_formula_structural   Li3V2F12
_chemical_formula_sum   'Li6 V4 F24'
_cell_volume   578.45060840
_cell_formula_units_Z   2
loop_
 _symmetry_equiv_pos_site_id
 _symmetry_equiv_pos_as_xyz
  1  'x, y, z'
loop_
 _atom_site_type_symbol
 _atom_site_label
 _atom_site_symmetry_multiplicity
 _atom_site_fract_x
 _atom_site_fract_y
 _atom_site_fract_z
 _atom_site_occupancy
  Li  Li0  1  0.00000000  0.00000000  0.00000000  1
  Li  Li1  1  0.50000000  0.00000000  0.50000000  1
  Li  Li2  1  0.32677400  0.39651800  0.12122100  1
  Li  Li3  1  0.17322600  0.39651800  0.62122100  1
  Li  Li4  1  0.82677400  0.60348200  0.37877900  1
  Li  Li5  1  0.67322600  0.60348200  0.87877900  1
  V  V6  1  0.64961200  0.25897000  0.19205700  1
  V  V7  1  0.85038800  0.25897000  0.69205700  1
  V  V8  1  0.14961200  0.74103000  0.30794300  1
  V  V9  1  0.35038800  0.74103000  0.80794300  1
  F  F10  1  0.08801500  0.00268800  0.37209900  1
  F  F11  1  0.79308400  0.08317200  0.25040800  1
  F  F12  1  0.57314600  0.14689400  0.35641000  1
  F  F13  1  0.41198500  0.00268800  0.87209900  1
  F  F14  1  0.70691600  0.08317200  0.75040800  1
  F  F15  1  0.72588800  0.39555400  0.03464100  1
  F  F16  1  0.92685400  0.14689400  0.85641000  1
  F  F17  1  0.49837600  0.43565400  0.14315400  1
  F  F18  1  0.20848400  0.45868200  0.24319300  1
  F  F19  1  0.77411200  0.39555400  0.53464100  1
  F  F20  1  0.70848400  0.54131800  0.25680700  1
  F  F21  1  0.00162400  0.43565400  0.64315400  1
  F  F22  1  0.99837600  0.56434600  0.35684600  1
  F  F23  1  0.29151600  0.45868200  0.74319300  1
  F  F24  1  0.22588800  0.60444600  0.46535900  1
  F  F25  1  0.79151600  0.54131800  0.75680700  1
  F  F26  1  0.50162400  0.56434600  0.85684600  1
  F  F27  1  0.07314600  0.85310600  0.14359000  1
  F  F28  1  0.27411200  0.60444600  0.96535900  1
  F  F29  1  0.29308400  0.91682800  0.24959200  1
  F  F30  1  0.58801500  0.99731200  0.12790100  1
  F  F31  1  0.42685400  0.85310600  0.64359000  1
  F  F32  1  0.20691600  0.91682800  0.74959200  1
  F  F33  1  0.91198500  0.99731200  0.62790100  1
