# generated using pymatgen
data_Li7Mn4(PO4)6
_symmetry_space_group_name_H-M   'P 1'
_cell_length_a   8.41271500
_cell_length_b   8.46204407
_cell_length_c   8.98024247
_cell_angle_alpha   64.18738774
_cell_angle_beta   63.18022432
_cell_angle_gamma   60.80038735
_symmetry_Int_Tables_number   1
_chemical_formula_structural   Li7Mn4(PO4)6
_chemical_formula_sum   'Li7 Mn4 P6 O24'
_cell_volume   478.62404931
_cell_formula_units_Z   1
loop_
 _symmetry_equiv_pos_site_id
 _symmetry_equiv_pos_as_xyz
  1  'x, y, z'
loop_
 _atom_site_type_symbol
 _atom_site_label
 _atom_site_symmetry_multiplicity
 _atom_site_fract_x
 _atom_site_fract_y
 _atom_site_fract_z
 _atom_site_occupancy
  Li  Li0  1  0.73044700  0.33584100  0.85434400  1
  Li  Li1  1  0.33340300  0.07006900  0.86050200  1
  Li  Li2  1  0.54064900  0.55150100  0.36918000  1
  Li  Li3  1  0.92445600  0.26809900  0.13726700  1
  Li  Li4  1  0.07808700  0.72921900  0.86045900  1
  Li  Li5  1  0.66982200  0.93030600  0.13684900  1
  Li  Li6  1  0.26909400  0.67096600  0.13749300  1
  Mn  Mn7  1  0.34780500  0.34635300  0.95692300  1
  Mn  Mn8  1  0.66274900  0.65985100  0.02124700  1
  Mn  Mn9  1  0.84766300  0.85127700  0.44207400  1
  Mn  Mn10  1  0.15157100  0.14489300  0.56125600  1
  P  P11  1  0.45432000  0.74846700  0.74972100  1
  P  P12  1  0.75322800  0.04229100  0.74612800  1
  P  P13  1  0.95549600  0.54295100  0.25755300  1
  P  P14  1  0.04906000  0.44811200  0.74838000  1
  P  P15  1  0.24591500  0.95929400  0.25604100  1
  P  P16  1  0.53822700  0.25563300  0.25083000  1
  O  O17  1  0.86990200  0.15087000  0.72391600  1
  O  O18  1  0.86279000  0.43974500  0.90265000  1
  O  O19  1  0.49647800  0.53451400  0.79914100  1
  O  O20  1  0.44752300  0.79313000  0.90549000  1
  O  O21  1  0.79924300  0.85799200  0.89762800  1
  O  O22  1  0.99815800  0.39759600  0.42058200  1
  O  O23  1  0.25119800  0.86564500  0.73141000  1
  O  O24  1  0.60687700  0.80227400  0.58346800  1
  O  O25  1  0.53614300  0.16070300  0.79946700  1
  O  O26  1  0.81818200  0.50938100  0.21254300  1
  O  O27  1  0.80922200  0.99947100  0.57593300  1
  O  O28  1  0.15150600  0.24524700  0.72330000  1
  O  O29  1  0.85598700  0.74995900  0.27492300  1
  O  O30  1  0.18108200  0.00702300  0.42483100  1
  O  O31  1  0.17919500  0.47941800  0.80765900  1
  O  O32  1  0.46010700  0.82761900  0.21746900  1
  O  O33  1  0.39650500  0.18744300  0.41586300  1
  O  O34  1  0.74604800  0.13432700  0.25447200  1
  O  O35  1  0.01262100  0.60411300  0.58817800  1
  O  O36  1  0.21261900  0.14190400  0.09922800  1
  O  O37  1  0.53485500  0.22457100  0.08757700  1
  O  O38  1  0.49677100  0.46669500  0.21545900  1
  O  O39  1  0.14132000  0.54831100  0.09753900  1
  O  O40  1  0.12414400  0.85715100  0.27391400  1
