# generated using pymatgen
data_Li4Mn3Nb2Cr3O16
_symmetry_space_group_name_H-M   'P 1'
_cell_length_a   6.00871753
_cell_length_b   6.00871753
_cell_length_c   9.76971980
_cell_angle_alpha   87.84309270
_cell_angle_beta   87.84309270
_cell_angle_gamma   59.11401458
_symmetry_Int_Tables_number   1
_chemical_formula_structural   Li4Mn3Nb2Cr3O16
_chemical_formula_sum   'Li4 Mn3 Nb2 Cr3 O16'
_cell_volume   302.42834989
_cell_formula_units_Z   1
loop_
 _symmetry_equiv_pos_site_id
 _symmetry_equiv_pos_as_xyz
  1  'x, y, z'
loop_
 _atom_site_type_symbol
 _atom_site_label
 _atom_site_symmetry_multiplicity
 _atom_site_fract_x
 _atom_site_fract_y
 _atom_site_fract_z
 _atom_site_occupancy
  Li  Li0  1  0.66085600  0.66085600  0.09427800  1
  Li  Li1  1  0.99781300  0.99781300  0.00940500  1
  Li  Li2  1  0.00247100  0.00247100  0.50941100  1
  Li  Li3  1  0.33249200  0.33249200  0.59953800  1
  Mn  Mn4  1  0.83092000  0.83092000  0.78709900  1
  Mn  Mn5  1  0.16972500  0.66160900  0.28503600  1
  Mn  Mn6  1  0.66160900  0.16972500  0.28503600  1
  Nb  Nb7  1  0.66718900  0.66718900  0.51102500  1
  Nb  Nb8  1  0.32052600  0.32052600  0.00672800  1
  Cr  Cr9  1  0.33938700  0.83010800  0.78452800  1
  Cr  Cr10  1  0.83010800  0.33938700  0.78452800  1
  Cr  Cr11  1  0.17043700  0.17043700  0.28486900  1
  O  O12  1  0.34306500  0.84558600  0.41153500  1
  O  O13  1  0.52000900  0.52000900  0.66118500  1
  O  O14  1  0.66927500  0.66927500  0.88665800  1
  O  O15  1  0.99673600  0.99673600  0.69528700  1
  O  O16  1  0.00263500  0.00263500  0.19621400  1
  O  O17  1  0.84558600  0.34306500  0.41153500  1
  O  O18  1  0.51474400  0.96466900  0.65570800  1
  O  O19  1  0.96466900  0.51474400  0.65570800  1
  O  O20  1  0.16436700  0.16436700  0.89931600  1
  O  O21  1  0.84048700  0.84048700  0.40635000  1
  O  O22  1  0.03127500  0.46948200  0.15031900  1
  O  O23  1  0.46948200  0.03127500  0.15031900  1
  O  O24  1  0.33310600  0.33310600  0.38543200  1
  O  O25  1  0.17413200  0.66490500  0.91183700  1
  O  O26  1  0.47766400  0.47766400  0.16134600  1
  O  O27  1  0.66490500  0.17413200  0.91183700  1
