# generated using pymatgen
data_LiMn2Cr2O8
_symmetry_space_group_name_H-M   'P 1'
_cell_length_a   5.86255400
_cell_length_b   10.11933022
_cell_length_c   10.29680107
_cell_angle_alpha   109.17082677
_cell_angle_beta   90.07533121
_cell_angle_gamma   90.38480462
_symmetry_Int_Tables_number   1
_chemical_formula_structural   LiMn2Cr2O8
_chemical_formula_sum   'Li4 Mn8 Cr8 O32'
_cell_volume   576.96595825
_cell_formula_units_Z   4
loop_
 _symmetry_equiv_pos_site_id
 _symmetry_equiv_pos_as_xyz
  1  'x, y, z'
loop_
 _atom_site_type_symbol
 _atom_site_label
 _atom_site_symmetry_multiplicity
 _atom_site_fract_x
 _atom_site_fract_y
 _atom_site_fract_z
 _atom_site_occupancy
  Li  Li0  1  0.50065800  0.24890200  0.25119100  1
  Li  Li1  1  0.73695600  0.99530400  0.75274000  1
  Li  Li2  1  0.00009300  0.50205600  0.00145400  1
  Li  Li3  1  0.00100400  0.99721600  0.48963600  1
  Mn  Mn4  1  0.00625300  0.50064000  0.49707300  1
  Mn  Mn5  1  0.99836600  0.99989400  0.00392200  1
  Mn  Mn6  1  0.24643000  0.75073300  0.50214900  1
  Mn  Mn7  1  0.24915000  0.24507300  0.99571000  1
  Mn  Mn8  1  0.49967500  0.99981700  0.49715100  1
  Mn  Mn9  1  0.49868700  0.50170800  0.00068800  1
  Mn  Mn10  1  0.75020900  0.75180100  0.99961600  1
  Mn  Mn11  1  0.74873600  0.24876200  0.99953700  1
  Cr  Cr12  1  0.25536700  0.75738600  0.00135300  1
  Cr  Cr13  1  0.25151300  0.25384600  0.50264800  1
  Cr  Cr14  1  0.49749600  0.75033000  0.24983400  1
  Cr  Cr15  1  0.49800600  0.25220100  0.75196600  1
  Cr  Cr16  1  0.74119800  0.74014300  0.49747400  1
  Cr  Cr17  1  0.75190200  0.25724500  0.50567800  1
  Cr  Cr18  1  0.00441800  0.74686400  0.75013400  1
  Cr  Cr19  1  0.00137800  0.24929100  0.24931000  1
  O  O20  1  0.00313800  0.37281900  0.60134900  1
  O  O21  1  0.99630000  0.87149100  0.10364200  1
  O  O22  1  0.99106300  0.12832300  0.89565000  1
  O  O23  1  0.22304500  0.63106300  0.61181800  1
  O  O24  1  0.21886500  0.87268400  0.89159000  1
  O  O25  1  0.27446400  0.62731000  0.10879900  1
  O  O26  1  0.22851800  0.36705300  0.38523500  1
  O  O27  1  0.27329500  0.87176400  0.38917700  1
  O  O28  1  0.22600500  0.13312800  0.11455200  1
  O  O29  1  0.27371100  0.37076200  0.88997700  1
  O  O30  1  0.27521700  0.12890700  0.60954900  1
  O  O31  1  0.50421000  0.63152300  0.89860000  1
  O  O32  1  0.50040600  0.87101700  0.60409700  1
  O  O33  1  0.49752900  0.35998600  0.10284100  1
  O  O34  1  0.50006300  0.85047500  0.11151200  1
  O  O35  1  0.49451300  0.65036800  0.38914500  1
  O  O36  1  0.50511300  0.34926200  0.61378900  1
  O  O37  1  0.50193500  0.13626200  0.39615500  1
  O  O38  1  0.50431200  0.14369800  0.88349600  1
  O  O39  1  0.72468000  0.62986000  0.11097800  1
  O  O40  1  0.72448400  0.87175100  0.39077400  1
  O  O41  1  0.78506800  0.62776900  0.60838400  1
  O  O42  1  0.78204300  0.87218700  0.88468300  1
  O  O43  1  0.72488300  0.37272700  0.89187400  1
  O  O44  1  0.72277300  0.12434000  0.61570500  1
  O  O45  1  0.77825500  0.36761000  0.38503600  1
  O  O46  1  0.77184800  0.13399600  0.11586700  1
  O  O47  1  0.99198000  0.85570300  0.61208900  1
  O  O48  1  0.00090200  0.64741100  0.89339700  1
  O  O49  1  0.00496500  0.63161500  0.39672200  1
  O  O50  1  0.00378600  0.35249400  0.10638300  1
  O  O51  1  0.99780900  0.14838800  0.39277000  1
