# generated using pymatgen
data_LiP5W3O19
_symmetry_space_group_name_H-M   'P 1'
_cell_length_a   8.77771365
_cell_length_b   8.77771365
_cell_length_c   6.55686487
_cell_angle_alpha   81.19641975
_cell_angle_beta   81.19641975
_cell_angle_gamma   113.75750781
_symmetry_Int_Tables_number   1
_chemical_formula_structural   LiP5W3O19
_chemical_formula_sum   'Li1 P5 W3 O19'
_cell_volume   443.87590682
_cell_formula_units_Z   1
loop_
 _symmetry_equiv_pos_site_id
 _symmetry_equiv_pos_as_xyz
  1  'x, y, z'
loop_
 _atom_site_type_symbol
 _atom_site_label
 _atom_site_symmetry_multiplicity
 _atom_site_fract_x
 _atom_site_fract_y
 _atom_site_fract_z
 _atom_site_occupancy
  Li  Li0  1  0.09464000  0.09464000  0.46647500  1
  P  P1  1  0.67708700  0.67708700  0.69564000  1
  P  P2  1  0.60685200  0.31048800  0.27200900  1
  P  P3  1  0.31048800  0.60685200  0.27200900  1
  P  P4  1  0.81225000  0.18500900  0.00379000  1
  P  P5  1  0.18500900  0.81225000  0.00379000  1
  W  W6  1  0.76236300  0.76236300  0.15852200  1
  W  W7  1  0.49385000  0.24222400  0.82021200  1
  W  W8  1  0.24222400  0.49385000  0.82021200  1
  O  O9  1  0.78203100  0.78203100  0.83994500  1
  O  O10  1  0.78135100  0.78135100  0.46409700  1
  O  O11  1  0.32246800  0.98707600  0.88326800  1
  O  O12  1  0.98707600  0.32246800  0.88326800  1
  O  O13  1  0.67588400  0.49944700  0.73406700  1
  O  O14  1  0.49944700  0.67588400  0.73406700  1
  O  O15  1  0.50497800  0.70622000  0.22389800  1
  O  O16  1  0.70622000  0.50497800  0.22389800  1
  O  O17  1  0.68401400  0.16289500  0.86432500  1
  O  O18  1  0.16289500  0.68401400  0.86432500  1
  O  O19  1  0.24357400  0.75023500  0.21055600  1
  O  O20  1  0.75023500  0.24357400  0.21055600  1
  O  O21  1  0.52294300  0.22494800  0.50493300  1
  O  O22  1  0.22494800  0.52294300  0.50493300  1
  O  O23  1  0.32532500  0.32532500  0.80470000  1
  O  O24  1  0.02186700  0.82513900  0.09623200  1
  O  O25  1  0.82513900  0.02186700  0.09623200  1
  O  O26  1  0.46926100  0.24470000  0.14625100  1
  O  O27  1  0.24470000  0.46926100  0.14625100  1
