# generated using pymatgen
data_LiFe(PO3)4
_symmetry_space_group_name_H-M   'P 1'
_cell_length_a   13.15797100
_cell_length_b   7.28117300
_cell_length_c   11.76934673
_cell_angle_alpha   54.05696733
_cell_angle_beta   90.00000000
_cell_angle_gamma   90.00000000
_symmetry_Int_Tables_number   1
_chemical_formula_structural   LiFe(PO3)4
_chemical_formula_sum   'Li4 Fe4 P16 O48'
_cell_volume   912.87996077
_cell_formula_units_Z   4
loop_
 _symmetry_equiv_pos_site_id
 _symmetry_equiv_pos_as_xyz
  1  'x, y, z'
loop_
 _atom_site_type_symbol
 _atom_site_label
 _atom_site_symmetry_multiplicity
 _atom_site_fract_x
 _atom_site_fract_y
 _atom_site_fract_z
 _atom_site_occupancy
  Li  Li0  1  0.20046000  0.94440000  0.02691200  1
  Li  Li1  1  0.70046000  0.05560000  0.47308800  1
  Li  Li2  1  0.29954000  0.94440000  0.52691200  1
  Li  Li3  1  0.79954000  0.05560000  0.97308800  1
  Fe  Fe4  1  0.29040500  0.54536000  0.43780600  1
  Fe  Fe5  1  0.79040500  0.45464000  0.06219400  1
  Fe  Fe6  1  0.20959500  0.54536000  0.93780600  1
  Fe  Fe7  1  0.70959500  0.45464000  0.56219400  1
  P  P8  1  0.61831500  0.81913400  0.25958300  1
  P  P9  1  0.13025700  0.41921700  0.69334300  1
  P  P10  1  0.91197800  0.45828800  0.70748100  1
  P  P11  1  0.89968800  0.06901000  0.22197100  1
  P  P12  1  0.39968800  0.93099000  0.27802900  1
  P  P13  1  0.41197800  0.54171200  0.79251900  1
  P  P14  1  0.63025700  0.58078300  0.80665700  1
  P  P15  1  0.11831500  0.18086600  0.24041700  1
  P  P16  1  0.88168500  0.81913400  0.75958300  1
  P  P17  1  0.36974300  0.41921700  0.19334300  1
  P  P18  1  0.58802200  0.45828800  0.20748100  1
  P  P19  1  0.60031200  0.06901000  0.72197100  1
  P  P20  1  0.10031200  0.93099000  0.77802900  1
  P  P21  1  0.08802200  0.54171200  0.29251900  1
  P  P22  1  0.86974300  0.58078300  0.30665700  1
  P  P23  1  0.38168500  0.18086600  0.74041700  1
  O  O24  1  0.87761400  0.81143700  0.29531600  1
  O  O25  1  0.90178000  0.21286800  0.82100500  1
  O  O26  1  0.41609700  0.40114500  0.72845700  1
  O  O27  1  0.32682200  0.83064300  0.22674000  1
  O  O28  1  0.69202600  0.96384000  0.14492200  1
  O  O29  1  0.14457300  0.36900200  0.83509800  1
  O  O30  1  0.64507900  0.73094000  0.40973100  1
  O  O31  1  0.88965500  0.21795400  0.06266800  1
  O  O32  1  0.51200500  0.95238500  0.22175200  1
  O  O33  1  0.02057500  0.52894900  0.62726600  1
  O  O34  1  0.20832000  0.56497600  0.57998500  1
  O  O35  1  0.33431400  0.43458400  0.91052800  1
  O  O36  1  0.83431400  0.56541600  0.58947200  1
  O  O37  1  0.01200500  0.04761500  0.27824800  1
  O  O38  1  0.70832000  0.43502400  0.92001500  1
  O  O39  1  0.38965500  0.78204600  0.43733200  1
  O  O40  1  0.52057500  0.47105100  0.87273400  1
  O  O41  1  0.14507900  0.26906000  0.09026900  1
  O  O42  1  0.64457300  0.63099800  0.66490200  1
  O  O43  1  0.19202600  0.03616000  0.35507800  1
  O  O44  1  0.82682200  0.16935700  0.27326000  1
  O  O45  1  0.91609700  0.59885500  0.77154300  1
  O  O46  1  0.37761400  0.18856300  0.20468400  1
  O  O47  1  0.40178000  0.78713200  0.67899500  1
  O  O48  1  0.59822000  0.21286800  0.32100500  1
  O  O49  1  0.62238600  0.81143700  0.79531600  1
  O  O50  1  0.08390300  0.40114500  0.22845700  1
  O  O51  1  0.17317800  0.83064300  0.72674000  1
  O  O52  1  0.80797400  0.96384000  0.64492200  1
  O  O53  1  0.35542700  0.36900200  0.33509800  1
  O  O54  1  0.85492100  0.73094000  0.90973100  1
  O  O55  1  0.47942500  0.52894900  0.12726600  1
  O  O56  1  0.61034500  0.21795400  0.56266800  1
  O  O57  1  0.29168000  0.56497600  0.07998500  1
  O  O58  1  0.98799500  0.95238500  0.72175200  1
  O  O59  1  0.16568600  0.43458400  0.41052800  1
  O  O60  1  0.66568600  0.56541600  0.08947200  1
  O  O61  1  0.79168000  0.43502400  0.42001500  1
  O  O62  1  0.97942500  0.47105100  0.37273400  1
  O  O63  1  0.48799500  0.04761500  0.77824800  1
  O  O64  1  0.11034500  0.78204600  0.93733200  1
  O  O65  1  0.35492100  0.26906000  0.59026900  1
  O  O66  1  0.85542700  0.63099800  0.16490200  1
  O  O67  1  0.30797400  0.03616000  0.85507800  1
  O  O68  1  0.67317800  0.16935700  0.77326000  1
  O  O69  1  0.58390300  0.59885500  0.27154300  1
  O  O70  1  0.09822000  0.78713200  0.17899500  1
  O  O71  1  0.12238600  0.18856300  0.70468400  1
