# generated using pymatgen
data_LiVCoO4
_symmetry_space_group_name_H-M   'P 1'
_cell_length_a   4.94942800
_cell_length_b   6.07035100
_cell_length_c   10.56003000
_cell_angle_alpha   90.00000000
_cell_angle_beta   90.00000000
_cell_angle_gamma   90.00000000
_symmetry_Int_Tables_number   1
_chemical_formula_structural   LiVCoO4
_chemical_formula_sum   'Li4 V4 Co4 O16'
_cell_volume   317.27362195
_cell_formula_units_Z   4
loop_
 _symmetry_equiv_pos_site_id
 _symmetry_equiv_pos_as_xyz
  1  'x, y, z'
loop_
 _atom_site_type_symbol
 _atom_site_label
 _atom_site_symmetry_multiplicity
 _atom_site_fract_x
 _atom_site_fract_y
 _atom_site_fract_z
 _atom_site_occupancy
  Li  Li0  1  0.50000000  0.50000000  0.00000000  1
  Li  Li1  1  0.00000000  0.50000000  0.50000000  1
  Li  Li2  1  0.50000000  0.00000000  0.00000000  1
  Li  Li3  1  0.00000000  0.00000000  0.50000000  1
  V  V4  1  0.93117500  0.75000000  0.90571900  1
  V  V5  1  0.56882500  0.75000000  0.40571900  1
  V  V6  1  0.43117500  0.25000000  0.59428100  1
  V  V7  1  0.06882500  0.25000000  0.09428100  1
  Co  Co8  1  0.48877100  0.75000000  0.73023300  1
  Co  Co9  1  0.01122900  0.75000000  0.23023300  1
  Co  Co10  1  0.98877100  0.25000000  0.76976700  1
  Co  Co11  1  0.51122900  0.25000000  0.26976700  1
  O  O12  1  0.77787800  0.52268700  0.82955100  1
  O  O13  1  0.72212200  0.52268700  0.32955100  1
  O  O14  1  0.70474900  0.75000000  0.55702900  1
  O  O15  1  0.28206800  0.75000000  0.90575300  1
  O  O16  1  0.21793200  0.75000000  0.40575300  1
  O  O17  1  0.79525100  0.75000000  0.05702900  1
  O  O18  1  0.77787800  0.97731300  0.82955100  1
  O  O19  1  0.72212200  0.97731300  0.32955100  1
  O  O20  1  0.22212200  0.02268700  0.17044900  1
  O  O21  1  0.27787800  0.02268700  0.67044900  1
  O  O22  1  0.29525100  0.25000000  0.44297100  1
  O  O23  1  0.20474900  0.25000000  0.94297100  1
  O  O24  1  0.78206800  0.25000000  0.59424700  1
  O  O25  1  0.71793200  0.25000000  0.09424700  1
  O  O26  1  0.27787800  0.47731300  0.67044900  1
  O  O27  1  0.22212200  0.47731300  0.17044900  1
