# generated using pymatgen
data_Li3TiCr3O8
_symmetry_space_group_name_H-M   'P 1'
_cell_length_a   5.92294824
_cell_length_b   10.28539666
_cell_length_c   6.00610010
_cell_angle_alpha   73.45604836
_cell_angle_beta   60.46071702
_cell_angle_gamma   89.99856207
_symmetry_Int_Tables_number   1
_chemical_formula_structural   Li3TiCr3O8
_chemical_formula_sum   'Li6 Ti2 Cr6 O16'
_cell_volume   300.80036763
_cell_formula_units_Z   2
loop_
 _symmetry_equiv_pos_site_id
 _symmetry_equiv_pos_as_xyz
  1  'x, y, z'
loop_
 _atom_site_type_symbol
 _atom_site_label
 _atom_site_symmetry_multiplicity
 _atom_site_fract_x
 _atom_site_fract_y
 _atom_site_fract_z
 _atom_site_occupancy
  Li  Li0  1  0.50009800  0.99983700  0.50029500  1
  Li  Li1  1  0.00009900  0.49983800  0.50028500  1
  Li  Li2  1  0.24992300  0.24999800  0.49999500  1
  Li  Li3  1  0.74992500  0.75000600  0.50000000  1
  Li  Li4  1  0.00039000  0.00016400  0.49969800  1
  Li  Li5  1  0.50038100  0.50016300  0.49971000  1
  Ti  Ti6  1  0.00159500  0.00000400  0.99999900  1
  Ti  Ti7  1  0.50148300  0.49999800  0.00000500  1
  Cr  Cr8  1  0.74813100  0.75077900  0.00109800  1
  Cr  Cr9  1  0.00156900  0.50000000  0.99998400  1
  Cr  Cr10  1  0.74924400  0.24922400  0.99894000  1
  Cr  Cr11  1  0.24822400  0.25077100  0.00108500  1
  Cr  Cr12  1  0.50147600  0.99999100  0.00001800  1
  Cr  Cr13  1  0.24930800  0.74924400  0.99891900  1
  O  O14  1  0.38700100  0.12933100  0.22307000  1
  O  O15  1  0.88697300  0.62931400  0.22309200  1
  O  O16  1  0.61003300  0.87066000  0.77693600  1
  O  O17  1  0.11001700  0.37068100  0.77691500  1
  O  O18  1  0.13559600  0.88296600  0.21464500  1
  O  O19  1  0.63557900  0.38297200  0.21466600  1
  O  O20  1  0.89102500  0.12506900  0.21644000  1
  O  O21  1  0.39104700  0.62506500  0.21641700  1
  O  O22  1  0.65025700  0.88358400  0.21736000  1
  O  O23  1  0.15021700  0.38360000  0.21735200  1
  O  O24  1  0.86757400  0.11641300  0.78263500  1
  O  O25  1  0.36753600  0.61640200  0.78263600  1
  O  O26  1  0.10743700  0.87492900  0.78355300  1
  O  O27  1  0.60742800  0.37493400  0.78357200  1
  O  O28  1  0.35021400  0.11703100  0.78534700  1
  O  O29  1  0.85021700  0.61703100  0.78533200  1
