# generated using pymatgen
data_Li4Co3Ni2Sn3O16
_symmetry_space_group_name_H-M   'P 1'
_cell_length_a   5.96144855
_cell_length_b   5.98356673
_cell_length_c   9.64326811
_cell_angle_alpha   89.97242061
_cell_angle_beta   89.65553439
_cell_angle_gamma   120.12657683
_symmetry_Int_Tables_number   1
_chemical_formula_structural   Li4Co3Ni2Sn3O16
_chemical_formula_sum   'Li4 Co3 Ni2 Sn3 O16'
_cell_volume   297.50897038
_cell_formula_units_Z   1
loop_
 _symmetry_equiv_pos_site_id
 _symmetry_equiv_pos_as_xyz
  1  'x, y, z'
loop_
 _atom_site_type_symbol
 _atom_site_label
 _atom_site_symmetry_multiplicity
 _atom_site_fract_x
 _atom_site_fract_y
 _atom_site_fract_z
 _atom_site_occupancy
  Li  Li0  1  0.35776300  0.67893700  0.88515300  1
  Li  Li1  1  0.95001000  0.97510000  0.99229100  1
  Li  Li2  1  0.96411200  0.98202600  0.50282100  1
  Li  Li3  1  0.68493200  0.34252200  0.39896700  1
  Co  Co4  1  0.66412700  0.83206100  0.21507000  1
  Co  Co5  1  0.83547200  0.66411400  0.71415800  1
  Co  Co6  1  0.83551800  0.17146900  0.71418000  1
  Ni  Ni7  1  0.32900800  0.66450600  0.49429400  1
  Ni  Ni8  1  0.66707500  0.33359100  0.98699300  1
  Sn  Sn9  1  0.17248700  0.83386400  0.21419900  1
  Sn  Sn10  1  0.17240300  0.33863800  0.21417900  1
  Sn  Sn11  1  0.34113900  0.17061500  0.71499600  1
  O  O12  1  0.13955400  0.82744300  0.60183700  1
  O  O13  1  0.03802100  0.51878200  0.34447600  1
  O  O14  1  0.35727600  0.67890600  0.09822900  1
  O  O15  1  0.97656200  0.98806900  0.31871700  1
  O  O16  1  0.98040700  0.99014600  0.81034600  1
  O  O17  1  0.13932800  0.31203400  0.60181400  1
  O  O18  1  0.50535100  0.96919100  0.33445000  1
  O  O19  1  0.50525100  0.53589900  0.33441300  1
  O  O20  1  0.31143300  0.15596800  0.08764900  1
  O  O21  1  0.67793500  0.83890000  0.61958300  1
  O  O22  1  0.54457500  0.50220200  0.83445100  1
  O  O23  1  0.54474800  0.04238300  0.83437100  1
  O  O24  1  0.69258000  0.34640000  0.60799300  1
  O  O25  1  0.82170100  0.67882000  0.10615100  1
  O  O26  1  0.96943400  0.48464500  0.82002500  1
  O  O27  1  0.82179800  0.14306900  0.10603200  1
