# generated using pymatgen
data_Li3MnO3
_symmetry_space_group_name_H-M   'P 1'
_cell_length_a   3.53602400
_cell_length_b   9.13374200
_cell_length_c   9.13432400
_cell_angle_alpha   89.99987454
_cell_angle_beta   90.00000000
_cell_angle_gamma   90.00000000
_symmetry_Int_Tables_number   1
_chemical_formula_structural   Li3MnO3
_chemical_formula_sum   'Li12 Mn4 O12'
_cell_volume   295.01245811
_cell_formula_units_Z   4
loop_
 _symmetry_equiv_pos_site_id
 _symmetry_equiv_pos_as_xyz
  1  'x, y, z'
loop_
 _atom_site_type_symbol
 _atom_site_label
 _atom_site_symmetry_multiplicity
 _atom_site_fract_x
 _atom_site_fract_y
 _atom_site_fract_z
 _atom_site_occupancy
  Li  Li0  1  0.99999900  0.17390000  0.17389800  1
  Li  Li1  1  0.50000000  0.32610400  0.67389800  1
  Li  Li2  1  0.50000000  0.67390300  0.32611000  1
  Li  Li3  1  0.00000000  0.82610200  0.82611000  1
  Li  Li4  1  0.50000000  0.09368600  0.35449100  1
  Li  Li5  1  0.00000000  0.14551100  0.59369100  1
  Li  Li6  1  0.50000000  0.35449300  0.09369200  1
  Li  Li7  1  0.00000000  0.40631700  0.85449100  1
  Li  Li8  1  0.00000000  0.59368500  0.14551200  1
  Li  Li9  1  0.50000000  0.64551500  0.90630900  1
  Li  Li10  1  0.00000000  0.85448900  0.40630900  1
  Li  Li11  1  0.49999900  0.90631900  0.64551200  1
  Mn  Mn12  1  0.99998600  0.61455400  0.61453800  1
  Mn  Mn13  1  0.50000300  0.88543500  0.11455200  1
  Mn  Mn14  1  0.50000800  0.11457300  0.88545100  1
  Mn  Mn15  1  0.99999900  0.38538900  0.38541400  1
  O  O16  1  0.50000000  0.10117100  0.10117600  1
  O  O17  1  0.00000100  0.39883300  0.60117600  1
  O  O18  1  0.00000200  0.60117000  0.39882100  1
  O  O19  1  0.50000100  0.89883400  0.89882100  1
  O  O20  1  0.49999900  0.11288700  0.67931900  1
  O  O21  1  0.00000100  0.17934500  0.38713300  1
  O  O22  1  0.50000100  0.32065700  0.88713200  1
  O  O23  1  0.00000000  0.38711800  0.17931700  1
  O  O24  1  0.00000200  0.61288200  0.82069400  1
  O  O25  1  0.50000100  0.67933800  0.11287000  1
  O  O26  1  0.00000000  0.82066600  0.61287000  1
  O  O27  1  0.50000100  0.88712100  0.32069400  1
