# generated using pymatgen
data_Li4Cr7(PO4)6
_symmetry_space_group_name_H-M   'P 1'
_cell_length_a   9.04317956
_cell_length_b   9.04317956
_cell_length_c   6.50679119
_cell_angle_alpha   81.24553759
_cell_angle_beta   81.24553759
_cell_angle_gamma   102.32326365
_symmetry_Int_Tables_number   1
_chemical_formula_structural   Li4Cr7(PO4)6
_chemical_formula_sum   'Li4 Cr7 P6 O24'
_cell_volume   504.31650304
_cell_formula_units_Z   1
loop_
 _symmetry_equiv_pos_site_id
 _symmetry_equiv_pos_as_xyz
  1  'x, y, z'
loop_
 _atom_site_type_symbol
 _atom_site_label
 _atom_site_symmetry_multiplicity
 _atom_site_fract_x
 _atom_site_fract_y
 _atom_site_fract_z
 _atom_site_occupancy
  Li  Li0  1  0.99475300  0.99475300  0.48794900  1
  Li  Li1  1  0.63909900  0.63909900  0.57311500  1
  Li  Li2  1  0.55566800  0.32612700  0.51996500  1
  Li  Li3  1  0.32612700  0.55566800  0.51996500  1
  Cr  Cr4  1  0.35465300  0.98815400  0.18536200  1
  Cr  Cr5  1  0.98815400  0.35465300  0.18536200  1
  Cr  Cr6  1  0.99858900  0.99858900  0.99467700  1
  Cr  Cr7  1  0.33852800  0.65225600  0.00604100  1
  Cr  Cr8  1  0.65225600  0.33852800  0.00604100  1
  Cr  Cr9  1  0.64164200  0.99889000  0.82024400  1
  Cr  Cr10  1  0.99889000  0.64164200  0.82024400  1
  P  P11  1  0.29106200  0.89697400  0.69787600  1
  P  P12  1  0.89697400  0.29106200  0.69787600  1
  P  P13  1  0.68240600  0.68240600  0.08392000  1
  P  P14  1  0.31246400  0.31246400  0.91770700  1
  P  P15  1  0.70386500  0.08225700  0.30601200  1
  P  P16  1  0.08225700  0.70386500  0.30601200  1
  O  O17  1  0.65623600  0.96550400  0.51544000  1
  O  O18  1  0.96550400  0.65623600  0.51544000  1
  O  O19  1  0.95158500  0.38073900  0.87274600  1
  O  O20  1  0.38073900  0.95158500  0.87274600  1
  O  O21  1  0.81384100  0.81384100  0.10552100  1
  O  O22  1  0.74852800  0.57509300  0.94469300  1
  O  O23  1  0.57509300  0.74852800  0.94469300  1
  O  O24  1  0.87973200  0.11175800  0.75997600  1
  O  O25  1  0.11175800  0.87973200  0.75997600  1
  O  O26  1  0.31244300  0.72890400  0.69585200  1
  O  O27  1  0.72890400  0.31244300  0.69585200  1
  O  O28  1  0.58994500  0.58994500  0.30257800  1
  O  O29  1  0.40979100  0.40979100  0.70208900  1
  O  O30  1  0.67304400  0.24554700  0.31347500  1
  O  O31  1  0.24554700  0.67304400  0.31347500  1
  O  O32  1  0.88487200  0.11193600  0.23921900  1
  O  O33  1  0.11193600  0.88487200  0.23921900  1
  O  O34  1  0.18233000  0.18233000  0.89179600  1
  O  O35  1  0.61207000  0.02348100  0.13642500  1
  O  O36  1  0.02348100  0.61207000  0.13642500  1
  O  O37  1  0.24150300  0.42138900  0.04703200  1
  O  O38  1  0.42138900  0.24150300  0.04703200  1
  O  O39  1  0.35040500  0.01301400  0.49037100  1
  O  O40  1  0.01301400  0.35040500  0.49037100  1
