# generated using pymatgen
data_Li4Ti2Mn3Cr3O16
_symmetry_space_group_name_H-M   'P 1'
_cell_length_a   5.86971800
_cell_length_b   5.88902784
_cell_length_c   9.47953872
_cell_angle_alpha   90.96845788
_cell_angle_beta   89.89799883
_cell_angle_gamma   119.37425252
_symmetry_Int_Tables_number   1
_chemical_formula_structural   Li4Ti2Mn3Cr3O16
_chemical_formula_sum   'Li4 Ti2 Mn3 Cr3 O16'
_cell_volume   285.50159922
_cell_formula_units_Z   1
loop_
 _symmetry_equiv_pos_site_id
 _symmetry_equiv_pos_as_xyz
  1  'x, y, z'
loop_
 _atom_site_type_symbol
 _atom_site_label
 _atom_site_symmetry_multiplicity
 _atom_site_fract_x
 _atom_site_fract_y
 _atom_site_fract_z
 _atom_site_occupancy
  Li  Li0  1  0.33361700  0.67870700  0.10172000  1
  Li  Li1  1  0.99920600  0.99755100  0.00544400  1
  Li  Li2  1  0.00353500  0.99335300  0.50510400  1
  Li  Li3  1  0.66334900  0.33760100  0.60455100  1
  Ti  Ti4  1  0.33478700  0.66038800  0.50638800  1
  Ti  Ti5  1  0.66612600  0.33585400  0.00448800  1
  Mn  Mn6  1  0.16840000  0.82740500  0.78398800  1
  Mn  Mn7  1  0.83024500  0.65686400  0.28378500  1
  Mn  Mn8  1  0.33889200  0.17115900  0.28577600  1
  Cr  Cr9  1  0.66011700  0.83038900  0.78571500  1
  Cr  Cr10  1  0.16953800  0.33972000  0.78599100  1
  Cr  Cr11  1  0.82849100  0.16699300  0.28523300  1
  O  O12  1  0.66759000  0.83027800  0.40271300  1
  O  O13  1  0.47622900  0.51879500  0.65809000  1
  O  O14  1  0.32941200  0.67486400  0.89250500  1
  O  O15  1  0.00234900  0.99361400  0.69172000  1
  O  O16  1  0.00231600  0.98784100  0.19343900  1
  O  O17  1  0.16714800  0.32669600  0.40653100  1
  O  O18  1  0.47124100  0.95950900  0.66111500  1
  O  O19  1  0.03687600  0.52310800  0.66296500  1
  O  O20  1  0.83584900  0.17137600  0.90832900  1
  O  O21  1  0.14772700  0.80109000  0.40827100  1
  O  O22  1  0.96232600  0.48244100  0.16366100  1
  O  O23  1  0.51782000  0.04676100  0.15780400  1
  O  O24  1  0.66472500  0.34347400  0.39065700  1
  O  O25  1  0.84249300  0.66829000  0.90065200  1
  O  O26  1  0.54580800  0.51206300  0.15126500  1
  O  O27  1  0.33408900  0.16411800  0.90425800  1
