# generated using pymatgen
data_Li3Cr2(PO4)3
_symmetry_space_group_name_H-M   'P 1'
_cell_length_a   8.58849760
_cell_length_b   8.58849760
_cell_length_c   8.55285725
_cell_angle_alpha   61.28035393
_cell_angle_beta   61.28035393
_cell_angle_gamma   61.32234265
_symmetry_Int_Tables_number   1
_chemical_formula_structural   Li3Cr2(PO4)3
_chemical_formula_sum   'Li6 Cr4 P6 O24'
_cell_volume   459.07807546
_cell_formula_units_Z   2
loop_
 _symmetry_equiv_pos_site_id
 _symmetry_equiv_pos_as_xyz
  1  'x, y, z'
loop_
 _atom_site_type_symbol
 _atom_site_label
 _atom_site_symmetry_multiplicity
 _atom_site_fract_x
 _atom_site_fract_y
 _atom_site_fract_z
 _atom_site_occupancy
  Li  Li0  1  0.99512200  0.50297900  0.72238100  1
  Li  Li1  1  0.84940400  0.15059600  0.00000000  1
  Li  Li2  1  0.49702100  0.00487800  0.27761900  1
  Li  Li3  1  0.15356700  0.84643300  0.50000000  1
  Li  Li4  1  0.74944000  0.65657100  0.09617500  1
  Li  Li5  1  0.34342900  0.25056000  0.90382500  1
  Cr  Cr6  1  0.85514800  0.36149500  0.60790000  1
  Cr  Cr7  1  0.63850500  0.14485200  0.39210000  1
  Cr  Cr8  1  0.35430300  0.85466100  0.10542800  1
  Cr  Cr9  1  0.14533900  0.64569700  0.89457200  1
  P  P10  1  0.24910800  0.04826600  0.70233600  1
  P  P11  1  0.95173400  0.75089200  0.29766400  1
  P  P12  1  0.54427000  0.45573000  0.00000000  1
  P  P13  1  0.45994000  0.54006000  0.50000000  1
  P  P14  1  0.03692600  0.24962500  0.20848700  1
  P  P15  1  0.75037500  0.96307400  0.79151300  1
  O  O16  1  0.71298800  0.99903800  0.61962000  1
  O  O17  1  0.48566000  0.37673700  0.45580800  1
  O  O18  1  0.07605900  0.23077900  0.70439900  1
  O  O19  1  0.87673200  0.20714000  0.21987200  1
  O  O20  1  0.40803100  0.06986500  0.51175900  1
  O  O21  1  0.19602300  0.88564100  0.73161100  1
  O  O22  1  0.93013500  0.59196900  0.48824100  1
  O  O23  1  0.76922100  0.92394100  0.29560100  1
  O  O24  1  0.56766100  0.26132600  0.15811300  1
  O  O25  1  0.62326300  0.51434000  0.54419200  1
  O  O26  1  0.26551600  0.56619500  0.66270400  1
  O  O27  1  0.00096200  0.28701200  0.38038000  1
  O  O28  1  0.98399400  0.69432200  0.13559300  1
  O  O29  1  0.73867400  0.43233900  0.84188700  1
  O  O30  1  0.38491300  0.48440100  0.94434500  1
  O  O31  1  0.43380500  0.73448400  0.33729600  1
  O  O32  1  0.23054700  0.08736500  0.18466300  1
  O  O33  1  0.06618600  0.41413200  0.01724100  1
  O  O34  1  0.79286000  0.12326800  0.78012800  1
  O  O35  1  0.58586800  0.93381400  0.98275900  1
  O  O36  1  0.11435900  0.80397700  0.26838900  1
  O  O37  1  0.91263500  0.76945300  0.81533700  1
  O  O38  1  0.51559900  0.61508700  0.05565500  1
  O  O39  1  0.30567800  0.01600600  0.86440700  1
