# generated using pymatgen
data_LiCrPO4
_symmetry_space_group_name_H-M   'P 1'
_cell_length_a   7.44501600
_cell_length_b   8.51529200
_cell_length_c   16.90033531
_cell_angle_alpha   61.73778409
_cell_angle_beta   90.00000000
_cell_angle_gamma   90.00000000
_symmetry_Int_Tables_number   1
_chemical_formula_structural   LiCrPO4
_chemical_formula_sum   'Li12 Cr12 P12 O48'
_cell_volume   943.69744591
_cell_formula_units_Z   12
loop_
 _symmetry_equiv_pos_site_id
 _symmetry_equiv_pos_as_xyz
  1  'x, y, z'
loop_
 _atom_site_type_symbol
 _atom_site_label
 _atom_site_symmetry_multiplicity
 _atom_site_fract_x
 _atom_site_fract_y
 _atom_site_fract_z
 _atom_site_occupancy
  Li  Li0  1  0.67511200  0.65448700  0.40467700  1
  Li  Li1  1  0.81240700  0.31970900  0.75880000  1
  Li  Li2  1  0.68544100  0.00793900  0.08109000  1
  Li  Li3  1  0.18544100  0.99206100  0.41891000  1
  Li  Li4  1  0.31240700  0.68029100  0.74120000  1
  Li  Li5  1  0.17511200  0.34551300  0.09532300  1
  Li  Li6  1  0.82488800  0.65448700  0.90467700  1
  Li  Li7  1  0.68759300  0.31970900  0.25880000  1
  Li  Li8  1  0.81455900  0.00793900  0.58109000  1
  Li  Li9  1  0.31455900  0.99206100  0.91891000  1
  Li  Li10  1  0.18759300  0.68029100  0.24120000  1
  Li  Li11  1  0.32488800  0.34551300  0.59532300  1
  Cr  Cr12  1  0.95334100  0.31209600  0.92716100  1
  Cr  Cr13  1  0.03228000  0.65620700  0.58290500  1
  Cr  Cr14  1  0.48267700  0.99871800  0.25139200  1
  Cr  Cr15  1  0.98267700  0.00128200  0.24860800  1
  Cr  Cr16  1  0.53228000  0.34379300  0.91709500  1
  Cr  Cr17  1  0.45334100  0.68790400  0.57283900  1
  Cr  Cr18  1  0.54665900  0.31209600  0.42716100  1
  Cr  Cr19  1  0.46772000  0.65620700  0.08290500  1
  Cr  Cr20  1  0.01732300  0.99871800  0.75139200  1
  Cr  Cr21  1  0.51732300  0.00128200  0.74860800  1
  Cr  Cr22  1  0.96772000  0.34379300  0.41709500  1
  Cr  Cr23  1  0.04665900  0.68790400  0.07283900  1
  P  P24  1  0.26392200  0.65011900  0.41035300  1
  P  P25  1  0.22429800  0.31591200  0.77163400  1
  P  P26  1  0.26799700  0.03520400  0.07745400  1
  P  P27  1  0.76799700  0.96479600  0.42254600  1
  P  P28  1  0.72429800  0.68408800  0.72836600  1
  P  P29  1  0.76392200  0.34988100  0.08964700  1
  P  P30  1  0.23607800  0.65011900  0.91035300  1
  P  P31  1  0.27570200  0.31591200  0.27163400  1
  P  P32  1  0.23200300  0.03520400  0.57745400  1
  P  P33  1  0.73200300  0.96479600  0.92254600  1
  P  P34  1  0.77570200  0.68408800  0.22836600  1
  P  P35  1  0.73607800  0.34988100  0.58964700  1
  O  O36  1  0.43611400  0.55774500  0.40058200  1
  O  O37  1  0.89572400  0.39853900  0.63171600  1
  O  O38  1  0.77587100  0.10071100  0.95732000  1
  O  O39  1  0.37310100  0.26360600  0.84405300  1
  O  O40  1  0.23204900  0.58936900  0.51353400  1
  O  O41  1  0.74627800  0.80049400  0.27639100  1
  O  O42  1  0.28070100  0.93157300  0.18369600  1
  O  O43  1  0.04191200  0.26075800  0.82206700  1
  O  O44  1  0.45280900  0.12232800  0.04156100  1
  O  O45  1  0.22315000  0.51626100  0.70116700  1
  O  O46  1  0.12329400  0.17994100  0.04890200  1
  O  O47  1  0.28742400  0.85511800  0.36160100  1
  O  O48  1  0.72315000  0.48373900  0.79883300  1
  O  O49  1  0.78742400  0.14488200  0.13839900  1
  O  O50  1  0.62329400  0.82005900  0.45109800  1
  O  O51  1  0.95280900  0.87767200  0.45843900  1
  O  O52  1  0.54191200  0.73924200  0.67793300  1
  O  O53  1  0.78070100  0.06842700  0.31630400  1
  O  O54  1  0.73204900  0.41063100  0.98646600  1
  O  O55  1  0.87310100  0.73639400  0.65594700  1
  O  O56  1  0.24627800  0.19950600  0.22360900  1
  O  O57  1  0.27587100  0.89928900  0.54268000  1
  O  O58  1  0.39572400  0.60146100  0.86828400  1
  O  O59  1  0.93611400  0.44225500  0.09941800  1
  O  O60  1  0.06388600  0.55774500  0.90058200  1
  O  O61  1  0.60427600  0.39853900  0.13171600  1
  O  O62  1  0.72412900  0.10071100  0.45732000  1
  O  O63  1  0.75372200  0.80049400  0.77639100  1
  O  O64  1  0.12689900  0.26360600  0.34405300  1
  O  O65  1  0.26795100  0.58936900  0.01353400  1
  O  O66  1  0.21929900  0.93157300  0.68369600  1
  O  O67  1  0.45808800  0.26075800  0.32206700  1
  O  O68  1  0.04719100  0.12232800  0.54156100  1
  O  O69  1  0.37670600  0.17994100  0.54890200  1
  O  O70  1  0.21257600  0.85511800  0.86160100  1
  O  O71  1  0.27685000  0.51626100  0.20116700  1
  O  O72  1  0.71257600  0.14488200  0.63839900  1
  O  O73  1  0.87670600  0.82005900  0.95109800  1
  O  O74  1  0.77685000  0.48373900  0.29883300  1
  O  O75  1  0.54719100  0.87767200  0.95843900  1
  O  O76  1  0.95808800  0.73924200  0.17793300  1
  O  O77  1  0.71929900  0.06842700  0.81630400  1
  O  O78  1  0.25372200  0.19950600  0.72360900  1
  O  O79  1  0.76795100  0.41063100  0.48646600  1
  O  O80  1  0.62689900  0.73639400  0.15594700  1
  O  O81  1  0.22412900  0.89928900  0.04268000  1
  O  O82  1  0.10427600  0.60146100  0.36828400  1
  O  O83  1  0.56388600  0.44225500  0.59941800  1
