# generated using pymatgen
data_Li4Mn2Ni5O12
_symmetry_space_group_name_H-M   'P 1'
_cell_length_a   5.00317697
_cell_length_b   8.82775031
_cell_length_c   9.73656396
_cell_angle_alpha   90.00000222
_cell_angle_beta   100.34017313
_cell_angle_gamma   90.00000627
_symmetry_Int_Tables_number   1
_chemical_formula_structural   Li4Mn2Ni5O12
_chemical_formula_sum   'Li8 Mn4 Ni10 O24'
_cell_volume   423.04886538
_cell_formula_units_Z   2
loop_
 _symmetry_equiv_pos_site_id
 _symmetry_equiv_pos_as_xyz
  1  'x, y, z'
loop_
 _atom_site_type_symbol
 _atom_site_label
 _atom_site_symmetry_multiplicity
 _atom_site_fract_x
 _atom_site_fract_y
 _atom_site_fract_z
 _atom_site_occupancy
  Li  Li0  1  0.24673900  0.08635900  0.99401600  1
  Li  Li1  1  0.75161700  0.07588300  0.50668300  1
  Li  Li2  1  0.49382000  0.41603900  0.75120400  1
  Li  Li3  1  0.75151800  0.41587200  0.50687300  1
  Li  Li4  1  0.25326100  0.58635900  0.50598400  1
  Li  Li5  1  0.74838300  0.57588300  0.99331700  1
  Li  Li6  1  0.00618000  0.91603900  0.74879600  1
  Li  Li7  1  0.74848200  0.91587200  0.99312700  1
  Mn  Mn8  1  0.99896600  0.25456300  0.74754000  1
  Mn  Mn9  1  0.50130900  0.25053400  0.24726500  1
  Mn  Mn10  1  0.99869100  0.75053400  0.25273500  1
  Mn  Mn11  1  0.50103400  0.75456300  0.75246000  1
  Ni  Ni12  1  0.00113300  0.07996200  0.25351800  1
  Ni  Ni13  1  0.49792500  0.08283400  0.74736500  1
  Ni  Ni14  1  0.26102200  0.24915000  0.50489700  1
  Ni  Ni15  1  0.00474800  0.41833200  0.24869700  1
  Ni  Ni16  1  0.74354300  0.25933300  0.99374100  1
  Ni  Ni17  1  0.00207500  0.58283400  0.75263500  1
  Ni  Ni18  1  0.49886700  0.57996200  0.24648200  1
  Ni  Ni19  1  0.23897800  0.74915000  0.99510300  1
  Ni  Ni20  1  0.75645700  0.75933300  0.50625900  1
  Ni  Ni21  1  0.49525200  0.91833200  0.25130300  1
  O  O22  1  0.14027300  0.09976600  0.63773900  1
  O  O23  1  0.38843700  0.09936200  0.36474800  1
  O  O24  1  0.36889400  0.23228400  0.85909900  1
  O  O25  1  0.13015500  0.24007700  0.13833500  1
  O  O26  1  0.61771800  0.09718400  0.13089300  1
  O  O27  1  0.85740300  0.10103600  0.86528600  1
  O  O28  1  0.12116600  0.40379100  0.62894600  1
  O  O29  1  0.64695100  0.24580700  0.62774800  1
  O  O30  1  0.38665800  0.40584200  0.36700700  1
  O  O31  1  0.86802700  0.24911900  0.36403500  1
  O  O32  1  0.62467700  0.40870900  0.13429500  1
  O  O33  1  0.87807100  0.41246900  0.85801400  1
  O  O34  1  0.11156300  0.59936200  0.13525200  1
  O  O35  1  0.35972700  0.59976600  0.86226100  1
  O  O36  1  0.13110600  0.73228400  0.64090100  1
  O  O37  1  0.64259700  0.60103600  0.63471400  1
  O  O38  1  0.36984500  0.74007700  0.36166500  1
  O  O39  1  0.88228200  0.59718400  0.36910700  1
  O  O40  1  0.11334200  0.90584200  0.13299300  1
  O  O41  1  0.85304900  0.74580700  0.87225200  1
  O  O42  1  0.63197300  0.74911900  0.13596500  1
  O  O43  1  0.37883400  0.90379100  0.87105400  1
  O  O44  1  0.62192900  0.91246900  0.64198600  1
  O  O45  1  0.87532300  0.90870900  0.36570500  1
