# generated using pymatgen
data_Li2Mn5F17
_symmetry_space_group_name_H-M   'P 1'
_cell_length_a   7.53135273
_cell_length_b   12.80721108
_cell_length_c   15.17292292
_cell_angle_alpha   90.00000000
_cell_angle_beta   90.00000000
_cell_angle_gamma   107.09925282
_symmetry_Int_Tables_number   1
_chemical_formula_structural   Li2Mn5F17
_chemical_formula_sum   'Li8 Mn20 F68'
_cell_volume   1398.82183145
_cell_formula_units_Z   4
loop_
 _symmetry_equiv_pos_site_id
 _symmetry_equiv_pos_as_xyz
  1  'x, y, z'
loop_
 _atom_site_type_symbol
 _atom_site_label
 _atom_site_symmetry_multiplicity
 _atom_site_fract_x
 _atom_site_fract_y
 _atom_site_fract_z
 _atom_site_occupancy
  Li  Li0  1  0.00000000  0.00000000  0.00000000  1
  Li  Li1  1  0.00000000  0.00000000  0.50000000  1
  Li  Li2  1  0.29531695  0.59063389  0.25000000  1
  Li  Li3  1  0.25417006  0.50834112  0.46382708  1
  Li  Li4  1  0.25417006  0.50834112  0.03617292  1
  Li  Li5  1  0.70468305  0.40936611  0.75000000  1
  Li  Li6  1  0.74582994  0.49165888  0.96382708  1
  Li  Li7  1  0.74582994  0.49165888  0.53617292  1
  Mn  Mn8  1  0.11601901  0.73543723  0.87499501  1
  Mn  Mn9  1  0.11601901  0.73543723  0.62500499  1
  Mn  Mn10  1  0.25032988  0.99668749  0.75000000  1
  Mn  Mn11  1  0.12312676  0.74466544  0.12000065  1
  Mn  Mn12  1  0.12312676  0.74466544  0.37999935  1
  Mn  Mn13  1  0.62153868  0.74466544  0.12000065  1
  Mn  Mn14  1  0.62153868  0.74466544  0.37999935  1
  Mn  Mn15  1  0.38058178  0.26456277  0.37499501  1
  Mn  Mn16  1  0.38058178  0.26456277  0.12500499  1
  Mn  Mn17  1  0.74635760  0.99668749  0.75000000  1
  Mn  Mn18  1  0.25364240  0.00331251  0.25000000  1
  Mn  Mn19  1  0.61941822  0.73543723  0.62500499  1
  Mn  Mn20  1  0.61941822  0.73543723  0.87499501  1
  Mn  Mn21  1  0.37846132  0.25533456  0.62000065  1
  Mn  Mn22  1  0.37846132  0.25533456  0.87999935  1
  Mn  Mn23  1  0.87687324  0.25533456  0.62000065  1
  Mn  Mn24  1  0.87687324  0.25533456  0.87999935  1
  Mn  Mn25  1  0.74967012  0.00331251  0.25000000  1
  Mn  Mn26  1  0.88398099  0.26456277  0.37499501  1
  Mn  Mn27  1  0.88398099  0.26456277  0.12500499  1
  F  F28  1  0.98562879  0.59781781  0.90827423  1
  F  F29  1  0.98562879  0.59781781  0.59172577  1
  F  F30  1  0.13717865  0.88848465  0.15455654  1
  F  F31  1  0.13717865  0.88848465  0.34544346  1
  F  F32  1  0.09728395  0.79751732  0.50556220  1
  F  F33  1  0.09728395  0.79751732  0.99443780  1
  F  F34  1  0.24229283  0.88120913  0.84405038  1
  F  F35  1  0.24229283  0.88120913  0.65594962  1
  F  F36  1  0.11881800  0.60777640  0.08479641  1
  F  F37  1  0.11881800  0.60777640  0.41520359  1
  F  F38  1  0.13379125  0.69100065  0.75000000  1
  F  F39  1  0.15250495  0.69280072  0.25000000  1
  F  F40  1  0.11717290  0.23434481  0.15411324  1
  F  F41  1  0.01913532  0.03826965  0.25000000  1
  F  F42  1  0.39536304  0.79072607  0.39067251  1
  F  F43  1  0.35277379  0.70554657  0.59538225  1
  F  F44  1  0.11717290  0.23434481  0.34588676  1
  F  F45  1  0.15010975  0.30021850  0.63352051  1
  F  F46  1  0.15010975  0.30021850  0.86647949  1
  F  F47  1  0.39536304  0.79072607  0.10932749  1
  F  F48  1  0.47980821  0.95961643  0.25000000  1
  F  F49  1  0.35277379  0.70554657  0.90461775  1
  F  F50  1  0.38781098  0.40218219  0.09172577  1
  F  F51  1  0.38781098  0.40218219  0.40827423  1
  F  F52  1  0.54029677  0.69280072  0.25000000  1
  F  F53  1  0.24869400  0.11151535  0.65455654  1
  F  F54  1  0.24869400  0.11151535  0.84544346  1
  F  F55  1  0.55720940  0.69100065  0.75000000  1
  F  F56  1  0.48895840  0.60777640  0.41520359  1
  F  F57  1  0.48895840  0.60777640  0.08479641  1
  F  F58  1  0.29976663  0.20248268  0.00556220  1
  F  F59  1  0.29976663  0.20248268  0.49443780  1
  F  F60  1  0.63891530  0.88120913  0.84405038  1
  F  F61  1  0.63891530  0.88120913  0.65594962  1
  F  F62  1  0.36108470  0.11879087  0.15594962  1
  F  F63  1  0.36108470  0.11879087  0.34405038  1
  F  F64  1  0.70023337  0.79751732  0.50556220  1
  F  F65  1  0.70023337  0.79751732  0.99443780  1
  F  F66  1  0.51104160  0.39222360  0.58479641  1
  F  F67  1  0.51104160  0.39222360  0.91520359  1
  F  F68  1  0.44279060  0.30899935  0.25000000  1
  F  F69  1  0.75130600  0.88848465  0.15455654  1
  F  F70  1  0.75130600  0.88848465  0.34544346  1
  F  F71  1  0.45970323  0.30719928  0.75000000  1
  F  F72  1  0.61218902  0.59781781  0.59172577  1
  F  F73  1  0.61218902  0.59781781  0.90827423  1
  F  F74  1  0.88282710  0.76565519  0.65411324  1
  F  F75  1  0.52019179  0.04038357  0.75000000  1
  F  F76  1  0.64722621  0.29445343  0.09538225  1
  F  F77  1  0.98086468  0.96173035  0.75000000  1
  F  F78  1  0.84989025  0.69978150  0.36647949  1
  F  F79  1  0.64722621  0.29445343  0.40461775  1
  F  F80  1  0.84989025  0.69978150  0.13352051  1
  F  F81  1  0.88282710  0.76565519  0.84588676  1
  F  F82  1  0.60463696  0.20927393  0.60932749  1
  F  F83  1  0.60463696  0.20927393  0.89067251  1
  F  F84  1  0.84749505  0.30719928  0.75000000  1
  F  F85  1  0.86620875  0.30899935  0.25000000  1
  F  F86  1  0.88118200  0.39222360  0.58479641  1
  F  F87  1  0.88118200  0.39222360  0.91520359  1
  F  F88  1  0.75770717  0.11879087  0.34405038  1
  F  F89  1  0.75770717  0.11879087  0.15594962  1
  F  F90  1  0.90271605  0.20248268  0.49443780  1
  F  F91  1  0.90271605  0.20248268  0.00556220  1
  F  F92  1  0.86282135  0.11151535  0.65455654  1
  F  F93  1  0.86282135  0.11151535  0.84544346  1
  F  F94  1  0.01437121  0.40218219  0.40827423  1
  F  F95  1  0.01437121  0.40218219  0.09172577  1
