# generated using pymatgen
data_Li4Ti2Mn3O10
_symmetry_space_group_name_H-M   'P 1'
_cell_length_a   6.62693200
_cell_length_b   8.02225030
_cell_length_c   8.09186265
_cell_angle_alpha   98.22000018
_cell_angle_beta   113.25476217
_cell_angle_gamma   89.13117924
_symmetry_Int_Tables_number   1
_chemical_formula_structural   Li4Ti2Mn3O10
_chemical_formula_sum   'Li8 Ti4 Mn6 O20'
_cell_volume   390.77394065
_cell_formula_units_Z   2
loop_
 _symmetry_equiv_pos_site_id
 _symmetry_equiv_pos_as_xyz
  1  'x, y, z'
loop_
 _atom_site_type_symbol
 _atom_site_label
 _atom_site_symmetry_multiplicity
 _atom_site_fract_x
 _atom_site_fract_y
 _atom_site_fract_z
 _atom_site_occupancy
  Li  Li0  1  0.59850000  0.20820900  0.76907200  1
  Li  Li1  1  0.30861300  0.09279400  0.40373000  1
  Li  Li2  1  0.74993900  0.25703800  0.48493800  1
  Li  Li3  1  0.25006100  0.74296200  0.51506200  1
  Li  Li4  1  0.69138700  0.90720600  0.59627000  1
  Li  Li5  1  0.40150000  0.79179100  0.23092800  1
  Li  Li6  1  0.81682200  0.57344500  0.39928500  1
  Li  Li7  1  0.18317800  0.42655500  0.60071500  1
  Ti  Ti8  1  0.84530100  0.94561000  0.31786800  1
  Ti  Ti9  1  0.15469900  0.05439000  0.68213200  1
  Ti  Ti10  1  0.33441000  0.43325000  0.32022800  1
  Ti  Ti11  1  0.66559000  0.56675000  0.67977200  1
  Mn  Mn12  1  0.46428600  0.15187200  0.10821900  1
  Mn  Mn13  1  0.53571400  0.84812800  0.89178100  1
  Mn  Mn14  1  0.00000000  0.00000000  0.00000000  1
  Mn  Mn15  1  0.50000000  0.50000000  0.00000000  1
  Mn  Mn16  1  0.96030200  0.64455500  0.11232700  1
  Mn  Mn17  1  0.03969800  0.35544500  0.88767300  1
  O  O18  1  0.28688500  0.95100800  0.93716700  1
  O  O19  1  0.40966700  0.98821900  0.65236500  1
  O  O20  1  0.59033300  0.01178100  0.34763500  1
  O  O21  1  0.90024000  0.13325000  0.76617000  1
  O  O22  1  0.02598000  0.14581500  0.46155200  1
  O  O23  1  0.71311500  0.04899200  0.06283300  1
  O  O24  1  0.41086900  0.62824800  0.76349000  1
  O  O25  1  0.21110400  0.22035900  0.16536200  1
  O  O26  1  0.52723300  0.65190700  0.45767600  1
  O  O27  1  0.78889600  0.77964100  0.83463800  1
  O  O28  1  0.70463300  0.72238400  0.16378300  1
  O  O29  1  0.97402000  0.85418500  0.53844800  1
  O  O30  1  0.29536700  0.27761600  0.83621700  1
  O  O31  1  0.09976000  0.86675000  0.23383000  1
  O  O32  1  0.78251900  0.44551700  0.92678700  1
  O  O33  1  0.47276700  0.34809300  0.54232400  1
  O  O34  1  0.58913100  0.37175200  0.23651000  1
  O  O35  1  0.90283900  0.47382500  0.64361300  1
  O  O36  1  0.09716100  0.52617500  0.35638700  1
  O  O37  1  0.21748100  0.55448300  0.07321300  1
