# generated using pymatgen
data_Li5FeO4
_symmetry_space_group_name_H-M   'P 1'
_cell_length_a   5.19471700
_cell_length_b   9.98670200
_cell_length_c   15.84571500
_cell_angle_alpha   90.00000000
_cell_angle_beta   90.00000000
_cell_angle_gamma   90.00000000
_symmetry_Int_Tables_number   1
_chemical_formula_structural   Li5FeO4
_chemical_formula_sum   'Li40 Fe8 O32'
_cell_volume   822.04543924
_cell_formula_units_Z   8
loop_
 _symmetry_equiv_pos_site_id
 _symmetry_equiv_pos_as_xyz
  1  'x, y, z'
loop_
 _atom_site_type_symbol
 _atom_site_label
 _atom_site_symmetry_multiplicity
 _atom_site_fract_x
 _atom_site_fract_y
 _atom_site_fract_z
 _atom_site_occupancy
  Li  Li0  1  0.90648300  0.92903400  0.42879000  1
  Li  Li1  1  0.59351700  0.92903400  0.92879000  1
  Li  Li2  1  0.41785000  0.94304200  0.76036700  1
  Li  Li3  1  0.08215000  0.94304200  0.26036700  1
  Li  Li4  1  0.11724400  0.81454500  0.99284900  1
  Li  Li5  1  0.38275600  0.81454500  0.49284900  1
  Li  Li6  1  0.91731700  0.80552100  0.82295800  1
  Li  Li7  1  0.58268300  0.80552100  0.32295800  1
  Li  Li8  1  0.42730700  0.80141100  0.15634000  1
  Li  Li9  1  0.07269300  0.80141100  0.65634000  1
  Li  Li10  1  0.92730700  0.69858900  0.15634000  1
  Li  Li11  1  0.57269300  0.69858900  0.65634000  1
  Li  Li12  1  0.41731700  0.69447900  0.82295800  1
  Li  Li13  1  0.08268300  0.69447900  0.32295800  1
  Li  Li14  1  0.61724400  0.68545500  0.99284900  1
  Li  Li15  1  0.88275600  0.68545500  0.49284900  1
  Li  Li16  1  0.58215000  0.55695800  0.26036700  1
  Li  Li17  1  0.91785000  0.55695800  0.76036700  1
  Li  Li18  1  0.09351700  0.57096600  0.92879000  1
  Li  Li19  1  0.40648300  0.57096600  0.42879000  1
  Li  Li20  1  0.90648300  0.42903400  0.07121000  1
  Li  Li21  1  0.59351700  0.42903400  0.57121000  1
  Li  Li22  1  0.41785000  0.44304200  0.73963300  1
  Li  Li23  1  0.08215000  0.44304200  0.23963300  1
  Li  Li24  1  0.38275600  0.31454500  0.00715100  1
  Li  Li25  1  0.11724400  0.31454500  0.50715100  1
  Li  Li26  1  0.58268300  0.30552100  0.17704200  1
  Li  Li27  1  0.91731700  0.30552100  0.67704200  1
  Li  Li28  1  0.42730700  0.30141100  0.34366000  1
  Li  Li29  1  0.07269300  0.30141100  0.84366000  1
  Li  Li30  1  0.92730700  0.19858900  0.34366000  1
  Li  Li31  1  0.57269300  0.19858900  0.84366000  1
  Li  Li32  1  0.41731700  0.19447900  0.67704200  1
  Li  Li33  1  0.08268300  0.19447900  0.17704200  1
  Li  Li34  1  0.88275600  0.18545500  0.00715100  1
  Li  Li35  1  0.61724400  0.18545500  0.50715100  1
  Li  Li36  1  0.91785000  0.05695800  0.73963300  1
  Li  Li37  1  0.58215000  0.05695800  0.23963300  1
  Li  Li38  1  0.09351700  0.07096600  0.57121000  1
  Li  Li39  1  0.40648300  0.07096600  0.07121000  1
  Fe  Fe40  1  0.85683000  0.95467300  0.11691000  1
  Fe  Fe41  1  0.64317000  0.95467300  0.61691000  1
  Fe  Fe42  1  0.35683000  0.54532700  0.11691000  1
  Fe  Fe43  1  0.14317000  0.54532700  0.61691000  1
  Fe  Fe44  1  0.85683000  0.45467300  0.38309000  1
  Fe  Fe45  1  0.64317000  0.45467300  0.88309000  1
  Fe  Fe46  1  0.35683000  0.04532700  0.38309000  1
  Fe  Fe47  1  0.14317000  0.04532700  0.88309000  1
  O  O48  1  0.21311400  0.95009000  0.13515100  1
  O  O49  1  0.28688600  0.95009000  0.63515100  1
  O  O50  1  0.74157600  0.86076200  0.21638900  1
  O  O51  1  0.75842400  0.86076200  0.71638900  1
  O  O52  1  0.75296700  0.85431200  0.02401300  1
  O  O53  1  0.74703300  0.85431200  0.52401300  1
  O  O54  1  0.23279000  0.86275200  0.37311500  1
  O  O55  1  0.26721000  0.86275200  0.87311500  1
  O  O56  1  0.73279000  0.63724800  0.37311500  1
  O  O57  1  0.76721000  0.63724800  0.87311500  1
  O  O58  1  0.25296700  0.64568800  0.02401300  1
  O  O59  1  0.24703300  0.64568800  0.52401300  1
  O  O60  1  0.24157600  0.63923800  0.21638900  1
  O  O61  1  0.25842400  0.63923800  0.71638900  1
  O  O62  1  0.71311400  0.54991000  0.13515100  1
  O  O63  1  0.78688600  0.54991000  0.63515100  1
  O  O64  1  0.28688600  0.45009000  0.86484900  1
  O  O65  1  0.21311400  0.45009000  0.36484900  1
  O  O66  1  0.74157600  0.36076200  0.28361100  1
  O  O67  1  0.75842400  0.36076200  0.78361100  1
  O  O68  1  0.74703300  0.35431200  0.97598700  1
  O  O69  1  0.75296700  0.35431200  0.47598700  1
  O  O70  1  0.26721000  0.36275200  0.62688500  1
  O  O71  1  0.23279000  0.36275200  0.12688500  1
  O  O72  1  0.76721000  0.13724800  0.62688500  1
  O  O73  1  0.73279000  0.13724800  0.12688500  1
  O  O74  1  0.25296700  0.14568800  0.47598700  1
  O  O75  1  0.24703300  0.14568800  0.97598700  1
  O  O76  1  0.25842400  0.13923800  0.78361100  1
  O  O77  1  0.24157600  0.13923800  0.28361100  1
  O  O78  1  0.71311400  0.04991000  0.36484900  1
  O  O79  1  0.78688600  0.04991000  0.86484900  1
