# generated using pymatgen
data_LiCoPO4
_symmetry_space_group_name_H-M   'P 1'
_cell_length_a   5.90640716
_cell_length_b   6.45883665
_cell_length_c   9.46006053
_cell_angle_alpha   74.22695186
_cell_angle_beta   95.51863449
_cell_angle_gamma   99.72702429
_symmetry_Int_Tables_number   1
_chemical_formula_structural   LiCoPO4
_chemical_formula_sum   'Li4 Co4 P4 O16'
_cell_volume   341.82506676
_cell_formula_units_Z   4
loop_
 _symmetry_equiv_pos_site_id
 _symmetry_equiv_pos_as_xyz
  1  'x, y, z'
loop_
 _atom_site_type_symbol
 _atom_site_label
 _atom_site_symmetry_multiplicity
 _atom_site_fract_x
 _atom_site_fract_y
 _atom_site_fract_z
 _atom_site_occupancy
  Li  Li0  1  0.59394500  0.16432400  0.26187300  1
  Li  Li1  1  0.40721200  0.83514200  0.73771200  1
  Li  Li2  1  0.42740700  0.34333700  0.67484900  1
  Li  Li3  1  0.57162000  0.65765400  0.32519800  1
  Co  Co4  1  0.02485500  0.92180100  0.28728500  1
  Co  Co5  1  0.80208200  0.37222900  0.92815600  1
  Co  Co6  1  0.97538500  0.07782800  0.71299700  1
  Co  Co7  1  0.19737700  0.62822200  0.07177700  1
  P  P8  1  0.15515000  0.28760600  0.38131100  1
  P  P9  1  0.84571000  0.71167100  0.61872800  1
  P  P10  1  0.28143000  0.17430300  0.99976100  1
  P  P11  1  0.71787500  0.82630000  0.00027100  1
  O  O12  1  0.52845700  0.25960900  0.04889900  1
  O  O13  1  0.47084400  0.74108500  0.95095400  1
  O  O14  1  0.30091000  0.11943600  0.35685900  1
  O  O15  1  0.70074500  0.88025400  0.64351900  1
  O  O16  1  0.90841700  0.21745100  0.32359100  1
  O  O17  1  0.09278900  0.78082900  0.67621100  1
  O  O18  1  0.79797400  0.05195500  0.89334900  1
  O  O19  1  0.20154100  0.94855100  0.10660500  1
  O  O20  1  0.12282000  0.33929100  0.01261500  1
  O  O21  1  0.87649000  0.66117200  0.98747400  1
  O  O22  1  0.16856000  0.28456500  0.54646200  1
  O  O23  1  0.83135000  0.71497900  0.45350600  1
  O  O24  1  0.27135000  0.15951200  0.83850500  1
  O  O25  1  0.72791100  0.84123000  0.16155700  1
  O  O26  1  0.73884800  0.47616400  0.70478700  1
  O  O27  1  0.26095100  0.52349700  0.29519200  1
