# generated using pymatgen
data_Li4Mn3V3(WO8)2
_symmetry_space_group_name_H-M   'P 1'
_cell_length_a   6.09161356
_cell_length_b   6.09161356
_cell_length_c   9.84581671
_cell_angle_alpha   88.89121540
_cell_angle_beta   88.89121540
_cell_angle_gamma   60.14326630
_symmetry_Int_Tables_number   1
_chemical_formula_structural   Li4Mn3V3(WO8)2
_chemical_formula_sum   'Li4 Mn3 V3 W2 O16'
_cell_volume   316.78428477
_cell_formula_units_Z   1
loop_
 _symmetry_equiv_pos_site_id
 _symmetry_equiv_pos_as_xyz
  1  'x, y, z'
loop_
 _atom_site_type_symbol
 _atom_site_label
 _atom_site_symmetry_multiplicity
 _atom_site_fract_x
 _atom_site_fract_y
 _atom_site_fract_z
 _atom_site_occupancy
  Li  Li0  1  0.34022500  0.34022500  0.90950000  1
  Li  Li1  1  0.99323800  0.99323800  0.98713200  1
  Li  Li2  1  0.99426600  0.99426600  0.48774000  1
  Li  Li3  1  0.67153500  0.67153500  0.40511600  1
  Mn  Mn4  1  0.16847400  0.16847400  0.21090400  1
  Mn  Mn5  1  0.33812900  0.82947600  0.70859400  1
  Mn  Mn6  1  0.82947600  0.33812900  0.70859400  1
  V  V7  1  0.16376100  0.65705800  0.21605200  1
  V  V8  1  0.65705800  0.16376100  0.21605200  1
  V  V9  1  0.82542000  0.82542000  0.72367600  1
  W  W10  1  0.33400000  0.33400000  0.48653100  1
  W  W11  1  0.66310400  0.66310400  0.98897500  1
  O  O12  1  0.16849400  0.64480400  0.58884700  1
  O  O13  1  0.47967200  0.47967200  0.35040800  1
  O  O14  1  0.34422700  0.34422700  0.11009200  1
  O  O15  1  0.99234500  0.99234500  0.30152400  1
  O  O16  1  0.98553200  0.98553200  0.79798200  1
  O  O17  1  0.64480400  0.16849400  0.58884700  1
  O  O18  1  0.04461400  0.48949000  0.35173000  1
  O  O19  1  0.48949000  0.04461400  0.35173000  1
  O  O20  1  0.82140800  0.82140800  0.09427500  1
  O  O21  1  0.17131700  0.17131700  0.57705700  1
  O  O22  1  0.53897300  0.96062900  0.85446700  1
  O  O23  1  0.96062900  0.53897300  0.85446700  1
  O  O24  1  0.68846500  0.68846500  0.61032600  1
  O  O25  1  0.34447500  0.81910100  0.08489200  1
  O  O26  1  0.52659700  0.52659700  0.85742100  1
  O  O27  1  0.81910100  0.34447500  0.08489200  1
