# generated using pymatgen
data_Li3Cr3NiO8
_symmetry_space_group_name_H-M   'P 1'
_cell_length_a   5.83809027
_cell_length_b   10.14296281
_cell_length_c   5.91777240
_cell_angle_alpha   106.55622995
_cell_angle_beta   119.55423941
_cell_angle_gamma   90.00060791
_symmetry_Int_Tables_number   1
_chemical_formula_structural   Li3Cr3NiO8
_chemical_formula_sum   'Li6 Cr6 Ni2 O16'
_cell_volume   288.01021927
_cell_formula_units_Z   2
loop_
 _symmetry_equiv_pos_site_id
 _symmetry_equiv_pos_as_xyz
  1  'x, y, z'
loop_
 _atom_site_type_symbol
 _atom_site_label
 _atom_site_symmetry_multiplicity
 _atom_site_fract_x
 _atom_site_fract_y
 _atom_site_fract_z
 _atom_site_occupancy
  Li  Li0  1  0.99981800  0.99990400  0.49981900  1
  Li  Li1  1  0.49982200  0.49990900  0.49981900  1
  Li  Li2  1  0.25020700  0.25001900  0.50002400  1
  Li  Li3  1  0.75018200  0.74998500  0.49997500  1
  Li  Li4  1  0.50000200  0.00009800  0.50018300  1
  Li  Li5  1  0.00000700  0.50009300  0.50018400  1
  Cr  Cr6  1  0.25122000  0.75041100  0.99945300  1
  Cr  Cr7  1  0.99823900  0.50000000  0.00000100  1
  Cr  Cr8  1  0.25177000  0.24958900  0.00054700  1
  Cr  Cr9  1  0.75114600  0.25047200  0.99944700  1
  Cr  Cr10  1  0.49820400  0.00000000  0.00000000  1
  Cr  Cr11  1  0.75170300  0.74952700  0.00055300  1
  Ni  Ni12  1  0.49929800  0.50000100  0.00000200  1
  Ni  Ni13  1  0.99922600  0.00000000  0.00000000  1
  O  O14  1  0.88767600  0.62853700  0.77262700  1
  O  O15  1  0.38766400  0.12856000  0.77263500  1
  O  O16  1  0.11504800  0.37146100  0.22737200  1
  O  O17  1  0.61502900  0.87143800  0.22736400  1
  O  O18  1  0.65665800  0.88547200  0.78738000  1
  O  O19  1  0.15676200  0.38552000  0.78736200  1
  O  O20  1  0.39296600  0.62136800  0.78530800  1
  O  O21  1  0.89291700  0.12145900  0.78529300  1
  O  O22  1  0.12773200  0.88580700  0.78513800  1
  O  O23  1  0.62768000  0.38584600  0.78517000  1
  O  O24  1  0.34259100  0.11419200  0.21486600  1
  O  O25  1  0.84250800  0.61415500  0.21483600  1
  O  O26  1  0.60765200  0.37863100  0.21469200  1
  O  O27  1  0.10762000  0.87854100  0.21470800  1
  O  O28  1  0.86927000  0.11452800  0.21262000  1
  O  O29  1  0.36939300  0.61448000  0.21263800  1
