# generated using pymatgen
data_Li4Mn2Nb3Fe3O16
_symmetry_space_group_name_H-M   'P 1'
_cell_length_a   6.05850015
_cell_length_b   6.05850015
_cell_length_c   9.92249305
_cell_angle_alpha   88.67708434
_cell_angle_beta   88.67708434
_cell_angle_gamma   61.09337734
_symmetry_Int_Tables_number   1
_chemical_formula_structural   Li4Mn2Nb3Fe3O16
_chemical_formula_sum   'Li4 Mn2 Nb3 Fe3 O16'
_cell_volume   318.71740326
_cell_formula_units_Z   1
loop_
 _symmetry_equiv_pos_site_id
 _symmetry_equiv_pos_as_xyz
  1  'x, y, z'
loop_
 _atom_site_type_symbol
 _atom_site_label
 _atom_site_symmetry_multiplicity
 _atom_site_fract_x
 _atom_site_fract_y
 _atom_site_fract_z
 _atom_site_occupancy
  Li  Li0  1  0.33731200  0.33731200  0.09719700  1
  Li  Li1  1  0.98604000  0.98604000  0.00144600  1
  Li  Li2  1  0.97858500  0.97858500  0.50622300  1
  Li  Li3  1  0.66564600  0.66564600  0.62280900  1
  Mn  Mn4  1  0.34770800  0.34770800  0.51163500  1
  Mn  Mn5  1  0.67056800  0.67056800  0.00468900  1
  Nb  Nb6  1  0.16888200  0.16888200  0.78479200  1
  Nb  Nb7  1  0.84342600  0.34380500  0.28588900  1
  Nb  Nb8  1  0.34380500  0.84342600  0.28588900  1
  Fe  Fe9  1  0.65824700  0.17388500  0.78739200  1
  Fe  Fe10  1  0.17388500  0.65824700  0.78739200  1
  Fe  Fe11  1  0.83175400  0.83175400  0.28049000  1
  O  O12  1  0.68838700  0.16623700  0.38793500  1
  O  O13  1  0.48402400  0.48402400  0.67326900  1
  O  O14  1  0.32609300  0.32609300  0.89919000  1
  O  O15  1  0.99780300  0.99780300  0.68922400  1
  O  O16  1  0.01388900  0.01388900  0.18165200  1
  O  O17  1  0.16623700  0.68838700  0.38793500  1
  O  O18  1  0.47751900  0.02974500  0.66984200  1
  O  O19  1  0.02974500  0.47751900  0.66984200  1
  O  O20  1  0.82927600  0.82927600  0.89956400  1
  O  O21  1  0.16376600  0.16376600  0.39436000  1
  O  O22  1  0.97174500  0.51360900  0.16001300  1
  O  O23  1  0.51360900  0.97174500  0.16001300  1
  O  O24  1  0.65594900  0.65594900  0.40032300  1
  O  O25  1  0.84141900  0.31412900  0.90226700  1
  O  O26  1  0.52722700  0.52722700  0.15957000  1
  O  O27  1  0.31412900  0.84141900  0.90226700  1
