# generated using pymatgen
data_Li2FeF4
_symmetry_space_group_name_H-M   'P 1'
_cell_length_a   7.39964900
_cell_length_b   8.91004200
_cell_length_c   9.79552300
_cell_angle_alpha   90.00000000
_cell_angle_beta   90.00000000
_cell_angle_gamma   90.00000000
_symmetry_Int_Tables_number   1
_chemical_formula_structural   Li2FeF4
_chemical_formula_sum   'Li16 Fe8 F32'
_cell_volume   645.83042317
_cell_formula_units_Z   8
loop_
 _symmetry_equiv_pos_site_id
 _symmetry_equiv_pos_as_xyz
  1  'x, y, z'
loop_
 _atom_site_type_symbol
 _atom_site_label
 _atom_site_symmetry_multiplicity
 _atom_site_fract_x
 _atom_site_fract_y
 _atom_site_fract_z
 _atom_site_occupancy
  Li  Li0  1  0.30975500  0.25219400  0.08547900  1
  Li  Li1  1  0.71007000  0.24998400  0.10127900  1
  Li  Li2  1  0.28397100  0.92032900  0.14021900  1
  Li  Li3  1  0.76699000  0.92140000  0.16209800  1
  Li  Li4  1  0.26699000  0.42140000  0.33790200  1
  Li  Li5  1  0.78397100  0.42032900  0.35978100  1
  Li  Li6  1  0.21007000  0.74998400  0.39872100  1
  Li  Li7  1  0.80975500  0.75219400  0.41452100  1
  Li  Li8  1  0.19024500  0.25219400  0.58547900  1
  Li  Li9  1  0.78993000  0.24998400  0.60127900  1
  Li  Li10  1  0.21602900  0.92032900  0.64021900  1
  Li  Li11  1  0.73301000  0.92140000  0.66209800  1
  Li  Li12  1  0.23301000  0.42140000  0.83790200  1
  Li  Li13  1  0.71602900  0.42032900  0.85978100  1
  Li  Li14  1  0.28993000  0.74998400  0.89872100  1
  Li  Li15  1  0.69024500  0.75219400  0.91452100  1
  Fe  Fe16  1  0.97726700  0.57933300  0.11589400  1
  Fe  Fe17  1  0.48038100  0.63892800  0.20215000  1
  Fe  Fe18  1  0.98038100  0.13892800  0.29785000  1
  Fe  Fe19  1  0.47726700  0.07933300  0.38410600  1
  Fe  Fe20  1  0.52273300  0.57933300  0.61589400  1
  Fe  Fe21  1  0.01961900  0.63892800  0.70215000  1
  Fe  Fe22  1  0.51961900  0.13892800  0.79785000  1
  Fe  Fe23  1  0.02273300  0.07933300  0.88410600  1
  F  F24  1  0.51742100  0.18857900  0.99584800  1
  F  F25  1  0.78382200  0.43544700  0.04051500  1
  F  F26  1  0.85553400  0.76896800  0.05466600  1
  F  F27  1  0.89055400  0.09559400  0.08687400  1
  F  F28  1  0.38011400  0.42865200  0.16681800  1
  F  F29  1  0.52272500  0.91025600  0.23446800  1
  F  F30  1  0.23554600  0.11083600  0.21920400  1
  F  F31  1  0.19903600  0.71930800  0.20228300  1
  F  F32  1  0.69903600  0.21930800  0.29771700  1
  F  F33  1  0.73554600  0.61083600  0.28079600  1
  F  F34  1  0.02272500  0.41025600  0.26553200  1
  F  F35  1  0.88011400  0.92865200  0.33318200  1
  F  F36  1  0.39055400  0.59559400  0.41312600  1
  F  F37  1  0.35553400  0.26896800  0.44533400  1
  F  F38  1  0.28382200  0.93544700  0.45948500  1
  F  F39  1  0.01742100  0.68857900  0.50415200  1
  F  F40  1  0.98257900  0.18857900  0.49584800  1
  F  F41  1  0.71617800  0.43544700  0.54051500  1
  F  F42  1  0.64446600  0.76896800  0.55466600  1
  F  F43  1  0.60944600  0.09559400  0.58687400  1
  F  F44  1  0.11988600  0.42865200  0.66681800  1
  F  F45  1  0.97727500  0.91025600  0.73446800  1
  F  F46  1  0.26445400  0.11083600  0.71920400  1
  F  F47  1  0.30096400  0.71930800  0.70228300  1
  F  F48  1  0.80096400  0.21930800  0.79771700  1
  F  F49  1  0.76445400  0.61083600  0.78079600  1
  F  F50  1  0.47727500  0.41025600  0.76553200  1
  F  F51  1  0.61988600  0.92865200  0.83318200  1
  F  F52  1  0.10944600  0.59559400  0.91312600  1
  F  F53  1  0.14446600  0.26896800  0.94533400  1
  F  F54  1  0.21617800  0.93544700  0.95948500  1
  F  F55  1  0.48257900  0.68857900  0.00415200  1
