# generated using pymatgen
data_Li3CrSiO5
_symmetry_space_group_name_H-M   'P 1'
_cell_length_a   4.98626126
_cell_length_b   5.78007604
_cell_length_c   12.46838059
_cell_angle_alpha   84.94263581
_cell_angle_beta   82.65278180
_cell_angle_gamma   106.42768407
_symmetry_Int_Tables_number   1
_chemical_formula_structural   Li3CrSiO5
_chemical_formula_sum   'Li12 Cr4 Si4 O20'
_cell_volume   338.91951761
_cell_formula_units_Z   4
loop_
 _symmetry_equiv_pos_site_id
 _symmetry_equiv_pos_as_xyz
  1  'x, y, z'
loop_
 _atom_site_type_symbol
 _atom_site_label
 _atom_site_symmetry_multiplicity
 _atom_site_fract_x
 _atom_site_fract_y
 _atom_site_fract_z
 _atom_site_occupancy
  Li  Li0  1  0.50000200  0.09999600  0.09999000  1
  Li  Li1  1  0.99999000  0.60000000  0.59999700  1
  Li  Li2  1  0.50001600  0.59999900  0.10001500  1
  Li  Li3  1  0.99999900  0.09997200  0.60000800  1
  Li  Li4  1  0.50288700  0.30362200  0.29895500  1
  Li  Li5  1  0.00288900  0.80347400  0.79894800  1
  Li  Li6  1  0.99709000  0.39652600  0.40103900  1
  Li  Li7  1  0.49713500  0.89639000  0.90103300  1
  Li  Li8  1  0.02117400  0.20938600  0.19177800  1
  Li  Li9  1  0.52118700  0.70936800  0.69178000  1
  Li  Li10  1  0.97884000  0.99060200  0.00820900  1
  Li  Li11  1  0.47884400  0.49066000  0.50818500  1
  Cr  Cr12  1  0.00080400  0.29743000  0.79859200  1
  Cr  Cr13  1  0.99924500  0.90258300  0.40142100  1
  Cr  Cr14  1  0.50062900  0.79767600  0.29857300  1
  Cr  Cr15  1  0.49906200  0.40245300  0.90147100  1
  Si  Si16  1  0.99990800  0.69498700  0.19588300  1
  Si  Si17  1  0.49998400  0.19505100  0.69588200  1
  Si  Si18  1  0.00006400  0.50492900  0.00413700  1
  Si  Si19  1  0.49991500  0.00494500  0.50416000  1
  O  O20  1  0.77322600  0.87574800  0.16161800  1
  O  O21  1  0.27331500  0.37569200  0.66162900  1
  O  O22  1  0.22676900  0.32426700  0.03838600  1
  O  O23  1  0.72671700  0.82430300  0.53834900  1
  O  O24  1  0.27443200  0.17169300  0.45304600  1
  O  O25  1  0.77441500  0.67162100  0.95304000  1
  O  O26  1  0.22553400  0.52845400  0.24694800  1
  O  O27  1  0.72562500  0.02835900  0.74693500  1
  O  O28  1  0.79524400  0.43063700  0.14115600  1
  O  O29  1  0.29523000  0.93069900  0.64116400  1
  O  O30  1  0.20474300  0.76927500  0.05882000  1
  O  O31  1  0.70474000  0.26931300  0.55882200  1
  O  O32  1  0.26814400  0.73284200  0.45417200  1
  O  O33  1  0.76817200  0.23276700  0.95418900  1
  O  O34  1  0.23186200  0.96729300  0.24581300  1
  O  O35  1  0.73202300  0.46711700  0.74583900  1
  O  O36  1  0.72477700  0.08387500  0.36819800  1
  O  O37  1  0.22486100  0.58384600  0.86821300  1
  O  O38  1  0.77520700  0.61618600  0.33179800  1
  O  O39  1  0.27530100  0.11596300  0.83180900  1
