# generated using pymatgen
data_Li6V3P8O29
_symmetry_space_group_name_H-M   'P 1'
_cell_length_a   9.78729400
_cell_length_b   9.80118579
_cell_length_c   13.95027364
_cell_angle_alpha   89.77835510
_cell_angle_beta   90.53861466
_cell_angle_gamma   119.91493801
_symmetry_Int_Tables_number   1
_chemical_formula_structural   Li6V3P8O29
_chemical_formula_sum   'Li12 V6 P16 O58'
_cell_volume   1159.86339840
_cell_formula_units_Z   2
loop_
 _symmetry_equiv_pos_site_id
 _symmetry_equiv_pos_as_xyz
  1  'x, y, z'
loop_
 _atom_site_type_symbol
 _atom_site_label
 _atom_site_symmetry_multiplicity
 _atom_site_fract_x
 _atom_site_fract_y
 _atom_site_fract_z
 _atom_site_occupancy
  Li  Li0  1  0.23753600  0.90179400  0.44565600  1
  Li  Li1  1  0.09444700  0.33268100  0.44173500  1
  Li  Li2  1  0.32072000  0.66394900  0.11064000  1
  Li  Li3  1  0.23245600  0.32824600  0.93543800  1
  Li  Li4  1  0.67209800  0.90724200  0.93546200  1
  Li  Li5  1  0.33675500  0.23532900  0.56433900  1
  Li  Li6  1  0.66817400  0.76046100  0.44106800  1
  Li  Li7  1  0.33003400  0.09619400  0.05762500  1
  Li  Li8  1  0.76643900  0.66547300  0.05281800  1
  Li  Li9  1  0.76565200  0.10042600  0.56287300  1
  Li  Li10  1  0.00061200  0.99765200  0.98896500  1
  Li  Li11  1  0.98565200  0.94916200  0.51307500  1
  V  V12  1  0.43607800  0.43682400  0.74828200  1
  V  V13  1  0.56562000  0.56245600  0.25222400  1
  V  V14  1  0.43666500  0.99903800  0.24943900  1
  V  V15  1  0.56540400  0.00251600  0.75145800  1
  V  V16  1  0.00022800  0.56426200  0.75168400  1
  V  V17  1  0.99619900  0.43784100  0.24754000  1
  P  P18  1  0.08451800  0.78040200  0.15551000  1
  P  P19  1  0.22276300  0.91270600  0.66150300  1
  P  P20  1  0.08451400  0.31263600  0.65571200  1
  P  P21  1  0.33342800  0.66468600  0.87040300  1
  P  P22  1  0.33475700  0.66675300  0.37002700  1
  P  P23  1  0.22320100  0.31614700  0.15862100  1
  P  P24  1  0.31272800  0.22560800  0.34385500  1
  P  P25  1  0.68497900  0.90658600  0.15536900  1
  P  P26  1  0.31396500  0.09119000  0.84435300  1
  P  P27  1  0.68577800  0.77716000  0.65638700  1
  P  P28  1  0.77724800  0.68921900  0.83996700  1
  P  P29  1  0.66872800  0.33290300  0.63090600  1
  P  P30  1  0.66278400  0.33268800  0.12935700  1
  P  P31  1  0.92093200  0.69590500  0.34546500  1
  P  P32  1  0.77560800  0.08579800  0.34087300  1
  P  P33  1  0.91781200  0.22153100  0.84159100  1
  O  O34  1  0.01092200  0.79881300  0.42915000  1
  O  O35  1  0.08573700  0.74638300  0.66211700  1
  O  O36  1  0.22412200  0.01665000  0.93445100  1
  O  O37  1  0.25462400  0.92244200  0.15543200  1
  O  O38  1  0.09965800  0.62935300  0.16664400  1
  O  O39  1  0.18985900  0.66848200  0.82461500  1
  O  O40  1  0.08873400  0.46869800  0.66760700  1
  O  O41  1  0.00671500  0.19788700  0.92263800  1
  O  O42  1  0.08182500  0.34173200  0.15954800  1
  O  O43  1  0.32788800  0.81372300  0.32701200  1
  O  O44  1  0.38269800  0.91749500  0.67382600  1
  O  O45  1  0.18935800  0.51557900  0.32735900  1
  O  O46  1  0.33121900  0.65859100  0.97854600  1
  O  O47  1  0.33724300  0.67151600  0.47684400  1
  O  O48  1  0.32524700  0.51059200  0.83166600  1
  O  O49  1  0.51894500  0.89047400  0.16998600  1
  O  O50  1  0.48758300  0.81134000  0.83467900  1
  O  O51  1  0.25360600  0.33521900  0.65862400  1
  O  O52  1  0.20598600  0.20636300  0.25006400  1
  O  O53  1  0.22774100  0.22894000  0.43295000  1
  O  O54  1  0.23126900  0.23281500  0.06966000  1
  O  O55  1  0.37398700  0.48019000  0.17294600  1
  O  O56  1  0.48951300  0.67521500  0.33022800  1
  O  O57  1  0.34227000  0.26204600  0.83817800  1
  O  O58  1  0.53017000  0.62084300  0.66781700  1
  O  O59  1  0.65769100  0.91933500  0.65976900  1
  O  O60  1  0.20427200  0.00395200  0.75200500  1
  O  O61  1  0.22255000  0.00136000  0.57121800  1
  O  O62  1  0.77323600  0.99639300  0.43007600  1
  O  O63  1  0.33748900  0.08266600  0.34336900  1
  O  O64  1  0.46990900  0.38104400  0.33076100  1
  O  O65  1  0.66342100  0.73882000  0.15988300  1
  O  O66  1  0.51347400  0.32419200  0.66921600  1
  O  O67  1  0.61998000  0.53436000  0.82745500  1
  O  O68  1  0.77699900  0.77866300  0.92901100  1
  O  O69  1  0.77473700  0.78843700  0.56651800  1
  O  O70  1  0.79501900  0.79931900  0.74833100  1
  O  O71  1  0.74998800  0.66489700  0.34316700  1
  O  O72  1  0.51285800  0.18211100  0.17089000  1
  O  O73  1  0.46876000  0.09093300  0.83282900  1
  O  O74  1  0.66627800  0.48332700  0.17182600  1
  O  O75  1  0.65612700  0.33407600  0.02304500  1
  O  O76  1  0.66773900  0.32765600  0.52387600  1
  O  O77  1  0.81203100  0.47799500  0.67947100  1
  O  O78  1  0.62054300  0.08900200  0.32812400  1
  O  O79  1  0.67704200  0.18612100  0.67126900  1
  O  O80  1  0.91635900  0.66231500  0.83897100  1
  O  O81  1  0.00362500  0.79866200  0.25054000  1
  O  O82  1  0.99017000  0.78436300  0.07168900  1
  O  O83  1  0.92573900  0.54201600  0.33518500  1
  O  O84  1  0.81020100  0.33499900  0.17638700  1
  O  O85  1  0.92178400  0.37846000  0.83634600  1
  O  O86  1  0.74443600  0.08147300  0.83994100  1
  O  O87  1  0.76405600  0.98572000  0.06420000  1
  O  O88  1  0.79372500  0.99857600  0.24721400  1
  O  O89  1  0.91882400  0.25319600  0.34086000  1
  O  O90  1  0.00082500  0.22365900  0.56487700  1
  O  O91  1  0.99142700  0.19756000  0.74313600  1
