# generated using pymatgen
data_Li4Co2Si3O10
_symmetry_space_group_name_H-M   'P 1'
_cell_length_a   5.36194098
_cell_length_b   5.36194098
_cell_length_c   17.08429102
_cell_angle_alpha   82.51298227
_cell_angle_beta   82.51298227
_cell_angle_gamma   60.60825902
_symmetry_Int_Tables_number   1
_chemical_formula_structural   Li4Co2Si3O10
_chemical_formula_sum   'Li8 Co4 Si6 O20'
_cell_volume   423.05579869
_cell_formula_units_Z   2
loop_
 _symmetry_equiv_pos_site_id
 _symmetry_equiv_pos_as_xyz
  1  'x, y, z'
loop_
 _atom_site_type_symbol
 _atom_site_label
 _atom_site_symmetry_multiplicity
 _atom_site_fract_x
 _atom_site_fract_y
 _atom_site_fract_z
 _atom_site_occupancy
  Li  Li0  1  0.82717000  0.68421200  0.94836200  1
  Li  Li1  1  0.57869300  0.78594600  0.77146900  1
  Li  Li2  1  0.68421200  0.82717000  0.44836200  1
  Li  Li3  1  0.78594600  0.57869300  0.27146900  1
  Li  Li4  1  0.21405400  0.42130700  0.72853100  1
  Li  Li5  1  0.31578800  0.17283000  0.55163800  1
  Li  Li6  1  0.42130700  0.21405400  0.22853100  1
  Li  Li7  1  0.17283000  0.31578800  0.05163800  1
  Co  Co8  1  0.18777900  0.01898500  0.91340200  1
  Co  Co9  1  0.01898500  0.18777900  0.41340200  1
  Co  Co10  1  0.98101500  0.81222100  0.58659800  1
  Co  Co11  1  0.81222100  0.98101500  0.08659800  1
  Si  Si12  1  0.66217800  0.46730400  0.59760900  1
  Si  Si13  1  0.88149600  0.11850400  0.75000000  1
  Si  Si14  1  0.53269600  0.33782200  0.90239100  1
  Si  Si15  1  0.46730400  0.66217800  0.09760900  1
  Si  Si16  1  0.11850400  0.88149600  0.25000000  1
  Si  Si17  1  0.33782200  0.53269600  0.40239100  1
  O  O18  1  0.91759100  0.84148500  0.71112100  1
  O  O19  1  0.84148500  0.91759100  0.21112100  1
  O  O20  1  0.63155600  0.77945000  0.56472000  1
  O  O21  1  0.54856100  0.63868500  0.89280500  1
  O  O22  1  0.77713000  0.41380500  0.68855900  1
  O  O23  1  0.79249800  0.07561800  0.95164000  1
  O  O24  1  0.92438200  0.20750200  0.54836000  1
  O  O25  1  0.77945000  0.63155600  0.06472000  1
  O  O26  1  0.63868500  0.54856100  0.39280500  1
  O  O27  1  0.58619500  0.22287000  0.81144100  1
  O  O28  1  0.41380500  0.77713000  0.18855900  1
  O  O29  1  0.36131500  0.45143900  0.60719500  1
  O  O30  1  0.22055000  0.36844400  0.93528000  1
  O  O31  1  0.07561800  0.79249800  0.45164000  1
  O  O32  1  0.20750200  0.92438200  0.04836000  1
  O  O33  1  0.22287000  0.58619500  0.31144100  1
  O  O34  1  0.45143900  0.36131500  0.10719500  1
  O  O35  1  0.36844400  0.22055000  0.43528000  1
  O  O36  1  0.15851500  0.08240900  0.78887900  1
  O  O37  1  0.08240900  0.15851500  0.28887900  1
