# generated using pymatgen
data_Li3MnV(PO4)3
_symmetry_space_group_name_H-M   'P 1'
_cell_length_a   10.28342120
_cell_length_b   10.28342120
_cell_length_c   10.28342120
_cell_angle_alpha   109.47122063
_cell_angle_beta   109.47122063
_cell_angle_gamma   109.47122063
_symmetry_Int_Tables_number   1
_chemical_formula_structural   Li3MnV(PO4)3
_chemical_formula_sum   'Li12 Mn4 V4 P12 O48'
_cell_volume   837.12629382
_cell_formula_units_Z   4
loop_
 _symmetry_equiv_pos_site_id
 _symmetry_equiv_pos_as_xyz
  1  'x, y, z'
loop_
 _atom_site_type_symbol
 _atom_site_label
 _atom_site_symmetry_multiplicity
 _atom_site_fract_x
 _atom_site_fract_y
 _atom_site_fract_z
 _atom_site_occupancy
  Li  Li0  1  0.25000000  0.87223300  0.62223300  1
  Li  Li1  1  0.12223300  0.25000000  0.37223300  1
  Li  Li2  1  0.12776700  0.37776700  0.75000000  1
  Li  Li3  1  0.62223300  0.25000000  0.87223300  1
  Li  Li4  1  0.37223300  0.12223300  0.25000000  1
  Li  Li5  1  0.25000000  0.37223300  0.12223300  1
  Li  Li6  1  0.75000000  0.62776700  0.87776700  1
  Li  Li7  1  0.62776700  0.87776700  0.75000000  1
  Li  Li8  1  0.37776700  0.75000000  0.12776700  1
  Li  Li9  1  0.87223300  0.62223300  0.25000000  1
  Li  Li10  1  0.87776700  0.75000000  0.62776700  1
  Li  Li11  1  0.75000000  0.12776700  0.37776700  1
  Mn  Mn12  1  0.00000000  0.50000000  0.50000000  1
  Mn  Mn13  1  0.00000000  0.00000000  0.00000000  1
  Mn  Mn14  1  0.50000000  0.50000000  0.00000000  1
  Mn  Mn15  1  0.50000000  0.00000000  0.50000000  1
  V  V16  1  0.00000000  0.00000000  0.50000000  1
  V  V17  1  0.00000000  0.50000000  0.00000000  1
  V  V18  1  0.50000000  0.00000000  0.00000000  1
  V  V19  1  0.50000000  0.50000000  0.50000000  1
  P  P20  1  0.12395500  0.87395500  0.25000000  1
  P  P21  1  0.12604500  0.75000000  0.87604500  1
  P  P22  1  0.37395500  0.25000000  0.62395500  1
  P  P23  1  0.25000000  0.12395500  0.87395500  1
  P  P24  1  0.25000000  0.62395500  0.37395500  1
  P  P25  1  0.37604500  0.62604500  0.75000000  1
  P  P26  1  0.62395500  0.37395500  0.25000000  1
  P  P27  1  0.75000000  0.87604500  0.12604500  1
  P  P28  1  0.75000000  0.37604500  0.62604500  1
  P  P29  1  0.62604500  0.75000000  0.37604500  1
  P  P30  1  0.87395500  0.25000000  0.12395500  1
  P  P31  1  0.87604500  0.12604500  0.75000000  1
  O  O32  1  0.10936200  0.61375200  0.39951700  1
  O  O33  1  0.11375200  0.00439000  0.21423500  1
  O  O34  1  0.00439000  0.21423500  0.11375200  1
  O  O35  1  0.08256500  0.88004200  0.38758500  1
  O  O36  1  0.10048300  0.71423500  0.70984500  1
  O  O37  1  0.11241500  0.99245700  0.69498000  1
  O  O38  1  0.19498000  0.20252300  0.58256500  1
  O  O39  1  0.39951700  0.10936200  0.61375200  1
  O  O40  1  0.38004200  0.29747700  0.49245700  1
  O  O41  1  0.29747700  0.49245700  0.38004200  1
  O  O42  1  0.30502000  0.88758500  0.00754300  1
  O  O43  1  0.00754300  0.30502000  0.88758500  1
  O  O44  1  0.20984500  0.49561000  0.60936200  1
  O  O45  1  0.21423500  0.11375200  0.00439000  1
  O  O46  1  0.38758500  0.08256500  0.88004200  1
  O  O47  1  0.28576500  0.29015500  0.89951700  1
  O  O48  1  0.29015500  0.89951700  0.28576500  1
  O  O49  1  0.11995800  0.61241500  0.91743500  1
  O  O50  1  0.50439000  0.39063800  0.79015500  1
  O  O51  1  0.39063800  0.79015500  0.50439000  1
  O  O52  1  0.50754300  0.61995800  0.70252300  1
  O  O53  1  0.38624800  0.60048300  0.89063800  1
  O  O54  1  0.58256500  0.19498000  0.20252300  1
  O  O55  1  0.20252300  0.58256500  0.19498000  1
  O  O56  1  0.79747700  0.41743500  0.80502000  1
  O  O57  1  0.41743500  0.80502000  0.79747700  1
  O  O58  1  0.61375200  0.39951700  0.10936200  1
  O  O59  1  0.49245700  0.38004200  0.29747700  1
  O  O60  1  0.60936200  0.20984500  0.49561000  1
  O  O61  1  0.49561000  0.60936200  0.20984500  1
  O  O62  1  0.88004200  0.38758500  0.08256500  1
  O  O63  1  0.70984500  0.10048300  0.71423500  1
  O  O64  1  0.71423500  0.70984500  0.10048300  1
  O  O65  1  0.61241500  0.91743500  0.11995800  1
  O  O66  1  0.78576500  0.88624800  0.99561000  1
  O  O67  1  0.79015500  0.50439000  0.39063800  1
  O  O68  1  0.99245700  0.69498000  0.11241500  1
  O  O69  1  0.69498000  0.11241500  0.99245700  1
  O  O70  1  0.70252300  0.50754300  0.61995800  1
  O  O71  1  0.61995800  0.70252300  0.50754300  1
  O  O72  1  0.60048300  0.89063800  0.38624800  1
  O  O73  1  0.80502000  0.79747700  0.41743500  1
  O  O74  1  0.88758500  0.00754300  0.30502000  1
  O  O75  1  0.89951700  0.28576500  0.29015500  1
  O  O76  1  0.91743500  0.11995800  0.61241500  1
  O  O77  1  0.99561000  0.78576500  0.88624800  1
  O  O78  1  0.88624800  0.99561000  0.78576500  1
  O  O79  1  0.89063800  0.38624800  0.60048300  1
