# generated using pymatgen
data_Li8Mn5Fe3(BO3)8
_symmetry_space_group_name_H-M   'P 1'
_cell_length_a   5.24592000
_cell_length_b   6.04324855
_cell_length_c   16.21761172
_cell_angle_alpha   81.77089861
_cell_angle_beta   89.24588723
_cell_angle_gamma   89.01085003
_symmetry_Int_Tables_number   1
_chemical_formula_structural   Li8Mn5Fe3(BO3)8
_chemical_formula_sum   'Li8 Mn5 Fe3 B8 O24'
_cell_volume   508.73794005
_cell_formula_units_Z   1
loop_
 _symmetry_equiv_pos_site_id
 _symmetry_equiv_pos_as_xyz
  1  'x, y, z'
loop_
 _atom_site_type_symbol
 _atom_site_label
 _atom_site_symmetry_multiplicity
 _atom_site_fract_x
 _atom_site_fract_y
 _atom_site_fract_z
 _atom_site_occupancy
  Li  Li0  1  0.84840900  0.06648400  0.38994900  1
  Li  Li1  1  0.15051400  0.43393700  0.11098600  1
  Li  Li2  1  0.65145800  0.18813900  0.85834700  1
  Li  Li3  1  0.34917400  0.31286600  0.64075900  1
  Li  Li4  1  0.64886000  0.68592700  0.35860800  1
  Li  Li5  1  0.35042300  0.81216400  0.14171600  1
  Li  Li6  1  0.84685900  0.56456400  0.88985600  1
  Li  Li7  1  0.15134400  0.93417900  0.60907900  1
  Mn  Mn8  1  0.66931900  0.27006300  0.04108700  1
  Mn  Mn9  1  0.16680200  0.02307100  0.78988800  1
  Mn  Mn10  1  0.33061500  0.22785400  0.45913900  1
  Mn  Mn11  1  0.66851200  0.77185200  0.54127200  1
  Mn  Mn12  1  0.33211000  0.72554700  0.96055900  1
  Fe  Fe13  1  0.16889200  0.52902900  0.28818100  1
  Fe  Fe14  1  0.83847200  0.47468200  0.70964100  1
  Fe  Fe15  1  0.83545400  0.96798300  0.21205600  1
  B  B16  1  0.32921100  0.03961000  0.29589900  1
  B  B17  1  0.83043200  0.28540200  0.54879100  1
  B  B18  1  0.67161500  0.46150800  0.20414000  1
  B  B19  1  0.16979100  0.21537600  0.95217700  1
  B  B20  1  0.83167400  0.78455000  0.04901000  1
  B  B21  1  0.32924800  0.53805600  0.79629700  1
  B  B22  1  0.16771700  0.71541400  0.45107000  1
  B  B23  1  0.67036800  0.96287500  0.70274800  1
  O  O24  1  0.58956300  0.01466300  0.30735100  1
  O  O25  1  0.18360200  0.17237500  0.34330300  1
  O  O26  1  0.71138100  0.17182300  0.49140800  1
  O  O27  1  0.28778700  0.33110000  0.00929100  1
  O  O28  1  0.78685000  0.08103500  0.75909400  1
  O  O29  1  0.81530100  0.32739000  0.15688100  1
  O  O30  1  0.31905300  0.08200300  0.90544700  1
  O  O31  1  0.09060200  0.26348000  0.56104200  1
  O  O32  1  0.40940900  0.48582900  0.19305300  1
  O  O33  1  0.90987900  0.23733900  0.93890300  1
  O  O34  1  0.68264600  0.41735100  0.59673900  1
  O  O35  1  0.20635600  0.42474600  0.73931100  1
  O  O36  1  0.79226400  0.58035700  0.25966000  1
  O  O37  1  0.31355700  0.58284900  0.40311300  1
  O  O38  1  0.09186600  0.76241600  0.06195000  1
  O  O39  1  0.58907600  0.51390400  0.80746700  1
  O  O40  1  0.90725100  0.73801400  0.43879200  1
  O  O41  1  0.68387200  0.91620400  0.09675600  1
  O  O42  1  0.18231400  0.66875400  0.84462800  1
  O  O43  1  0.20768500  0.92364200  0.23928300  1
  O  O44  1  0.71375100  0.67085500  0.99147800  1
  O  O45  1  0.28827100  0.82915800  0.50806300  1
  O  O46  1  0.81991300  0.82796700  0.65672900  1
  O  O47  1  0.41048100  0.98561200  0.68900400  1
