# generated using pymatgen
data_Li4V2Si(PO6)2
_symmetry_space_group_name_H-M   'P 1'
_cell_length_a   8.49436464
_cell_length_b   8.49436464
_cell_length_c   8.51281819
_cell_angle_alpha   63.92268683
_cell_angle_beta   63.92268683
_cell_angle_gamma   63.97570357
_symmetry_Int_Tables_number   1
_chemical_formula_structural   Li4V2Si(PO6)2
_chemical_formula_sum   'Li8 V4 Si2 P4 O24'
_cell_volume   472.04035159
_cell_formula_units_Z   2
loop_
 _symmetry_equiv_pos_site_id
 _symmetry_equiv_pos_as_xyz
  1  'x, y, z'
loop_
 _atom_site_type_symbol
 _atom_site_label
 _atom_site_symmetry_multiplicity
 _atom_site_fract_x
 _atom_site_fract_y
 _atom_site_fract_z
 _atom_site_occupancy
  Li  Li0  1  0.83217600  0.73532700  0.66125900  1
  Li  Li1  1  0.73532700  0.83217600  0.16125900  1
  Li  Li2  1  0.51264000  0.98396100  0.50582200  1
  Li  Li3  1  0.66830700  0.35258900  0.25559000  1
  Li  Li4  1  0.35258900  0.66830700  0.75559000  1
  Li  Li5  1  0.25752300  0.15588100  0.83881400  1
  Li  Li6  1  0.98396100  0.51264000  0.00582200  1
  Li  Li7  1  0.15588100  0.25752300  0.33881400  1
  V  V8  1  0.85665900  0.36074600  0.85733000  1
  V  V9  1  0.36074600  0.85665900  0.35733000  1
  V  V10  1  0.64507700  0.14100900  0.63837200  1
  V  V11  1  0.14100900  0.64507700  0.13837200  1
  Si  Si12  1  0.54756100  0.74967400  0.95589600  1
  Si  Si13  1  0.74967400  0.54756100  0.45589600  1
  P  P14  1  0.95391600  0.04539800  0.24817400  1
  P  P15  1  0.25170100  0.44980200  0.54604700  1
  P  P16  1  0.04539800  0.95391600  0.74817400  1
  P  P17  1  0.44980200  0.25170100  0.04604700  1
  O  O18  1  0.98641100  0.88728500  0.18487300  1
  O  O19  1  0.88728500  0.98641100  0.68487300  1
  O  O20  1  0.57288700  0.90805200  0.75104300  1
  O  O21  1  0.74862500  0.58593900  0.94177200  1
  O  O22  1  0.37408300  0.69453700  0.98266500  1
  O  O23  1  0.51710600  0.81298000  0.12504200  1
  O  O24  1  0.93715500  0.23562200  0.09352200  1
  O  O25  1  0.90805200  0.57288700  0.25104300  1
  O  O26  1  0.58593900  0.74862500  0.44177200  1
  O  O27  1  0.69453700  0.37408300  0.48266500  1
  O  O28  1  0.81298000  0.51710600  0.62504200  1
  O  O29  1  0.76135500  0.06621600  0.39782200  1
  O  O30  1  0.23562200  0.93715500  0.59352200  1
  O  O31  1  0.18790300  0.47963700  0.38886400  1
  O  O32  1  0.31284500  0.60966400  0.51360500  1
  O  O33  1  0.40690000  0.25907700  0.56294200  1
  O  O34  1  0.10341900  0.42502000  0.74000000  1
  O  O35  1  0.06621600  0.76135500  0.89782200  1
  O  O36  1  0.47963700  0.18790300  0.88886400  1
  O  O37  1  0.60966400  0.31284500  0.01360500  1
  O  O38  1  0.25907700  0.40690000  0.06294200  1
  O  O39  1  0.42502000  0.10341900  0.24000000  1
  O  O40  1  0.11216500  0.01516900  0.31054800  1
  O  O41  1  0.01516900  0.11216500  0.81054800  1
