# generated using pymatgen
data_Li2Cu3(CO3)3
_symmetry_space_group_name_H-M   'P 1'
_cell_length_a   14.24198095
_cell_length_b   14.25777052
_cell_length_c   6.27768130
_cell_angle_alpha   89.44511454
_cell_angle_beta   90.52417135
_cell_angle_gamma   120.26532230
_symmetry_Int_Tables_number   1
_chemical_formula_structural   Li2Cu3(CO3)3
_chemical_formula_sum   'Li12 Cu18 C18 O54'
_cell_volume   1100.92799243
_cell_formula_units_Z   6
loop_
 _symmetry_equiv_pos_site_id
 _symmetry_equiv_pos_as_xyz
  1  'x, y, z'
loop_
 _atom_site_type_symbol
 _atom_site_label
 _atom_site_symmetry_multiplicity
 _atom_site_fract_x
 _atom_site_fract_y
 _atom_site_fract_z
 _atom_site_occupancy
  Li  Li0  1  0.09632426  0.88057145  0.25591361  1
  Li  Li1  1  0.11710788  0.56341636  0.74354174  1
  Li  Li2  1  0.11840554  0.21477931  0.75552709  1
  Li  Li3  1  0.43495535  0.55403593  0.72779357  1
  Li  Li4  1  0.43475944  0.55360438  0.22758303  1
  Li  Li5  1  0.45353007  0.25031656  0.75132143  1
  Li  Li6  1  0.78733648  0.90657750  0.74594557  1
  Li  Li7  1  0.78757947  0.90611302  0.24615506  1
  Li  Li8  1  0.80005825  0.54604432  0.74377530  1
  Li  Li9  1  0.79967132  0.54635717  0.24360845  1
  Li  Li10  1  0.74623460  0.20113137  0.75217422  1
  Li  Li11  1  0.74727446  0.20251220  0.25179992  1
  Cu  Cu12  1  0.23955849  0.79358852  0.53502936  1
  Cu  Cu13  1  0.23855385  0.79063986  0.03089524  1
  Cu  Cu14  1  0.20653930  0.44382897  0.48994135  1
  Cu  Cu15  1  0.20682677  0.44464084  0.02011562  1
  Cu  Cu16  1  0.22534318  0.10792978  0.50516549  1
  Cu  Cu17  1  0.22677554  0.10923587  0.00936305  1
  Cu  Cu18  1  0.54767062  0.77352524  0.97162732  1
  Cu  Cu19  1  0.54713440  0.77334969  0.46805012  1
  Cu  Cu20  1  0.56649941  0.46152276  0.98954680  1
  Cu  Cu21  1  0.56508497  0.46008848  0.47786696  1
  Cu  Cu22  1  0.52640951  0.09529299  0.51072937  1
  Cu  Cu23  1  0.52663452  0.09591698  0.02241448  1
  Cu  Cu24  1  0.88685730  0.77499419  0.98740823  1
  Cu  Cu25  1  0.88673351  0.77426911  0.49643168  1
  Cu  Cu26  1  0.90149024  0.43304376  0.00181190  1
  Cu  Cu27  1  0.90036307  0.43226742  0.47830859  1
  Cu  Cu28  1  0.89534402  0.11922903  0.49594538  1
  Cu  Cu29  1  0.89607494  0.11928831  0.01392283  1
  C  C30  1  0.00928931  0.66455043  0.50249059  1
  C  C31  1  0.00938279  0.66515368  0.00051812  1
  C  C32  1  0.33161155  0.66597302  0.99485808  1
  C  C33  1  0.33144838  0.66603676  0.50361470  1
  C  C34  1  0.65946766  0.99552713  0.50333405  1
  C  C35  1  0.33174561  0.34316027  0.98677778  1
  C  C36  1  0.65940265  0.99575344  0.00325158  1
  C  C37  1  0.33099019  0.34218895  0.50430246  1
  C  C38  1  0.33102766  0.01125154  0.76407901  1
  C  C39  1  0.32843240  0.00616017  0.26325206  1
  C  C40  1  0.67797174  0.66773823  0.73500474  1
  C  C41  1  0.67765265  0.66808312  0.23537558  1
  C  C42  1  0.66639822  0.33195678  0.99385024  1
  C  C43  1  0.66621757  0.33194634  0.50389425  1
  C  C44  1  0.00027461  0.00004983  0.50273179  1
  C  C45  1  0.00035274  -0.00007882  0.00182557  1
  C  C46  1  0.98762956  0.32036767  0.75193834  1
  C  C47  1  0.98719810  0.31979802  0.25175000  1
  O  O48  1  0.01773141  0.92063129  0.47908238  1
  O  O49  1  0.01734650  0.91979433  0.02118706  1
  O  O50  1  0.09033923  0.76255054  0.51157871  1
  O  O51  1  0.08940293  0.76058042  0.04553550  1
  O  O52  1  0.02391320  0.58421380  0.96655346  1
  O  O53  1  0.02234955  0.58135487  0.51491681  1
  O  O54  1  0.32129053  0.91754631  0.77744679  1
  O  O55  1  0.07921564  0.40933910  0.75105307  1
  O  O56  1  0.31692022  0.91142757  0.27618440  1
  O  O57  1  0.07979784  0.40629523  0.25258758  1
  O  O58  1  0.23154520  0.58866711  0.51642142  1
  O  O59  1  0.23110409  0.58959227  0.98746562  1
  O  O60  1  0.35911325  0.76530090  0.52551656  1
  O  O61  1  0.35920452  0.76494502  0.02219600  1
  O  O62  1  0.07962238  0.09819827  0.52505491  1
  O  O63  1  0.07988123  0.09851854  0.99148689  1
  O  O64  1  0.56413297  0.97993308  0.51710851  1
  O  O65  1  0.56397971  0.98020009  0.01805979  1
  O  O66  1  0.23463941  0.32785051  0.53423546  1
  O  O67  1  0.23453672  0.32760062  0.00646474  1
  O  O68  1  0.40869544  0.64081876  0.97414610  1
  O  O69  1  0.40783205  0.64104159  0.46950737  1
  O  O70  1  0.41649390  0.44244617  0.98696677  1
  O  O71  1  0.41467107  0.44137453  0.48157684  1
  O  O72  1  0.67634026  0.91355193  0.97373075  1
  O  O73  1  0.67644926  0.91328210  0.47415441  1
  O  O74  1  0.34562984  0.26123790  0.96303843  1
  O  O75  1  0.34589416  0.26020775  0.50188563  1
  O  O76  1  0.24702025  0.02535629  0.75614115  1
  O  O77  1  0.24121360  0.01725865  0.25533275  1
  O  O78  1  0.58905385  0.66971516  0.72808160  1
  O  O79  1  0.58828193  0.66918940  0.22898248  1
  O  O80  1  0.42962498  0.09952589  0.75915480  1
  O  O81  1  0.42446499  0.09323840  0.25891605  1
  O  O82  1  0.67727972  0.57551522  0.73727106  1
  O  O83  1  0.77180213  0.75952053  0.73985603  1
  O  O84  1  0.67658641  0.57503894  0.23744838  1
  O  O85  1  0.77087165  0.75906632  0.23969544  1
  O  O86  1  0.89948319  0.98075528  0.99318571  1
  O  O87  1  0.57351094  0.32538521  0.51968621  1
  O  O88  1  0.89943681  0.98068857  0.50323487  1
  O  O89  1  0.57336313  0.32520593  0.98315421  1
  O  O90  1  0.75538742  0.42730325  0.99761842  1
  O  O91  1  0.75505617  0.42724336  0.49246491  1
  O  O92  1  0.67357441  0.24421923  0.50038747  1
  O  O93  1  0.67369365  0.24413441  0.00011203  1
  O  O94  1  0.90985271  0.64899328  0.98974754  1
  O  O95  1  0.90996411  0.64827859  0.48119437  1
  O  O96  1  0.74467811  0.09332009  0.51835191  1
  O  O97  1  0.74475593  0.09362342  0.01761792  1
  O  O98  1  0.89650838  0.32198961  0.74985112  1
  O  O99  1  0.89699313  0.32618078  0.24791435  1
  O  O100  1  0.98496181  0.22709971  0.75485212  1
  O  O101  1  0.97674596  0.22383197  0.25414143  1
