# generated using pymatgen
data_Li8Mn9O18
_symmetry_space_group_name_H-M   'P 1'
_cell_length_a   6.54537900
_cell_length_b   6.54711249
_cell_length_c   16.38282520
_cell_angle_alpha   85.49534643
_cell_angle_beta   85.56666760
_cell_angle_gamma   82.53534701
_symmetry_Int_Tables_number   1
_chemical_formula_structural   Li8Mn9O18
_chemical_formula_sum   'Li16 Mn18 O36'
_cell_volume   692.35797852
_cell_formula_units_Z   2
loop_
 _symmetry_equiv_pos_site_id
 _symmetry_equiv_pos_as_xyz
  1  'x, y, z'
loop_
 _atom_site_type_symbol
 _atom_site_label
 _atom_site_symmetry_multiplicity
 _atom_site_fract_x
 _atom_site_fract_y
 _atom_site_fract_z
 _atom_site_occupancy
  Li  Li0  1  0.08782200  0.41595400  0.24786800  1
  Li  Li1  1  0.08438700  0.42430000  0.58067100  1
  Li  Li2  1  0.08053200  0.40895300  0.92215100  1
  Li  Li3  1  0.26523200  0.24660900  0.41375800  1
  Li  Li4  1  0.24782600  0.24773600  0.74736700  1
  Li  Li5  1  0.41841700  0.08155500  0.25313400  1
  Li  Li6  1  0.42797800  0.08754700  0.57468300  1
  Li  Li7  1  0.40787000  0.08044900  0.92346100  1
  Li  Li8  1  0.56793500  0.92904600  0.08637000  1
  Li  Li9  1  0.74567500  0.75217900  0.25146100  1
  Li  Li10  1  0.57654500  0.91058600  0.75767300  1
  Li  Li11  1  0.75699900  0.76273500  0.57155200  1
  Li  Li12  1  0.92800900  0.56808300  0.08638400  1
  Li  Li13  1  0.90895200  0.60287800  0.40839400  1
  Li  Li14  1  0.74591600  0.74566300  0.92404600  1
  Li  Li15  1  0.91067000  0.57977100  0.75584700  1
  Mn  Mn16  1  0.50754800  0.51187300  0.49898200  1
  Mn  Mn17  1  0.83068700  0.16216300  0.83480000  1
  Mn  Mn18  1  0.99892600  0.99991200  0.66544100  1
  Mn  Mn19  1  0.99681800  0.99675900  0.00303200  1
  Mn  Mn20  1  0.99854000  0.99987800  0.33329700  1
  Mn  Mn21  1  0.16926700  0.83650900  0.16775400  1
  Mn  Mn22  1  0.32770500  0.66035000  0.00091900  1
  Mn  Mn23  1  0.18328600  0.84427200  0.49604000  1
  Mn  Mn24  1  0.33804600  0.66879900  0.33327800  1
  Mn  Mn25  1  0.16212500  0.83019200  0.83466800  1
  Mn  Mn26  1  0.50087200  0.49978500  0.16565900  1
  Mn  Mn27  1  0.32769200  0.66639600  0.66766000  1
  Mn  Mn28  1  0.66112100  0.32775400  0.00092500  1
  Mn  Mn29  1  0.66445000  0.32780600  0.33338300  1
  Mn  Mn30  1  0.49648100  0.49607300  0.83393500  1
  Mn  Mn31  1  0.66468800  0.32973200  0.66757900  1
  Mn  Mn32  1  0.83596500  0.16854300  0.16803300  1
  Mn  Mn33  1  0.83959800  0.17815300  0.49638100  1
  O  O34  1  0.10259200  0.10037600  0.22316000  1
  O  O35  1  0.05067800  0.71946900  0.29959700  1
  O  O36  1  0.12069500  0.12272300  0.53439400  1
  O  O37  1  0.21855900  0.55889000  0.13104600  1
  O  O38  1  0.04436200  0.72067900  0.62890100  1
  O  O39  1  0.11247700  0.11182200  0.87022000  1
  O  O40  1  0.28110900  0.93988900  0.03547600  1
  O  O41  1  0.04714200  0.71318800  0.96491100  1
  O  O42  1  0.22507900  0.56117600  0.46362900  1
  O  O43  1  0.27623600  0.95351400  0.36673900  1
  O  O44  1  0.38268800  0.38510000  0.29683800  1
  O  O45  1  0.21579400  0.54698700  0.79896900  1
  O  O46  1  0.27752900  0.94429600  0.70535200  1
  O  O47  1  0.45121200  0.78431800  0.20246000  1
  O  O48  1  0.38300200  0.38430600  0.63349200  1
  O  O49  1  0.55931100  0.21949200  0.12965000  1
  O  O50  1  0.61033000  0.61068000  0.03455400  1
  O  O51  1  0.44939100  0.78017900  0.54674500  1
  O  O52  1  0.39647900  0.39587100  0.94415300  1
  O  O53  1  0.55655000  0.23216800  0.46548100  1
  O  O54  1  0.61929500  0.60674500  0.36753300  1
  O  O55  1  0.44774800  0.77641700  0.86790500  1
  O  O56  1  0.72442200  0.05324700  0.29286500  1
  O  O57  1  0.54806000  0.21595300  0.79821300  1
  O  O58  1  0.78579700  0.45207900  0.20089200  1
  O  O59  1  0.59790600  0.59757200  0.72203000  1
  O  O60  1  0.72096300  0.05196800  0.62584700  1
  O  O61  1  0.94156000  0.28106900  0.03443800  1
  O  O62  1  0.78598600  0.45824900  0.53877000  1
  O  O63  1  0.71322800  0.04732900  0.96467100  1
  O  O64  1  0.88923300  0.88815700  0.13095200  1
  O  O65  1  0.95017600  0.28010700  0.36831100  1
  O  O66  1  0.77735700  0.44762500  0.86752000  1
  O  O67  1  0.91051000  0.90242900  0.44858800  1
  O  O68  1  0.94484500  0.28060500  0.70321300  1
  O  O69  1  0.88037400  0.88178100  0.79794700  1
