# generated using pymatgen
data_Li4V(PO4)2
_symmetry_space_group_name_H-M   'P 1'
_cell_length_a   10.35666500
_cell_length_b   8.31851200
_cell_length_c   8.50604949
_cell_angle_alpha   72.12363790
_cell_angle_beta   90.00000000
_cell_angle_gamma   90.00000000
_symmetry_Int_Tables_number   1
_chemical_formula_structural   Li4V(PO4)2
_chemical_formula_sum   'Li16 V4 P8 O32'
_cell_volume   697.43412150
_cell_formula_units_Z   4
loop_
 _symmetry_equiv_pos_site_id
 _symmetry_equiv_pos_as_xyz
  1  'x, y, z'
loop_
 _atom_site_type_symbol
 _atom_site_label
 _atom_site_symmetry_multiplicity
 _atom_site_fract_x
 _atom_site_fract_y
 _atom_site_fract_z
 _atom_site_occupancy
  Li  Li0  1  0.65992400  0.39992600  0.10249500  1
  Li  Li1  1  0.16043600  0.34725700  0.15924700  1
  Li  Li2  1  0.33817000  0.84237300  0.14231400  1
  Li  Li3  1  0.42641100  0.51640500  0.24087700  1
  Li  Li4  1  0.92641100  0.48359500  0.25912300  1
  Li  Li5  1  0.83817000  0.15762700  0.35768600  1
  Li  Li6  1  0.66043600  0.65274300  0.34075300  1
  Li  Li7  1  0.15992400  0.60007400  0.39750500  1
  Li  Li8  1  0.84007600  0.39992600  0.60249500  1
  Li  Li9  1  0.33956400  0.34725700  0.65924700  1
  Li  Li10  1  0.16183000  0.84237300  0.64231400  1
  Li  Li11  1  0.07358900  0.51640500  0.74087700  1
  Li  Li12  1  0.57358900  0.48359500  0.75912300  1
  Li  Li13  1  0.66183000  0.15762700  0.85768600  1
  Li  Li14  1  0.83956400  0.65274300  0.84075300  1
  Li  Li15  1  0.34007600  0.60007400  0.89750500  1
  V  V16  1  0.85611800  0.88019900  0.12792700  1
  V  V17  1  0.35611800  0.11980100  0.37207300  1
  V  V18  1  0.64388200  0.88019900  0.62792700  1
  V  V19  1  0.14388200  0.11980100  0.87207300  1
  P  P20  1  0.41575800  0.22276900  0.03640900  1
  P  P21  1  0.09227200  0.71025200  0.01749200  1
  P  P22  1  0.59227200  0.28974800  0.48250800  1
  P  P23  1  0.08424200  0.22276900  0.53640900  1
  P  P24  1  0.91575800  0.77723100  0.46359100  1
  P  P25  1  0.40772800  0.71025200  0.51749200  1
  P  P26  1  0.90772800  0.28974800  0.98250800  1
  P  P27  1  0.58424200  0.77723100  0.96359100  1
  O  O28  1  0.05452800  0.25528000  0.01878000  1
  O  O29  1  0.35659100  0.34563800  0.12806200  1
  O  O30  1  0.41605900  0.04457200  0.16832600  1
  O  O31  1  0.44773600  0.71439500  0.02630900  1
  O  O32  1  0.84490000  0.34210900  0.12592300  1
  O  O33  1  0.16042000  0.86931800  0.03911800  1
  O  O34  1  0.67226600  0.78043000  0.10839800  1
  O  O35  1  0.10580300  0.56482600  0.18401400  1
  O  O36  1  0.60580300  0.43517400  0.31598600  1
  O  O37  1  0.17226600  0.21957000  0.39160200  1
  O  O38  1  0.66042000  0.13068200  0.46088200  1
  O  O39  1  0.34490000  0.65789100  0.37407700  1
  O  O40  1  0.94773600  0.28560500  0.47369100  1
  O  O41  1  0.91605900  0.95542800  0.33167400  1
  O  O42  1  0.44547200  0.25528000  0.51878000  1
  O  O43  1  0.85659100  0.65436200  0.37193800  1
  O  O44  1  0.14340900  0.34563800  0.62806200  1
  O  O45  1  0.55452800  0.74472000  0.48122000  1
  O  O46  1  0.08394100  0.04457200  0.66832600  1
  O  O47  1  0.05226400  0.71439500  0.52630900  1
  O  O48  1  0.65510000  0.34210900  0.62592300  1
  O  O49  1  0.33958000  0.86931800  0.53911800  1
  O  O50  1  0.82773400  0.78043000  0.60839800  1
  O  O51  1  0.39419700  0.56482600  0.68401400  1
  O  O52  1  0.89419700  0.43517400  0.81598600  1
  O  O53  1  0.32773400  0.21957000  0.89160200  1
  O  O54  1  0.83958000  0.13068200  0.96088200  1
  O  O55  1  0.15510000  0.65789100  0.87407700  1
  O  O56  1  0.55226400  0.28560500  0.97369100  1
  O  O57  1  0.58394100  0.95542800  0.83167400  1
  O  O58  1  0.64340900  0.65436200  0.87193800  1
  O  O59  1  0.94547200  0.74472000  0.98122000  1
