# generated using pymatgen
data_Li4MnV2WO12
_symmetry_space_group_name_H-M   'P 1'
_cell_length_a   7.35442902
_cell_length_b   7.36805022
_cell_length_c   7.36968479
_cell_angle_alpha   93.17380250
_cell_angle_beta   93.10518415
_cell_angle_gamma   86.82779272
_symmetry_Int_Tables_number   1
_chemical_formula_structural   Li4MnV2WO12
_chemical_formula_sum   'Li8 Mn2 V4 W2 O24'
_cell_volume   397.60007975
_cell_formula_units_Z   2
loop_
 _symmetry_equiv_pos_site_id
 _symmetry_equiv_pos_as_xyz
  1  'x, y, z'
loop_
 _atom_site_type_symbol
 _atom_site_label
 _atom_site_symmetry_multiplicity
 _atom_site_fract_x
 _atom_site_fract_y
 _atom_site_fract_z
 _atom_site_occupancy
  Li  Li0  1  0.78741200  0.31162100  0.21122900  1
  Li  Li1  1  0.28739400  0.31160900  0.71119800  1
  Li  Li2  1  0.79926600  0.77363300  0.70512000  1
  Li  Li3  1  0.29923900  0.77356500  0.20510400  1
  Li  Li4  1  0.27433100  0.75836500  0.71696400  1
  Li  Li5  1  0.77431000  0.75837000  0.21693800  1
  Li  Li6  1  0.28831900  0.30822600  0.21690400  1
  Li  Li7  1  0.78835000  0.30821200  0.71688300  1
  Mn  Mn8  1  0.50645800  0.50714900  0.99441600  1
  Mn  Mn9  1  0.00647900  0.50725500  0.49440400  1
  V  V10  1  0.00575400  0.51185600  0.99415200  1
  V  V11  1  0.50581900  0.51188400  0.49414500  1
  V  V12  1  0.01428500  0.00483500  0.48582200  1
  V  V13  1  0.51430200  0.00482700  0.98580700  1
  W  W14  1  0.50578800  0.00658500  0.49086600  1
  W  W15  1  0.00578800  0.00657200  0.99085200  1
  O  O16  1  0.74708100  0.43329600  0.96109800  1
  O  O17  1  0.24712700  0.43332700  0.46112100  1
  O  O18  1  0.92886900  0.74661100  0.95514600  1
  O  O19  1  0.42887400  0.74662200  0.45517100  1
  O  O20  1  0.92553800  0.05129600  0.75407700  1
  O  O21  1  0.42554100  0.05128700  0.25407500  1
  O  O22  1  0.04097700  0.43832000  0.76393500  1
  O  O23  1  0.54099800  0.43832300  0.26393500  1
  O  O24  1  0.74372700  0.92879700  0.44301300  1
  O  O25  1  0.24371300  0.92878600  0.94306100  1
  O  O26  1  0.04105300  0.74916900  0.56975800  1
  O  O27  1  0.54097100  0.74916900  0.06975200  1
  O  O28  1  0.93745700  0.23096100  0.45146400  1
  O  O29  1  0.43745900  0.23095700  0.95146000  1
  O  O30  1  0.24255200  0.04998100  0.57143700  1
  O  O31  1  0.74253300  0.04997400  0.07144400  1
  O  O32  1  0.93378000  0.54127000  0.25486800  1
  O  O33  1  0.43378600  0.54126400  0.75489300  1
  O  O34  1  0.05648300  0.93006100  0.25709100  1
  O  O35  1  0.55645000  0.93007700  0.75702300  1
  O  O36  1  0.05412700  0.24240200  0.06987600  1
  O  O37  1  0.55420900  0.24240100  0.56983800  1
  O  O38  1  0.23788700  0.54672900  0.06166900  1
  O  O39  1  0.73791800  0.54675800  0.56159100  1
