# generated using pymatgen
data_Li2MnSiO4
_symmetry_space_group_name_H-M   'P 1'
_cell_length_a   5.04495401
_cell_length_b   8.73772106
_cell_length_c   11.82546412
_cell_angle_alpha   89.98601646
_cell_angle_beta   90.00371722
_cell_angle_gamma   89.99526586
_symmetry_Int_Tables_number   1
_chemical_formula_structural   Li2MnSiO4
_chemical_formula_sum   'Li12 Mn6 Si6 O24'
_cell_volume   521.28300578
_cell_formula_units_Z   6
loop_
 _symmetry_equiv_pos_site_id
 _symmetry_equiv_pos_as_xyz
  1  'x, y, z'
loop_
 _atom_site_type_symbol
 _atom_site_label
 _atom_site_symmetry_multiplicity
 _atom_site_fract_x
 _atom_site_fract_y
 _atom_site_fract_z
 _atom_site_occupancy
  Li  Li0  1  0.88251600  0.44492800  0.58606900  1
  Li  Li1  1  0.38249100  0.94489600  0.58609900  1
  Li  Li2  1  0.89141400  0.21872900  0.91939100  1
  Li  Li3  1  0.39142800  0.71876600  0.91938900  1
  Li  Li4  1  0.22616300  0.33630400  0.25272400  1
  Li  Li5  1  0.72614800  0.83633200  0.25274300  1
  Li  Li6  1  0.38246200  0.05510600  0.08060300  1
  Li  Li7  1  0.88247400  0.55507500  0.08063000  1
  Li  Li8  1  0.39141600  0.28122400  0.74724700  1
  Li  Li9  1  0.89140200  0.78125900  0.74724700  1
  Li  Li10  1  0.72613000  0.16368600  0.41391500  1
  Li  Li11  1  0.22614900  0.66370900  0.41393300  1
  Mn  Mn12  1  0.27273400  0.72722100  0.16669900  1
  Mn  Mn13  1  0.27269600  0.27281600  0.49991100  1
  Mn  Mn14  1  0.95375700  0.50002600  0.83336500  1
  Mn  Mn15  1  0.77279700  0.22713700  0.16668700  1
  Mn  Mn16  1  0.77278700  0.77291800  0.49992700  1
  Mn  Mn17  1  0.45381000  0.00002900  0.83336500  1
  Si  Si18  1  0.89850700  0.10151400  0.66672400  1
  Si  Si19  1  0.39849400  0.60156700  0.66670300  1
  Si  Si20  1  0.20309900  0.00000800  0.33331400  1
  Si  Si21  1  0.70310800  0.50001100  0.33331400  1
  Si  Si22  1  0.39846900  0.39842200  0.99998200  1
  Si  Si23  1  0.89847600  0.89846700  0.99995900  1
  O  O24  1  0.71592900  0.42061000  0.96789900  1
  O  O25  1  0.21590100  0.92067600  0.96785700  1
  O  O26  1  0.01099300  0.14756900  0.30117200  1
  O  O27  1  0.51106000  0.64762300  0.30118900  1
  O  O28  1  0.21593200  0.07926600  0.69884000  1
  O  O29  1  0.71595600  0.57934500  0.69880000  1
  O  O30  1  0.27322700  0.43175400  0.63448100  1
  O  O31  1  0.77327600  0.93171200  0.63446900  1
  O  O32  1  0.51109100  0.35239600  0.36548400  1
  O  O33  1  0.01102500  0.85244500  0.36550200  1
  O  O34  1  0.77320200  0.06826400  0.03215800  1
  O  O35  1  0.27316100  0.56823100  0.03214300  1
  O  O36  1  0.87904200  0.22030900  0.55810500  1
  O  O37  1  0.37909200  0.72036800  0.55807100  1
  O  O38  1  0.89098500  0.45035900  0.22477800  1
  O  O39  1  0.39097300  0.95041800  0.22477800  1
  O  O40  1  0.23004800  0.32933100  0.89139700  1
  O  O41  1  0.73004100  0.82944100  0.89136100  1
  O  O42  1  0.37902700  0.27964000  0.10858700  1
  O  O43  1  0.87897100  0.77968700  0.10855000  1
  O  O44  1  0.39100900  0.04960300  0.44192300  1
  O  O45  1  0.89102200  0.54966400  0.44192200  1
  O  O46  1  0.73005600  0.17051400  0.77528100  1
  O  O47  1  0.23006000  0.67062700  0.77524800  1
