# generated using pymatgen
data_Li7NbS6
_symmetry_space_group_name_H-M   'P 1'
_cell_length_a   10.18192900
_cell_length_b   10.18192900
_cell_length_c   10.18192900
_cell_angle_alpha   90.00000000
_cell_angle_beta   90.00000000
_cell_angle_gamma   90.00000000
_symmetry_Int_Tables_number   1
_chemical_formula_structural   Li7NbS6
_chemical_formula_sum   'Li28 Nb4 S24'
_cell_volume   1055.57766635
_cell_formula_units_Z   4
loop_
 _symmetry_equiv_pos_site_id
 _symmetry_equiv_pos_as_xyz
  1  'x, y, z'
loop_
 _atom_site_type_symbol
 _atom_site_label
 _atom_site_symmetry_multiplicity
 _atom_site_fract_x
 _atom_site_fract_y
 _atom_site_fract_z
 _atom_site_occupancy
  Li  Li0  1  0.02169900  0.83517200  0.67752500  1
  Li  Li1  1  0.01027300  0.28106200  0.19030400  1
  Li  Li2  1  0.11589700  0.61589700  0.88410300  1
  Li  Li3  1  0.16482800  0.17752500  0.47830100  1
  Li  Li4  1  0.17752500  0.47830100  0.16482800  1
  Li  Li5  1  0.19030400  0.01027300  0.28106200  1
  Li  Li6  1  0.21893800  0.80969600  0.51027300  1
  Li  Li7  1  0.28106200  0.19030400  0.01027300  1
  Li  Li8  1  0.30969600  0.98972700  0.78106200  1
  Li  Li9  1  0.32247500  0.52169900  0.66482800  1
  Li  Li10  1  0.33517200  0.82247500  0.97830100  1
  Li  Li11  1  0.38410300  0.38410300  0.38410300  1
  Li  Li12  1  0.48972700  0.71893800  0.69030400  1
  Li  Li13  1  0.47830100  0.16482800  0.17752500  1
  Li  Li14  1  0.52169900  0.66482800  0.32247500  1
  Li  Li15  1  0.51027300  0.21893800  0.80969600  1
  Li  Li16  1  0.61589700  0.88410300  0.11589700  1
  Li  Li17  1  0.66482800  0.32247500  0.52169900  1
  Li  Li18  1  0.67752500  0.02169900  0.83517200  1
  Li  Li19  1  0.69030400  0.48972700  0.71893800  1
  Li  Li20  1  0.71893800  0.69030400  0.48972700  1
  Li  Li21  1  0.78106200  0.30969600  0.98972700  1
  Li  Li22  1  0.80969600  0.51027300  0.21893800  1
  Li  Li23  1  0.82247500  0.97830100  0.33517200  1
  Li  Li24  1  0.83517200  0.67752500  0.02169900  1
  Li  Li25  1  0.88410300  0.11589700  0.61589700  1
  Li  Li26  1  0.98972700  0.78106200  0.30969600  1
  Li  Li27  1  0.97830100  0.33517200  0.82247500  1
  Nb  Nb28  1  0.00861300  0.49138700  0.50861300  1
  Nb  Nb29  1  0.49138700  0.50861300  0.00861300  1
  Nb  Nb30  1  0.50861300  0.00861300  0.49138700  1
  Nb  Nb31  1  0.99138700  0.99138700  0.99138700  1
  S  S32  1  0.02634900  0.97365100  0.47365100  1
  S  S33  1  0.11146500  0.12228900  0.85395800  1
  S  S34  1  0.12228900  0.85395800  0.11146500  1
  S  S35  1  0.13760500  0.36239500  0.63760500  1
  S  S36  1  0.14604200  0.61146500  0.37771100  1
  S  S37  1  0.25548600  0.75548600  0.74451400  1
  S  S38  1  0.24451400  0.24451400  0.24451400  1
  S  S39  1  0.35395800  0.38853500  0.87771100  1
  S  S40  1  0.36239500  0.63760500  0.13760500  1
  S  S41  1  0.37771100  0.14604200  0.61146500  1
  S  S42  1  0.38853500  0.87771100  0.35395800  1
  S  S43  1  0.47365100  0.02634900  0.97365100  1
  S  S44  1  0.52634900  0.52634900  0.52634900  1
  S  S45  1  0.61146500  0.37771100  0.14604200  1
  S  S46  1  0.62228900  0.64604200  0.88853500  1
  S  S47  1  0.63760500  0.13760500  0.36239500  1
  S  S48  1  0.64604200  0.88853500  0.62228900  1
  S  S49  1  0.75548600  0.74451400  0.25548600  1
  S  S50  1  0.74451400  0.25548600  0.75548600  1
  S  S51  1  0.85395800  0.11146500  0.12228900  1
  S  S52  1  0.86239500  0.86239500  0.86239500  1
  S  S53  1  0.87771100  0.35395800  0.38853500  1
  S  S54  1  0.88853500  0.62228900  0.64604200  1
  S  S55  1  0.97365100  0.47365100  0.02634900  1
