# generated using pymatgen
data_Li7Ti7Nb5O30
_symmetry_space_group_name_H-M   'P 1'
_cell_length_a   5.16642809
_cell_length_b   5.16642809
_cell_length_c   23.82624200
_cell_angle_alpha   90.00000000
_cell_angle_beta   90.00000000
_cell_angle_gamma   120.00000117
_symmetry_Int_Tables_number   1
_chemical_formula_structural   Li7Ti7Nb5O30
_chemical_formula_sum   'Li7 Ti7 Nb5 O30'
_cell_volume   550.76578537
_cell_formula_units_Z   1
loop_
 _symmetry_equiv_pos_site_id
 _symmetry_equiv_pos_as_xyz
  1  'x, y, z'
loop_
 _atom_site_type_symbol
 _atom_site_label
 _atom_site_symmetry_multiplicity
 _atom_site_fract_x
 _atom_site_fract_y
 _atom_site_fract_z
 _atom_site_occupancy
  Li  Li0  1  0.66666700  0.33333300  0.27487500  1
  Li  Li1  1  0.33333300  0.66666700  0.08050300  1
  Li  Li2  1  0.33333300  0.66666700  0.37344400  1
  Li  Li3  1  0.33333300  0.66666700  0.62805500  1
  Li  Li4  1  0.33333300  0.66666700  0.92318900  1
  Li  Li5  1  0.66666700  0.33333300  0.52916600  1
  Li  Li6  1  0.00000000  0.00000000  0.20271700  1
  Ti  Ti7  1  0.66666700  0.33333300  0.88573400  1
  Ti  Ti8  1  0.66666700  0.33333300  0.01141700  1
  Ti  Ti9  1  0.66666700  0.33333300  0.69108500  1
  Ti  Ti10  1  0.00000000  0.00000000  0.59012300  1
  Ti  Ti11  1  0.00000000  0.00000000  0.71398100  1
  Ti  Ti12  1  0.00000000  0.00000000  0.98145100  1
  Ti  Ti13  1  0.00000000  0.00000000  0.10453200  1
  Nb  Nb14  1  0.66666700  0.33333300  0.40436300  1
  Nb  Nb15  1  0.33333300  0.66666700  0.20290200  1
  Nb  Nb16  1  0.33333300  0.66666700  0.50187000  1
  Nb  Nb17  1  0.33333300  0.66666700  0.79939600  1
  Nb  Nb18  1  0.00000000  0.00000000  0.30862100  1
  O  O19  1  0.25474300  0.33435100  0.14832000  1
  O  O20  1  0.34259900  0.30541100  0.35142600  1
  O  O21  1  0.33769100  0.33825200  0.74511500  1
  O  O22  1  0.60634200  0.60674800  0.45273100  1
  O  O23  1  0.31177300  0.03164400  0.04390000  1
  O  O24  1  0.71987000  0.68822700  0.04390000  1
  O  O25  1  0.39325200  0.99959400  0.45273100  1
  O  O26  1  0.66174800  0.99943900  0.74511500  1
  O  O27  1  0.96281200  0.65740100  0.35142600  1
  O  O28  1  0.66564900  0.92039200  0.14832000  1
  O  O29  1  0.00056100  0.66230900  0.74511500  1
  O  O30  1  0.69458900  0.03718800  0.35142600  1
  O  O31  1  0.66217900  0.96136500  0.55378200  1
  O  O32  1  0.07960800  0.74525700  0.14832000  1
  O  O33  1  0.69970200  0.05568900  0.94870900  1
  O  O34  1  0.96835600  0.28013000  0.04390000  1
  O  O35  1  0.60423900  0.61130400  0.84724700  1
  O  O36  1  0.00040600  0.39365800  0.45273100  1
  O  O37  1  0.95328200  0.26957600  0.65360400  1
  O  O38  1  0.67309100  0.71184400  0.25257400  1
  O  O39  1  0.00706400  0.39576100  0.84724700  1
  O  O40  1  0.73042400  0.68370600  0.65360400  1
  O  O41  1  0.03875300  0.32690900  0.25257400  1
  O  O42  1  0.29918600  0.33782100  0.55378200  1
  O  O43  1  0.94431100  0.64401300  0.94870900  1
  O  O44  1  0.35598700  0.30029800  0.94870900  1
  O  O45  1  0.03863500  0.70081400  0.55378200  1
  O  O46  1  0.28815600  0.96124700  0.25257400  1
  O  O47  1  0.31629400  0.04671800  0.65360400  1
  O  O48  1  0.38869600  0.99293600  0.84724700  1
