# generated using pymatgen
data_LiMn(PO3)3
_symmetry_space_group_name_H-M   'P 1'
_cell_length_a   9.89679200
_cell_length_b   11.07182979
_cell_length_c   12.11802705
_cell_angle_alpha   113.73847010
_cell_angle_beta   110.40298387
_cell_angle_gamma   97.37776024
_symmetry_Int_Tables_number   1
_chemical_formula_structural   LiMn(PO3)3
_chemical_formula_sum   'Li6 Mn6 P18 O54'
_cell_volume   1081.90439973
_cell_formula_units_Z   6
loop_
 _symmetry_equiv_pos_site_id
 _symmetry_equiv_pos_as_xyz
  1  'x, y, z'
loop_
 _atom_site_type_symbol
 _atom_site_label
 _atom_site_symmetry_multiplicity
 _atom_site_fract_x
 _atom_site_fract_y
 _atom_site_fract_z
 _atom_site_occupancy
  Li  Li0  1  0.99191300  0.19484400  0.93380200  1
  Li  Li1  1  0.93136600  0.59604500  0.74319900  1
  Li  Li2  1  0.40122100  0.34232600  0.73762600  1
  Li  Li3  1  0.55375100  0.25730600  0.06253100  1
  Li  Li4  1  0.68729100  0.85362900  0.26295300  1
  Li  Li5  1  0.16593500  0.60533000  0.26261700  1
  Mn  Mn6  1  0.04729600  0.58336200  0.50870500  1
  Mn  Mn7  1  0.37057400  0.44005900  0.18715300  1
  Mn  Mn8  1  0.68264100  0.25364900  0.81288000  1
  Mn  Mn9  1  0.04119900  0.07373900  0.48972500  1
  Mn  Mn10  1  0.68954800  0.76881800  0.84113000  1
  Mn  Mn11  1  0.34917200  0.92810200  0.15978600  1
  P  P12  1  0.23558700  0.08643500  0.94924200  1
  P  P13  1  0.95968700  0.83990400  0.72250600  1
  P  P14  1  0.05844800  0.47173600  0.95230900  1
  P  P15  1  0.78124200  0.99613300  0.60688100  1
  P  P16  1  0.32442600  0.05026400  0.72027500  1
  P  P17  1  0.46484500  0.78881500  0.38521200  1
  P  P18  1  0.40854900  0.78411600  0.61207500  1
  P  P19  1  0.42616200  0.68205700  0.94349400  1
  P  P20  1  0.15382700  0.43429800  0.72688000  1
  P  P21  1  0.10232800  0.32981900  0.27803900  1
  P  P22  1  0.78539100  0.13794600  0.05158400  1
  P  P23  1  0.92552800  0.70574400  0.27258800  1
  P  P24  1  0.67307100  0.38718100  0.39114400  1
  P  P25  1  0.60509400  0.51875600  0.04779100  1
  P  P26  1  0.58012800  0.40481700  0.61451600  1
  P  P27  1  0.73676300  0.11673900  0.27850000  1
  P  P28  1  0.29802100  0.17375700  0.38686600  1
  P  P29  1  0.98208700  0.73756300  0.05596300  1
  O  O30  1  0.05986100  0.00029700  0.83970500  1
  O  O31  1  0.78787300  0.99416500  0.97885100  1
  O  O32  1  0.75099600  0.07486500  0.72560200  1
  O  O33  1  0.33218900  0.10887000  0.87073000  1
  O  O34  1  0.05569800  0.77031500  0.66362200  1
  O  O35  1  0.99592200  0.59728000  0.94090700  1
  O  O36  1  0.83501100  0.86761000  0.61785800  1
  O  O37  1  0.69397500  0.20438900  0.97741500  1
  O  O38  1  0.80550200  0.49581800  0.41918500  1
  O  O39  1  0.52566700  0.34652500  0.27126700  1
  O  O40  1  0.39460200  0.92764700  0.71241000  1
  O  O41  1  0.32023800  0.73664900  0.99823600  1
  O  O42  1  0.08492800  0.40649900  0.81991400  1
  O  O43  1  0.28330700  0.66342800  0.57382700  1
  O  O44  1  0.56976200  0.78780500  0.67266100  1
  O  O45  1  0.62500000  0.44591400  0.92258000  1
  O  O46  1  0.49287400  0.65023100  0.34186400  1
  O  O47  1  0.04179000  0.38160000  0.37885900  1
  O  O48  1  0.62639200  0.91079700  0.46892800  1
  O  O49  1  0.16351500  0.00103200  0.61865000  1
  O  O50  1  0.88435000  0.07628100  0.57752300  1
  O  O51  1  0.93144400  0.35885300  0.92966300  1
  O  O52  1  0.43535000  0.16769700  0.73172000  1
  O  O53  1  0.33373000  0.52002500  0.82573800  1
  O  O54  1  0.72096700  0.16169500  0.16235700  1
  O  O55  1  0.88481700  0.76777800  0.77871700  1
  O  O56  1  0.21875000  0.22702900  0.02300300  1
  O  O57  1  0.36956300  0.81865700  0.27929100  1
  O  O58  1  0.02748900  0.66077500  0.36229300  1
  O  O59  1  0.50827100  0.75870100  0.89852800  1
  O  O60  1  0.16649600  0.29954000  0.63764500  1
  O  O61  1  0.65551900  0.44170200  0.52877100  1
  O  O62  1  0.38016300  0.80682900  0.48102600  1
  O  O63  1  0.20283400  0.52429600  0.07723500  1
  O  O64  1  0.06815800  0.51593200  0.67285500  1
  O  O65  1  0.39793400  0.11784400  0.32498800  1
  O  O66  1  0.89436900  0.84161100  0.32680900  1
  O  O67  1  0.20273800  0.43571400  0.26707700  1
  O  O68  1  0.50175400  0.42771300  0.07019000  1
  O  O69  1  0.96007700  0.23859900  0.12763400  1
  O  O70  1  0.76329200  0.58659000  0.18024900  1
  O  O71  1  0.65165200  0.30934900  0.65837500  1
  O  O72  1  0.11107800  0.85988600  0.10423700  1
  O  O73  1  0.59066000  0.54025000  0.71947200  1
  O  O74  1  0.71632000  0.24858100  0.38314600  1
  O  O75  1  0.21283000  0.08958000  0.42560500  1
  O  O76  1  0.60576600  0.98855600  0.22210900  1
  O  O77  1  0.89137100  0.10515500  0.33639600  1
  O  O78  1  0.40003600  0.32676400  0.51754100  1
  O  O79  1  0.55196500  0.65431800  0.05811700  1
  O  O80  1  0.00546000  0.69130900  0.17244300  1
  O  O81  1  0.31220200  0.01631800  0.02274300  1
  O  O82  1  0.18066100  0.21504600  0.28639700  1
  O  O83  1  0.82268700  0.73761800  0.00072700  1
