# generated using pymatgen
data_Li6V3P8O29
_symmetry_space_group_name_H-M   'P 1'
_cell_length_a   9.78940700
_cell_length_b   9.80183175
_cell_length_c   13.96457984
_cell_angle_alpha   89.66119209
_cell_angle_beta   89.56121131
_cell_angle_gamma   60.24224136
_symmetry_Int_Tables_number   1
_chemical_formula_structural   Li6V3P8O29
_chemical_formula_sum   'Li12 V6 P16 O58'
_cell_volume   1163.22318957
_cell_formula_units_Z   2
loop_
 _symmetry_equiv_pos_site_id
 _symmetry_equiv_pos_as_xyz
  1  'x, y, z'
loop_
 _atom_site_type_symbol
 _atom_site_label
 _atom_site_symmetry_multiplicity
 _atom_site_fract_x
 _atom_site_fract_y
 _atom_site_fract_z
 _atom_site_occupancy
  Li  Li0  1  0.09796100  0.66625900  0.55845400  1
  Li  Li1  1  0.32818600  0.32948200  0.88947300  1
  Li  Li2  1  0.22487300  0.69140000  0.06342400  1
  Li  Li3  1  0.69001300  0.08736800  0.06327900  1
  Li  Li4  1  0.33864000  0.76573600  0.43794200  1
  Li  Li5  1  0.66813300  0.23683500  0.55915500  1
  Li  Li6  1  0.31402400  0.91177000  0.93859600  1
  Li  Li7  1  0.77690000  0.31673900  0.94525600  1
  Li  Li8  1  0.90305000  0.33630900  0.43684600  1
  Li  Li9  1  0.76536100  0.90210400  0.43917900  1
  Li  Li10  1  0.90769700  0.77532300  0.94364700  1
  Li  Li11  1  0.03149500  0.02053600  0.50055700  1
  V  V12  1  0.43388500  0.56677200  0.25061300  1
  V  V13  1  0.56459300  0.43379300  0.75088100  1
  V  V14  1  0.42873900  0.00134400  0.74523700  1
  V  V15  1  0.56229100  0.99861300  0.25159000  1
  V  V16  1  0.00045500  0.43099600  0.24722100  1
  V  V17  1  0.99839600  0.56310500  0.74813900  1
  P  P18  1  0.08760500  0.22670600  0.83799000  1
  P  P19  1  0.22002300  0.08377600  0.33866200  1
  P  P20  1  0.08624500  0.68346300  0.34186700  1
  P  P21  1  0.33609400  0.33171900  0.13009600  1
  P  P22  1  0.33248700  0.33643600  0.62993100  1
  P  P23  1  0.22797400  0.67871200  0.84333800  1
  P  P24  1  0.31502400  0.77036700  0.65848900  1
  P  P25  1  0.67799300  0.08946900  0.84334000  1
  P  P26  1  0.31854000  0.91290800  0.15441000  1
  P  P27  1  0.68538300  0.22620600  0.34320800  1
  P  P28  1  0.76921900  0.32073300  0.15974100  1
  P  P29  1  0.66686200  0.66718400  0.37243000  1
  P  P30  1  0.66431300  0.66747100  0.87021600  1
  P  P31  1  0.91509200  0.31044600  0.65303900  1
  P  P32  1  0.77218700  0.91539000  0.65762500  1
  P  P33  1  0.91181800  0.76916600  0.15873200  1
  O  O34  1  0.98814500  0.22595400  0.56100500  1
  O  O35  1  0.07858900  0.25335400  0.33978800  1
  O  O36  1  0.24963400  0.99099100  0.06202900  1
  O  O37  1  0.25482300  0.07909300  0.84037100  1
  O  O38  1  0.11166900  0.37216100  0.82441500  1
  O  O39  1  0.19084100  0.32891600  0.17358300  1
  O  O40  1  0.08587800  0.52824100  0.33028500  1
  O  O41  1  0.00393400  0.75421100  0.06860800  1
  O  O42  1  0.07628400  0.66828300  0.84581400  1
  O  O43  1  0.32217200  0.19592000  0.67341000  1
  O  O44  1  0.37724600  0.08364700  0.33260600  1
  O  O45  1  0.18618000  0.49315400  0.67108100  1
  O  O46  1  0.34133900  0.33074000  0.02267300  1
  O  O47  1  0.33656200  0.34605200  0.52353300  1
  O  O48  1  0.33189800  0.48490700  0.16738700  1
  O  O49  1  0.51256100  0.10983900  0.82572300  1
  O  O50  1  0.48866500  0.18301400  0.17029700  1
  O  O51  1  0.25613100  0.65731700  0.34120100  1
  O  O52  1  0.20863800  0.78847400  0.75186800  1
  O  O53  1  0.22328300  0.77795400  0.56978200  1
  O  O54  1  0.25104900  0.75178900  0.93168900  1
  O  O55  1  0.36890000  0.51103900  0.82511800  1
  O  O56  1  0.48785700  0.32729700  0.67252300  1
  O  O57  1  0.33435400  0.74649300  0.16192100  1
  O  O58  1  0.52900300  0.37860200  0.33035200  1
  O  O59  1  0.66456000  0.08085600  0.34342300  1
  O  O60  1  0.20017400  0.00942800  0.24062700  1
  O  O61  1  0.20684900  0.98954100  0.41994600  1
  O  O62  1  0.77125200  0.00477600  0.56870400  1
  O  O63  1  0.34162300  0.91253800  0.66224400  1
  O  O64  1  0.47059700  0.61559400  0.66828500  1
  O  O65  1  0.66296000  0.25361800  0.84684200  1
  O  O66  1  0.51083100  0.67897100  0.33416900  1
  O  O67  1  0.61903300  0.48093800  0.17920800  1
  O  O68  1  0.75299400  0.24588900  0.07050700  1
  O  O69  1  0.77694700  0.22501200  0.43083000  1
  O  O70  1  0.79174500  0.20691200  0.24919800  1
  O  O71  1  0.74778100  0.33297600  0.66252000  1
  O  O72  1  0.51583800  0.81439900  0.83025100  1
  O  O73  1  0.48015500  0.89792900  0.17623300  1
  O  O74  1  0.66259200  0.51726900  0.82913300  1
  O  O75  1  0.67404500  0.66229700  0.97657700  1
  O  O76  1  0.66757700  0.67436300  0.47937000  1
  O  O77  1  0.81064200  0.51190400  0.33284100  1
  O  O78  1  0.61919300  0.91088100  0.67272800  1
  O  O79  1  0.67751500  0.81271900  0.32946400  1
  O  O80  1  0.91300300  0.34381300  0.16036700  1
  O  O81  1  0.01420600  0.20029400  0.74129300  1
  O  O82  1  0.98869800  0.23965600  0.92186700  1
  O  O83  1  0.91397700  0.46727100  0.66563600  1
  O  O84  1  0.81644200  0.66272500  0.82450100  1
  O  O85  1  0.89583100  0.62349500  0.17841400  1
  O  O86  1  0.75002300  0.91903800  0.15888200  1
  O  O87  1  0.75447200  0.99504000  0.93205100  1
  O  O88  1  0.78860800  0.00345900  0.75143500  1
  O  O89  1  0.91745300  0.74997200  0.65767900  1
  O  O90  1  0.00029100  0.77422300  0.43067700  1
  O  O91  1  0.00470000  0.78962100  0.24848000  1
