# generated using pymatgen
data_Li3Mn4P3H12O19
_symmetry_space_group_name_H-M   'P 1'
_cell_length_a   10.82621476
_cell_length_b   10.82621476
_cell_length_c   10.82621488
_cell_angle_alpha   60.26527140
_cell_angle_beta   60.26527140
_cell_angle_gamma   60.26526995
_symmetry_Int_Tables_number   1
_chemical_formula_structural   Li3Mn4P3H12O19
_chemical_formula_sum   'Li6 Mn8 P6 H24 O38'
_cell_volume   902.64030264
_cell_formula_units_Z   2
loop_
 _symmetry_equiv_pos_site_id
 _symmetry_equiv_pos_as_xyz
  1  'x, y, z'
loop_
 _atom_site_type_symbol
 _atom_site_label
 _atom_site_symmetry_multiplicity
 _atom_site_fract_x
 _atom_site_fract_y
 _atom_site_fract_z
 _atom_site_occupancy
  Li  Li0  1  0.67422600  0.06958600  0.93779500  1
  Li  Li1  1  0.56958600  0.17422600  0.43779500  1
  Li  Li2  1  0.93779500  0.67422600  0.06958600  1
  Li  Li3  1  0.43779500  0.56958600  0.17422600  1
  Li  Li4  1  0.17422600  0.43779500  0.56958600  1
  Li  Li5  1  0.06958600  0.93779500  0.67422600  1
  Mn  Mn6  1  0.97881200  0.00675400  0.30536100  1
  Mn  Mn7  1  0.80536100  0.50675400  0.47881200  1
  Mn  Mn8  1  0.50675400  0.47881200  0.80536100  1
  Mn  Mn9  1  0.99880500  0.99880500  0.99880500  1
  Mn  Mn10  1  0.49880500  0.49880500  0.49880500  1
  Mn  Mn11  1  0.00675400  0.30536100  0.97881200  1
  Mn  Mn12  1  0.47881200  0.80536100  0.50675400  1
  Mn  Mn13  1  0.30536100  0.97881200  0.00675400  1
  P  P14  1  0.83872100  0.30078100  0.80634100  1
  P  P15  1  0.80078100  0.33872100  0.30634100  1
  P  P16  1  0.33872100  0.30634100  0.80078100  1
  P  P17  1  0.80634100  0.83872100  0.30078100  1
  P  P18  1  0.30078100  0.80634100  0.83872100  1
  P  P19  1  0.30634100  0.80078100  0.33872100  1
  H  H20  1  0.75815000  0.00383100  0.69049700  1
  H  H21  1  0.80652300  0.14322100  0.62438500  1
  H  H22  1  0.46153900  0.02722900  0.22395900  1
  H  H23  1  0.64322100  0.30652300  0.12438500  1
  H  H24  1  0.96153900  0.72395900  0.52722900  1
  H  H25  1  0.50383100  0.25815000  0.19049700  1
  H  H26  1  0.30652300  0.12438500  0.64322100  1
  H  H27  1  0.88645900  0.61472000  0.67406200  1
  H  H28  1  0.38645900  0.17406200  0.11472000  1
  H  H29  1  0.72395900  0.52722900  0.96153900  1
  H  H30  1  0.25815000  0.19049700  0.50383100  1
  H  H31  1  0.17406200  0.11472000  0.38645900  1
  H  H32  1  0.61472000  0.67406200  0.88645900  1
  H  H33  1  0.69049700  0.75815000  0.00383100  1
  H  H34  1  0.02722900  0.22395900  0.46153900  1
  H  H35  1  0.67406200  0.88645900  0.61472000  1
  H  H36  1  0.11472000  0.38645900  0.17406200  1
  H  H37  1  0.62438500  0.80652300  0.14322100  1
  H  H38  1  0.22395900  0.46153900  0.02722900  1
  H  H39  1  0.19049700  0.50383100  0.25815000  1
  H  H40  1  0.52722900  0.96153900  0.72395900  1
  H  H41  1  0.14322100  0.62438500  0.80652300  1
  H  H42  1  0.12438500  0.64322100  0.30652300  1
  H  H43  1  0.00383100  0.69049700  0.75815000  1
  O  O44  1  0.96309800  0.14753000  0.79859500  1
  O  O45  1  0.81712300  0.04194400  0.70158000  1
  O  O46  1  0.78622800  0.18564700  0.34611300  1
  O  O47  1  0.92783500  0.37857200  0.15466400  1
  O  O48  1  0.84395400  0.32211100  0.43404300  1
  O  O49  1  0.82211100  0.34395400  0.93404300  1
  O  O50  1  0.87857200  0.42783500  0.65466400  1
  O  O51  1  0.68564700  0.28622800  0.84611300  1
  O  O52  1  0.46602300  0.13007400  0.15718600  1
  O  O53  1  0.96602300  0.65718600  0.63007400  1
  O  O54  1  0.37857200  0.15466400  0.92783500  1
  O  O55  1  0.54194400  0.31712300  0.20158000  1
  O  O56  1  0.84611300  0.68564700  0.28622800  1
  O  O57  1  0.64753000  0.46309800  0.29859500  1
  O  O58  1  0.46309800  0.29859500  0.64753000  1
  O  O59  1  0.93404300  0.82211100  0.34395400  1
  O  O60  1  0.31712300  0.20158000  0.54194400  1
  O  O61  1  0.65718600  0.63007400  0.96602300  1
  O  O62  1  0.07578000  0.07578000  0.07578000  1
  O  O63  1  0.57578000  0.57578000  0.57578000  1
  O  O64  1  0.13007400  0.15718600  0.46602300  1
  O  O65  1  0.70158000  0.81712300  0.04194400  1
  O  O66  1  0.32211100  0.43404300  0.84395400  1
  O  O67  1  0.79859500  0.96309800  0.14753000  1
  O  O68  1  0.18564700  0.34611300  0.78622800  1
  O  O69  1  0.42783500  0.65466400  0.87857200  1
  O  O70  1  0.65466400  0.87857200  0.42783500  1
  O  O71  1  0.15718600  0.46602300  0.13007400  1
  O  O72  1  0.63007400  0.96602300  0.65718600  1
  O  O73  1  0.29859500  0.64753000  0.46309800  1
  O  O74  1  0.20158000  0.54194400  0.31712300  1
  O  O75  1  0.43404300  0.84395400  0.32211100  1
  O  O76  1  0.34611300  0.78622800  0.18564700  1
  O  O77  1  0.28622800  0.84611300  0.68564700  1
  O  O78  1  0.34395400  0.93404300  0.82211100  1
  O  O79  1  0.04194400  0.70158000  0.81712300  1
  O  O80  1  0.14753000  0.79859500  0.96309800  1
  O  O81  1  0.15466400  0.92783500  0.37857200  1
