# generated using pymatgen
data_Li24Mn5Cr7O36
_symmetry_space_group_name_H-M   'P 1'
_cell_length_a   5.01683100
_cell_length_b   9.73880863
_cell_length_c   13.26759443
_cell_angle_alpha   96.99252140
_cell_angle_beta   100.44130603
_cell_angle_gamma   94.82358372
_symmetry_Int_Tables_number   1
_chemical_formula_structural   Li24Mn5Cr7O36
_chemical_formula_sum   'Li24 Mn5 Cr7 O36'
_cell_volume   628.99940822
_cell_formula_units_Z   1
loop_
 _symmetry_equiv_pos_site_id
 _symmetry_equiv_pos_as_xyz
  1  'x, y, z'
loop_
 _atom_site_type_symbol
 _atom_site_label
 _atom_site_symmetry_multiplicity
 _atom_site_fract_x
 _atom_site_fract_y
 _atom_site_fract_z
 _atom_site_occupancy
  Li  Li0  1  0.16684600  0.00008800  0.83324900  1
  Li  Li1  1  0.05213900  0.00101900  0.61411600  1
  Li  Li2  1  0.99977800  0.75039900  0.25026800  1
  Li  Li3  1  0.33602800  0.75023100  0.91680300  1
  Li  Li4  1  0.04577800  0.49779000  0.11086800  1
  Li  Li5  1  0.38221100  0.50062300  0.78062000  1
  Li  Li6  1  0.16711000  0.49949100  0.33319700  1
  Li  Li7  1  0.50033300  0.49956600  0.00000400  1
  Li  Li8  1  0.28372600  0.49992300  0.55330400  1
  Li  Li9  1  0.33336400  0.25010500  0.41603300  1
  Li  Li10  1  0.49476100  0.00119100  0.49919700  1
  Li  Li11  1  0.28628700  0.00119700  0.05383600  1
  Li  Li12  1  0.61620800  0.99926200  0.72047500  1
  Li  Li13  1  0.38086200  0.00025100  0.28017600  1
  Li  Li14  1  0.71285200  0.99911200  0.94701100  1
  Li  Li15  1  0.67044300  0.74969200  0.58403300  1
  Li  Li16  1  0.71728200  0.49990700  0.44637400  1
  Li  Li17  1  0.83041600  0.50090000  0.66599900  1
  Li  Li18  1  0.61761400  0.50063300  0.22071500  1
  Li  Li19  1  0.95162500  0.50102900  0.88885600  1
  Li  Li20  1  0.66643200  0.25016500  0.08192500  1
  Li  Li21  1  0.83570000  0.99918200  0.16647200  1
  Li  Li22  1  0.00333900  0.24982100  0.75079700  1
  Li  Li23  1  0.95249200  0.99952900  0.38590100  1
  Mn  Mn24  1  0.11300900  0.25155900  0.97387800  1
  Mn  Mn25  1  0.10933700  0.74866100  0.47185400  1
  Mn  Mn26  1  0.22132100  0.24943500  0.19450800  1
  Mn  Mn27  1  0.44317000  0.24936300  0.63843300  1
  Mn  Mn28  1  0.77675300  0.75056000  0.80595000  1
  Cr  Cr29  1  0.22759800  0.74976100  0.69335200  1
  Cr  Cr30  1  0.56275500  0.24952600  0.86008300  1
  Cr  Cr31  1  0.44224300  0.75070000  0.14121300  1
  Cr  Cr32  1  0.56113500  0.75144800  0.36366700  1
  Cr  Cr33  1  0.77172600  0.24802000  0.30307900  1
  Cr  Cr34  1  0.89449900  0.25140100  0.52834400  1
  Cr  Cr35  1  0.89236400  0.74904900  0.02589600  1
  O  O36  1  0.99813500  0.86143900  0.92837000  1
  O  O37  1  0.06768200  0.63640800  0.78408800  1
  O  O38  1  0.99416700  0.36144100  0.42941600  1
  O  O39  1  0.14442700  0.36193700  0.64343900  1
  O  O40  1  0.26405200  0.36354300  0.88225300  1
  O  O41  1  0.32928600  0.86099800  0.59574700  1
  O  O42  1  0.07440200  0.13448100  0.28382700  1
  O  O43  1  0.19307000  0.13804400  0.52422600  1
  O  O44  1  0.40136300  0.13611600  0.95133700  1
  O  O45  1  0.15112200  0.86290000  0.14246200  1
  O  O46  1  0.25901100  0.86479800  0.38222600  1
  O  O47  1  0.48087300  0.86289600  0.81112400  1
  O  O48  1  0.32981200  0.13652500  0.73580700  1
  O  O49  1  0.18190200  0.63763500  0.02380600  1
  O  O50  1  0.40189800  0.63629300  0.45107900  1
  O  O51  1  0.52092800  0.63868700  0.69086400  1
  O  O52  1  0.33785000  0.63859100  0.23819700  1
  O  O53  1  0.66193300  0.63673200  0.90187200  1
  O  O54  1  0.33571100  0.36158100  0.09540500  1
  O  O55  1  0.66284800  0.36108700  0.76246200  1
  O  O56  1  0.47082100  0.36263400  0.30839200  1
  O  O57  1  0.59270400  0.36499700  0.54888700  1
  O  O58  1  0.81583700  0.36304900  0.97814600  1
  O  O59  1  0.66540800  0.86323300  0.26447000  1
  O  O60  1  0.52327700  0.13848100  0.19055200  1
  O  O61  1  0.73449700  0.13626200  0.61708300  1
  O  O62  1  0.85463100  0.13869000  0.85883900  1
  O  O63  1  0.60057500  0.86474000  0.04875800  1
  O  O64  1  0.81092800  0.86162700  0.47669400  1
  O  O65  1  0.92946500  0.86413600  0.71501100  1
  O  O66  1  0.67103800  0.13769700  0.40340700  1
  O  O67  1  0.73261400  0.63591300  0.11709900  1
  O  O68  1  0.86174900  0.63767900  0.35709900  1
  O  O69  1  0.99611500  0.63633600  0.56927800  1
  O  O70  1  0.93132700  0.36351100  0.21637100  1
  O  O71  1  0.99900100  0.13829200  0.07141900  1
