# generated using pymatgen
data_Li7Sb2P7O24
_symmetry_space_group_name_H-M   'P 1'
_cell_length_a   5.27205700
_cell_length_b   12.07162200
_cell_length_c   15.86184360
_cell_angle_alpha   83.76048821
_cell_angle_beta   90.00000000
_cell_angle_gamma   90.00000000
_symmetry_Int_Tables_number   1
_chemical_formula_structural   Li7Sb2P7O24
_chemical_formula_sum   'Li14 Sb4 P14 O48'
_cell_volume   1003.50394968
_cell_formula_units_Z   2
loop_
 _symmetry_equiv_pos_site_id
 _symmetry_equiv_pos_as_xyz
  1  'x, y, z'
loop_
 _atom_site_type_symbol
 _atom_site_label
 _atom_site_symmetry_multiplicity
 _atom_site_fract_x
 _atom_site_fract_y
 _atom_site_fract_z
 _atom_site_occupancy
  Li  Li0  1  0.26469100  0.47992100  0.05401600  1
  Li  Li1  1  0.18838300  0.11123600  0.13604000  1
  Li  Li2  1  0.73530900  0.97992100  0.05401600  1
  Li  Li3  1  0.81161700  0.61123600  0.13604000  1
  Li  Li4  1  0.84413400  0.44535500  0.41761300  1
  Li  Li5  1  0.15586600  0.94535500  0.41761300  1
  Li  Li6  1  0.29262800  0.25000000  0.50000000  1
  Li  Li7  1  0.70737200  0.75000000  0.50000000  1
  Li  Li8  1  0.84413400  0.05464500  0.58238700  1
  Li  Li9  1  0.15586600  0.55464500  0.58238700  1
  Li  Li10  1  0.18838300  0.38876400  0.86396000  1
  Li  Li11  1  0.26469100  0.02007900  0.94598400  1
  Li  Li12  1  0.81161700  0.88876400  0.86396000  1
  Li  Li13  1  0.73530900  0.52007900  0.94598400  1
  Sb  Sb14  1  0.34824700  0.30697900  0.27525000  1
  Sb  Sb15  1  0.65175300  0.80697900  0.27525000  1
  Sb  Sb16  1  0.34824700  0.19302100  0.72475000  1
  Sb  Sb17  1  0.65175300  0.69302100  0.72475000  1
  P  P18  1  0.55689800  0.25000000  0.00000000  1
  P  P19  1  0.44310200  0.75000000  0.00000000  1
  P  P20  1  0.87286200  0.34360400  0.13115300  1
  P  P21  1  0.12713800  0.84360400  0.13115300  1
  P  P22  1  0.61691300  0.05426900  0.27629300  1
  P  P23  1  0.38308700  0.55426900  0.27629300  1
  P  P24  1  0.83161200  0.19271900  0.39920700  1
  P  P25  1  0.16838800  0.69271900  0.39920700  1
  P  P26  1  0.83161200  0.30728100  0.60079300  1
  P  P27  1  0.16838800  0.80728100  0.60079300  1
  P  P28  1  0.61691300  0.44573100  0.72370700  1
  P  P29  1  0.38308700  0.94573100  0.72370700  1
  P  P30  1  0.87286200  0.15639600  0.86884700  1
  P  P31  1  0.12713800  0.65639600  0.86884700  1
  O  O32  1  0.42015800  0.13939400  0.01452500  1
  O  O33  1  0.57984200  0.63939400  0.01452500  1
  O  O34  1  0.74955100  0.24841800  0.07809500  1
  O  O35  1  0.89980300  0.45337200  0.07536200  1
  O  O36  1  0.25044900  0.74841800  0.07809500  1
  O  O37  1  0.10019700  0.95337200  0.07536200  1
  O  O38  1  0.12686100  0.28436400  0.15489700  1
  O  O39  1  0.74594200  0.99930200  0.20494700  1
  O  O40  1  0.69890700  0.35348500  0.20691700  1
  O  O41  1  0.87313900  0.78436400  0.15489700  1
  O  O42  1  0.25405800  0.49930200  0.20494700  1
  O  O43  1  0.40918100  0.13608600  0.23924500  1
  O  O44  1  0.30109300  0.85348500  0.20691700  1
  O  O45  1  0.59081900  0.63608600  0.23924500  1
  O  O46  1  0.84198200  0.12588600  0.31398900  1
  O  O47  1  0.15801800  0.62588600  0.31398900  1
  O  O48  1  0.99858500  0.29636200  0.37586700  1
  O  O49  1  0.48668000  0.46961600  0.34745200  1
  O  O50  1  0.55003800  0.22341200  0.40890200  1
  O  O51  1  0.00141500  0.79636200  0.37586700  1
  O  O52  1  0.51332000  0.96961600  0.34745200  1
  O  O53  1  0.44996200  0.72341200  0.40890200  1
  O  O54  1  0.94735100  0.11387600  0.46985500  1
  O  O55  1  0.05264900  0.61387600  0.46985500  1
  O  O56  1  0.94735100  0.38612400  0.53014500  1
  O  O57  1  0.05264900  0.88612400  0.53014500  1
  O  O58  1  0.55003800  0.27658800  0.59109800  1
  O  O59  1  0.48668000  0.03038400  0.65254800  1
  O  O60  1  0.99858500  0.20363800  0.62413300  1
  O  O61  1  0.44996200  0.77658800  0.59109800  1
  O  O62  1  0.51332000  0.53038400  0.65254800  1
  O  O63  1  0.00141500  0.70363800  0.62413300  1
  O  O64  1  0.84198200  0.37411400  0.68601100  1
  O  O65  1  0.15801800  0.87411400  0.68601100  1
  O  O66  1  0.40918100  0.36391400  0.76075500  1
  O  O67  1  0.69890700  0.14651500  0.79308300  1
  O  O68  1  0.59081900  0.86391400  0.76075500  1
  O  O69  1  0.74594200  0.50069800  0.79505300  1
  O  O70  1  0.12686100  0.21563600  0.84510300  1
  O  O71  1  0.30109300  0.64651500  0.79308300  1
  O  O72  1  0.25405800  0.00069800  0.79505300  1
  O  O73  1  0.87313900  0.71563600  0.84510300  1
  O  O74  1  0.89980300  0.04662800  0.92463800  1
  O  O75  1  0.74955100  0.25158200  0.92190500  1
  O  O76  1  0.10019700  0.54662800  0.92463800  1
  O  O77  1  0.25044900  0.75158200  0.92190500  1
  O  O78  1  0.42015800  0.36060600  0.98547500  1
  O  O79  1  0.57984200  0.86060600  0.98547500  1
