# generated using pymatgen
data_Li5Cu(PO4)2
_symmetry_space_group_name_H-M   'P 1'
_cell_length_a   5.35367100
_cell_length_b   6.20281806
_cell_length_c   9.95127512
_cell_angle_alpha   89.89371957
_cell_angle_beta   89.99831877
_cell_angle_gamma   89.99185292
_symmetry_Int_Tables_number   1
_chemical_formula_structural   Li5Cu(PO4)2
_chemical_formula_sum   'Li10 Cu2 P4 O16'
_cell_volume   330.45985158
_cell_formula_units_Z   2
loop_
 _symmetry_equiv_pos_site_id
 _symmetry_equiv_pos_as_xyz
  1  'x, y, z'
loop_
 _atom_site_type_symbol
 _atom_site_label
 _atom_site_symmetry_multiplicity
 _atom_site_fract_x
 _atom_site_fract_y
 _atom_site_fract_z
 _atom_site_occupancy
  Li  Li0  1  0.84493600  0.00003900  0.74562600  1
  Li  Li1  1  0.84366600  0.99980500  0.24569600  1
  Li  Li2  1  0.67245100  0.24557500  0.49435700  1
  Li  Li3  1  0.67340700  0.24815300  0.99683700  1
  Li  Li4  1  0.32699800  0.25228600  0.24465200  1
  Li  Li5  1  0.15529400  0.50044700  0.99599000  1
  Li  Li6  1  0.15616300  0.49925700  0.49506400  1
  Li  Li7  1  0.32852500  0.74747400  0.74537400  1
  Li  Li8  1  0.32595200  0.74624800  0.24600800  1
  Li  Li9  1  0.67316600  0.75232800  0.49400400  1
  Cu  Cu10  1  0.33424400  0.25673300  0.74849900  1
  Cu  Cu11  1  0.66550500  0.75648500  0.99900700  1
  P  P12  1  0.17389400  0.00215100  0.00206700  1
  P  P13  1  0.17311200  0.99721300  0.49650400  1
  P  P14  1  0.82645300  0.49812700  0.25246600  1
  P  P15  1  0.82648700  0.50118400  0.74627300  1
  O  O16  1  0.17339200  0.99106600  0.65349300  1
  O  O17  1  0.89678600  0.99859800  0.44665900  1
  O  O18  1  0.17623200  0.99628000  0.15829700  1
  O  O19  1  0.90152000  0.01428900  0.94705500  1
  O  O20  1  0.31126300  0.20390800  0.44570200  1
  O  O21  1  0.31863800  0.20906200  0.95690400  1
  O  O22  1  0.68805600  0.29430300  0.19814500  1
  O  O23  1  0.70294000  0.29053500  0.69079800  1
  O  O24  1  0.82808200  0.49110100  0.90305700  1
  O  O25  1  0.10059100  0.51296200  0.69349900  1
  O  O26  1  0.82204600  0.49637100  0.40870300  1
  O  O27  1  0.10120600  0.50010800  0.20031500  1
  O  O28  1  0.68326700  0.70490200  0.69631800  1
  O  O29  1  0.68655500  0.70797900  0.20630300  1
  O  O30  1  0.31186700  0.79190700  0.44451100  1
  O  O31  1  0.29730800  0.79312500  0.94441000  1
