# generated using pymatgen
data_Li2MnCo(PO4)2
_symmetry_space_group_name_H-M   'P 1'
_cell_length_a   4.77660666
_cell_length_b   10.44174732
_cell_length_c   6.08521052
_cell_angle_alpha   90.12629346
_cell_angle_beta   89.94051947
_cell_angle_gamma   89.99919464
_symmetry_Int_Tables_number   1
_chemical_formula_structural   Li2MnCo(PO4)2
_chemical_formula_sum   'Li4 Mn2 Co2 P4 O16'
_cell_volume   303.50578748
_cell_formula_units_Z   2
loop_
 _symmetry_equiv_pos_site_id
 _symmetry_equiv_pos_as_xyz
  1  'x, y, z'
loop_
 _atom_site_type_symbol
 _atom_site_label
 _atom_site_symmetry_multiplicity
 _atom_site_fract_x
 _atom_site_fract_y
 _atom_site_fract_z
 _atom_site_occupancy
  Li  Li0  1  0.99879500  0.00064000  0.00016100  1
  Li  Li1  1  0.99807200  0.00139500  0.49923900  1
  Li  Li2  1  0.49927300  0.50014900  0.99895000  1
  Li  Li3  1  0.50035400  0.50057800  0.50119300  1
  Mn  Mn4  1  0.52025700  0.77830300  0.24887100  1
  Mn  Mn5  1  0.47972600  0.22143900  0.75003000  1
  Co  Co6  1  0.02279100  0.71946500  0.74965200  1
  Co  Co7  1  0.97905300  0.28288500  0.24973400  1
  P  P8  1  0.40993400  0.09685800  0.25000500  1
  P  P9  1  0.58921000  0.90264300  0.74996100  1
  P  P10  1  0.92010900  0.41010600  0.74974200  1
  P  P11  1  0.08148700  0.58958200  0.25066900  1
  O  O12  1  0.70523400  0.04175900  0.74833100  1
  O  O13  1  0.29342300  0.95768100  0.24994700  1
  O  O14  1  0.73177000  0.10327000  0.24961700  1
  O  O15  1  0.26706200  0.89658800  0.75227600  1
  O  O16  1  0.24144100  0.40752900  0.75006600  1
  O  O17  1  0.75997500  0.59216400  0.25036700  1
  O  O18  1  0.20749700  0.45193600  0.25158800  1
  O  O19  1  0.79443900  0.54781200  0.74920200  1
  O  O20  1  0.27123400  0.16571000  0.04796500  1
  O  O21  1  0.27075400  0.16575900  0.45241600  1
  O  O22  1  0.72456200  0.83237100  0.54783400  1
  O  O23  1  0.73029200  0.83487000  0.95187100  1
  O  O24  1  0.78788400  0.33859600  0.54643300  1
  O  O25  1  0.78758400  0.33939400  0.95353600  1
  O  O26  1  0.21349100  0.65950000  0.04624000  1
  O  O27  1  0.21429700  0.66101800  0.45410200  1
