# generated using pymatgen
data_Li7V2P7O24
_symmetry_space_group_name_H-M   'P 1'
_cell_length_a   5.20355300
_cell_length_b   11.73612800
_cell_length_c   15.18928997
_cell_angle_alpha   83.20519378
_cell_angle_beta   90.00000000
_cell_angle_gamma   90.00000000
_symmetry_Int_Tables_number   1
_chemical_formula_structural   Li7V2P7O24
_chemical_formula_sum   'Li14 V4 P14 O48'
_cell_volume   921.08805121
_cell_formula_units_Z   2
loop_
 _symmetry_equiv_pos_site_id
 _symmetry_equiv_pos_as_xyz
  1  'x, y, z'
loop_
 _atom_site_type_symbol
 _atom_site_label
 _atom_site_symmetry_multiplicity
 _atom_site_fract_x
 _atom_site_fract_y
 _atom_site_fract_z
 _atom_site_occupancy
  Li  Li0  1  0.26038200  0.48374000  0.04966300  1
  Li  Li1  1  0.20811900  0.11646800  0.13558400  1
  Li  Li2  1  0.73961800  0.98374000  0.04966300  1
  Li  Li3  1  0.79188100  0.61646800  0.13558400  1
  Li  Li4  1  0.84183900  0.43725300  0.40872900  1
  Li  Li5  1  0.15816100  0.93725300  0.40872900  1
  Li  Li6  1  0.28835700  0.25000000  0.50000000  1
  Li  Li7  1  0.71164300  0.75000000  0.50000000  1
  Li  Li8  1  0.84183900  0.06274700  0.59127100  1
  Li  Li9  1  0.15816100  0.56274700  0.59127100  1
  Li  Li10  1  0.20811900  0.38353200  0.86441600  1
  Li  Li11  1  0.26038200  0.01626000  0.95033700  1
  Li  Li12  1  0.79188100  0.88353200  0.86441600  1
  Li  Li13  1  0.73961800  0.51626000  0.95033700  1
  V  V14  1  0.36247400  0.31086700  0.27852000  1
  V  V15  1  0.63752600  0.81086700  0.27852000  1
  V  V16  1  0.36247400  0.18913300  0.72148000  1
  V  V17  1  0.63752600  0.68913300  0.72148000  1
  P  P18  1  0.56800600  0.25000000  0.00000000  1
  P  P19  1  0.43199400  0.75000000  0.00000000  1
  P  P20  1  0.87597300  0.34213300  0.14072300  1
  P  P21  1  0.12402700  0.84213300  0.14072300  1
  P  P22  1  0.61118000  0.04757900  0.27838200  1
  P  P23  1  0.38882000  0.54757900  0.27838200  1
  P  P24  1  0.84989900  0.19652000  0.39160900  1
  P  P25  1  0.15010100  0.69652000  0.39160900  1
  P  P26  1  0.84989900  0.30348000  0.60839100  1
  P  P27  1  0.15010100  0.80348000  0.60839100  1
  P  P28  1  0.61118000  0.45242100  0.72161800  1
  P  P29  1  0.38882000  0.95242100  0.72161800  1
  P  P30  1  0.87597300  0.15786700  0.85927700  1
  P  P31  1  0.12402700  0.65786700  0.85927700  1
  O  O32  1  0.42336800  0.13749400  0.01497300  1
  O  O33  1  0.57663200  0.63749400  0.01497300  1
  O  O34  1  0.76159400  0.24447100  0.08199100  1
  O  O35  1  0.89348800  0.45541900  0.08016900  1
  O  O36  1  0.23840600  0.74447100  0.08199100  1
  O  O37  1  0.10651200  0.95541900  0.08016900  1
  O  O38  1  0.13439400  0.28486300  0.16788600  1
  O  O39  1  0.71627400  0.98441100  0.20366900  1
  O  O40  1  0.69707500  0.34766100  0.21743500  1
  O  O41  1  0.86560600  0.78486300  0.16788600  1
  O  O42  1  0.28372600  0.48441100  0.20366900  1
  O  O43  1  0.40838700  0.13854000  0.24942400  1
  O  O44  1  0.30292500  0.84766100  0.21743500  1
  O  O45  1  0.59161300  0.63854000  0.24942400  1
  O  O46  1  0.85989700  0.11043600  0.31452500  1
  O  O47  1  0.14010300  0.61043600  0.31452500  1
  O  O48  1  0.03230100  0.29677900  0.35967300  1
  O  O49  1  0.47963900  0.45416700  0.35172100  1
  O  O50  1  0.56539000  0.23491200  0.39648800  1
  O  O51  1  0.96769900  0.79677900  0.35967300  1
  O  O52  1  0.52036100  0.95416700  0.35172100  1
  O  O53  1  0.43461000  0.73491200  0.39648800  1
  O  O54  1  0.95292500  0.12682900  0.47428600  1
  O  O55  1  0.04707500  0.62682900  0.47428600  1
  O  O56  1  0.95292500  0.37317100  0.52571400  1
  O  O57  1  0.04707500  0.87317100  0.52571400  1
  O  O58  1  0.56539000  0.26508800  0.60351200  1
  O  O59  1  0.47963900  0.04583300  0.64827900  1
  O  O60  1  0.03230100  0.20322100  0.64032700  1
  O  O61  1  0.43461000  0.76508800  0.60351200  1
  O  O62  1  0.52036100  0.54583300  0.64827900  1
  O  O63  1  0.96769900  0.70322100  0.64032700  1
  O  O64  1  0.85989700  0.38956400  0.68547500  1
  O  O65  1  0.14010300  0.88956400  0.68547500  1
  O  O66  1  0.40838700  0.36146000  0.75057600  1
  O  O67  1  0.69707500  0.15233900  0.78256500  1
  O  O68  1  0.59161300  0.86146000  0.75057600  1
  O  O69  1  0.71627400  0.51558900  0.79633100  1
  O  O70  1  0.13439400  0.21513700  0.83211400  1
  O  O71  1  0.30292500  0.65233900  0.78256500  1
  O  O72  1  0.28372600  0.01558900  0.79633100  1
  O  O73  1  0.86560600  0.71513700  0.83211400  1
  O  O74  1  0.89348800  0.04458100  0.91983100  1
  O  O75  1  0.76159400  0.25552900  0.91800900  1
  O  O76  1  0.10651200  0.54458100  0.91983100  1
  O  O77  1  0.23840600  0.75552900  0.91800900  1
  O  O78  1  0.42336800  0.36250600  0.98502700  1
  O  O79  1  0.57663200  0.86250600  0.98502700  1
