# generated using pymatgen
data_Li3Fe5(PO4)6
_symmetry_space_group_name_H-M   'P 1'
_cell_length_a   7.95909300
_cell_length_b   8.40222406
_cell_length_c   8.85579680
_cell_angle_alpha   105.23321629
_cell_angle_beta   109.74219939
_cell_angle_gamma   108.56112608
_symmetry_Int_Tables_number   1
_chemical_formula_structural   Li3Fe5(PO4)6
_chemical_formula_sum   'Li3 Fe5 P6 O24'
_cell_volume   480.77207380
_cell_formula_units_Z   1
loop_
 _symmetry_equiv_pos_site_id
 _symmetry_equiv_pos_as_xyz
  1  'x, y, z'
loop_
 _atom_site_type_symbol
 _atom_site_label
 _atom_site_symmetry_multiplicity
 _atom_site_fract_x
 _atom_site_fract_y
 _atom_site_fract_z
 _atom_site_occupancy
  Li  Li0  1  0.31853700  0.80073700  0.29986700  1
  Li  Li1  1  0.70615800  0.05598100  0.00319300  1
  Li  Li2  1  0.06483400  0.23635100  0.52596400  1
  Fe  Fe3  1  0.82368400  0.28318800  0.84318800  1
  Fe  Fe4  1  0.55300800  0.59186900  0.23843200  1
  Fe  Fe5  1  0.22706900  0.98498000  0.03734400  1
  Fe  Fe6  1  0.49500100  0.47339700  0.68128100  1
  Fe  Fe7  1  0.99765500  0.68769200  0.45046100  1
  P  P8  1  0.84498400  0.74610400  0.07584100  1
  P  P9  1  0.65566600  0.28363600  0.41049400  1
  P  P10  1  0.72937800  0.84101700  0.61130000  1
  P  P11  1  0.34544900  0.09839700  0.74988300  1
  P  P12  1  0.24474000  0.60633600  0.88548500  1
  P  P13  1  0.14310200  0.40070500  0.25818600  1
  O  O14  1  0.90298700  0.80300400  0.60132200  1
  O  O15  1  0.62734200  0.33929500  0.58095400  1
  O  O16  1  0.82439600  0.70486000  0.23816000  1
  O  O17  1  0.70860200  0.45307500  0.35537900  1
  O  O18  1  0.81229800  0.04387200  0.73443500  1
  O  O19  1  0.45029100  0.12313300  0.25839100  1
  O  O20  1  0.72851000  0.54939400  0.91821400  1
  O  O21  1  0.81412400  0.22011700  0.43901700  1
  O  O22  1  0.27078300  0.10830900  0.89168800  1
  O  O23  1  0.31045200  0.23527200  0.67330900  1
  O  O24  1  0.58401600  0.80420700  0.42105700  1
  O  O25  1  0.40683900  0.67077600  0.07430200  1
  O  O26  1  0.20518500  0.77280000  0.87587600  1
  O  O27  1  0.94135400  0.27997000  0.08534800  1
  O  O28  1  0.57230300  0.15527000  0.84536200  1
  O  O29  1  0.24826200  0.90693300  0.59456700  1
  O  O30  1  0.30928300  0.41817700  0.20007300  1
  O  O31  1  0.76153400  0.87630900  0.04673400  1
  O  O32  1  0.30919700  0.55048200  0.74424700  1
  O  O33  1  0.05078700  0.44493800  0.84584000  1
  O  O34  1  0.61228700  0.70589100  0.66814300  1
  O  O35  1  0.07340300  0.83007600  0.12817000  1
  O  O36  1  0.14286400  0.59180100  0.33597300  1
  O  O37  1  0.18363900  0.32165200  0.39467300  1
