# generated using pymatgen
data_Li3Fe4(BO3)4
_symmetry_space_group_name_H-M   'P 1'
_cell_length_a   5.25119400
_cell_length_b   9.05982686
_cell_length_c   10.19564183
_cell_angle_alpha   90.14439558
_cell_angle_beta   91.55704392
_cell_angle_gamma   90.38624457
_symmetry_Int_Tables_number   1
_chemical_formula_structural   Li3Fe4(BO3)4
_chemical_formula_sum   'Li6 Fe8 B8 O24'
_cell_volume   484.86483743
_cell_formula_units_Z   2
loop_
 _symmetry_equiv_pos_site_id
 _symmetry_equiv_pos_as_xyz
  1  'x, y, z'
loop_
 _atom_site_type_symbol
 _atom_site_label
 _atom_site_symmetry_multiplicity
 _atom_site_fract_x
 _atom_site_fract_y
 _atom_site_fract_z
 _atom_site_occupancy
  Li  Li0  1  0.66553300  0.00650900  0.15808200  1
  Li  Li1  1  0.33799900  0.00652100  0.90957600  1
  Li  Li2  1  0.83906800  0.50325300  0.90497800  1
  Li  Li3  1  0.15585400  0.48856200  0.66294400  1
  Li  Li4  1  0.15817600  0.51225400  0.16583700  1
  Li  Li5  1  0.35171900  0.98895500  0.41878100  1
  Fe  Fe6  1  0.82722200  0.15868900  0.87373800  1
  Fe  Fe7  1  0.15820100  0.15324400  0.63511800  1
  Fe  Fe8  1  0.66862000  0.33908400  0.13002100  1
  Fe  Fe9  1  0.34181100  0.33429900  0.38292500  1
  Fe  Fe10  1  0.66123700  0.67348000  0.63100600  1
  Fe  Fe11  1  0.84459600  0.82954400  0.38109000  1
  Fe  Fe12  1  0.34158800  0.66438200  0.88506700  1
  Fe  Fe13  1  0.16213900  0.84161000  0.12799600  1
  B  B14  1  0.83101400  0.16646700  0.37624600  1
  B  B15  1  0.66477100  0.34072600  0.62733400  1
  B  B16  1  0.16526600  0.17094100  0.13135500  1
  B  B17  1  0.33689700  0.33081100  0.87641500  1
  B  B18  1  0.66632000  0.66878000  0.12491600  1
  B  B19  1  0.34232800  0.66859900  0.37913800  1
  B  B20  1  0.83619400  0.83456300  0.87727800  1
  B  B21  1  0.17549100  0.82562300  0.62601700  1
  O  O22  1  0.70485100  0.03425500  0.36283500  1
  O  O23  1  0.90660500  0.16515700  0.09949200  1
  O  O24  1  0.31242100  0.04632000  0.11652800  1
  O  O25  1  0.79186200  0.21505200  0.66262600  1
  O  O26  1  0.69991600  0.29751400  0.34925900  1
  O  O27  1  0.21878700  0.19576800  0.84694400  1
  O  O28  1  0.09357200  0.17197000  0.40982500  1
  O  O29  1  0.59231600  0.33637200  0.91661000  1
  O  O30  1  0.78664200  0.47609800  0.64039500  1
  O  O31  1  0.40364400  0.33620800  0.58344500  1
  O  O32  1  0.27954800  0.30472300  0.17493700  1
  O  O33  1  0.81295300  0.54337500  0.10776100  1
  O  O34  1  0.19703400  0.45957600  0.86273700  1
  O  O35  1  0.72539400  0.69900100  0.83514300  1
  O  O36  1  0.58213500  0.67792300  0.43738000  1
  O  O37  1  0.22625400  0.53226800  0.35732300  1
  O  O38  1  0.40475300  0.66251800  0.09487600  1
  O  O39  1  0.91878100  0.81685900  0.59230500  1
  O  O40  1  0.78008600  0.80004000  0.16645600  1
  O  O41  1  0.29655600  0.69403800  0.66753300  1
  O  O42  1  0.22064200  0.79746500  0.34020600  1
  O  O43  1  0.68659300  0.95662100  0.88750200  1
  O  O44  1  0.09458200  0.83806200  0.91279000  1
  O  O45  1  0.30620300  0.95470200  0.61228000  1
