# generated using pymatgen
data_LiNi3O4
_symmetry_space_group_name_H-M   'P 1'
_cell_length_a   5.13758134
_cell_length_b   5.13800613
_cell_length_c   5.82978031
_cell_angle_alpha   89.99946215
_cell_angle_beta   90.00202126
_cell_angle_gamma   110.28088882
_symmetry_Int_Tables_number   1
_chemical_formula_structural   LiNi3O4
_chemical_formula_sum   'Li2 Ni6 O8'
_cell_volume   144.34790580
_cell_formula_units_Z   2
loop_
 _symmetry_equiv_pos_site_id
 _symmetry_equiv_pos_as_xyz
  1  'x, y, z'
loop_
 _atom_site_type_symbol
 _atom_site_label
 _atom_site_symmetry_multiplicity
 _atom_site_fract_x
 _atom_site_fract_y
 _atom_site_fract_z
 _atom_site_occupancy
  Li  Li0  1  0.99999500  0.50000500  0.25000700  1
  Li  Li1  1  0.99999300  0.50000300  0.75000600  1
  Ni  Ni2  1  0.50001000  0.99998400  0.75000400  1
  Ni  Ni3  1  0.00001100  0.00000800  0.49831700  1
  Ni  Ni4  1  0.49999600  0.49999600  0.00165600  1
  Ni  Ni5  1  0.49999700  0.00000300  0.25000900  1
  Ni  Ni6  1  0.00000700  0.00000900  0.00125500  1
  Ni  Ni7  1  0.49999700  0.49998700  0.49874300  1
  O  O8  1  0.27103800  0.77112100  0.01106200  1
  O  O9  1  0.27110700  0.77108500  0.48893200  1
  O  O10  1  0.72894700  0.22885700  0.01107400  1
  O  O11  1  0.72889700  0.22892600  0.48894700  1
  O  O12  1  0.74962300  0.75033500  0.25000100  1
  O  O13  1  0.75232000  0.74766400  0.74999200  1
  O  O14  1  0.25037900  0.24967000  0.24999000  1
  O  O15  1  0.24768300  0.25234600  0.75000500  1
