# generated using pymatgen
data_Li5Cr6P5O24
_symmetry_space_group_name_H-M   'P 1'
_cell_length_a   6.50830200
_cell_length_b   6.78492310
_cell_length_c   10.55214033
_cell_angle_alpha   107.92619690
_cell_angle_beta   107.92743554
_cell_angle_gamma   89.74141785
_symmetry_Int_Tables_number   1
_chemical_formula_structural   Li5Cr6P5O24
_chemical_formula_sum   'Li5 Cr6 P5 O24'
_cell_volume   419.71790076
_cell_formula_units_Z   1
loop_
 _symmetry_equiv_pos_site_id
 _symmetry_equiv_pos_as_xyz
  1  'x, y, z'
loop_
 _atom_site_type_symbol
 _atom_site_label
 _atom_site_symmetry_multiplicity
 _atom_site_fract_x
 _atom_site_fract_y
 _atom_site_fract_z
 _atom_site_occupancy
  Li  Li0  1  0.23546100  0.23360000  0.47622400  1
  Li  Li1  1  0.27907800  0.77096600  0.52254200  1
  Li  Li2  1  0.50504200  0.48491000  0.98361600  1
  Li  Li3  1  0.98119100  0.49121900  0.96191700  1
  Li  Li4  1  0.51019000  0.01633700  0.02826900  1
  Cr  Cr5  1  0.64061500  0.62349700  0.75230900  1
  Cr  Cr6  1  0.56066800  0.12960200  0.75702300  1
  Cr  Cr7  1  0.87472400  0.36432900  0.24953300  1
  Cr  Cr8  1  0.12845100  0.13232700  0.75356800  1
  Cr  Cr9  1  0.76967500  0.76800300  0.53642200  1
  Cr  Cr10  1  0.36824600  0.88164200  0.24468400  1
  P  P11  1  0.99500600  0.00395700  0.00126500  1
  P  P12  1  0.23393000  0.62399600  0.75081000  1
  P  P13  1  0.87242600  0.76083700  0.24840400  1
  P  P14  1  0.74295000  0.24269500  0.49400400  1
  P  P15  1  0.36951100  0.48592500  0.24504800  1
  O  O16  1  0.90039000  0.77472200  0.91966600  1
  O  O17  1  0.61635000  0.85787100  0.67970300  1
  O  O18  1  0.68470200  0.38709400  0.81799300  1
  O  O19  1  0.19653200  0.38088600  0.28038600  1
  O  O20  1  0.32263100  0.52640000  0.62430200  1
  O  O21  1  0.44741800  0.72396700  0.87718500  1
  O  O22  1  0.42054300  0.16309800  0.88594200  1
  O  O23  1  0.29113500  0.08974800  0.62121300  1
  O  O24  1  0.08006700  0.89703900  0.28020500  1
  O  O25  1  0.84554600  0.10276800  0.09043400  1
  O  O26  1  0.83838300  0.54880800  0.12602000  1
  O  O27  1  0.09256000  0.79651400  0.71227400  1
  O  O28  1  0.12875800  0.45519100  0.78831600  1
  O  O29  1  0.91161000  0.67544500  0.37951900  1
  O  O30  1  0.89934500  0.25214600  0.41023600  1
  O  O31  1  0.98895000  0.14203800  0.90597000  1
  O  O32  1  0.84000400  0.10747200  0.59144000  1
  O  O33  1  0.66401800  0.86794200  0.21781200  1
  O  O34  1  0.55136900  0.35123700  0.21975000  1
  O  O35  1  0.73064800  0.47118700  0.57999700  1
  O  O36  1  0.50658600  0.14289200  0.40884000  1
  O  O37  1  0.45684500  0.69948900  0.37159500  1
  O  O38  1  0.28196900  0.57430300  0.11865700  1
  O  O39  1  0.23647400  0.99789900  0.08690300  1
