# generated using pymatgen
data_Li2Co2(SO4)3
_symmetry_space_group_name_H-M   'P 1'
_cell_length_a   8.66036300
_cell_length_b   8.83685500
_cell_length_c   12.23585100
_cell_angle_alpha   90.00000000
_cell_angle_beta   90.00000000
_cell_angle_gamma   90.00000000
_symmetry_Int_Tables_number   1
_chemical_formula_structural   Li2Co2(SO4)3
_chemical_formula_sum   'Li8 Co8 S12 O48'
_cell_volume   936.41422973
_cell_formula_units_Z   4
loop_
 _symmetry_equiv_pos_site_id
 _symmetry_equiv_pos_as_xyz
  1  'x, y, z'
loop_
 _atom_site_type_symbol
 _atom_site_label
 _atom_site_symmetry_multiplicity
 _atom_site_fract_x
 _atom_site_fract_y
 _atom_site_fract_z
 _atom_site_occupancy
  Li  Li0  1  0.21791500  0.27558500  0.18361900  1
  Li  Li1  1  0.78208500  0.77558500  0.18361900  1
  Li  Li2  1  0.28208500  0.77558500  0.31638100  1
  Li  Li3  1  0.71791500  0.27558500  0.31638100  1
  Li  Li4  1  0.28208500  0.72441500  0.68361900  1
  Li  Li5  1  0.71791500  0.22441500  0.68361900  1
  Li  Li6  1  0.21791500  0.22441500  0.81638100  1
  Li  Li7  1  0.78208500  0.72441500  0.81638100  1
  Co  Co8  1  0.25375700  0.96263300  0.11330800  1
  Co  Co9  1  0.74624300  0.46263300  0.11330800  1
  Co  Co10  1  0.75375700  0.96263300  0.38669200  1
  Co  Co11  1  0.24624300  0.46263300  0.38669200  1
  Co  Co12  1  0.24624300  0.03736700  0.61330800  1
  Co  Co13  1  0.75375700  0.53736700  0.61330800  1
  Co  Co14  1  0.25375700  0.53736700  0.88669200  1
  Co  Co15  1  0.74624300  0.03736700  0.88669200  1
  S  S16  1  0.45942400  0.25000000  0.00000000  1
  S  S17  1  0.54057600  0.75000000  0.00000000  1
  S  S18  1  0.10115600  0.60582500  0.14457300  1
  S  S19  1  0.89884400  0.10582500  0.14457300  1
  S  S20  1  0.39884400  0.10582500  0.35542700  1
  S  S21  1  0.60115600  0.60582500  0.35542700  1
  S  S22  1  0.04057600  0.75000000  0.50000000  1
  S  S23  1  0.95942400  0.25000000  0.50000000  1
  S  S24  1  0.39884400  0.39417500  0.64457300  1
  S  S25  1  0.60115600  0.89417500  0.64457300  1
  S  S26  1  0.10115600  0.89417500  0.85542700  1
  S  S27  1  0.89884400  0.39417500  0.85542700  1
  O  O28  1  0.13577800  0.57485600  0.02982900  1
  O  O29  1  0.86422200  0.07485600  0.02982900  1
  O  O30  1  0.55107500  0.36403400  0.05843500  1
  O  O31  1  0.44892500  0.86403400  0.05843500  1
  O  O32  1  0.35754300  0.17440200  0.08253900  1
  O  O33  1  0.64245700  0.67440200  0.08253900  1
  O  O34  1  0.07035000  0.11140400  0.16084800  1
  O  O35  1  0.92965000  0.61140400  0.16084800  1
  O  O36  1  0.16671600  0.75420200  0.18015500  1
  O  O37  1  0.83328400  0.25420200  0.18015500  1
  O  O38  1  0.83338600  0.98353300  0.21572500  1
  O  O39  1  0.16661400  0.48353300  0.21572500  1
  O  O40  1  0.33338600  0.98353300  0.28427500  1
  O  O41  1  0.66661400  0.48353300  0.28427500  1
  O  O42  1  0.66671600  0.75420200  0.31984500  1
  O  O43  1  0.33328400  0.25420200  0.31984500  1
  O  O44  1  0.42965000  0.61140400  0.33915200  1
  O  O45  1  0.57035000  0.11140400  0.33915200  1
  O  O46  1  0.14245700  0.67440200  0.41746100  1
  O  O47  1  0.85754300  0.17440200  0.41746100  1
  O  O48  1  0.05107500  0.36403400  0.44156500  1
  O  O49  1  0.94892500  0.86403400  0.44156500  1
  O  O50  1  0.63577800  0.57485600  0.47017100  1
  O  O51  1  0.36422200  0.07485600  0.47017100  1
  O  O52  1  0.36422200  0.42514400  0.52982900  1
  O  O53  1  0.63577800  0.92514400  0.52982900  1
  O  O54  1  0.05107500  0.13596600  0.55843500  1
  O  O55  1  0.94892500  0.63596600  0.55843500  1
  O  O56  1  0.14245700  0.82559800  0.58253900  1
  O  O57  1  0.85754300  0.32559800  0.58253900  1
  O  O58  1  0.42965000  0.88859600  0.66084800  1
  O  O59  1  0.57035000  0.38859600  0.66084800  1
  O  O60  1  0.33328400  0.24579800  0.68015500  1
  O  O61  1  0.66671600  0.74579800  0.68015500  1
  O  O62  1  0.33338600  0.51646700  0.71572500  1
  O  O63  1  0.66661400  0.01646700  0.71572500  1
  O  O64  1  0.16661400  0.01646700  0.78427500  1
  O  O65  1  0.83338600  0.51646700  0.78427500  1
  O  O66  1  0.16671600  0.74579800  0.81984500  1
  O  O67  1  0.83328400  0.24579800  0.81984500  1
  O  O68  1  0.07035000  0.38859600  0.83915200  1
  O  O69  1  0.92965000  0.88859600  0.83915200  1
  O  O70  1  0.35754300  0.32559800  0.91746100  1
  O  O71  1  0.64245700  0.82559800  0.91746100  1
  O  O72  1  0.44892500  0.63596600  0.94156500  1
  O  O73  1  0.55107500  0.13596600  0.94156500  1
  O  O74  1  0.13577800  0.92514400  0.97017100  1
  O  O75  1  0.86422200  0.42514400  0.97017100  1
