# generated using pymatgen
data_Li3TiV3O8
_symmetry_space_group_name_H-M   'P 1'
_cell_length_a   5.98236289
_cell_length_b   8.46993876
_cell_length_c   6.04052408
_cell_angle_alpha   89.39808904
_cell_angle_beta   90.00013268
_cell_angle_gamma   89.99959708
_symmetry_Int_Tables_number   1
_chemical_formula_structural   Li3TiV3O8
_chemical_formula_sum   'Li6 Ti2 V6 O16'
_cell_volume   306.05795962
_cell_formula_units_Z   2
loop_
 _symmetry_equiv_pos_site_id
 _symmetry_equiv_pos_as_xyz
  1  'x, y, z'
loop_
 _atom_site_type_symbol
 _atom_site_label
 _atom_site_symmetry_multiplicity
 _atom_site_fract_x
 _atom_site_fract_y
 _atom_site_fract_z
 _atom_site_occupancy
  Li  Li0  1  0.25003600  0.75038800  0.75019000  1
  Li  Li1  1  0.74996600  0.24961200  0.24978700  1
  Li  Li2  1  0.75005800  0.74964000  0.74977400  1
  Li  Li3  1  0.24993700  0.25035500  0.25019800  1
  Li  Li4  1  0.50000000  0.50000000  0.99999000  1
  Li  Li5  1  0.00000000  0.00000200  0.49999100  1
  Ti  Ti6  1  0.49998100  0.49999000  0.49995700  1
  Ti  Ti7  1  0.00001200  0.99998000  0.99996500  1
  V  V8  1  0.75060000  0.25095600  0.74959100  1
  V  V9  1  0.24940500  0.74902900  0.25038500  1
  V  V10  1  0.50003500  0.00005000  0.00016900  1
  V  V11  1  0.74943200  0.75097900  0.24962800  1
  V  V12  1  0.25054400  0.24898900  0.75033800  1
  V  V13  1  0.00000500  0.50004800  0.50014100  1
  O  O14  1  0.49902300  0.75799700  0.01243200  1
  O  O15  1  0.00098200  0.25789500  0.51238300  1
  O  O16  1  0.50096500  0.24199800  0.98756000  1
  O  O17  1  0.99902700  0.74210300  0.48760300  1
  O  O18  1  0.26350600  0.50774300  0.27340400  1
  O  O19  1  0.75796300  0.00841800  0.77593000  1
  O  O20  1  0.74214100  0.50847400  0.27596000  1
  O  O21  1  0.23646500  0.00781000  0.77335300  1
  O  O22  1  0.50042900  0.26763300  0.51411100  1
  O  O23  1  0.99970800  0.76760400  0.01411200  1
  O  O24  1  0.73649100  0.49225600  0.72657900  1
  O  O25  1  0.24203600  0.99158200  0.22405400  1
  O  O26  1  0.25785600  0.49152900  0.72403300  1
  O  O27  1  0.76353300  0.99218600  0.22663900  1
  O  O28  1  0.49957900  0.73236300  0.48586800  1
  O  O29  1  0.00028200  0.23238800  0.98586300  1
