# generated using pymatgen
data_Na3Li5Mn5O9
_symmetry_space_group_name_H-M   'P 1'
_cell_length_a   5.89281800
_cell_length_b   5.90764971
_cell_length_c   9.04844029
_cell_angle_alpha   78.21080684
_cell_angle_beta   83.11683853
_cell_angle_gamma   60.12562716
_symmetry_Int_Tables_number   1
_chemical_formula_structural   Na3Li5Mn5O9
_chemical_formula_sum   'Na3 Li5 Mn5 O9'
_cell_volume   267.32092592
_cell_formula_units_Z   1
loop_
 _symmetry_equiv_pos_site_id
 _symmetry_equiv_pos_as_xyz
  1  'x, y, z'
loop_
 _atom_site_type_symbol
 _atom_site_label
 _atom_site_symmetry_multiplicity
 _atom_site_fract_x
 _atom_site_fract_y
 _atom_site_fract_z
 _atom_site_occupancy
  Na  Na0  1  0.07902000  0.46784000  0.43354400  1
  Na  Na1  1  0.39403100  0.77027700  0.42631100  1
  Na  Na2  1  0.72755000  0.12085900  0.44056100  1
  Li  Li3  1  0.01625100  0.92212600  0.18132200  1
  Li  Li4  1  0.38754700  0.40615000  0.65213000  1
  Li  Li5  1  0.70923800  0.73274000  0.63622600  1
  Li  Li6  1  0.06444500  0.06631500  0.62597000  1
  Li  Li7  1  0.36859600  0.61838700  0.03466000  1
  Mn  Mn8  1  0.01870500  0.68267500  0.85167600  1
  Mn  Mn9  1  0.41455000  0.17090500  0.18055300  1
  Mn  Mn10  1  0.77240400  0.52120200  0.18131700  1
  Mn  Mn11  1  0.37247000  0.02348100  0.85516900  1
  Mn  Mn12  1  0.74516500  0.30622600  0.85549600  1
  O  O13  1  0.07777000  0.16640300  0.27380200  1
  O  O14  1  0.42513000  0.49270300  0.24453100  1
  O  O15  1  0.73961600  0.83247100  0.27064900  1
  O  O16  1  0.38885400  0.07900200  0.62642300  1
  O  O17  1  0.72544700  0.39784200  0.62637600  1
  O  O18  1  0.05138800  0.73858700  0.62270700  1
  O  O19  1  0.37494300  0.33577500  0.93567900  1
  O  O20  1  0.68847300  0.64296300  0.93987400  1
  O  O21  1  0.06500000  0.95117500  0.95015500  1
