# generated using pymatgen
data_Li4Cr3FeO8
_symmetry_space_group_name_H-M   'P 1'
_cell_length_a   5.14616300
_cell_length_b   5.95423412
_cell_length_c   10.72852387
_cell_angle_alpha   97.96469420
_cell_angle_beta   103.81857779
_cell_angle_gamma   106.81917977
_symmetry_Int_Tables_number   1
_chemical_formula_structural   Li4Cr3FeO8
_chemical_formula_sum   'Li8 Cr6 Fe2 O16'
_cell_volume   297.84328719
_cell_formula_units_Z   2
loop_
 _symmetry_equiv_pos_site_id
 _symmetry_equiv_pos_as_xyz
  1  'x, y, z'
loop_
 _atom_site_type_symbol
 _atom_site_label
 _atom_site_symmetry_multiplicity
 _atom_site_fract_x
 _atom_site_fract_y
 _atom_site_fract_z
 _atom_site_occupancy
  Li  Li0  1  0.00000000  0.00000000  0.00000000  1
  Li  Li1  1  0.74973100  0.62457600  0.74982600  1
  Li  Li2  1  0.25026900  0.37542400  0.25017400  1
  Li  Li3  1  0.49954000  0.74976800  0.49957800  1
  Li  Li4  1  0.00000000  0.50000000  0.00000000  1
  Li  Li5  1  0.75105700  0.12564100  0.74977100  1
  Li  Li6  1  0.24894300  0.87435900  0.25022900  1
  Li  Li7  1  0.50046000  0.25023200  0.50042200  1
  Cr  Cr8  1  0.87463100  0.56202300  0.37464500  1
  Cr  Cr9  1  0.37508700  0.31269500  0.87514200  1
  Cr  Cr10  1  0.12453800  0.93744200  0.62461100  1
  Cr  Cr11  1  0.62491300  0.68730500  0.12485800  1
  Cr  Cr12  1  0.87546200  0.06255800  0.37538900  1
  Cr  Cr13  1  0.12536900  0.43797700  0.62535500  1
  Fe  Fe14  1  0.37510500  0.81295900  0.87504000  1
  Fe  Fe15  1  0.62489500  0.18704100  0.12496000  1
  O  O16  1  0.16322100  0.40046900  0.43941900  1
  O  O17  1  0.58428200  0.22420000  0.31181900  1
  O  O18  1  0.66792000  0.15298300  0.93843500  1
  O  O19  1  0.08399800  0.97510900  0.80997300  1
  O  O20  1  0.83677900  0.59953100  0.56058100  1
  O  O21  1  0.41571800  0.77580000  0.68818100  1
  O  O22  1  0.91678800  0.52873400  0.19012300  1
  O  O23  1  0.33341500  0.35025400  0.06013200  1
  O  O24  1  0.16278600  0.90088500  0.43934200  1
  O  O25  1  0.58641200  0.72394300  0.30998400  1
  O  O26  1  0.66658500  0.64974600  0.93986800  1
  O  O27  1  0.08321200  0.47126600  0.80987700  1
  O  O28  1  0.41358800  0.27605700  0.69001600  1
  O  O29  1  0.91600200  0.02489100  0.19002700  1
  O  O30  1  0.83721400  0.09911500  0.56065800  1
  O  O31  1  0.33208000  0.84701700  0.06156500  1
