# generated using pymatgen
data_Li4Mn3F10
_symmetry_space_group_name_H-M   'P 1'
_cell_length_a   9.99235159
_cell_length_b   9.99235159
_cell_length_c   5.21498177
_cell_angle_alpha   84.17869399
_cell_angle_beta   84.17869399
_cell_angle_gamma   111.36070107
_symmetry_Int_Tables_number   1
_chemical_formula_structural   Li4Mn3F10
_chemical_formula_sum   'Li8 Mn6 F20'
_cell_volume   477.02044037
_cell_formula_units_Z   2
loop_
 _symmetry_equiv_pos_site_id
 _symmetry_equiv_pos_as_xyz
  1  'x, y, z'
loop_
 _atom_site_type_symbol
 _atom_site_label
 _atom_site_symmetry_multiplicity
 _atom_site_fract_x
 _atom_site_fract_y
 _atom_site_fract_z
 _atom_site_occupancy
  Li  Li0  1  0.88027700  0.39809500  0.67557300  1
  Li  Li1  1  0.39809500  0.88027700  0.17557300  1
  Li  Li2  1  0.29039300  0.70960700  0.75000000  1
  Li  Li3  1  0.57705300  0.42294700  0.75000000  1
  Li  Li4  1  0.42294700  0.57705300  0.25000000  1
  Li  Li5  1  0.70960700  0.29039300  0.25000000  1
  Li  Li6  1  0.60190500  0.11972300  0.82442700  1
  Li  Li7  1  0.11972300  0.60190500  0.32442700  1
  Mn  Mn8  1  0.62403800  0.77913700  0.65629700  1
  Mn  Mn9  1  0.77913700  0.62403800  0.15629700  1
  Mn  Mn10  1  0.11498700  0.88501300  0.75000000  1
  Mn  Mn11  1  0.88501300  0.11498700  0.25000000  1
  Mn  Mn12  1  0.22086300  0.37596200  0.84370300  1
  Mn  Mn13  1  0.37596200  0.22086300  0.34370300  1
  F  F14  1  0.54150000  0.91191300  0.84299300  1
  F  F15  1  0.91191300  0.54150000  0.34299300  1
  F  F16  1  0.19826900  0.09833700  0.61719000  1
  F  F17  1  0.09833700  0.19826900  0.11719000  1
  F  F18  1  0.73514700  0.43923300  0.95190000  1
  F  F19  1  0.43923300  0.73514700  0.45190000  1
  F  F20  1  0.59618800  0.64933400  0.01082500  1
  F  F21  1  0.64933400  0.59618800  0.51082500  1
  F  F22  1  0.22914500  0.81574000  0.99533900  1
  F  F23  1  0.81574000  0.22914500  0.49533900  1
  F  F24  1  0.18426000  0.77085500  0.50466100  1
  F  F25  1  0.77085500  0.18426000  0.00466100  1
  F  F26  1  0.35066600  0.40381200  0.48917500  1
  F  F27  1  0.40381200  0.35066600  0.98917500  1
  F  F28  1  0.56076700  0.26485300  0.54810000  1
  F  F29  1  0.26485300  0.56076700  0.04810000  1
  F  F30  1  0.90166300  0.80173100  0.88281000  1
  F  F31  1  0.80173100  0.90166300  0.38281000  1
  F  F32  1  0.08808700  0.45850000  0.65700700  1
  F  F33  1  0.45850000  0.08808700  0.15700700  1
