# generated using pymatgen
data_LiTa3O8
_symmetry_space_group_name_H-M   'P 1'
_cell_length_a   3.91094800
_cell_length_b   8.98583900
_cell_length_c   17.16204200
_cell_angle_alpha   90.00000000
_cell_angle_beta   90.00000000
_cell_angle_gamma   90.00000000
_symmetry_Int_Tables_number   1
_chemical_formula_structural   LiTa3O8
_chemical_formula_sum   'Li4 Ta12 O32'
_cell_volume   603.12820027
_cell_formula_units_Z   4
loop_
 _symmetry_equiv_pos_site_id
 _symmetry_equiv_pos_as_xyz
  1  'x, y, z'
loop_
 _atom_site_type_symbol
 _atom_site_label
 _atom_site_symmetry_multiplicity
 _atom_site_fract_x
 _atom_site_fract_y
 _atom_site_fract_z
 _atom_site_occupancy
  Li  Li0  1  0.00000000  0.06558800  0.38644500  1
  Li  Li1  1  0.00000000  0.93441200  0.61355500  1
  Li  Li2  1  0.00000000  0.06558800  0.11355500  1
  Li  Li3  1  0.00000000  0.93441200  0.88644500  1
  Ta  Ta4  1  0.50000000  0.80797300  0.44066700  1
  Ta  Ta5  1  0.50000000  0.19202700  0.55933300  1
  Ta  Ta6  1  0.50000000  0.80797300  0.05933300  1
  Ta  Ta7  1  0.50000000  0.19202700  0.94066700  1
  Ta  Ta8  1  0.50000000  0.68790200  0.25000000  1
  Ta  Ta9  1  0.50000000  0.31209800  0.75000000  1
  Ta  Ta10  1  0.50000000  0.39695100  0.36754900  1
  Ta  Ta11  1  0.50000000  0.60304900  0.63245100  1
  Ta  Ta12  1  0.50000000  0.39695100  0.13245100  1
  Ta  Ta13  1  0.50000000  0.60304900  0.86754900  1
  Ta  Ta14  1  0.50000000  0.05409300  0.25000000  1
  Ta  Ta15  1  0.50000000  0.94590700  0.75000000  1
  O  O16  1  0.50000000  0.17891800  0.34183000  1
  O  O17  1  0.50000000  0.82108200  0.65817000  1
  O  O18  1  0.50000000  0.17891800  0.15817000  1
  O  O19  1  0.50000000  0.82108200  0.84183000  1
  O  O20  1  0.50000000  0.45403600  0.25000000  1
  O  O21  1  0.50000000  0.54596400  0.75000000  1
  O  O22  1  0.00000000  0.84256600  0.43329500  1
  O  O23  1  0.00000000  0.15743400  0.56670500  1
  O  O24  1  0.00000000  0.84256600  0.06670500  1
  O  O25  1  0.00000000  0.15743400  0.93329500  1
  O  O26  1  0.00000000  0.69308200  0.25000000  1
  O  O27  1  0.00000000  0.30691800  0.75000000  1
  O  O28  1  0.50000000  0.62074900  0.36913600  1
  O  O29  1  0.50000000  0.37925100  0.63086400  1
  O  O30  1  0.50000000  0.62074900  0.13086400  1
  O  O31  1  0.50000000  0.37925100  0.86913600  1
  O  O32  1  0.00000000  0.39346800  0.36787500  1
  O  O33  1  0.00000000  0.60653200  0.63212500  1
  O  O34  1  0.00000000  0.39346800  0.13212500  1
  O  O35  1  0.00000000  0.60653200  0.86787500  1
  O  O36  1  0.00000000  0.05996300  0.25000000  1
  O  O37  1  0.00000000  0.94003700  0.75000000  1
  O  O38  1  0.50000000  0.87752800  0.32363800  1
  O  O39  1  0.50000000  0.12247200  0.67636200  1
  O  O40  1  0.50000000  0.87752800  0.17636200  1
  O  O41  1  0.50000000  0.12247200  0.82363800  1
  O  O42  1  0.50000000  0.33047300  0.47706600  1
  O  O43  1  0.50000000  0.66952700  0.52293400  1
  O  O44  1  0.50000000  0.33047300  0.02293400  1
  O  O45  1  0.50000000  0.66952700  0.97706600  1
  O  O46  1  0.50000000  0.00000000  0.50000000  1
  O  O47  1  0.50000000  0.00000000  0.00000000  1
