# generated using pymatgen
data_Li4V2Co3Sb3O16
_symmetry_space_group_name_H-M   'P 1'
_cell_length_a   6.13703475
_cell_length_b   6.09815665
_cell_length_c   9.74016335
_cell_angle_alpha   89.98112472
_cell_angle_beta   90.79921709
_cell_angle_gamma   119.77831066
_symmetry_Int_Tables_number   1
_chemical_formula_structural   Li4V2Co3Sb3O16
_chemical_formula_sum   'Li4 V2 Co3 Sb3 O16'
_cell_volume   316.34797941
_cell_formula_units_Z   1
loop_
 _symmetry_equiv_pos_site_id
 _symmetry_equiv_pos_as_xyz
  1  'x, y, z'
loop_
 _atom_site_type_symbol
 _atom_site_label
 _atom_site_symmetry_multiplicity
 _atom_site_fract_x
 _atom_site_fract_y
 _atom_site_fract_z
 _atom_site_occupancy
  Li  Li0  1  0.33912700  0.66973600  0.88670400  1
  Li  Li1  1  0.95646400  0.97825700  0.98058300  1
  Li  Li2  1  0.98770400  0.99388300  0.50788800  1
  Li  Li3  1  0.64885600  0.32438300  0.40338400  1
  V  V4  1  0.35656500  0.67821100  0.49999800  1
  V  V5  1  0.69444600  0.34731200  0.97561800  1
  Co  Co6  1  0.65807700  0.82899000  0.21546700  1
  Co  Co7  1  0.85076400  0.65811500  0.71661500  1
  Co  Co8  1  0.85118400  0.19324400  0.71670300  1
  Sb  Sb9  1  0.16264800  0.82874000  0.21519600  1
  Sb  Sb10  1  0.16265800  0.33398400  0.21520500  1
  Sb  Sb11  1  0.35310900  0.17631900  0.71336000  1
  O  O12  1  0.18511700  0.84458700  0.59275800  1
  O  O13  1  0.02719200  0.51356100  0.33858600  1
  O  O14  1  0.31252100  0.65631000  0.10289900  1
  O  O15  1  0.00748200  0.00378500  0.32027300  1
  O  O16  1  0.01631800  0.00811200  0.79784400  1
  O  O17  1  0.18510900  0.34042600  0.59283000  1
  O  O18  1  0.46091600  0.95498800  0.33965000  1
  O  O19  1  0.46088900  0.50579700  0.33965600  1
  O  O20  1  0.31298300  0.15659700  0.10333900  1
  O  O21  1  0.64577200  0.82253300  0.58132000  1
  O  O22  1  0.51657300  0.47624100  0.84453000  1
  O  O23  1  0.51699700  0.04006000  0.84407300  1
  O  O24  1  0.66456700  0.33241800  0.60346200  1
  O  O25  1  0.84654400  0.68013200  0.10358100  1
  O  O26  1  0.97307100  0.48672700  0.85281300  1
  O  O27  1  0.84634900  0.16684800  0.10350200  1
