# generated using pymatgen
data_Li4Fe7(OF7)2
_symmetry_space_group_name_H-M   'P 1'
_cell_length_a   6.15558041
_cell_length_b   6.26946725
_cell_length_c   10.85899660
_cell_angle_alpha   90.11699651
_cell_angle_beta   72.61663743
_cell_angle_gamma   120.70672327
_symmetry_Int_Tables_number   1
_chemical_formula_structural   Li4Fe7(OF7)2
_chemical_formula_sum   'Li4 Fe7 O2 F14'
_cell_volume   338.02362481
_cell_formula_units_Z   1
loop_
 _symmetry_equiv_pos_site_id
 _symmetry_equiv_pos_as_xyz
  1  'x, y, z'
loop_
 _atom_site_type_symbol
 _atom_site_label
 _atom_site_symmetry_multiplicity
 _atom_site_fract_x
 _atom_site_fract_y
 _atom_site_fract_z
 _atom_site_occupancy
  Li  Li0  1  0.84631800  0.19608000  0.44484014  1
  Li  Li1  1  0.13506270  0.31654283  0.05704167  1
  Li  Li2  1  0.85394660  0.67372531  0.94759560  1
  Li  Li3  1  0.14412228  0.81275913  0.55808823  1
  Fe  Fe4  1  0.52126556  0.00616727  0.99073042  1
  Fe  Fe5  1  0.52269700  0.27184407  0.25209370  1
  Fe  Fe6  1  0.51395810  0.74231118  0.24260071  1
  Fe  Fe7  1  0.48919423  0.48374735  0.50297781  1
  Fe  Fe8  1  0.49207318  0.24812987  0.74961743  1
  Fe  Fe9  1  0.97826986  0.72951582  0.25232417  1
  Fe  Fe10  1  0.50514540  0.75288694  0.74841364  1
  O  O11  1  0.72863983  0.39669926  0.37602418  1
  O  O12  1  0.74116566  0.62961114  0.13773585  1
  F  F13  1  0.74382639  0.12451909  0.12087513  1
  F  F14  1  0.71391664  0.10056130  0.63732060  1
  F  F15  1  0.26994954  0.10428083  0.12926859  1
  F  F16  1  0.74551939  0.62095856  0.62996219  1
  F  F17  1  0.27248880  0.12432307  0.62918206  1
  F  F18  1  0.25827620  0.64123219  0.12217642  1
  F  F19  1  0.24086902  0.37757434  0.37872854  1
  F  F20  1  0.74326890  0.87588793  0.37566685  1
  F  F21  1  0.70550687  0.35680131  0.87588468  1
  F  F22  1  0.72296098  0.86522431  0.88134591  1
  F  F23  1  0.29303391  0.63591143  0.61304242  1
  F  F24  1  0.28411208  0.40684489  0.86760286  1
  F  F25  1  0.27371118  0.87515617  0.35360225  1
  F  F26  1  0.26069971  0.88070439  0.87525694  1
