# generated using pymatgen
data_Li2Ni3SbO8
_symmetry_space_group_name_H-M   'P 1'
_cell_length_a   8.36091500
_cell_length_b   8.36091500
_cell_length_c   8.36091500
_cell_angle_alpha   90.00000000
_cell_angle_beta   90.00000000
_cell_angle_gamma   90.00000000
_symmetry_Int_Tables_number   1
_chemical_formula_structural   Li2Ni3SbO8
_chemical_formula_sum   'Li8 Ni12 Sb4 O32'
_cell_volume   584.46892395
_cell_formula_units_Z   4
loop_
 _symmetry_equiv_pos_site_id
 _symmetry_equiv_pos_as_xyz
  1  'x, y, z'
loop_
 _atom_site_type_symbol
 _atom_site_label
 _atom_site_symmetry_multiplicity
 _atom_site_fract_x
 _atom_site_fract_y
 _atom_site_fract_z
 _atom_site_occupancy
  Li  Li0  1  0.99869100  0.99869100  0.99869100  1
  Li  Li1  1  0.25130900  0.25130900  0.25130900  1
  Li  Li2  1  0.24869100  0.74869100  0.75130900  1
  Li  Li3  1  0.50130900  0.00130900  0.49869100  1
  Li  Li4  1  0.49869100  0.50130900  0.00130900  1
  Li  Li5  1  0.75130900  0.24869100  0.74869100  1
  Li  Li6  1  0.74869100  0.75130900  0.24869100  1
  Li  Li7  1  0.00130900  0.49869100  0.50130900  1
  Ni  Ni8  1  0.12254800  0.12745200  0.62500000  1
  Ni  Ni9  1  0.12500000  0.37745200  0.87254800  1
  Ni  Ni10  1  0.12745200  0.62500000  0.12254800  1
  Ni  Ni11  1  0.37254800  0.37500000  0.62254800  1
  Ni  Ni12  1  0.37500000  0.62254800  0.37254800  1
  Ni  Ni13  1  0.37745200  0.87254800  0.12500000  1
  Ni  Ni14  1  0.62254800  0.37254800  0.37500000  1
  Ni  Ni15  1  0.62500000  0.12254800  0.12745200  1
  Ni  Ni16  1  0.62745200  0.87500000  0.87745200  1
  Ni  Ni17  1  0.87254800  0.12500000  0.37745200  1
  Ni  Ni18  1  0.87500000  0.87745200  0.62745200  1
  Ni  Ni19  1  0.87745200  0.62745200  0.87500000  1
  Sb  Sb20  1  0.12500000  0.87500000  0.37500000  1
  Sb  Sb21  1  0.37500000  0.12500000  0.87500000  1
  Sb  Sb22  1  0.62500000  0.62500000  0.62500000  1
  Sb  Sb23  1  0.87500000  0.37500000  0.12500000  1
  O  O24  1  0.10630100  0.11502400  0.37992200  1
  O  O25  1  0.12007800  0.89369900  0.61502400  1
  O  O26  1  0.10902000  0.60902000  0.89098000  1
  O  O27  1  0.13497600  0.14369900  0.87007800  1
  O  O28  1  0.11502400  0.37992200  0.10630100  1
  O  O29  1  0.14098000  0.35902000  0.64098000  1
  O  O30  1  0.12992200  0.63497600  0.35630100  1
  O  O31  1  0.14369900  0.87007800  0.13497600  1
  O  O32  1  0.35630100  0.12992200  0.63497600  1
  O  O33  1  0.37007800  0.36502400  0.85630100  1
  O  O34  1  0.35902000  0.64098000  0.14098000  1
  O  O35  1  0.38497600  0.62007800  0.60630100  1
  O  O36  1  0.36502400  0.85630100  0.37007800  1
  O  O37  1  0.39098000  0.39098000  0.39098000  1
  O  O38  1  0.37992200  0.10630100  0.11502400  1
  O  O39  1  0.39369900  0.88497600  0.87992200  1
  O  O40  1  0.60630100  0.38497600  0.62007800  1
  O  O41  1  0.62007800  0.60630100  0.38497600  1
  O  O42  1  0.60902000  0.89098000  0.10902000  1
  O  O43  1  0.63497600  0.35630100  0.12992200  1
  O  O44  1  0.61502400  0.12007800  0.89369900  1
  O  O45  1  0.64098000  0.14098000  0.35902000  1
  O  O46  1  0.62992200  0.86502400  0.64369900  1
  O  O47  1  0.64369900  0.62992200  0.86502400  1
  O  O48  1  0.85630100  0.37007800  0.36502400  1
  O  O49  1  0.87007800  0.13497600  0.14369900  1
  O  O50  1  0.85902000  0.85902000  0.85902000  1
  O  O51  1  0.88497600  0.87992200  0.39369900  1
  O  O52  1  0.86502400  0.64369900  0.62992200  1
  O  O53  1  0.89098000  0.10902000  0.60902000  1
  O  O54  1  0.87992200  0.39369900  0.88497600  1
  O  O55  1  0.89369900  0.61502400  0.12007800  1
