# generated using pymatgen
data_Li4(FeO2)9
_symmetry_space_group_name_H-M   'P 1'
_cell_length_a   9.24308658
_cell_length_b   24.86314734
_cell_length_c   2.94812200
_cell_angle_alpha   90.00040425
_cell_angle_beta   90.00011472
_cell_angle_gamma   89.62035299
_symmetry_Int_Tables_number   1
_chemical_formula_structural   Li4(FeO2)9
_chemical_formula_sum   'Li8 Fe18 O36'
_cell_volume   677.49959924
_cell_formula_units_Z   2
loop_
 _symmetry_equiv_pos_site_id
 _symmetry_equiv_pos_as_xyz
  1  'x, y, z'
loop_
 _atom_site_type_symbol
 _atom_site_label
 _atom_site_symmetry_multiplicity
 _atom_site_fract_x
 _atom_site_fract_y
 _atom_site_fract_z
 _atom_site_occupancy
  Li  Li0  1  0.18966900  0.98371600  0.99999900  1
  Li  Li1  1  0.18815100  0.19473100  0.00000100  1
  Li  Li2  1  0.31481100  0.69607800  0.00000100  1
  Li  Li3  1  0.31104100  0.48659900  0.00000000  1
  Li  Li4  1  0.68836500  0.51590200  0.00000100  1
  Li  Li5  1  0.68833200  0.30495900  0.99999900  1
  Li  Li6  1  0.81267500  0.80297000  0.99999300  1
  Li  Li7  1  0.81024500  0.01488600  0.00000000  1
  Fe  Fe8  1  0.99894200  0.50155400  0.99999800  1
  Fe  Fe9  1  0.99359800  0.10460600  0.00000200  1
  Fe  Fe10  1  0.99187300  0.30999200  0.99999800  1
  Fe  Fe11  1  0.15974800  0.58738900  0.50000100  1
  Fe  Fe12  1  0.17187000  0.80489700  0.49999800  1
  Fe  Fe13  1  0.33365900  0.30694900  0.50000100  1
  Fe  Fe14  1  0.34051700  0.08452300  0.50000100  1
  Fe  Fe15  1  0.50022800  0.81294300  0.99998800  1
  Fe  Fe16  1  0.50827800  0.60609100  0.00001600  1
  Fe  Fe17  1  0.49792000  0.99738400  0.00000000  1
  Fe  Fe18  1  0.49322600  0.39532500  0.00000000  1
  Fe  Fe19  1  0.49244300  0.19082000  0.00000200  1
  Fe  Fe20  1  0.66103500  0.91137600  0.49999700  1
  Fe  Fe21  1  0.66319400  0.69675700  0.49999800  1
  Fe  Fe22  1  0.83426600  0.19369800  0.49999900  1
  Fe  Fe23  1  0.83975500  0.41526700  0.50000000  1
  Fe  Fe24  1  0.00572700  0.69089800  0.00000600  1
  Fe  Fe25  1  0.01029600  0.89324700  0.99999800  1
  O  O26  1  0.98182100  0.41899900  0.99999800  1
  O  O27  1  0.01599600  0.58507200  0.00000600  1
  O  O28  1  0.06043300  0.94118400  0.50000200  1
  O  O29  1  0.03723500  0.16165300  0.49999400  1
  O  O30  1  0.13689600  0.66459400  0.50000500  1
  O  O31  1  0.13478300  0.75431400  0.00000100  1
  O  O32  1  0.14938100  0.50654200  0.49999700  1
  O  O33  1  0.12247500  0.29055400  0.49999800  1
  O  O34  1  0.20244600  0.85724600  0.99999100  1
  O  O35  1  0.19825000  0.08405500  0.00000000  1
  O  O36  1  0.30344900  0.58462100  0.99999700  1
  O  O37  1  0.30408300  0.35824000  0.00000000  1
  O  O38  1  0.37596300  0.78827100  0.49998600  1
  O  O39  1  0.34873900  0.00207800  0.49999800  1
  O  O40  1  0.36910700  0.25582300  0.00000300  1
  O  O41  1  0.36481100  0.16393900  0.50000200  1
  O  O42  1  0.46138400  0.66228500  0.49999400  1
  O  O43  1  0.43618700  0.44210900  0.49999600  1
  O  O44  1  0.48246700  0.07950900  0.00000200  1
  O  O45  1  0.51504500  0.91425700  0.99999800  1
  O  O46  1  0.56213900  0.55836700  0.50002700  1
  O  O47  1  0.53691400  0.33801100  0.50000700  1
  O  O48  1  0.63814800  0.83589900  0.49998900  1
  O  O49  1  0.62564000  0.74762700  0.99998800  1
  O  O50  1  0.65147800  0.99153600  0.50000200  1
  O  O51  1  0.62270200  0.21009600  0.50000300  1
  O  O52  1  0.69388100  0.64448500  0.00001800  1
  O  O53  1  0.69729800  0.41570900  0.00000200  1
  O  O54  1  0.80272400  0.91059000  0.99999700  1
  O  O55  1  0.80456500  0.14232800  0.00000000  1
  O  O56  1  0.87668200  0.71396400  0.50000700  1
  O  O57  1  0.84881900  0.49686700  0.50000000  1
  O  O58  1  0.86976400  0.24471800  0.99999800  1
  O  O59  1  0.86264200  0.33597200  0.49999800  1
  O  O60  1  0.96920200  0.83733900  0.49999100  1
  O  O61  1  0.93658800  0.05758600  0.50000600  1
