# generated using pymatgen
data_LiV2P5O16
_symmetry_space_group_name_H-M   'P 1'
_cell_length_a   9.51643100
_cell_length_b   7.59029200
_cell_length_c   10.36324835
_cell_angle_alpha   68.44837215
_cell_angle_beta   90.00000000
_cell_angle_gamma   90.00000000
_symmetry_Int_Tables_number   1
_chemical_formula_structural   LiV2P5O16
_chemical_formula_sum   'Li2 V4 P10 O32'
_cell_volume   696.22889132
_cell_formula_units_Z   2
loop_
 _symmetry_equiv_pos_site_id
 _symmetry_equiv_pos_as_xyz
  1  'x, y, z'
loop_
 _atom_site_type_symbol
 _atom_site_label
 _atom_site_symmetry_multiplicity
 _atom_site_fract_x
 _atom_site_fract_y
 _atom_site_fract_z
 _atom_site_occupancy
  Li  Li0  1  0.80228900  0.99905000  0.75226200  1
  Li  Li1  1  0.19771100  0.99905000  0.25226200  1
  V  V2  1  0.14250100  0.37758000  0.46772800  1
  V  V3  1  0.36957200  0.92687500  0.86265100  1
  V  V4  1  0.63042800  0.92687500  0.36265100  1
  V  V5  1  0.85749900  0.37758000  0.96772800  1
  P  P6  1  0.86163500  0.61464300  0.37194200  1
  P  P7  1  0.29275500  0.57172600  0.12879100  1
  P  P8  1  0.87410600  0.27689600  0.30293700  1
  P  P9  1  0.41793900  0.12412400  0.52491300  1
  P  P10  1  0.58206100  0.12412400  0.02491300  1
  P  P11  1  0.13836500  0.61464300  0.87194200  1
  P  P12  1  0.54057200  0.51586800  0.99268800  1
  P  P13  1  0.70724500  0.57172600  0.62879100  1
  P  P14  1  0.45942800  0.51586800  0.49268800  1
  P  P15  1  0.12589400  0.27689600  0.80293700  1
  O  O16  1  0.29577900  0.78541100  0.06931500  1
  O  O17  1  0.81982700  0.49190400  0.28316400  1
  O  O18  1  0.06593400  0.29352500  0.66107200  1
  O  O19  1  0.22918700  0.47676300  0.26830600  1
  O  O20  1  0.25502100  0.15228200  0.84850400  1
  O  O21  1  0.49552800  0.33234300  0.45801400  1
  O  O22  1  0.44868700  0.48451500  0.13247800  1
  O  O23  1  0.69391800  0.51816400  0.02521600  1
  O  O24  1  0.21248900  0.49680000  0.02042600  1
  O  O25  1  0.53418400  0.01708200  0.93490700  1
  O  O26  1  0.98726100  0.22593500  0.41445700  1
  O  O27  1  0.25853700  0.15258600  0.50497100  1
  O  O28  1  0.46431800  0.04406400  0.67506300  1
  O  O29  1  0.93406600  0.29352500  0.16107200  1
  O  O30  1  0.74497900  0.15228200  0.34850400  1
  O  O31  1  0.46581600  0.01708200  0.43490700  1
  O  O32  1  0.20063400  0.80807100  0.80414400  1
  O  O33  1  0.74146300  0.15258600  0.00497100  1
  O  O34  1  0.48021700  0.68573700  0.87830200  1
  O  O35  1  0.53568200  0.04406400  0.17506300  1
  O  O36  1  0.70422100  0.78541100  0.56931500  1
  O  O37  1  0.98056500  0.61529800  0.89518000  1
  O  O38  1  0.79936600  0.80807100  0.30414400  1
  O  O39  1  0.18017300  0.49190400  0.78316400  1
  O  O40  1  0.51978300  0.68573700  0.37830200  1
  O  O41  1  0.77081300  0.47676300  0.76830600  1
  O  O42  1  0.50447200  0.33234300  0.95801400  1
  O  O43  1  0.01943500  0.61529800  0.39518000  1
  O  O44  1  0.55131300  0.48451500  0.63247800  1
  O  O45  1  0.30608200  0.51816400  0.52521600  1
  O  O46  1  0.78751100  0.49680000  0.52042600  1
  O  O47  1  0.01273900  0.22593500  0.91445700  1
