# generated using pymatgen
data_Li4V3P8O29
_symmetry_space_group_name_H-M   'P 1'
_cell_length_a   9.77579869
_cell_length_b   9.77579869
_cell_length_c   14.01746580
_cell_angle_alpha   89.85289135
_cell_angle_beta   89.85289135
_cell_angle_gamma   60.30953350
_symmetry_Int_Tables_number   1
_chemical_formula_structural   Li4V3P8O29
_chemical_formula_sum   'Li8 V6 P16 O58'
_cell_volume   1163.72102815
_cell_formula_units_Z   2
loop_
 _symmetry_equiv_pos_site_id
 _symmetry_equiv_pos_as_xyz
  1  'x, y, z'
loop_
 _atom_site_type_symbol
 _atom_site_label
 _atom_site_symmetry_multiplicity
 _atom_site_fract_x
 _atom_site_fract_y
 _atom_site_fract_z
 _atom_site_occupancy
  Li  Li0  1  0.91210500  0.77124700  0.06034600  1
  Li  Li1  1  0.77124700  0.91210500  0.56034600  1
  Li  Li2  1  0.90620300  0.31824300  0.55581900  1
  Li  Li3  1  0.31824300  0.90620300  0.05581900  1
  Li  Li4  1  0.67985700  0.09519200  0.94184100  1
  Li  Li5  1  0.09519200  0.67985700  0.44184100  1
  Li  Li6  1  0.22580600  0.08734300  0.44116800  1
  Li  Li7  1  0.08734300  0.22580600  0.94116800  1
  V  V8  1  0.99752500  0.43456300  0.75039000  1
  V  V9  1  0.56691700  0.00274300  0.74973200  1
  V  V10  1  0.56763000  0.43263100  0.25035800  1
  V  V11  1  0.43263100  0.56763000  0.75035800  1
  V  V12  1  0.43456300  0.99752500  0.25039000  1
  V  V13  1  0.00274300  0.56691700  0.24973200  1
  P  P14  1  0.91150400  0.77048800  0.84352800  1
  P  P15  1  0.77048800  0.91150400  0.34352800  1
  P  P16  1  0.91116500  0.31971600  0.33886600  1
  P  P17  1  0.66794300  0.66626200  0.62838700  1
  P  P18  1  0.66626200  0.66794300  0.12838700  1
  P  P19  1  0.76741100  0.31604300  0.84322600  1
  P  P20  1  0.68345400  0.23312300  0.65647800  1
  P  P21  1  0.31971600  0.91116500  0.83886600  1
  P  P22  1  0.68203400  0.08943200  0.16058400  1
  P  P23  1  0.31604300  0.76741100  0.34322600  1
  P  P24  1  0.23312300  0.68345400  0.15647800  1
  P  P25  1  0.33270800  0.33366600  0.87114500  1
  P  P26  1  0.33366600  0.33270800  0.37114500  1
  P  P27  1  0.08943200  0.68203400  0.66058400  1
  P  P28  1  0.23062100  0.09005100  0.65718800  1
  P  P29  1  0.09005100  0.23062100  0.15718800  1
  O  O30  1  0.00105200  0.75551300  0.57039900  1
  O  O31  1  0.91789300  0.74606200  0.34036200  1
  O  O32  1  0.79185600  0.99935800  0.25101200  1
  O  O33  1  0.75551300  0.00105200  0.07039900  1
  O  O34  1  0.90134500  0.61896400  0.82050100  1
  O  O35  1  0.74606200  0.91789300  0.84036200  1
  O  O36  1  0.81255500  0.67433600  0.16609000  1
  O  O37  1  0.90250800  0.48039300  0.32233900  1
  O  O38  1  0.01196500  0.23180200  0.06639500  1
  O  O39  1  0.91506600  0.33873600  0.84037500  1
  O  O40  1  0.67433600  0.81255500  0.66609000  1
  O  O41  1  0.81887000  0.51151700  0.67163300  1
  O  O42  1  0.61896400  0.90134500  0.32050100  1
  O  O43  1  0.67677100  0.65406200  0.52252800  1
  O  O44  1  0.65406200  0.67677100  0.02252800  1
  O  O45  1  0.48039300  0.90250800  0.82233900  1
  O  O46  1  0.66366400  0.52245900  0.17542700  1
  O  O47  1  0.51151700  0.81887000  0.17163300  1
  O  O48  1  0.74413900  0.34086000  0.33394700  1
  O  O49  1  0.79002000  0.21058900  0.74987600  1
  O  O50  1  0.76063200  0.23349400  0.93017900  1
  O  O51  1  0.76484800  0.24314000  0.56974000  1
  O  O52  1  0.61676400  0.47697200  0.82468000  1
  O  O53  1  0.52245900  0.66366400  0.67542700  1
  O  O54  1  0.33873600  0.91506600  0.34037500  1
  O  O55  1  0.65855500  0.25659600  0.16446300  1
  O  O56  1  0.47697200  0.61676400  0.32468000  1
  O  O57  1  0.75434400  0.99569300  0.43427000  1
  O  O58  1  0.23180200  0.01196500  0.56639500  1
  O  O59  1  0.52256900  0.38285000  0.67666700  1
  O  O60  1  0.34086000  0.74413900  0.83394700  1
  O  O61  1  0.20897900  0.00110400  0.74898600  1
  O  O62  1  0.66250300  0.08534000  0.65925900  1
  O  O63  1  0.48155500  0.33210300  0.32482800  1
  O  O64  1  0.38285000  0.52256900  0.17666700  1
  O  O65  1  0.24314000  0.76484800  0.06974000  1
  O  O66  1  0.23349400  0.76063200  0.43017900  1
  O  O67  1  0.21058900  0.79002000  0.24987600  1
  O  O68  1  0.25659600  0.65855500  0.66446300  1
  O  O69  1  0.48579800  0.18626700  0.83233200  1
  O  O70  1  0.52083200  0.09676100  0.17843200  1
  O  O71  1  0.33210300  0.48155500  0.82482800  1
  O  O72  1  0.33416200  0.32722900  0.47736400  1
  O  O73  1  0.32722900  0.33416200  0.97736400  1
  O  O74  1  0.37766500  0.10308600  0.67689800  1
  O  O75  1  0.18626700  0.48579800  0.33233200  1
  O  O76  1  0.33131900  0.18128900  0.32930400  1
  O  O77  1  0.08534000  0.66250300  0.15925900  1
  O  O78  1  0.99935800  0.79185600  0.75101200  1
  O  O79  1  0.99569300  0.75434400  0.93427000  1
  O  O80  1  0.09676100  0.52083200  0.67843200  1
  O  O81  1  0.18128900  0.33131900  0.82930400  1
  O  O82  1  0.25801800  0.07933800  0.16372600  1
  O  O83  1  0.10308600  0.37766500  0.17689800  1
  O  O84  1  0.24263600  0.99816100  0.92894900  1
  O  O85  1  0.07933800  0.25801800  0.66372600  1
  O  O86  1  0.99816100  0.24263600  0.42894900  1
  O  O87  1  0.00110400  0.20897900  0.24898600  1
