# generated using pymatgen
data_Li5V3P8O29
_symmetry_space_group_name_H-M   'P 1'
_cell_length_a   9.77597600
_cell_length_b   9.78511963
_cell_length_c   14.09332431
_cell_angle_alpha   89.79001539
_cell_angle_beta   89.60093575
_cell_angle_gamma   60.39273520
_symmetry_Int_Tables_number   1
_chemical_formula_structural   Li5V3P8O29
_chemical_formula_sum   'Li10 V6 P16 O58'
_cell_volume   1172.10071443
_cell_formula_units_Z   2
loop_
 _symmetry_equiv_pos_site_id
 _symmetry_equiv_pos_as_xyz
  1  'x, y, z'
loop_
 _atom_site_type_symbol
 _atom_site_label
 _atom_site_symmetry_multiplicity
 _atom_site_fract_x
 _atom_site_fract_y
 _atom_site_fract_z
 _atom_site_occupancy
  Li  Li0  1  0.32518900  0.33497000  0.39201400  1
  Li  Li1  1  0.22769500  0.68742100  0.05799900  1
  Li  Li2  1  0.68328600  0.09073700  0.06192800  1
  Li  Li3  1  0.32653900  0.76844200  0.44331800  1
  Li  Li4  1  0.67828100  0.22793000  0.56324900  1
  Li  Li5  1  0.31159200  0.91747300  0.93448200  1
  Li  Li6  1  0.77207600  0.32186200  0.94149200  1
  Li  Li7  1  0.90038400  0.33330900  0.44131800  1
  Li  Li8  1  0.90375700  0.77012600  0.93860100  1
  Li  Li9  1  0.01003000  0.94021300  0.51019600  1
  V  V10  1  0.43406600  0.56894200  0.25176500  1
  V  V11  1  0.56644000  0.43358500  0.75152200  1
  V  V12  1  0.43104100  0.00404200  0.74633100  1
  V  V13  1  0.57076500  0.99316400  0.25217600  1
  V  V14  1  0.00085100  0.43097500  0.24903900  1
  V  V15  1  0.00127000  0.56534400  0.74287000  1
  P  P16  1  0.08409600  0.23113600  0.83787900  1
  P  P17  1  0.22141200  0.08597300  0.33792400  1
  P  P18  1  0.08454100  0.69330700  0.34454100  1
  P  P19  1  0.33662200  0.33566900  0.13091300  1
  P  P20  1  0.33447000  0.33280200  0.62922200  1
  P  P21  1  0.22871500  0.67901600  0.83927400  1
  P  P22  1  0.31620000  0.77125300  0.65812100  1
  P  P23  1  0.67969500  0.08684400  0.84483300  1
  P  P24  1  0.31616900  0.91693600  0.15315500  1
  P  P25  1  0.67962700  0.22746700  0.34075500  1
  P  P26  1  0.76913600  0.32137000  0.15972300  1
  P  P27  1  0.67129900  0.65991800  0.37126700  1
  P  P28  1  0.66814500  0.66853000  0.86868800  1
  P  P29  1  0.91390800  0.31292700  0.65470600  1
  P  P30  1  0.77935700  0.91662500  0.66135300  1
  P  P31  1  0.91712900  0.76687900  0.15897500  1
  O  O32  1  0.98447700  0.23717900  0.56216600  1
  O  O33  1  0.07879900  0.25889500  0.34092700  1
  O  O34  1  0.25551300  0.99204700  0.06023900  1
  O  O35  1  0.25187000  0.08717600  0.83873800  1
  O  O36  1  0.09128200  0.38412200  0.81849300  1
  O  O37  1  0.18779200  0.33958900  0.18285300  1
  O  O38  1  0.09004600  0.53086000  0.33408700  1
  O  O39  1  0.00293900  0.74883100  0.06702600  1
  O  O40  1  0.08040600  0.66073800  0.83987000  1
  O  O41  1  0.32472200  0.19252600  0.67165600  1
  O  O42  1  0.37207600  0.10052700  0.33178500  1
  O  O43  1  0.18724400  0.48578800  0.67318300  1
  O  O44  1  0.32043200  0.35090900  0.02651500  1
  O  O45  1  0.32794700  0.33976800  0.52323600  1
  O  O46  1  0.33550300  0.48595100  0.17407600  1
  O  O47  1  0.52099000  0.09681900  0.82291900  1
  O  O48  1  0.48632400  0.18582700  0.16686000  1
  O  O49  1  0.25660600  0.66077100  0.34362000  1
  O  O50  1  0.20562400  0.78868500  0.74891000  1
  O  O51  1  0.22835800  0.78756200  0.56876500  1
  O  O52  1  0.24138700  0.75694500  0.92815600  1
  O  O53  1  0.37798800  0.51876200  0.82125400  1
  O  O54  1  0.48911300  0.32518500  0.66512700  1
  O  O55  1  0.33413900  0.75138100  0.16132700  1
  O  O56  1  0.51491400  0.37462900  0.32911100  1
  O  O57  1  0.65688900  0.08220100  0.33513600  1
  O  O58  1  0.19844900  0.01975000  0.23788200  1
  O  O59  1  0.21004300  0.98978600  0.41651000  1
  O  O60  1  0.80466000  0.00361200  0.58176200  1
  O  O61  1  0.34746500  0.91064000  0.66982000  1
  O  O62  1  0.47006200  0.61603700  0.67004800  1
  O  O63  1  0.66103800  0.25349800  0.84340100  1
  O  O64  1  0.51738900  0.66344000  0.33035000  1
  O  O65  1  0.62186400  0.48099900  0.17582800  1
  O  O66  1  0.76241500  0.24200700  0.07049900  1
  O  O67  1  0.76215500  0.23167800  0.42912500  1
  O  O68  1  0.78754800  0.20961400  0.24940300  1
  O  O69  1  0.74424800  0.33880300  0.66482500  1
  O  O70  1  0.51653800  0.81572800  0.83163500  1
  O  O71  1  0.47486200  0.90835800  0.18071800  1
  O  O72  1  0.67001500  0.51536800  0.83078800  1
  O  O73  1  0.68322600  0.66375900  0.97404300  1
  O  O74  1  0.67246800  0.64297100  0.47594000  1
  O  O75  1  0.81813200  0.50640200  0.32787300  1
  O  O76  1  0.62052400  0.92238200  0.66607600  1
  O  O77  1  0.67358800  0.80344400  0.32800900  1
  O  O78  1  0.91864000  0.33944200  0.16621800  1
  O  O79  1  0.00862100  0.20312600  0.74178800  1
  O  O80  1  0.98761300  0.24136600  0.92156700  1
  O  O81  1  0.91000400  0.47281900  0.67054900  1
  O  O82  1  0.81616500  0.67008300  0.82150600  1
  O  O83  1  0.90459500  0.61764200  0.18207500  1
  O  O84  1  0.75176900  0.91380200  0.16008600  1
  O  O85  1  0.75189900  0.00042200  0.93556400  1
  O  O86  1  0.79861800  0.99219500  0.75965300  1
  O  O87  1  0.91748600  0.74395900  0.66540900  1
  O  O88  1  0.99352500  0.79451500  0.42507300  1
  O  O89  1  0.01254100  0.78593400  0.24435300  1
