# generated using pymatgen
data_Li2WS4
_symmetry_space_group_name_H-M   'P 1'
_cell_length_a   6.07188200
_cell_length_b   7.76963900
_cell_length_c   13.20763200
_cell_angle_alpha   90.00000000
_cell_angle_beta   90.00000000
_cell_angle_gamma   90.00000000
_symmetry_Int_Tables_number   1
_chemical_formula_structural   Li2WS4
_chemical_formula_sum   'Li8 W4 S16'
_cell_volume   623.08762148
_cell_formula_units_Z   4
loop_
 _symmetry_equiv_pos_site_id
 _symmetry_equiv_pos_as_xyz
  1  'x, y, z'
loop_
 _atom_site_type_symbol
 _atom_site_label
 _atom_site_symmetry_multiplicity
 _atom_site_fract_x
 _atom_site_fract_y
 _atom_site_fract_z
 _atom_site_occupancy
  Li  Li0  1  0.00000000  0.00000000  0.00000000  1
  Li  Li1  1  0.00000000  0.50000000  0.00000000  1
  Li  Li2  1  0.50477300  0.75000000  0.23245300  1
  Li  Li3  1  0.00477300  0.25000000  0.26754700  1
  Li  Li4  1  0.50000000  0.00000000  0.50000000  1
  Li  Li5  1  0.50000000  0.50000000  0.50000000  1
  Li  Li6  1  0.99522700  0.75000000  0.73245300  1
  Li  Li7  1  0.49522700  0.25000000  0.76754700  1
  W  W8  1  0.38529800  0.25000000  0.08895800  1
  W  W9  1  0.88529800  0.75000000  0.41104200  1
  W  W10  1  0.11470200  0.25000000  0.58895800  1
  W  W11  1  0.61470200  0.75000000  0.91104200  1
  S  S12  1  0.74389900  0.75000000  0.06813800  1
  S  S13  1  0.74744000  0.25000000  0.09110200  1
  S  S14  1  0.25544600  0.01920100  0.16644400  1
  S  S15  1  0.25544600  0.48079900  0.16644400  1
  S  S16  1  0.75544600  0.51920100  0.33355600  1
  S  S17  1  0.75544600  0.98079900  0.33355600  1
  S  S18  1  0.24744000  0.75000000  0.40889800  1
  S  S19  1  0.24389900  0.25000000  0.43186200  1
  S  S20  1  0.75610100  0.75000000  0.56813800  1
  S  S21  1  0.75256000  0.25000000  0.59110200  1
  S  S22  1  0.24455400  0.01920100  0.66644400  1
  S  S23  1  0.24455400  0.48079900  0.66644400  1
  S  S24  1  0.74455400  0.51920100  0.83355600  1
  S  S25  1  0.74455400  0.98079900  0.83355600  1
  S  S26  1  0.25256000  0.75000000  0.90889800  1
  S  S27  1  0.25610100  0.25000000  0.93186200  1
