# generated using pymatgen
data_Li5Cr2Fe3(PO4)6
_symmetry_space_group_name_H-M   'P 1'
_cell_length_a   8.43117600
_cell_length_b   8.60434314
_cell_length_c   8.81815754
_cell_angle_alpha   60.94257976
_cell_angle_beta   61.57223961
_cell_angle_gamma   62.22003478
_symmetry_Int_Tables_number   1
_chemical_formula_structural   Li5Cr2Fe3(PO4)6
_chemical_formula_sum   'Li5 Cr2 Fe3 P6 O24'
_cell_volume   468.24981474
_cell_formula_units_Z   1
loop_
 _symmetry_equiv_pos_site_id
 _symmetry_equiv_pos_as_xyz
  1  'x, y, z'
loop_
 _atom_site_type_symbol
 _atom_site_label
 _atom_site_symmetry_multiplicity
 _atom_site_fract_x
 _atom_site_fract_y
 _atom_site_fract_z
 _atom_site_occupancy
  Li  Li0  1  0.24632000  0.64372400  0.85680700  1
  Li  Li1  1  0.80547900  0.33015400  0.15002200  1
  Li  Li2  1  0.33653100  0.14782300  0.81896200  1
  Li  Li3  1  0.14257500  0.81485600  0.32992100  1
  Li  Li4  1  0.15372900  0.16037900  0.16927600  1
  Cr  Cr5  1  0.99457000  0.00465600  0.00257900  1
  Cr  Cr6  1  0.50599300  0.50127700  0.49432900  1
  Fe  Fe7  1  0.85252100  0.85958800  0.85038600  1
  Fe  Fe8  1  0.64793400  0.64455500  0.64322800  1
  Fe  Fe9  1  0.35516200  0.34412100  0.34421200  1
  P  P10  1  0.94334200  0.54714100  0.24976900  1
  P  P11  1  0.55490200  0.24189100  0.95230800  1
  P  P12  1  0.24832800  0.94293600  0.54491700  1
  P  P13  1  0.74472800  0.04491100  0.46141500  1
  P  P14  1  0.44603100  0.74234100  0.03427000  1
  P  P15  1  0.05225800  0.46404900  0.74595100  1
  O  O16  1  0.89615800  0.53391700  0.66638300  1
  O  O17  1  0.66100800  0.89550200  0.51360400  1
  O  O18  1  0.94838900  0.73785800  0.08460400  1
  O  O19  1  0.47027800  0.67476500  0.89007200  1
  O  O20  1  0.96250000  0.40001700  0.18972300  1
  O  O21  1  0.74833100  0.57688200  0.40716600  1
  O  O22  1  0.75355100  0.08695300  0.93337100  1
  O  O23  1  0.56953900  0.40965100  0.76745600  1
  O  O24  1  0.80361500  0.01061400  0.61708900  1
  O  O25  1  0.40344600  0.74343100  0.58109200  1
  O  O26  1  0.90705600  0.05088600  0.27556000  1
  O  O27  1  0.61468300  0.80244100  0.98254600  1
  O  O28  1  0.39982800  0.17704200  0.98218900  1
  O  O29  1  0.09720700  0.92152000  0.74141500  1
  O  O30  1  0.59596100  0.24803100  0.42389300  1
  O  O31  1  0.18794400  0.96555700  0.39801400  1
  O  O32  1  0.42468500  0.59103400  0.23046000  1
  O  O33  1  0.25469900  0.90554700  0.05074300  1
  O  O34  1  0.25511400  0.42789700  0.59751900  1
  O  O35  1  0.03409200  0.61032100  0.81092100  1
  O  O36  1  0.51641200  0.29854300  0.11165200  1
  O  O37  1  0.04738700  0.27160900  0.90290200  1
  O  O38  1  0.31049100  0.10598600  0.50126100  1
  O  O39  1  0.10722400  0.49659200  0.31501100  1
