# generated using pymatgen
data_Li2MnV(P2O7)2
_symmetry_space_group_name_H-M   'P 1'
_cell_length_a   4.87032900
_cell_length_b   7.07510120
_cell_length_c   24.83438957
_cell_angle_alpha   89.52362098
_cell_angle_beta   89.75643027
_cell_angle_gamma   71.19348473
_symmetry_Int_Tables_number   1
_chemical_formula_structural   Li2MnV(P2O7)2
_chemical_formula_sum   'Li6 Mn3 V3 P12 O42'
_cell_volume   810.03003216
_cell_formula_units_Z   3
loop_
 _symmetry_equiv_pos_site_id
 _symmetry_equiv_pos_as_xyz
  1  'x, y, z'
loop_
 _atom_site_type_symbol
 _atom_site_label
 _atom_site_symmetry_multiplicity
 _atom_site_fract_x
 _atom_site_fract_y
 _atom_site_fract_z
 _atom_site_occupancy
  Li  Li0  1  0.17428700  0.32682300  0.62049600  1
  Li  Li1  1  0.17225900  0.32513600  0.95334400  1
  Li  Li2  1  0.17690500  0.32597900  0.28705500  1
  Li  Li3  1  0.82382100  0.67501300  0.11999400  1
  Li  Li4  1  0.82192300  0.67423500  0.45364400  1
  Li  Li5  1  0.82721100  0.67461700  0.78652400  1
  Mn  Mn6  1  0.21239500  0.27225300  0.83292700  1
  Mn  Mn7  1  0.78715500  0.73090600  0.66597800  1
  Mn  Mn8  1  0.78555900  0.72729700  0.99997800  1
  V  V9  1  0.21558800  0.27400400  0.16672900  1
  V  V10  1  0.21327600  0.27085100  0.49954500  1
  V  V11  1  0.78460400  0.72851600  0.33317000  1
  P  P12  1  0.40203100  0.47717300  0.05905000  1
  P  P13  1  0.40041900  0.47643000  0.39339900  1
  P  P14  1  0.40170000  0.48357400  0.72563900  1
  P  P15  1  0.21367700  0.91418500  0.26118300  1
  P  P16  1  0.21484400  0.91052400  0.59516100  1
  P  P17  1  0.21386300  0.90846200  0.92915300  1
  P  P18  1  0.78906000  0.08701100  0.09567200  1
  P  P19  1  0.78669700  0.08575500  0.42815900  1
  P  P20  1  0.78677300  0.09130700  0.76276700  1
  P  P21  1  0.59963400  0.52408800  0.22675800  1
  P  P22  1  0.60037900  0.51794800  0.56015700  1
  P  P23  1  0.59924100  0.51636700  0.89249000  1
  O  O24  1  0.04876000  0.15436200  0.10857000  1
  O  O25  1  0.05508500  0.15017400  0.77633100  1
  O  O26  1  0.04975900  0.14758300  0.44141400  1
  O  O27  1  0.12847000  0.10984200  0.90091800  1
  O  O28  1  0.13377500  0.11479800  0.23206700  1
  O  O29  1  0.13227100  0.11036500  0.56550900  1
  O  O30  1  0.18716500  0.51758000  0.01190100  1
  O  O31  1  0.19127500  0.51970300  0.67771200  1
  O  O32  1  0.18722600  0.51744700  0.34599500  1
  O  O33  1  0.24949900  0.50667000  0.77981000  1
  O  O34  1  0.25037200  0.49473100  0.11397500  1
  O  O35  1  0.24711900  0.49241800  0.44768400  1
  O  O36  1  0.39658300  0.39733500  0.22592400  1
  O  O37  1  0.39215600  0.39472500  0.55835000  1
  O  O38  1  0.39200200  0.39110800  0.89037200  1
  O  O39  1  0.60028300  0.08767800  0.14558200  1
  O  O40  1  0.60066800  0.08328800  0.47806000  1
  O  O41  1  0.59716600  0.09114800  0.81242800  1
  O  O42  1  0.59724500  0.24751200  0.05110900  1
  O  O43  1  0.59627400  0.24730400  0.38436600  1
  O  O44  1  0.59909600  0.25244300  0.71852200  1
  O  O45  1  0.40468300  0.75401000  0.21773800  1
  O  O46  1  0.40292500  0.74860200  0.88527700  1
  O  O47  1  0.40369500  0.74954900  0.55208300  1
  O  O48  1  0.39802800  0.91571300  0.31113900  1
  O  O49  1  0.39897400  0.91374400  0.64486000  1
  O  O50  1  0.40178600  0.90788300  0.97898500  1
  O  O51  1  0.60345300  0.60651000  0.05806700  1
  O  O52  1  0.60303800  0.60379000  0.39243300  1
  O  O53  1  0.60790000  0.61003000  0.72365500  1
  O  O54  1  0.75218300  0.50678400  0.28127300  1
  O  O55  1  0.75512300  0.49503400  0.61385900  1
  O  O56  1  0.75018800  0.49186800  0.94678900  1
  O  O57  1  0.81288800  0.48490400  0.17943300  1
  O  O58  1  0.81019500  0.48239200  0.51192900  1
  O  O59  1  0.81062300  0.48181400  0.84451400  1
  O  O60  1  0.87310200  0.88629500  0.06805000  1
  O  O61  1  0.87214000  0.89107300  0.73458100  1
  O  O62  1  0.86640800  0.88617500  0.39906200  1
  O  O63  1  0.94961900  0.85211200  0.27458600  1
  O  O64  1  0.94304700  0.85540100  0.60891800  1
  O  O65  1  0.94445200  0.84965000  0.94278400  1
