# generated using pymatgen
data_Li4NbCr5O12
_symmetry_space_group_name_H-M   'P 1'
_cell_length_a   5.21654294
_cell_length_b   20.93014026
_cell_length_c   5.22015442
_cell_angle_alpha   93.28082988
_cell_angle_beta   119.97614608
_cell_angle_gamma   83.42303749
_symmetry_Int_Tables_number   1
_chemical_formula_structural   Li4NbCr5O12
_chemical_formula_sum   'Li8 Nb2 Cr10 O24'
_cell_volume   490.46234023
_cell_formula_units_Z   2
loop_
 _symmetry_equiv_pos_site_id
 _symmetry_equiv_pos_as_xyz
  1  'x, y, z'
loop_
 _atom_site_type_symbol
 _atom_site_label
 _atom_site_symmetry_multiplicity
 _atom_site_fract_x
 _atom_site_fract_y
 _atom_site_fract_z
 _atom_site_occupancy
  Li  Li0  1  0.11883900  0.35436500  0.66186700  1
  Li  Li1  1  0.11896400  0.85418700  0.66197100  1
  Li  Li2  1  0.54304500  0.14581700  0.66199400  1
  Li  Li3  1  0.54296500  0.64563300  0.66182400  1
  Li  Li4  1  0.45689400  0.35428900  0.33770500  1
  Li  Li5  1  0.45709500  0.85410700  0.33773700  1
  Li  Li6  1  0.88067200  0.14589100  0.33773300  1
  Li  Li7  1  0.88074700  0.64570700  0.33770000  1
  Nb  Nb8  1  0.00003800  0.99999000  0.00001300  1
  Nb  Nb9  1  0.99997500  0.49999300  0.00001200  1
  Cr  Cr10  1  0.83765800  0.25010200  0.67544100  1
  Cr  Cr11  1  0.83794700  0.74989700  0.67556100  1
  Cr  Cr12  1  0.33435500  0.49999300  0.66874100  1
  Cr  Cr13  1  0.33427100  0.00000200  0.66856300  1
  Cr  Cr14  1  0.66557400  0.49999600  0.33119200  1
  Cr  Cr15  1  0.49949100  0.25007700  0.99920700  1
  Cr  Cr16  1  0.49967900  0.74993200  0.99917300  1
  Cr  Cr17  1  0.16249100  0.25006600  0.32514800  1
  Cr  Cr18  1  0.16263700  0.74994800  0.32509300  1
  Cr  Cr19  1  0.66563600  0.00000700  0.33129100  1
  O  O20  1  0.15492700  0.30278300  0.00089900  1
  O  O21  1  0.15495000  0.80267900  0.00086900  1
  O  O22  1  0.84597800  0.19733100  0.00088200  1
  O  O23  1  0.84598500  0.69721200  0.00088700  1
  O  O24  1  0.30966700  0.04839700  0.99992400  1
  O  O25  1  0.31014600  0.54818900  0.99993400  1
  O  O26  1  0.68975800  0.45180000  0.99994500  1
  O  O27  1  0.69024000  0.95160100  0.99993300  1
  O  O28  1  0.97693500  0.05069200  0.33310200  1
  O  O29  1  0.97699900  0.55052500  0.33356700  1
  O  O30  1  0.35653300  0.44946100  0.33356400  1
  O  O31  1  0.35617100  0.94930500  0.33311100  1
  O  O32  1  0.64381300  0.05068900  0.66678800  1
  O  O33  1  0.64341400  0.55051300  0.66634900  1
  O  O34  1  0.02288400  0.44947700  0.66633400  1
  O  O35  1  0.02297800  0.94931900  0.66677600  1
  O  O36  1  0.19063000  0.19820500  0.65516100  1
  O  O37  1  0.19079300  0.69807300  0.65507900  1
  O  O38  1  0.46432100  0.30193800  0.65511300  1
  O  O39  1  0.46453800  0.80179700  0.65512100  1
  O  O40  1  0.53465000  0.19829800  0.34467000  1
  O  O41  1  0.53480700  0.69817400  0.34467600  1
  O  O42  1  0.80987100  0.30184100  0.34467100  1
  O  O43  1  0.81003500  0.80170600  0.34467900  1
