# generated using pymatgen
data_Li2VP4(H2O3)6
_symmetry_space_group_name_H-M   'P 1'
_cell_length_a   11.54307100
_cell_length_b   8.14121500
_cell_length_c   8.96567694
_cell_angle_alpha   64.47235828
_cell_angle_beta   90.00000000
_cell_angle_gamma   90.00000000
_symmetry_Int_Tables_number   1
_chemical_formula_structural   Li2VP4(H2O3)6
_chemical_formula_sum   'Li4 V2 P8 H24 O36'
_cell_volume   760.29463743
_cell_formula_units_Z   2
loop_
 _symmetry_equiv_pos_site_id
 _symmetry_equiv_pos_as_xyz
  1  'x, y, z'
loop_
 _atom_site_type_symbol
 _atom_site_label
 _atom_site_symmetry_multiplicity
 _atom_site_fract_x
 _atom_site_fract_y
 _atom_site_fract_z
 _atom_site_occupancy
  Li  Li0  1  0.75000000  0.97608800  0.57514600  1
  Li  Li1  1  0.25000000  0.75033500  0.90877800  1
  Li  Li2  1  0.75000000  0.24966500  0.09122200  1
  Li  Li3  1  0.25000000  0.02391200  0.42485400  1
  V  V4  1  0.75000000  0.52840600  0.73920800  1
  V  V5  1  0.25000000  0.47159400  0.26079200  1
  P  P6  1  0.48680100  0.71213600  0.64335400  1
  P  P7  1  0.01319900  0.71213600  0.64335400  1
  P  P8  1  0.50040000  0.69496200  0.16164800  1
  P  P9  1  0.99960000  0.69496200  0.16164800  1
  P  P10  1  0.00040000  0.30503800  0.83835200  1
  P  P11  1  0.49960000  0.30503800  0.83835200  1
  P  P12  1  0.98680100  0.28786400  0.35664600  1
  P  P13  1  0.51319900  0.28786400  0.35664600  1
  H  H14  1  0.81724800  0.94034400  0.86591200  1
  H  H15  1  0.68275200  0.94034400  0.86591200  1
  H  H16  1  0.49075200  0.74905800  0.87297300  1
  H  H17  1  0.00924800  0.74905800  0.87297300  1
  H  H18  1  0.81831800  0.60567700  0.99530200  1
  H  H19  1  0.68168200  0.60567700  0.99530200  1
  H  H20  1  0.81789600  0.91545300  0.28182100  1
  H  H21  1  0.68210400  0.91545300  0.28182100  1
  H  H22  1  0.48278800  0.82424800  0.33561400  1
  H  H23  1  0.01721200  0.82424800  0.33561400  1
  H  H24  1  0.18342100  0.58412000  0.49539400  1
  H  H25  1  0.31657900  0.58412000  0.49539400  1
  H  H26  1  0.81657900  0.41588000  0.50460600  1
  H  H27  1  0.68342100  0.41588000  0.50460600  1
  H  H28  1  0.98278800  0.17575200  0.66438600  1
  H  H29  1  0.51721200  0.17575200  0.66438600  1
  H  H30  1  0.31789600  0.08454700  0.71817900  1
  H  H31  1  0.18210400  0.08454700  0.71817900  1
  H  H32  1  0.31831800  0.39432300  0.00469800  1
  H  H33  1  0.18168200  0.39432300  0.00469800  1
  H  H34  1  0.99075200  0.25094200  0.12702700  1
  H  H35  1  0.50924800  0.25094200  0.12702700  1
  H  H36  1  0.31724800  0.05965600  0.13408800  1
  H  H37  1  0.18275200  0.05965600  0.13408800  1
  O  O38  1  0.43138600  0.75161000  0.78542000  1
  O  O39  1  0.06861400  0.75161000  0.78542000  1
  O  O40  1  0.75000000  0.98826500  0.28190400  1
  O  O41  1  0.25000000  0.01949700  0.20756100  1
  O  O42  1  0.41605500  0.80953500  0.48652200  1
  O  O43  1  0.08394500  0.80953500  0.48652200  1
  O  O44  1  0.88310500  0.73798800  0.63407700  1
  O  O45  1  0.61689500  0.73798800  0.63407700  1
  O  O46  1  0.75000000  0.53885500  0.98032300  1
  O  O47  1  0.53300200  0.83207800  0.23591300  1
  O  O48  1  0.96699800  0.83207800  0.23591300  1
  O  O49  1  0.45816200  0.49803300  0.69336100  1
  O  O50  1  0.04183800  0.49803300  0.69336100  1
  O  O51  1  0.92555400  0.73879600  0.00842300  1
  O  O52  1  0.57444600  0.73879600  0.00842300  1
  O  O53  1  0.37200000  0.68576700  0.13328100  1
  O  O54  1  0.12800000  0.68576700  0.13328100  1
  O  O55  1  0.25000000  0.51509400  0.48473600  1
  O  O56  1  0.75000000  0.48490600  0.51526400  1
  O  O57  1  0.62800000  0.31423300  0.86671900  1
  O  O58  1  0.87200000  0.31423300  0.86671900  1
  O  O59  1  0.42555400  0.26120400  0.99157700  1
  O  O60  1  0.07444600  0.26120400  0.99157700  1
  O  O61  1  0.95816200  0.50196700  0.30663900  1
  O  O62  1  0.54183800  0.50196700  0.30663900  1
  O  O63  1  0.46699800  0.16792200  0.76408700  1
  O  O64  1  0.03300200  0.16792200  0.76408700  1
  O  O65  1  0.25000000  0.46114500  0.01967700  1
  O  O66  1  0.11689500  0.26201200  0.36592300  1
  O  O67  1  0.38310500  0.26201200  0.36592300  1
  O  O68  1  0.91605500  0.19046500  0.51347800  1
  O  O69  1  0.58394500  0.19046500  0.51347800  1
  O  O70  1  0.75000000  0.98050300  0.79243900  1
  O  O71  1  0.25000000  0.01173500  0.71809600  1
  O  O72  1  0.93138600  0.24839000  0.21458000  1
  O  O73  1  0.56861400  0.24839000  0.21458000  1
