# generated using pymatgen
data_LiMnOF2
_symmetry_space_group_name_H-M   'P 1'
_cell_length_a   5.38049500
_cell_length_b   8.68285685
_cell_length_c   10.18829644
_cell_angle_alpha   89.65227432
_cell_angle_beta   83.22374504
_cell_angle_gamma   88.28424020
_symmetry_Int_Tables_number   1
_chemical_formula_structural   LiMnOF2
_chemical_formula_sum   'Li8 Mn8 O8 F16'
_cell_volume   472.43913023
_cell_formula_units_Z   8
loop_
 _symmetry_equiv_pos_site_id
 _symmetry_equiv_pos_as_xyz
  1  'x, y, z'
loop_
 _atom_site_type_symbol
 _atom_site_label
 _atom_site_symmetry_multiplicity
 _atom_site_fract_x
 _atom_site_fract_y
 _atom_site_fract_z
 _atom_site_occupancy
  Li  Li0  1  0.21432600  0.61264600  0.20672800  1
  Li  Li1  1  0.78024100  0.90608500  0.29528400  1
  Li  Li2  1  0.67491100  0.39799500  0.21491700  1
  Li  Li3  1  0.28979800  0.08861600  0.28670800  1
  Li  Li4  1  0.69879900  0.90999700  0.68709100  1
  Li  Li5  1  0.32202300  0.59005700  0.81624300  1
  Li  Li6  1  0.18662000  0.09200200  0.70117900  1
  Li  Li7  1  0.82016500  0.40881600  0.80265500  1
  Mn  Mn8  1  0.10600600  0.35906700  0.05383600  1
  Mn  Mn9  1  0.25068900  0.91013600  0.00973400  1
  Mn  Mn10  1  0.73055900  0.08303600  0.00632400  1
  Mn  Mn11  1  0.75278300  0.71586600  0.01891500  1
  Mn  Mn12  1  0.75279300  0.20899200  0.48557600  1
  Mn  Mn13  1  0.75945600  0.59447500  0.48766800  1
  Mn  Mn14  1  0.26953100  0.41722500  0.49417200  1
  Mn  Mn15  1  0.26471400  0.77530400  0.48833700  1
  O  O16  1  0.86200300  0.90352500  0.09556500  1
  O  O17  1  0.91947200  0.53738300  0.11378000  1
  O  O18  1  0.40240800  0.07709300  0.08775100  1
  O  O19  1  0.42126700  0.75681500  0.09432900  1
  O  O20  1  0.85961600  0.21720900  0.11714000  1
  O  O21  1  0.58936800  0.74307100  0.39995300  1
  O  O22  1  0.60892000  0.42216000  0.41168600  1
  O  O23  1  0.14667700  0.59247700  0.40547500  1
  F  F24  1  0.38480600  0.42755500  0.14000100  1
  F  F25  1  0.10024900  0.92013800  0.35784500  1
  F  F26  1  0.10396200  0.25813400  0.37803300  1
  F  F27  1  0.59132200  0.07737400  0.35861200  1
  F  F28  1  0.41138500  0.58897500  0.62965900  1
  F  F29  1  0.37480200  0.91727900  0.61900000  1
  F  F30  1  0.92029100  0.42488900  0.60452200  1
  F  F31  1  0.91778600  0.75497400  0.59719000  1
  F  F32  1  0.87967500  0.08275100  0.63249400  1
  F  F33  1  0.37817200  0.25060800  0.60466600  1
  F  F34  1  0.10556900  0.74785100  0.90037800  1
  F  F35  1  0.08363800  0.06455900  0.89468400  1
  F  F36  1  0.64593700  0.58780500  0.87726900  1
  F  F37  1  0.65339100  0.24104400  0.88913000  1
  F  F38  1  0.62111300  0.92682300  0.87685900  1
  F  F39  1  0.14475800  0.40919700  0.85861000  1
