# generated using pymatgen
data_Li3Fe2(PO4)3
_symmetry_space_group_name_H-M   'P 1'
_cell_length_a   8.75837120
_cell_length_b   8.75837120
_cell_length_c   8.71305200
_cell_angle_alpha   60.25531282
_cell_angle_beta   60.25531282
_cell_angle_gamma   59.72603522
_symmetry_Int_Tables_number   1
_chemical_formula_structural   Li3Fe2(PO4)3
_chemical_formula_sum   'Li6 Fe4 P6 O24'
_cell_volume   473.42711210
_cell_formula_units_Z   2
loop_
 _symmetry_equiv_pos_site_id
 _symmetry_equiv_pos_as_xyz
  1  'x, y, z'
loop_
 _atom_site_type_symbol
 _atom_site_label
 _atom_site_symmetry_multiplicity
 _atom_site_fract_x
 _atom_site_fract_y
 _atom_site_fract_z
 _atom_site_occupancy
  Li  Li0  1  0.35461100  0.03557400  0.67366800  1
  Li  Li1  1  0.35997300  0.62480200  0.74617600  1
  Li  Li2  1  0.88683300  0.74150800  0.70045700  1
  Li  Li3  1  0.62480200  0.35997300  0.24617600  1
  Li  Li4  1  0.03557400  0.35461100  0.17366800  1
  Li  Li5  1  0.74150800  0.88683300  0.20045700  1
  Fe  Fe6  1  0.85468900  0.35379800  0.85655800  1
  Fe  Fe7  1  0.15372700  0.64679200  0.14217600  1
  Fe  Fe8  1  0.64679200  0.15372700  0.64217600  1
  Fe  Fe9  1  0.35379800  0.85468900  0.35655800  1
  P  P10  1  0.47193400  0.24997700  0.04180700  1
  P  P11  1  0.95080200  0.04521300  0.25491800  1
  P  P12  1  0.04521300  0.95080200  0.75491800  1
  P  P13  1  0.24997700  0.47193400  0.54180700  1
  P  P14  1  0.75174000  0.53052500  0.45612300  1
  P  P15  1  0.53052500  0.75174000  0.95612300  1
  O  O16  1  0.76440900  0.06064700  0.42142400  1
  O  O17  1  0.92840300  0.24148300  0.09740400  1
  O  O18  1  0.24148300  0.92840300  0.59740400  1
  O  O19  1  0.75499900  0.47923200  0.65041500  1
  O  O20  1  0.72107000  0.37716700  0.44373300  1
  O  O21  1  0.89027000  0.97968900  0.69565500  1
  O  O22  1  0.47923200  0.75499900  0.15041500  1
  O  O23  1  0.52520700  0.25814500  0.84124700  1
  O  O24  1  0.97968900  0.89027000  0.19565500  1
  O  O25  1  0.55277700  0.93398400  0.79299600  1
  O  O26  1  0.37716700  0.72107000  0.94373300  1
  O  O27  1  0.47436900  0.05386200  0.18673600  1
  O  O28  1  0.72337100  0.59420900  0.92153300  1
  O  O29  1  0.29096300  0.61875900  0.55345900  1
  O  O30  1  0.00603500  0.11536800  0.80609100  1
  O  O31  1  0.11536800  0.00603500  0.30609100  1
  O  O32  1  0.59420900  0.72337100  0.42153300  1
  O  O33  1  0.61875900  0.29096300  0.05345900  1
  O  O34  1  0.93398400  0.55277700  0.29299600  1
  O  O35  1  0.27425500  0.39983100  0.08187800  1
  O  O36  1  0.25814500  0.52520700  0.34124700  1
  O  O37  1  0.06064700  0.76440900  0.92142400  1
  O  O38  1  0.39983100  0.27425500  0.58187800  1
  O  O39  1  0.05386200  0.47436900  0.68673600  1
