# generated using pymatgen
data_Li4MnSb2WO12
_symmetry_space_group_name_H-M   'P 1'
_cell_length_a   5.43885176
_cell_length_b   9.06247323
_cell_length_c   9.07942789
_cell_angle_alpha   68.86703874
_cell_angle_beta   86.26285084
_cell_angle_gamma   86.31422228
_symmetry_Int_Tables_number   1
_chemical_formula_structural   Li4MnSb2WO12
_chemical_formula_sum   'Li8 Mn2 Sb4 W2 O24'
_cell_volume   416.13489708
_cell_formula_units_Z   2
loop_
 _symmetry_equiv_pos_site_id
 _symmetry_equiv_pos_as_xyz
  1  'x, y, z'
loop_
 _atom_site_type_symbol
 _atom_site_label
 _atom_site_symmetry_multiplicity
 _atom_site_fract_x
 _atom_site_fract_y
 _atom_site_fract_z
 _atom_site_occupancy
  Li  Li0  1  0.56026500  0.65003200  0.65169500  1
  Li  Li1  1  0.56018600  0.15001700  0.15174300  1
  Li  Li2  1  0.08779200  0.13580600  0.63621900  1
  Li  Li3  1  0.08793000  0.63575600  0.13622500  1
  Li  Li4  1  0.43746000  0.85513600  0.85390100  1
  Li  Li5  1  0.43712400  0.35486000  0.35395500  1
  Li  Li6  1  0.10029500  0.40339100  0.90468500  1
  Li  Li7  1  0.10006500  0.90334100  0.40468200  1
  Mn  Mn8  1  0.50839900  0.50056400  0.99911900  1
  Mn  Mn9  1  0.50836300  0.00043300  0.49897400  1
  Sb  Sb10  1  0.99577000  0.75373100  0.75113100  1
  Sb  Sb11  1  0.99566600  0.25400400  0.25091000  1
  Sb  Sb12  1  0.51090500  0.24977700  0.75010300  1
  Sb  Sb13  1  0.51089700  0.74972300  0.25013300  1
  W  W14  1  0.00007500  0.50220400  0.50323200  1
  W  W15  1  0.00000700  0.00235600  0.00318600  1
  O  O16  1  0.80219800  0.86897700  0.56012300  1
  O  O17  1  0.80224200  0.36903300  0.05999700  1
  O  O18  1  0.00469200  0.94264900  0.81642800  1
  O  O19  1  0.00441300  0.44278100  0.31638600  1
  O  O20  1  0.18073700  0.18573700  0.87455100  1
  O  O21  1  0.18081700  0.68580000  0.37451800  1
  O  O22  1  0.30610900  0.81816000  0.61820300  1
  O  O23  1  0.30622000  0.31814800  0.11814300  1
  O  O24  1  0.30612000  0.37369400  0.56038100  1
  O  O25  1  0.30612700  0.87358600  0.06035500  1
  O  O26  1  0.48155000  0.06257600  0.68690000  1
  O  O27  1  0.48146900  0.56257400  0.18691100  1
  O  O28  1  0.48474500  0.43878200  0.81147500  1
  O  O29  1  0.48467400  0.93876100  0.31147600  1
  O  O30  1  0.68765400  0.11804900  0.94574400  1
  O  O31  1  0.68751900  0.61812700  0.44570000  1
  O  O32  1  0.67620600  0.68517600  0.86777200  1
  O  O33  1  0.67620300  0.18509900  0.36775800  1
  O  O34  1  0.82718000  0.30861800  0.62283200  1
  O  O35  1  0.82714000  0.80859100  0.12285300  1
  O  O36  1  0.99313700  0.55879700  0.68694800  1
  O  O37  1  0.99330000  0.05875800  0.18690200  1
  O  O38  1  0.19144100  0.62306300  0.93465600  1
  O  O39  1  0.19169700  0.12452300  0.43429500  1
