# generated using pymatgen
data_Li4MnCr2Fe3(PO4)6
_symmetry_space_group_name_H-M   'P 1'
_cell_length_a   8.37551400
_cell_length_b   8.56800006
_cell_length_c   8.70176865
_cell_angle_alpha   62.79519033
_cell_angle_beta   63.59354905
_cell_angle_gamma   63.90201676
_symmetry_Int_Tables_number   1
_chemical_formula_structural   Li4MnCr2Fe3(PO4)6
_chemical_formula_sum   'Li4 Mn1 Cr2 Fe3 P6 O24'
_cell_volume   474.98096247
_cell_formula_units_Z   1
loop_
 _symmetry_equiv_pos_site_id
 _symmetry_equiv_pos_as_xyz
  1  'x, y, z'
loop_
 _atom_site_type_symbol
 _atom_site_label
 _atom_site_symmetry_multiplicity
 _atom_site_fract_x
 _atom_site_fract_y
 _atom_site_fract_z
 _atom_site_occupancy
  Li  Li0  1  0.25087800  0.64089500  0.85834800  1
  Li  Li1  1  0.74683000  0.34214400  0.16032000  1
  Li  Li2  1  0.35142900  0.15610800  0.74924200  1
  Li  Li3  1  0.14956300  0.74977100  0.34420700  1
  Mn  Mn4  1  0.15258100  0.15716100  0.16072300  1
  Cr  Cr5  1  0.99619900  0.00536000  0.00013100  1
  Cr  Cr6  1  0.50314300  0.50167000  0.49406700  1
  Fe  Fe7  1  0.85230300  0.85760700  0.85159500  1
  Fe  Fe8  1  0.64890900  0.64639200  0.64394300  1
  Fe  Fe9  1  0.34897800  0.34245600  0.34400900  1
  P  P10  1  0.74940500  0.04486100  0.45873000  1
  P  P11  1  0.44414600  0.74735400  0.03818400  1
  P  P12  1  0.05475600  0.46053100  0.75156100  1
  P  P13  1  0.93336900  0.56015100  0.25193800  1
  P  P14  1  0.56792700  0.24739600  0.94246900  1
  P  P15  1  0.25066400  0.93753800  0.55918000  1
  O  O16  1  0.89406300  0.52421800  0.67630300  1
  O  O17  1  0.67287800  0.89038000  0.50397500  1
  O  O18  1  0.92957700  0.74615500  0.08874100  1
  O  O19  1  0.46567200  0.67925700  0.89148300  1
  O  O20  1  0.95423000  0.40679100  0.19235600  1
  O  O21  1  0.74201600  0.58198700  0.40677000  1
  O  O22  1  0.76064000  0.09225200  0.92000200  1
  O  O23  1  0.57615900  0.41073900  0.75991200  1
  O  O24  1  0.82117400  0.00170800  0.61243600  1
  O  O25  1  0.40213300  0.74222800  0.58811600  1
  O  O26  1  0.89955900  0.06386200  0.26806000  1
  O  O27  1  0.60801300  0.81930800  0.97866800  1
  O  O28  1  0.40899700  0.18293600  0.97092600  1
  O  O29  1  0.10022000  0.91029000  0.75223600  1
  O  O30  1  0.59795700  0.23877000  0.43760200  1
  O  O31  1  0.19035500  0.96035500  0.40623100  1
  O  O32  1  0.43364000  0.59745200  0.22884500  1
  O  O33  1  0.24852900  0.89928500  0.06472300  1
  O  O34  1  0.25040100  0.43651800  0.60078200  1
  O  O35  1  0.03189900  0.60481000  0.82495500  1
  O  O36  1  0.54130200  0.30331600  0.09941200  1
  O  O37  1  0.06425900  0.26507600  0.89765200  1
  O  O38  1  0.31018600  0.09711600  0.52947200  1
  O  O39  1  0.09505800  0.52479500  0.31469700  1
