# generated using pymatgen
data_Li4Cr5Co3O16
_symmetry_space_group_name_H-M   'P 1'
_cell_length_a   5.83096100
_cell_length_b   5.83771843
_cell_length_c   9.49667809
_cell_angle_alpha   90.93079901
_cell_angle_beta   89.59314475
_cell_angle_gamma   119.46273626
_symmetry_Int_Tables_number   1
_chemical_formula_structural   Li4Cr5Co3O16
_chemical_formula_sum   'Li4 Cr5 Co3 O16'
_cell_volume   281.41932648
_cell_formula_units_Z   1
loop_
 _symmetry_equiv_pos_site_id
 _symmetry_equiv_pos_as_xyz
  1  'x, y, z'
loop_
 _atom_site_type_symbol
 _atom_site_label
 _atom_site_symmetry_multiplicity
 _atom_site_fract_x
 _atom_site_fract_y
 _atom_site_fract_z
 _atom_site_occupancy
  Li  Li0  1  0.32524400  0.66260000  0.89298500  1
  Li  Li1  1  0.00584800  0.99711500  0.99588900  1
  Li  Li2  1  0.00624500  0.99761500  0.49761700  1
  Li  Li3  1  0.66648600  0.33244600  0.39582600  1
  Cr  Cr4  1  0.16854100  0.33632100  0.20953200  1
  Cr  Cr5  1  0.34192000  0.67607500  0.48476600  1
  Cr  Cr6  1  0.66335800  0.82954100  0.20845500  1
  Cr  Cr7  1  0.83384300  0.16719300  0.70824600  1
  Cr  Cr8  1  0.65662400  0.33410200  0.98251100  1
  Co  Co9  1  0.17107300  0.82820100  0.22078100  1
  Co  Co10  1  0.34103500  0.16978700  0.71356500  1
  Co  Co11  1  0.83533100  0.65999800  0.71695200  1
  O  O12  1  0.16215700  0.32637300  0.60780200  1
  O  O13  1  0.48157500  0.52268500  0.33339600  1
  O  O14  1  0.32868000  0.66839100  0.10317400  1
  O  O15  1  0.00248300  0.99919500  0.30945500  1
  O  O16  1  0.01287900  0.01022300  0.80944600  1
  O  O17  1  0.67496400  0.84378600  0.60536600  1
  O  O18  1  0.04049100  0.50990300  0.34263800  1
  O  O19  1  0.49394900  0.96220700  0.34100600  1
  O  O20  1  0.83320500  0.16360300  0.10641200  1
  O  O21  1  0.17635100  0.84995100  0.60482600  1
  O  O22  1  0.51960500  0.04092800  0.83215500  1
  O  O23  1  0.95431200  0.47341800  0.83840500  1
  O  O24  1  0.65475100  0.32480900  0.60578800  1
  O  O25  1  0.32892500  0.17847500  0.10250700  1
  O  O26  1  0.50115900  0.46521600  0.83838200  1
  O  O27  1  0.81866600  0.66954300  0.09995500  1
