# generated using pymatgen
data_Li4Co2C4SO16
_symmetry_space_group_name_H-M   'P 1'
_cell_length_a   9.61197170
_cell_length_b   9.50401409
_cell_length_c   9.49784617
_cell_angle_alpha   60.77474263
_cell_angle_beta   59.64434419
_cell_angle_gamma   59.58091318
_symmetry_Int_Tables_number   1
_chemical_formula_structural   Li4Co2C4SO16
_chemical_formula_sum   'Li8 Co4 C8 S2 O32'
_cell_volume   613.35140093
_cell_formula_units_Z   2
loop_
 _symmetry_equiv_pos_site_id
 _symmetry_equiv_pos_as_xyz
  1  'x, y, z'
loop_
 _atom_site_type_symbol
 _atom_site_label
 _atom_site_symmetry_multiplicity
 _atom_site_fract_x
 _atom_site_fract_y
 _atom_site_fract_z
 _atom_site_occupancy
  Li  Li0  1  0.78366800  0.21633200  0.21633200  1
  Li  Li1  1  0.53907800  0.96092200  0.96092200  1
  Li  Li2  1  0.21760800  0.78239200  0.21760800  1
  Li  Li3  1  0.78250200  0.78250200  0.21749800  1
  Li  Li4  1  0.78239200  0.21760800  0.78239200  1
  Li  Li5  1  0.21633200  0.78366800  0.78366800  1
  Li  Li6  1  0.21749800  0.21749800  0.78250200  1
  Li  Li7  1  0.96092200  0.53907800  0.53907800  1
  Co  Co8  1  0.37347200  0.37834000  0.87480500  1
  Co  Co9  1  0.37834000  0.37347200  0.37338300  1
  Co  Co10  1  0.37338300  0.87480500  0.37834000  1
  Co  Co11  1  0.87480500  0.37338300  0.37347200  1
  C  C12  1  0.59197200  0.22303800  0.59054900  1
  C  C13  1  0.59444100  0.59054900  0.22303800  1
  C  C14  1  0.22303800  0.59197200  0.59444100  1
  C  C15  1  0.59054900  0.59444100  0.59197200  1
  C  C16  1  0.53306500  0.15441300  0.15113600  1
  C  C17  1  0.16138600  0.15113600  0.15441300  1
  C  C18  1  0.15441300  0.53306500  0.16138600  1
  C  C19  1  0.15113600  0.16138600  0.53306500  1
  S  S20  1  0.00000000  0.00000000  0.00000000  1
  S  S21  1  0.75000000  0.75000000  0.75000000  1
  O  O22  1  0.53322300  0.27239200  0.00370900  1
  O  O23  1  0.73197000  0.22899500  0.46170200  1
  O  O24  1  0.57733300  0.46170200  0.22899500  1
  O  O25  1  0.27239200  0.53322300  0.19067600  1
  O  O26  1  0.73412800  0.57440500  0.22806500  1
  O  O27  1  0.19245400  0.93472400  0.93521300  1
  O  O28  1  0.93760800  0.93521300  0.93472400  1
  O  O29  1  0.47091800  0.74018300  0.20958900  1
  O  O30  1  0.57931000  0.20958900  0.74018300  1
  O  O31  1  0.20958900  0.57931000  0.47091800  1
  O  O32  1  0.74018300  0.47091800  0.57931000  1
  O  O33  1  0.93521300  0.93760800  0.19245400  1
  O  O34  1  0.93472400  0.19245400  0.93760800  1
  O  O35  1  0.53813900  0.00510200  0.17356800  1
  O  O36  1  0.28319100  0.17356800  0.00510200  1
  O  O37  1  0.57440500  0.73412800  0.46340200  1
  O  O38  1  0.19067600  0.00370900  0.27239200  1
  O  O39  1  0.22899500  0.73197000  0.57733300  1
  O  O40  1  0.46170200  0.57733300  0.73197000  1
  O  O41  1  0.81817200  0.55829700  0.80747300  1
  O  O42  1  0.81605800  0.80747300  0.55829700  1
  O  O43  1  0.01307600  0.26947400  0.18182200  1
  O  O44  1  0.53562800  0.18182200  0.26947400  1
  O  O45  1  0.18182200  0.53562800  0.01307600  1
  O  O46  1  0.26947400  0.01307600  0.53562800  1
  O  O47  1  0.80747300  0.81605800  0.81817200  1
  O  O48  1  0.55829700  0.81817200  0.81605800  1
  O  O49  1  0.00370900  0.19067600  0.53322300  1
  O  O50  1  0.46340200  0.22806500  0.57440500  1
  O  O51  1  0.17356800  0.28319100  0.53813900  1
  O  O52  1  0.00510200  0.53813900  0.28319100  1
  O  O53  1  0.22806500  0.46340200  0.73412800  1
