# generated using pymatgen
data_Li6AlCrO6
_symmetry_space_group_name_H-M   'P 1'
_cell_length_a   5.38495626
_cell_length_b   5.38495626
_cell_length_c   9.73250300
_cell_angle_alpha   90.00000000
_cell_angle_beta   90.00000000
_cell_angle_gamma   120.00000325
_symmetry_Int_Tables_number   1
_chemical_formula_structural   Li6AlCrO6
_chemical_formula_sum   'Li12 Al2 Cr2 O12'
_cell_volume   244.41031151
_cell_formula_units_Z   2
loop_
 _symmetry_equiv_pos_site_id
 _symmetry_equiv_pos_as_xyz
  1  'x, y, z'
loop_
 _atom_site_type_symbol
 _atom_site_label
 _atom_site_symmetry_multiplicity
 _atom_site_fract_x
 _atom_site_fract_y
 _atom_site_fract_z
 _atom_site_occupancy
  Li  Li0  1  0.93739900  0.62117100  0.42296000  1
  Li  Li1  1  0.06260100  0.68377100  0.92296000  1
  Li  Li2  1  0.62117100  0.93739900  0.92296000  1
  Li  Li3  1  0.93739900  0.31622900  0.07704000  1
  Li  Li4  1  0.68377100  0.06260100  0.42296000  1
  Li  Li5  1  0.06260100  0.37882900  0.57704000  1
  Li  Li6  1  0.62117100  0.68377100  0.57704000  1
  Li  Li7  1  0.37882900  0.31622900  0.42296000  1
  Li  Li8  1  0.31622900  0.37882900  0.92296000  1
  Li  Li9  1  0.68377100  0.62117100  0.07704000  1
  Li  Li10  1  0.37882900  0.06260100  0.07704000  1
  Li  Li11  1  0.31622900  0.93739900  0.57704000  1
  Al  Al12  1  0.66666700  0.33333300  0.75000000  1
  Al  Al13  1  0.33333300  0.66666700  0.25000000  1
  Cr  Cr14  1  0.00000000  0.00000000  0.25000000  1
  Cr  Cr15  1  0.00000000  0.00000000  0.75000000  1
  O  O16  1  0.05344900  0.70499800  0.13450600  1
  O  O17  1  0.94655100  0.65154900  0.63450600  1
  O  O18  1  0.65154900  0.94655100  0.13450600  1
  O  O19  1  0.05344900  0.34845100  0.36549400  1
  O  O20  1  0.94655100  0.29500200  0.86549400  1
  O  O21  1  0.70499800  0.05344900  0.63450600  1
  O  O22  1  0.34845100  0.29500200  0.63450600  1
  O  O23  1  0.70499800  0.65154900  0.86549400  1
  O  O24  1  0.29500200  0.34845100  0.13450600  1
  O  O25  1  0.65154900  0.70499800  0.36549400  1
  O  O26  1  0.29500200  0.94655100  0.36549400  1
  O  O27  1  0.34845100  0.05344900  0.86549400  1
