# generated using pymatgen
data_Li24Mn7Cr5O36
_symmetry_space_group_name_H-M   'P 1'
_cell_length_a   5.01335800
_cell_length_b   9.74703101
_cell_length_c   13.27801405
_cell_angle_alpha   97.06138118
_cell_angle_beta   100.48447420
_cell_angle_gamma   94.80707565
_symmetry_Int_Tables_number   1
_chemical_formula_structural   Li24Mn7Cr5O36
_chemical_formula_sum   'Li24 Mn7 Cr5 O36'
_cell_volume   629.40428271
_cell_formula_units_Z   1
loop_
 _symmetry_equiv_pos_site_id
 _symmetry_equiv_pos_as_xyz
  1  'x, y, z'
loop_
 _atom_site_type_symbol
 _atom_site_label
 _atom_site_symmetry_multiplicity
 _atom_site_fract_x
 _atom_site_fract_y
 _atom_site_fract_z
 _atom_site_occupancy
  Li  Li0  1  0.16786300  0.99953800  0.83326200  1
  Li  Li1  1  0.05165600  0.00000100  0.61435100  1
  Li  Li2  1  0.99962600  0.74954400  0.25009300  1
  Li  Li3  1  0.33144800  0.75028400  0.91717000  1
  Li  Li4  1  0.04726100  0.50000000  0.11211200  1
  Li  Li5  1  0.38050400  0.49879600  0.77657900  1
  Li  Li6  1  0.16595000  0.49999900  0.33338500  1
  Li  Li7  1  0.50234000  0.50006900  0.00036600  1
  Li  Li8  1  0.28785600  0.50062400  0.55629900  1
  Li  Li9  1  0.33417900  0.25010600  0.41603800  1
  Li  Li10  1  0.50012900  0.99985900  0.50062200  1
  Li  Li11  1  0.27968300  0.99859500  0.05246000  1
  Li  Li12  1  0.61462100  0.99989400  0.71875000  1
  Li  Li13  1  0.38525800  0.99994900  0.28059800  1
  Li  Li14  1  0.71881100  0.00126700  0.94761300  1
  Li  Li15  1  0.66394600  0.75014500  0.58407900  1
  Li  Li16  1  0.71229400  0.49961300  0.44356300  1
  Li  Li17  1  0.83421200  0.50014700  0.66719300  1
  Li  Li18  1  0.61955400  0.50112300  0.22277600  1
  Li  Li19  1  0.95066200  0.50023400  0.88798500  1
  Li  Li20  1  0.66791900  0.24973100  0.08267400  1
  Li  Li21  1  0.83437000  0.00027700  0.16672900  1
  Li  Li22  1  0.99909900  0.25002900  0.74851100  1
  Li  Li23  1  0.94854500  0.99974900  0.38565800  1
  Mn  Mn24  1  0.22345400  0.75003000  0.69404200  1
  Mn  Mn25  1  0.44476200  0.25072800  0.64009100  1
  Mn  Mn26  1  0.55469200  0.25002900  0.86108600  1
  Mn  Mn27  1  0.44436900  0.74978200  0.13904600  1
  Mn  Mn28  1  0.55357200  0.74858900  0.35982200  1
  Mn  Mn29  1  0.77762200  0.25039700  0.30566700  1
  Mn  Mn30  1  0.89189900  0.75136300  0.02875700  1
  Cr  Cr31  1  0.10460800  0.24798000  0.96914300  1
  Cr  Cr32  1  0.10390400  0.75047100  0.47299100  1
  Cr  Cr33  1  0.22890000  0.25085400  0.19352800  1
  Cr  Cr34  1  0.77216800  0.74986500  0.80715000  1
  Cr  Cr35  1  0.89316600  0.25001600  0.52625600  1
  O  O36  1  0.00334900  0.86314100  0.93117200  1
  O  O37  1  0.06932700  0.63643200  0.78469900  1
  O  O38  1  0.99926800  0.36182100  0.42893900  1
  O  O39  1  0.14867400  0.36303600  0.64471700  1
  O  O40  1  0.26458700  0.36375400  0.88367500  1
  O  O41  1  0.33654900  0.86315300  0.59786800  1
  O  O42  1  0.06836600  0.13611100  0.28453800  1
  O  O43  1  0.18655900  0.13840500  0.52548800  1
  O  O44  1  0.40864800  0.13432400  0.95039800  1
  O  O45  1  0.14381500  0.86135800  0.14338400  1
  O  O46  1  0.26531400  0.86386500  0.38277500  1
  O  O47  1  0.48000000  0.86124800  0.80873200  1
  O  O48  1  0.33166000  0.13856000  0.73836400  1
  O  O49  1  0.19049200  0.63833200  0.02372600  1
  O  O50  1  0.40285500  0.63630800  0.45085000  1
  O  O51  1  0.51874500  0.63720500  0.68870800  1
  O  O52  1  0.33177600  0.63844900  0.23753400  1
  O  O53  1  0.67072600  0.63896300  0.90444100  1
  O  O54  1  0.32735300  0.36150200  0.09611500  1
  O  O55  1  0.66834700  0.36165700  0.76225000  1
  O  O56  1  0.48186400  0.36288400  0.31170300  1
  O  O57  1  0.60005200  0.36353100  0.54975600  1
  O  O58  1  0.80293500  0.36312200  0.97523100  1
  O  O59  1  0.66618400  0.86121400  0.26145400  1
  O  O60  1  0.52198100  0.13856800  0.19126200  1
  O  O61  1  0.73441100  0.13538500  0.61866300  1
  O  O62  1  0.85711400  0.13844800  0.85726900  1
  O  O63  1  0.59724900  0.86340000  0.04832500  1
  O  O64  1  0.81169000  0.86153600  0.47483500  1
  O  O65  1  0.93219800  0.86370500  0.71563800  1
  O  O66  1  0.66480400  0.13723700  0.40279500  1
  O  O67  1  0.73592500  0.63637800  0.11825400  1
  O  O68  1  0.85117100  0.63748900  0.35546200  1
  O  O69  1  0.00357300  0.63863900  0.57056700  1
  O  O70  1  0.92979100  0.36407900  0.21533600  1
  O  O71  1  0.00174700  0.13708200  0.06863200  1
