# generated using pymatgen
data_Li8Co(O2F)2
_symmetry_space_group_name_H-M   'P 1'
_cell_length_a   6.34576153
_cell_length_b   9.86397236
_cell_length_c   9.18345766
_cell_angle_alpha   97.62019911
_cell_angle_beta   76.81608074
_cell_angle_gamma   91.21645644
_symmetry_Int_Tables_number   1
_chemical_formula_structural   Li8Co(O2F)2
_chemical_formula_sum   'Li32 Co4 O16 F8'
_cell_volume   554.71542702
_cell_formula_units_Z   4
loop_
 _symmetry_equiv_pos_site_id
 _symmetry_equiv_pos_as_xyz
  1  'x, y, z'
loop_
 _atom_site_type_symbol
 _atom_site_label
 _atom_site_symmetry_multiplicity
 _atom_site_fract_x
 _atom_site_fract_y
 _atom_site_fract_z
 _atom_site_occupancy
  Li  Li0  1  0.84243500  0.50180400  0.11755400  1
  Li  Li1  1  0.09240700  0.75185800  0.61764000  1
  Li  Li2  1  0.34257600  0.00175800  0.11779900  1
  Li  Li3  1  0.59264200  0.25170900  0.61769400  1
  Li  Li4  1  0.90742100  0.24824300  0.38219800  1
  Li  Li5  1  0.15759400  0.49814100  0.88236200  1
  Li  Li6  1  0.40756500  0.74819600  0.38244500  1
  Li  Li7  1  0.65736000  0.99829000  0.88230600  1
  Li  Li8  1  0.89435900  0.25460300  0.05769700  1
  Li  Li9  1  0.14444200  0.50461300  0.55768300  1
  Li  Li10  1  0.39469500  0.75459700  0.05775700  1
  Li  Li11  1  0.64466000  0.00460400  0.55776900  1
  Li  Li12  1  0.85530100  0.49540200  0.44224400  1
  Li  Li13  1  0.10556200  0.74538700  0.94231600  1
  Li  Li14  1  0.35563900  0.99539700  0.44230400  1
  Li  Li15  1  0.60534300  0.24539600  0.94223000  1
  Li  Li16  1  0.14986900  0.50805300  0.24027000  1
  Li  Li17  1  0.40002100  0.75796700  0.74031800  1
  Li  Li18  1  0.65016400  0.00801300  0.24022800  1
  Li  Li19  1  0.90003200  0.25809600  0.74022500  1
  Li  Li20  1  0.59983100  0.24198500  0.25977000  1
  Li  Li21  1  0.84998300  0.49203400  0.75968400  1
  Li  Li22  1  0.10012700  0.74194700  0.25973000  1
  Li  Li23  1  0.34997300  0.99190600  0.75977500  1
  Li  Li24  1  0.51112500  0.49727600  0.30205300  1
  Li  Li25  1  0.76133800  0.74736000  0.80215800  1
  Li  Li26  1  0.01122900  0.99725500  0.30221300  1
  Li  Li27  1  0.26113600  0.24719600  0.80210900  1
  Li  Li28  1  0.23876800  0.25274600  0.19778600  1
  Li  Li29  1  0.48866300  0.50264000  0.69784600  1
  Li  Li30  1  0.73887600  0.75272500  0.19794600  1
  Li  Li31  1  0.98886700  0.00280200  0.69789400  1
  Co  Co32  1  0.49998900  0.49999600  0.99996300  1
  Co  Co33  1  0.75000700  0.75000300  0.50003800  1
  Co  Co34  1  0.00001900  0.00000800  0.00003600  1
  Co  Co35  1  0.24998200  0.24999200  0.49996400  1
  O  O36  1  0.61343500  0.36879100  0.11814500  1
  O  O37  1  0.86352900  0.61891300  0.61810600  1
  O  O38  1  0.11387000  0.86883700  0.11820000  1
  O  O39  1  0.36385700  0.11874700  0.61823100  1
  O  O40  1  0.13613000  0.38116300  0.38180000  1
  O  O41  1  0.38647200  0.63108600  0.88189500  1
  O  O42  1  0.63656400  0.88120900  0.38185300  1
  O  O43  1  0.88614400  0.13125200  0.88176900  1
  O  O44  1  0.85872700  0.61578600  0.29666800  1
  O  O45  1  0.10862100  0.86580200  0.79679600  1
  O  O46  1  0.35876500  0.11579500  0.29676600  1
  O  O47  1  0.60884000  0.36576100  0.79666400  1
  O  O48  1  0.89122900  0.13420300  0.20323200  1
  O  O49  1  0.14138700  0.38419800  0.70320400  1
  O  O50  1  0.39126800  0.63421400  0.20333300  1
  O  O51  1  0.64116600  0.88423900  0.70333400  1
  F  F52  1  0.11719900  0.39122400  0.05139900  1
  F  F53  1  0.36717400  0.64133800  0.55153500  1
  F  F54  1  0.61779500  0.89121700  0.05137400  1
  F  F55  1  0.86788700  0.14111600  0.55125100  1
  F  F56  1  0.63220200  0.35877600  0.44862000  1
  F  F57  1  0.88283500  0.60866300  0.94846600  1
  F  F58  1  0.13279900  0.85877500  0.44860300  1
  F  F59  1  0.38210200  0.10889300  0.94875400  1
