# generated using pymatgen
data_Li3FeB8O15
_symmetry_space_group_name_H-M   'P 1'
_cell_length_a   11.46482300
_cell_length_b   9.24305900
_cell_length_c   11.99451359
_cell_angle_alpha   89.09882777
_cell_angle_beta   90.00000000
_cell_angle_gamma   90.00000000
_symmetry_Int_Tables_number   1
_chemical_formula_structural   Li3FeB8O15
_chemical_formula_sum   'Li12 Fe4 B32 O60'
_cell_volume   1270.90181382
_cell_formula_units_Z   4
loop_
 _symmetry_equiv_pos_site_id
 _symmetry_equiv_pos_as_xyz
  1  'x, y, z'
loop_
 _atom_site_type_symbol
 _atom_site_label
 _atom_site_symmetry_multiplicity
 _atom_site_fract_x
 _atom_site_fract_y
 _atom_site_fract_z
 _atom_site_occupancy
  Li  Li0  1  0.07965300  0.07309100  0.57742200  1
  Li  Li1  1  0.65977300  0.11091100  0.55227900  1
  Li  Li2  1  0.42034700  0.07309100  0.07742200  1
  Li  Li3  1  0.84022700  0.11091100  0.05227900  1
  Li  Li4  1  0.16720700  0.48250100  0.71746900  1
  Li  Li5  1  0.33279300  0.48250100  0.21746900  1
  Li  Li6  1  0.66720700  0.51749900  0.78253100  1
  Li  Li7  1  0.83279300  0.51749900  0.28253100  1
  Li  Li8  1  0.15977300  0.88908900  0.94772100  1
  Li  Li9  1  0.57965300  0.92690900  0.92257800  1
  Li  Li10  1  0.34022700  0.88908900  0.44772100  1
  Li  Li11  1  0.92034700  0.92690900  0.42257800  1
  Fe  Fe12  1  0.16147300  0.24580500  0.96922500  1
  Fe  Fe13  1  0.33852700  0.24580500  0.46922500  1
  Fe  Fe14  1  0.66147300  0.75419500  0.53077500  1
  Fe  Fe15  1  0.83852700  0.75419500  0.03077500  1
  B  B16  1  0.33940900  0.10108100  0.87684900  1
  B  B17  1  0.16059100  0.10108100  0.37684900  1
  B  B18  1  0.74724200  0.13574600  0.78720400  1
  B  B19  1  0.75275800  0.13574600  0.28720400  1
  B  B20  1  0.53857700  0.17546700  0.81624000  1
  B  B21  1  0.96142300  0.17546700  0.31624000  1
  B  B22  1  0.94085200  0.19462400  0.85694200  1
  B  B23  1  0.36808600  0.22046100  0.69841300  1
  B  B24  1  0.55914800  0.19462400  0.35694200  1
  B  B25  1  0.13191400  0.22046100  0.19841300  1
  B  B26  1  0.88508700  0.27779100  0.67061900  1
  B  B27  1  0.61491300  0.27779100  0.17061900  1
  B  B28  1  0.59943000  0.34659200  0.97148500  1
  B  B29  1  0.90057000  0.34659200  0.47148500  1
  B  B30  1  0.29083100  0.50298900  0.90171600  1
  B  B31  1  0.20916900  0.50298900  0.40171600  1
  B  B32  1  0.79083100  0.49701100  0.59828400  1
  B  B33  1  0.70916900  0.49701100  0.09828400  1
  B  B34  1  0.09943000  0.65340800  0.52851500  1
  B  B35  1  0.40057000  0.65340800  0.02851500  1
  B  B36  1  0.38508700  0.72220900  0.82938100  1
  B  B37  1  0.11491300  0.72220900  0.32938100  1
  B  B38  1  0.86808600  0.77953900  0.80158700  1
  B  B39  1  0.44085200  0.80537600  0.64305800  1
  B  B40  1  0.63191400  0.77953900  0.30158700  1
  B  B41  1  0.05914800  0.80537600  0.14305800  1
  B  B42  1  0.03857700  0.82453300  0.68376000  1
  B  B43  1  0.46142300  0.82453300  0.18376000  1
  B  B44  1  0.24724200  0.86425400  0.71279600  1
  B  B45  1  0.25275800  0.86425400  0.21279600  1
  B  B46  1  0.83940900  0.89891900  0.62315100  1
  B  B47  1  0.66059100  0.89891900  0.12315100  1
  O  O48  1  0.45778400  0.09496500  0.89443000  1
  O  O49  1  0.26448400  0.07635000  0.96451400  1
  O  O50  1  0.63952000  0.07857700  0.80918300  1
  O  O51  1  0.04221600  0.09496500  0.39443000  1
  O  O52  1  0.23551600  0.07635000  0.46451400  1
  O  O53  1  0.86048000  0.07857700  0.30918300  1
  O  O54  1  0.82337800  0.15533400  0.87678100  1
  O  O55  1  0.29441300  0.15240000  0.77672200  1
  O  O56  1  0.67662200  0.15533400  0.37678100  1
  O  O57  1  0.20558700  0.15240000  0.27672200  1
  O  O58  1  0.00979000  0.17554300  0.94795100  1
  O  O59  1  0.49021000  0.17554300  0.44795100  1
  O  O60  1  0.78114800  0.17543900  0.68105500  1
  O  O61  1  0.48639900  0.20553400  0.70757300  1
  O  O62  1  0.71885200  0.17543900  0.18105500  1
  O  O63  1  0.01360100  0.20553400  0.20757300  1
  O  O64  1  0.31420500  0.29832800  0.61611500  1
  O  O65  1  0.93655700  0.26071700  0.55940700  1
  O  O66  1  0.18579500  0.29832800  0.11611500  1
  O  O67  1  0.97496000  0.24426300  0.75415200  1
  O  O68  1  0.56344300  0.26071700  0.05940700  1
  O  O69  1  0.52504000  0.24426300  0.25415200  1
  O  O70  1  0.57560300  0.32005900  0.86199200  1
  O  O71  1  0.92439700  0.32005900  0.36199200  1
  O  O72  1  0.20243600  0.40839500  0.88015600  1
  O  O73  1  0.29756400  0.40839500  0.38015600  1
  O  O74  1  0.83596500  0.42291700  0.68816000  1
  O  O75  1  0.66798000  0.47053100  0.98997300  1
  O  O76  1  0.66403500  0.42291700  0.18816000  1
  O  O77  1  0.83202000  0.47053100  0.48997300  1
  O  O78  1  0.16798000  0.52946900  0.51002700  1
  O  O79  1  0.33596500  0.57708300  0.81184000  1
  O  O80  1  0.33202000  0.52946900  0.01002700  1
  O  O81  1  0.16403500  0.57708300  0.31184000  1
  O  O82  1  0.70243600  0.59160500  0.61984400  1
  O  O83  1  0.79756400  0.59160500  0.11984400  1
  O  O84  1  0.07560300  0.67994100  0.63800800  1
  O  O85  1  0.42439700  0.67994100  0.13800800  1
  O  O86  1  0.47496000  0.75573700  0.74584800  1
  O  O87  1  0.43655700  0.73928300  0.94059300  1
  O  O88  1  0.02504000  0.75573700  0.24584800  1
  O  O89  1  0.81420500  0.70167200  0.88388500  1
  O  O90  1  0.06344300  0.73928300  0.44059300  1
  O  O91  1  0.68579500  0.70167200  0.38388500  1
  O  O92  1  0.98639900  0.79446600  0.79242700  1
  O  O93  1  0.28114800  0.82456100  0.81894500  1
  O  O94  1  0.51360100  0.79446600  0.29242700  1
  O  O95  1  0.21885200  0.82456100  0.31894500  1
  O  O96  1  0.50979000  0.82445700  0.55204900  1
  O  O97  1  0.99021000  0.82445700  0.05204900  1
  O  O98  1  0.79441300  0.84760000  0.72327800  1
  O  O99  1  0.32337800  0.84466600  0.62321900  1
  O  O100  1  0.70558700  0.84760000  0.22327800  1
  O  O101  1  0.17662200  0.84466600  0.12321900  1
  O  O102  1  0.13952000  0.92142300  0.69081700  1
  O  O103  1  0.76448400  0.92365000  0.53548600  1
  O  O104  1  0.95778400  0.90503500  0.60557000  1
  O  O105  1  0.36048000  0.92142300  0.19081700  1
  O  O106  1  0.73551600  0.92365000  0.03548600  1
  O  O107  1  0.54221600  0.90503500  0.10557000  1
