# generated using pymatgen
data_LiMo(PO3)4
_symmetry_space_group_name_H-M   'P 1'
_cell_length_a   13.21956500
_cell_length_b   7.61948700
_cell_length_c   12.20940054
_cell_angle_alpha   51.90000088
_cell_angle_beta   90.00000000
_cell_angle_gamma   90.00000000
_symmetry_Int_Tables_number   1
_chemical_formula_structural   LiMo(PO3)4
_chemical_formula_sum   'Li4 Mo4 P16 O48'
_cell_volume   967.77882923
_cell_formula_units_Z   4
loop_
 _symmetry_equiv_pos_site_id
 _symmetry_equiv_pos_as_xyz
  1  'x, y, z'
loop_
 _atom_site_type_symbol
 _atom_site_label
 _atom_site_symmetry_multiplicity
 _atom_site_fract_x
 _atom_site_fract_y
 _atom_site_fract_z
 _atom_site_occupancy
  Li  Li0  1  0.71300600  0.30456300  0.54792800  1
  Li  Li1  1  0.28699400  0.69543700  0.45207200  1
  Li  Li2  1  0.78699400  0.30456300  0.04792800  1
  Li  Li3  1  0.21300600  0.69543700  0.95207200  1
  Mo  Mo4  1  0.27627300  0.07143300  0.51569300  1
  Mo  Mo5  1  0.77627300  0.92856700  0.98430700  1
  Mo  Mo6  1  0.22372700  0.07143300  0.01569300  1
  Mo  Mo7  1  0.72372700  0.92856700  0.48430700  1
  P  P8  1  0.35787600  0.19049400  0.21618300  1
  P  P9  1  0.90866800  0.65810300  0.75781800  1
  P  P10  1  0.64212400  0.80950600  0.78381700  1
  P  P11  1  0.42200900  0.91823500  0.77386900  1
  P  P12  1  0.57799100  0.08176500  0.22613100  1
  P  P13  1  0.40866800  0.34189700  0.74218200  1
  P  P14  1  0.92200900  0.08176500  0.72613100  1
  P  P15  1  0.07799100  0.91823500  0.27386900  1
  P  P16  1  0.14212400  0.19049400  0.71618300  1
  P  P17  1  0.87100800  0.44465300  0.25933300  1
  P  P18  1  0.62899200  0.44465300  0.75933300  1
  P  P19  1  0.59133200  0.65810300  0.25781800  1
  P  P20  1  0.12899200  0.55534700  0.74066700  1
  P  P21  1  0.09133200  0.34189700  0.24218200  1
  P  P22  1  0.37100800  0.55534700  0.24066700  1
  P  P23  1  0.85787600  0.80950600  0.28381700  1
  O  O24  1  0.05337600  0.16946700  0.21597800  1
  O  O25  1  0.87208800  0.45329700  0.89157400  1
  O  O26  1  0.84706300  0.98256000  0.12677800  1
  O  O27  1  0.34775300  0.80164300  0.88950600  1
  O  O28  1  0.34933300  0.43782400  0.16970000  1
  O  O29  1  0.78222200  0.82080800  0.37034100  1
  O  O30  1  0.84775300  0.19835700  0.61049400  1
  O  O31  1  0.15066700  0.43782400  0.66970000  1
  O  O32  1  0.62791200  0.45329700  0.39157400  1
  O  O33  1  0.85389000  0.61181900  0.10413400  1
  O  O34  1  0.46763800  0.19219500  0.16248700  1
  O  O35  1  0.65224700  0.19835700  0.11049400  1
  O  O36  1  0.59516700  0.07555500  0.35080800  1
  O  O37  1  0.30994400  0.76507900  0.16559800  1
  O  O38  1  0.35389000  0.38818100  0.39586600  1
  O  O39  1  0.80994400  0.23492100  0.33440200  1
  O  O40  1  0.48771100  0.61303500  0.20742800  1
  O  O41  1  0.96763800  0.80780500  0.33751300  1
  O  O42  1  0.15293700  0.01744000  0.87322200  1
  O  O43  1  0.21777800  0.17919200  0.62965900  1
  O  O44  1  0.65066700  0.56217600  0.83030000  1
  O  O45  1  0.84933300  0.56217600  0.33030000  1
  O  O46  1  0.14611000  0.38818100  0.89586600  1
  O  O47  1  0.09516700  0.92444500  0.14919200  1
  O  O48  1  0.37208800  0.54670300  0.60842600  1
  O  O49  1  0.44662400  0.16946700  0.71597800  1
  O  O50  1  0.03236200  0.19219500  0.66248700  1
  O  O51  1  0.55337600  0.83053300  0.28402200  1
  O  O52  1  0.98771100  0.38696500  0.29257200  1
  O  O53  1  0.15224700  0.80164300  0.38950600  1
  O  O54  1  0.15658100  0.22487000  0.36940900  1
  O  O55  1  0.34341900  0.22487000  0.86940900  1
  O  O56  1  0.71777800  0.82080800  0.87034100  1
  O  O57  1  0.65293700  0.98256000  0.62677800  1
  O  O58  1  0.40483300  0.92444500  0.64919200  1
  O  O59  1  0.51228900  0.38696500  0.79257200  1
  O  O60  1  0.94662400  0.83053300  0.78402200  1
  O  O61  1  0.90483300  0.07555500  0.85080800  1
  O  O62  1  0.64611000  0.61181900  0.60413400  1
  O  O63  1  0.65658100  0.77513000  0.13059100  1
  O  O64  1  0.01228900  0.61303500  0.70742800  1
  O  O65  1  0.12791200  0.54670300  0.10842600  1
  O  O66  1  0.84341900  0.77513000  0.63059100  1
  O  O67  1  0.19005600  0.76507900  0.66559800  1
  O  O68  1  0.53236200  0.80780500  0.83751300  1
  O  O69  1  0.28222200  0.17919200  0.12965900  1
  O  O70  1  0.69005600  0.23492100  0.83440200  1
  O  O71  1  0.34706300  0.01744000  0.37322200  1
