# generated using pymatgen
data_Li4TiMn3O8
_symmetry_space_group_name_H-M   'P 1'
_cell_length_a   5.65087349
_cell_length_b   8.27910836
_cell_length_c   8.43391739
_cell_angle_alpha   104.08406960
_cell_angle_beta   91.88114189
_cell_angle_gamma   89.20773689
_symmetry_Int_Tables_number   1
_chemical_formula_structural   Li4TiMn3O8
_chemical_formula_sum   'Li8 Ti2 Mn6 O16'
_cell_volume   382.49982573
_cell_formula_units_Z   2
loop_
 _symmetry_equiv_pos_site_id
 _symmetry_equiv_pos_as_xyz
  1  'x, y, z'
loop_
 _atom_site_type_symbol
 _atom_site_label
 _atom_site_symmetry_multiplicity
 _atom_site_fract_x
 _atom_site_fract_y
 _atom_site_fract_z
 _atom_site_occupancy
  Li  Li0  1  0.08078300  0.80930100  0.18416100  1
  Li  Li1  1  0.08078500  0.30929800  0.68415000  1
  Li  Li2  1  0.41811600  0.30910700  0.18642600  1
  Li  Li3  1  0.41809800  0.80908000  0.68642800  1
  Li  Li4  1  0.58938700  0.93676500  0.06284200  1
  Li  Li5  1  0.58935200  0.43676800  0.56284700  1
  Li  Li6  1  0.91154200  0.43479800  0.05685700  1
  Li  Li7  1  0.91157600  0.93480900  0.55685300  1
  Ti  Ti8  1  0.91456100  0.68865100  0.81296300  1
  Ti  Ti9  1  0.91459500  0.18864800  0.31295000  1
  Mn  Mn10  1  0.08417700  0.06567100  0.93156700  1
  Mn  Mn11  1  0.41921500  0.55799600  0.93403600  1
  Mn  Mn12  1  0.58765700  0.18378600  0.81246600  1
  Mn  Mn13  1  0.08406300  0.56569700  0.43157200  1
  Mn  Mn14  1  0.41925700  0.05804000  0.43399900  1
  Mn  Mn15  1  0.58758200  0.68389400  0.31251400  1
  O  O16  1  0.06900500  0.25160600  0.14731600  1
  O  O17  1  0.06896600  0.75161800  0.64732400  1
  O  O18  1  0.06669400  0.51324700  0.87266900  1
  O  O19  1  0.06672500  0.01325600  0.37266500  1
  O  O20  1  0.42851900  0.52113000  0.37932100  1
  O  O21  1  0.42862000  0.02103200  0.87931100  1
  O  O22  1  0.44033900  0.75122800  0.14140300  1
  O  O23  1  0.44039200  0.25118700  0.64140200  1
  O  O24  1  0.57027600  0.35455800  0.99571800  1
  O  O25  1  0.57024900  0.85464000  0.49578900  1
  O  O26  1  0.60483000  0.63314200  0.75791100  1
  O  O27  1  0.60487300  0.13316000  0.25786800  1
  O  O28  1  0.89193300  0.63418400  0.24623600  1
  O  O29  1  0.89205600  0.13415400  0.74621600  1
  O  O30  1  0.92290100  0.86797600  0.99131200  1
  O  O31  1  0.92288000  0.36797400  0.49130600  1
