# generated using pymatgen
data_Li3Mn2C3O9F
_symmetry_space_group_name_H-M   'P 1'
_cell_length_a   8.59881573
_cell_length_b   8.59881573
_cell_length_c   6.48029344
_cell_angle_alpha   85.25981617
_cell_angle_beta   85.25981617
_cell_angle_gamma   127.54682933
_symmetry_Int_Tables_number   1
_chemical_formula_structural   Li3Mn2C3O9F
_chemical_formula_sum   'Li6 Mn4 C6 O18 F2'
_cell_volume   373.19603135
_cell_formula_units_Z   2
loop_
 _symmetry_equiv_pos_site_id
 _symmetry_equiv_pos_as_xyz
  1  'x, y, z'
loop_
 _atom_site_type_symbol
 _atom_site_label
 _atom_site_symmetry_multiplicity
 _atom_site_fract_x
 _atom_site_fract_y
 _atom_site_fract_z
 _atom_site_occupancy
  Li  Li0  1  0.57074600  0.24260300  0.47614600  1
  Li  Li1  1  0.94389600  0.17789400  0.32012400  1
  Li  Li2  1  0.94272200  0.16385000  0.82005800  1
  Li  Li3  1  0.24260300  0.57074600  0.97614600  1
  Li  Li4  1  0.16385000  0.94272200  0.32005800  1
  Li  Li5  1  0.17789400  0.94389600  0.82012400  1
  Mn  Mn6  1  0.62192000  0.24860600  0.97055100  1
  Mn  Mn7  1  0.70129400  0.68066100  0.15572600  1
  Mn  Mn8  1  0.68066100  0.70129400  0.65572600  1
  Mn  Mn9  1  0.24860600  0.62192000  0.47055100  1
  C  C10  1  0.32013400  0.31652900  0.00611100  1
  C  C11  1  0.94808600  0.55707500  0.19107600  1
  C  C12  1  0.94131200  0.55813900  0.69467200  1
  C  C13  1  0.31652900  0.32013400  0.50611100  1
  C  C14  1  0.55813900  0.94131200  0.19467200  1
  C  C15  1  0.55707500  0.94808600  0.69107600  1
  O  O16  1  0.32303800  0.16704700  0.03102700  1
  O  O17  1  0.29307900  0.15684000  0.52749400  1
  O  O18  1  0.47552100  0.02318300  0.76457800  1
  O  O19  1  0.73149300  0.08520500  0.08879800  1
  O  O20  1  0.74023900  0.05585500  0.60743700  1
  O  O21  1  0.49747600  0.49001900  0.45775500  1
  O  O22  1  0.75191600  0.44724500  0.20516200  1
  O  O23  1  0.15684000  0.29307900  0.02749400  1
  O  O24  1  0.75626400  0.48665500  0.69804600  1
  O  O25  1  0.02318300  0.47552100  0.26457800  1
  O  O26  1  0.97780700  0.45108900  0.79838900  1
  O  O27  1  0.16704700  0.32303800  0.53102700  1
  O  O28  1  0.05585500  0.74023900  0.10743700  1
  O  O29  1  0.08520500  0.73149300  0.58879800  1
  O  O30  1  0.49001900  0.49747600  0.95775500  1
  O  O31  1  0.48665500  0.75626400  0.19804600  1
  O  O32  1  0.44724500  0.75191600  0.70516200  1
  O  O33  1  0.45108900  0.97780700  0.29838900  1
  F  F34  1  0.87807600  0.87692400  0.86123800  1
  F  F35  1  0.87692400  0.87807600  0.36123800  1
