# generated using pymatgen
data_Li4V3Co3(SbO8)2
_symmetry_space_group_name_H-M   'P 1'
_cell_length_a   5.95888800
_cell_length_b   6.00051307
_cell_length_c   9.74585312
_cell_angle_alpha   90.72687469
_cell_angle_beta   90.19422459
_cell_angle_gamma   119.70629658
_symmetry_Int_Tables_number   1
_chemical_formula_structural   Li4V3Co3(SbO8)2
_chemical_formula_sum   'Li4 V3 Co3 Sb2 O16'
_cell_volume   302.63553385
_cell_formula_units_Z   1
loop_
 _symmetry_equiv_pos_site_id
 _symmetry_equiv_pos_as_xyz
  1  'x, y, z'
loop_
 _atom_site_type_symbol
 _atom_site_label
 _atom_site_symmetry_multiplicity
 _atom_site_fract_x
 _atom_site_fract_y
 _atom_site_fract_z
 _atom_site_occupancy
  Li  Li0  1  0.67032700  0.33702100  0.09350600  1
  Li  Li1  1  0.99639800  0.99438900  0.00407200  1
  Li  Li2  1  0.00478000  0.99933500  0.51595900  1
  Li  Li3  1  0.33867800  0.67792100  0.60287700  1
  V  V4  1  0.82389000  0.64846400  0.77805600  1
  V  V5  1  0.65530000  0.81617200  0.28980400  1
  V  V6  1  0.17169700  0.82883400  0.27814400  1
  Co  Co7  1  0.82945900  0.17238000  0.78926000  1
  Co  Co8  1  0.34265800  0.17350500  0.78889500  1
  Co  Co9  1  0.17102000  0.34149500  0.29169400  1
  Sb  Sb10  1  0.65727100  0.31951800  0.51434900  1
  Sb  Sb11  1  0.32968600  0.66216300  0.00585500  1
  O  O12  1  0.82081000  0.14667800  0.39979100  1
  O  O13  1  0.51869700  0.03812400  0.64987300  1
  O  O14  1  0.68723900  0.37262100  0.89414700  1
  O  O15  1  0.98454900  0.97213900  0.70305900  1
  O  O16  1  0.99680500  0.97897000  0.19702900  1
  O  O17  1  0.32704000  0.16031500  0.40296200  1
  O  O18  1  0.96766500  0.49619300  0.64481200  1
  O  O19  1  0.52727800  0.49631300  0.64588200  1
  O  O20  1  0.16305600  0.32284000  0.91557600  1
  O  O21  1  0.82695200  0.66059200  0.39604600  1
  O  O22  1  0.50233100  0.54122900  0.16221200  1
  O  O23  1  0.04306100  0.52823900  0.15744400  1
  O  O24  1  0.34048700  0.70127600  0.39366900  1
  O  O25  1  0.66217200  0.82501200  0.90914300  1
  O  O26  1  0.47859900  0.96164600  0.15999300  1
  O  O27  1  0.16239600  0.82661700  0.90804700  1
