# generated using pymatgen
data_Li9Nb3P8O29
_symmetry_space_group_name_H-M   'P 1'
_cell_length_a   10.07478274
_cell_length_b   10.07478274
_cell_length_c   13.98011500
_cell_angle_alpha   90.00000000
_cell_angle_beta   90.00000000
_cell_angle_gamma   120.00000484
_symmetry_Int_Tables_number   1
_chemical_formula_structural   Li9Nb3P8O29
_chemical_formula_sum   'Li18 Nb6 P16 O58'
_cell_volume   1228.88921586
_cell_formula_units_Z   2
loop_
 _symmetry_equiv_pos_site_id
 _symmetry_equiv_pos_as_xyz
  1  'x, y, z'
loop_
 _atom_site_type_symbol
 _atom_site_label
 _atom_site_symmetry_multiplicity
 _atom_site_fract_x
 _atom_site_fract_y
 _atom_site_fract_z
 _atom_site_occupancy
  Li  Li0  1  0.00000000  0.00000000  0.00000000  1
  Li  Li1  1  0.00000000  0.00000000  0.50000000  1
  Li  Li2  1  0.32983800  0.23007600  0.06410000  1
  Li  Li3  1  0.32983800  0.09976300  0.56410000  1
  Li  Li4  1  0.76992400  0.67016200  0.56410000  1
  Li  Li5  1  0.66666700  0.33333300  0.88234500  1
  Li  Li6  1  0.66666700  0.33333300  0.38234500  1
  Li  Li7  1  0.90023700  0.67016200  0.06410000  1
  Li  Li8  1  0.76992400  0.09976300  0.06410000  1
  Li  Li9  1  0.09976300  0.76992400  0.43590000  1
  Li  Li10  1  0.90023700  0.23007600  0.56410000  1
  Li  Li11  1  0.23007600  0.90023700  0.93590000  1
  Li  Li12  1  0.09976300  0.32983800  0.93590000  1
  Li  Li13  1  0.33333300  0.66666700  0.11765500  1
  Li  Li14  1  0.33333300  0.66666700  0.61765500  1
  Li  Li15  1  0.23007600  0.32983800  0.43590000  1
  Li  Li16  1  0.67016200  0.90023700  0.43590000  1
  Li  Li17  1  0.67016200  0.76992400  0.93590000  1
  Nb  Nb18  1  0.43400100  0.43400100  0.25000000  1
  Nb  Nb19  1  0.56599900  0.56599900  0.75000000  1
  Nb  Nb20  1  0.43400100  0.00000000  0.75000000  1
  Nb  Nb21  1  0.56599900  0.00000000  0.25000000  1
  Nb  Nb22  1  0.00000000  0.56599900  0.25000000  1
  Nb  Nb23  1  0.00000000  0.43400100  0.75000000  1
  P  P24  1  0.31230700  0.22526000  0.84611100  1
  P  P25  1  0.31230700  0.08704700  0.34611100  1
  P  P26  1  0.77474000  0.68769300  0.34611100  1
  P  P27  1  0.66666700  0.33333300  0.61875800  1
  P  P28  1  0.66666700  0.33333300  0.11875800  1
  P  P29  1  0.91295300  0.68769300  0.84611100  1
  P  P30  1  0.08704700  0.77474000  0.65388900  1
  P  P31  1  0.77474000  0.08704700  0.84611100  1
  P  P32  1  0.22526000  0.91295300  0.15388900  1
  P  P33  1  0.91295300  0.22526000  0.34611100  1
  P  P34  1  0.08704700  0.31230700  0.15388900  1
  P  P35  1  0.33333300  0.66666700  0.38124200  1
  P  P36  1  0.33333300  0.66666700  0.88124200  1
  P  P37  1  0.22526000  0.31230700  0.65388900  1
  P  P38  1  0.68769300  0.91295300  0.65388900  1
  P  P39  1  0.68769300  0.77474000  0.15388900  1
  O  O40  1  0.21936400  0.21936400  0.75000000  1
  O  O41  1  0.23029700  0.22179900  0.56777900  1
  O  O42  1  0.31735200  0.24177800  0.34795500  1
  O  O43  1  0.21936400  0.00000000  0.25000000  1
  O  O44  1  0.23029700  0.00849800  0.06777900  1
  O  O45  1  0.31735200  0.07557300  0.84795500  1
  O  O46  1  0.47683900  0.36228700  0.83861800  1
  O  O47  1  0.51434000  0.32037300  0.15755500  1
  O  O48  1  0.63771300  0.52316100  0.33861800  1
  O  O49  1  0.77820100  0.76970300  0.06777900  1
  O  O50  1  0.78063600  0.78063600  0.25000000  1
  O  O51  1  0.75822200  0.68264800  0.84795500  1
  O  O52  1  0.51434000  0.19396800  0.65755500  1
  O  O53  1  0.47683900  0.11455200  0.33861800  1
  O  O54  1  0.67962700  0.48566000  0.65755500  1
  O  O55  1  0.66666700  0.33333300  0.51111700  1
  O  O56  1  0.66666700  0.33333300  0.01111700  1
  O  O57  1  0.80603200  0.48566000  0.15755500  1
  O  O58  1  0.63771300  0.11455200  0.83861800  1
  O  O59  1  0.67962700  0.19396800  0.15755500  1
  O  O60  1  0.92442700  0.68264800  0.34795500  1
  O  O61  1  0.00000000  0.78063600  0.75000000  1
  O  O62  1  0.99150200  0.76970300  0.56777900  1
  O  O63  1  0.00849800  0.77820100  0.93222100  1
  O  O64  1  0.88544800  0.52316100  0.83861800  1
  O  O65  1  0.80603200  0.32037300  0.65755500  1
  O  O66  1  0.07557300  0.75822200  0.15204500  1
  O  O67  1  0.88544800  0.36228700  0.33861800  1
  O  O68  1  0.75822200  0.07557300  0.34795500  1
  O  O69  1  0.22179900  0.99150200  0.43222100  1
  O  O70  1  0.77820100  0.00849800  0.56777900  1
  O  O71  1  0.78063600  0.00000000  0.75000000  1
  O  O72  1  0.24177800  0.92442700  0.65204500  1
  O  O73  1  0.11455200  0.63771300  0.66138200  1
  O  O74  1  0.92442700  0.24177800  0.84795500  1
  O  O75  1  0.19396800  0.67962700  0.34244500  1
  O  O76  1  0.11455200  0.47683900  0.16138200  1
  O  O77  1  0.99150200  0.22179900  0.06777900  1
  O  O78  1  0.00849800  0.23029700  0.43222100  1
  O  O79  1  0.00000000  0.21936400  0.25000000  1
  O  O80  1  0.07557300  0.31735200  0.65204500  1
  O  O81  1  0.32037300  0.80603200  0.84244500  1
  O  O82  1  0.36228700  0.88544800  0.16138200  1
  O  O83  1  0.19396800  0.51434000  0.84244500  1
  O  O84  1  0.33333300  0.66666700  0.48888300  1
  O  O85  1  0.33333300  0.66666700  0.98888300  1
  O  O86  1  0.32037300  0.51434000  0.34244500  1
  O  O87  1  0.52316100  0.88544800  0.66138200  1
  O  O88  1  0.48566000  0.80603200  0.34244500  1
  O  O89  1  0.24177800  0.31735200  0.15204500  1
  O  O90  1  0.22179900  0.23029700  0.93222100  1
  O  O91  1  0.36228700  0.47683900  0.66138200  1
  O  O92  1  0.48566000  0.67962700  0.84244500  1
  O  O93  1  0.52316100  0.63771300  0.16138200  1
  O  O94  1  0.68264800  0.92442700  0.15204500  1
  O  O95  1  0.76970300  0.99150200  0.93222100  1
  O  O96  1  0.68264800  0.75822200  0.65204500  1
  O  O97  1  0.76970300  0.77820100  0.43222100  1
