# generated using pymatgen
data_Li3Cr4(PO4)6
_symmetry_space_group_name_H-M   'P 1'
_cell_length_a   8.46594700
_cell_length_b   8.48913856
_cell_length_c   8.54932320
_cell_angle_alpha   60.65896281
_cell_angle_beta   60.50983377
_cell_angle_gamma   61.00534796
_symmetry_Int_Tables_number   1
_chemical_formula_structural   Li3Cr4(PO4)6
_chemical_formula_sum   'Li3 Cr4 P6 O24'
_cell_volume   441.55443832
_cell_formula_units_Z   1
loop_
 _symmetry_equiv_pos_site_id
 _symmetry_equiv_pos_as_xyz
  1  'x, y, z'
loop_
 _atom_site_type_symbol
 _atom_site_label
 _atom_site_symmetry_multiplicity
 _atom_site_fract_x
 _atom_site_fract_y
 _atom_site_fract_z
 _atom_site_occupancy
  Li  Li0  1  0.51154000  0.00144800  0.98546100  1
  Li  Li1  1  0.25071300  0.13758300  0.34756900  1
  Li  Li2  1  0.99262200  0.51000100  0.49808900  1
  Cr  Cr3  1  0.63973400  0.13852400  0.14422400  1
  Cr  Cr4  1  0.85970500  0.36403000  0.35288500  1
  Cr  Cr5  1  0.13590300  0.63487200  0.64864000  1
  Cr  Cr6  1  0.36345800  0.86008300  0.85607700  1
  P  P7  1  0.25193700  0.45716100  0.03460200  1
  P  P8  1  0.96040800  0.03807700  0.75153900  1
  P  P9  1  0.54321600  0.74599700  0.46610100  1
  P  P10  1  0.45120800  0.25127000  0.53708200  1
  P  P11  1  0.04489100  0.95765300  0.25065400  1
  P  P12  1  0.74766400  0.54500700  0.96372600  1
  O  O13  1  0.81226900  0.52307700  0.11429600  1
  O  O14  1  0.68562700  0.38118500  0.01373600  1
  O  O15  1  0.87537300  0.99598900  0.20390300  1
  O  O16  1  0.95168500  0.22595300  0.57773000  1
  O  O17  1  0.41002300  0.25814700  0.06242000  1
  O  O18  1  0.73846300  0.58755600  0.44119700  1
  O  O19  1  0.53819500  0.91633200  0.27695000  1
  O  O20  1  0.99232900  0.87195600  0.69978300  1
  O  O21  1  0.23897800  0.93264600  0.08212100  1
  O  O22  1  0.62134400  0.31039300  0.47916300  1
  O  O23  1  0.90871900  0.56000100  0.76449500  1
  O  O24  1  0.46355900  0.19154900  0.38692500  1
  O  O25  1  0.51896600  0.81186000  0.61899300  1
  O  O26  1  0.09466800  0.43786800  0.23582800  1
  O  O27  1  0.37630900  0.68198900  0.52134500  1
  O  O28  1  0.76702500  0.06135300  0.91411700  1
  O  O29  1  0.02958100  0.12008600  0.29656300  1
  O  O30  1  0.44191900  0.09118400  0.73336100  1
  O  O31  1  0.25724400  0.41610600  0.56171700  1
  O  O32  1  0.58809300  0.74145400  0.93885000  1
  O  O33  1  0.06556700  0.76421800  0.41384800  1
  O  O34  1  0.12862400  0.00576700  0.79884700  1
  O  O35  1  0.31719600  0.61997500  0.98349100  1
  O  O36  1  0.18522600  0.48084700  0.88552900  1
