# generated using pymatgen
data_Li4Nb2V3Cr3O16
_symmetry_space_group_name_H-M   'P 1'
_cell_length_a   6.02044847
_cell_length_b   6.02044847
_cell_length_c   9.68387421
_cell_angle_alpha   89.54960836
_cell_angle_beta   89.54960836
_cell_angle_gamma   59.82222641
_symmetry_Int_Tables_number   1
_chemical_formula_structural   Li4Nb2V3Cr3O16
_chemical_formula_sum   'Li4 Nb2 V3 Cr3 O16'
_cell_volume   303.41624424
_cell_formula_units_Z   1
loop_
 _symmetry_equiv_pos_site_id
 _symmetry_equiv_pos_as_xyz
  1  'x, y, z'
loop_
 _atom_site_type_symbol
 _atom_site_label
 _atom_site_symmetry_multiplicity
 _atom_site_fract_x
 _atom_site_fract_y
 _atom_site_fract_z
 _atom_site_occupancy
  Li  Li0  1  0.66651300  0.66651300  0.09890600  1
  Li  Li1  1  0.00054800  0.00054800  0.00786300  1
  Li  Li2  1  0.00125400  0.00125400  0.50803600  1
  Li  Li3  1  0.33246200  0.33246200  0.60227100  1
  Nb  Nb4  1  0.66587200  0.66587200  0.50693900  1
  Nb  Nb5  1  0.33116100  0.33116100  0.00542600  1
  V  V6  1  0.82870800  0.82870800  0.78229600  1
  V  V7  1  0.17177000  0.65685500  0.28386900  1
  V  V8  1  0.65685500  0.17177000  0.28386900  1
  Cr  Cr9  1  0.34090500  0.82875300  0.78531300  1
  Cr  Cr10  1  0.82875300  0.34090500  0.78531300  1
  Cr  Cr11  1  0.16941400  0.16941400  0.28528800  1
  O  O12  1  0.33558100  0.83247300  0.40660600  1
  O  O13  1  0.51960400  0.51960400  0.66073900  1
  O  O14  1  0.66732400  0.66732400  0.89123000  1
  O  O15  1  0.99926900  0.99926900  0.69473500  1
  O  O16  1  0.99961900  0.99961900  0.19532700  1
  O  O17  1  0.83247300  0.33558100  0.40660600  1
  O  O18  1  0.51602300  0.95914200  0.65647400  1
  O  O19  1  0.95914200  0.51602300  0.65647400  1
  O  O20  1  0.16621100  0.16621100  0.90458000  1
  O  O21  1  0.83218200  0.83218200  0.40865000  1
  O  O22  1  0.04044600  0.47658800  0.15730100  1
  O  O23  1  0.47658800  0.04044600  0.15730100  1
  O  O24  1  0.33274100  0.33274100  0.39198500  1
  O  O25  1  0.17032500  0.66388000  0.90740400  1
  O  O26  1  0.47970800  0.47970800  0.15455600  1
  O  O27  1  0.66388000  0.17032500  0.90740400  1
