# generated using pymatgen
data_Li5V3P8O29
_symmetry_space_group_name_H-M   'P 1'
_cell_length_a   9.73867400
_cell_length_b   9.82846003
_cell_length_c   14.04472501
_cell_angle_alpha   90.78100299
_cell_angle_beta   89.90473901
_cell_angle_gamma   119.57677880
_symmetry_Int_Tables_number   1
_chemical_formula_structural   Li5V3P8O29
_chemical_formula_sum   'Li10 V6 P16 O58'
_cell_volume   1169.00891912
_cell_formula_units_Z   2
loop_
 _symmetry_equiv_pos_site_id
 _symmetry_equiv_pos_as_xyz
  1  'x, y, z'
loop_
 _atom_site_type_symbol
 _atom_site_label
 _atom_site_symmetry_multiplicity
 _atom_site_fract_x
 _atom_site_fract_y
 _atom_site_fract_z
 _atom_site_occupancy
  Li  Li0  1  0.31099100  0.08424600  0.93923400  1
  Li  Li1  1  0.65009400  0.31737800  0.60707200  1
  Li  Li2  1  0.90752200  0.22776600  0.94424500  1
  Li  Li3  1  0.77034100  0.67906800  0.93876700  1
  Li  Li4  1  0.09113600  0.32320900  0.55788500  1
  Li  Li5  1  0.90527200  0.67170500  0.43791400  1
  Li  Li6  1  0.23200100  0.32073100  0.06624400  1
  Li  Li7  1  0.34205600  0.67593200  0.39070100  1
  Li  Li8  1  0.67937000  0.90780300  0.06256300  1
  Li  Li9  1  0.99883700  0.00089300  0.49450600  1
  V  V10  1  0.00126600  0.43381100  0.75102400  1
  V  V11  1  0.00097500  0.57319500  0.24504400  1
  V  V12  1  0.43531800  0.42978800  0.25529400  1
  V  V13  1  0.56532100  0.56942500  0.74662400  1
  V  V14  1  0.42822400  0.99620000  0.74511400  1
  V  V15  1  0.57053300  0.00465300  0.25532600  1
  P  P16  1  0.31660600  0.08344700  0.15788900  1
  P  P17  1  0.30975900  0.22332800  0.66030200  1
  P  P18  1  0.78060600  0.08722200  0.65662900  1
  P  P19  1  0.66494900  0.33409500  0.86985500  1
  P  P20  1  0.67545100  0.33988600  0.37201200  1
  P  P21  1  0.91277200  0.23127000  0.16136400  1
  P  P22  1  0.09115300  0.32096800  0.34396400  1
  P  P23  1  0.76386700  0.67948600  0.15610600  1
  P  P24  1  0.23523300  0.32178300  0.84545300  1
  P  P25  1  0.90966800  0.68084300  0.65454800  1
  P  P26  1  0.08513300  0.77196100  0.83820900  1
  P  P27  1  0.32851100  0.66205100  0.62790100  1
  P  P28  1  0.33651400  0.66285300  0.12938000  1
  P  P29  1  0.21919500  0.91474900  0.34231500  1
  P  P30  1  0.68983800  0.77828900  0.34065000  1
  P  P31  1  0.68300700  0.91713400  0.84117700  1
  O  O32  1  0.19185900  0.99351100  0.42483000  1
  O  O33  1  0.34111600  0.08312300  0.66260900  1
  O  O34  1  0.24313600  0.24722100  0.93648600  1
  O  O35  1  0.33606500  0.24955600  0.16558800  1
  O  O36  1  0.47562100  0.09126600  0.18313700  1
  O  O37  1  0.51511000  0.18633500  0.83045200  1
  O  O38  1  0.62827900  0.09941000  0.66434700  1
  O  O39  1  0.75341000  0.00213500  0.93402000  1
  O  O40  1  0.74840700  0.08400100  0.16035400  1
  O  O41  1  0.52672500  0.33837400  0.33162900  1
  O  O42  1  0.47454300  0.37187200  0.66913400  1
  O  O43  1  0.67830600  0.19485800  0.33149900  1
  O  O44  1  0.68361400  0.33678500  0.97550900  1
  O  O45  1  0.68686800  0.35595500  0.47862400  1
  O  O46  1  0.81682800  0.33228500  0.82338900  1
  O  O47  1  0.61600600  0.52248400  0.17549200  1
  O  O48  1  0.66749000  0.48423500  0.83168200  1
  O  O49  1  0.92303000  0.26144800  0.66367800  1
  O  O50  1  0.00303000  0.21257000  0.25118800  1
  O  O51  1  0.01096800  0.23693500  0.43228400  1
  O  O52  1  0.00265200  0.24558500  0.07131100  1
  O  O53  1  0.90063500  0.38076900  0.18064000  1
  O  O54  1  0.82339600  0.49255900  0.33050600  1
  O  O55  1  0.08392200  0.33917900  0.84188600  1
  O  O56  1  0.89779400  0.51753100  0.67255400  1
  O  O57  1  0.74054300  0.65422200  0.66453400  1
  O  O58  1  0.21453700  0.20519400  0.75882800  1
  O  O59  1  0.20717200  0.21499400  0.57928400  1
  O  O60  1  0.79518300  0.78886400  0.42075700  1
  O  O61  1  0.26147600  0.34836000  0.33769200  1
  O  O62  1  0.10128700  0.48226800  0.32979100  1
  O  O63  1  0.91158200  0.65775400  0.16292500  1
  O  O64  1  0.17900400  0.50852600  0.67044100  1
  O  O65  1  0.09626000  0.61978500  0.81873200  1
  O  O66  1  0.98871800  0.75813300  0.92283800  1
  O  O67  1  0.98527000  0.75364800  0.56308100  1
  O  O68  1  0.00686800  0.79363800  0.74217400  1
  O  O69  1  0.07807000  0.73984500  0.33569500  1
  O  O70  1  0.33199700  0.51291900  0.16977800  1
  O  O71  1  0.38250100  0.47868500  0.82504100  1
  O  O72  1  0.18435400  0.66089600  0.17826200  1
  O  O73  1  0.32098800  0.65486300  0.02375400  1
  O  O74  1  0.31466600  0.64362100  0.52167200  1
  O  O75  1  0.32497500  0.80632600  0.66818500  1
  O  O76  1  0.52614700  0.62902100  0.33278600  1
  O  O77  1  0.47549200  0.66151200  0.66929800  1
  O  O78  1  0.25203000  0.91637300  0.83894900  1
  O  O79  1  0.20063600  0.98753600  0.24352500  1
  O  O80  1  0.25133400  0.00768300  0.06405100  1
  O  O81  1  0.37171200  0.90230200  0.33603500  1
  O  O82  1  0.48477400  0.81282200  0.16843200  1
  O  O83  1  0.52390500  0.90844800  0.81828900  1
  O  O84  1  0.66539300  0.75254300  0.83845700  1
  O  O85  1  0.75589100  0.75367200  0.06509100  1
  O  O86  1  0.78434800  0.79682600  0.24182600  1
  O  O87  1  0.65799000  0.91787200  0.33782200  1
  O  O88  1  0.80645000  0.00745800  0.57411200  1
  O  O89  1  0.79919900  0.01313400  0.75583400  1
