# generated using pymatgen
data_Li6V3P6WO24
_symmetry_space_group_name_H-M   'P 1'
_cell_length_a   8.64633000
_cell_length_b   8.64874405
_cell_length_c   8.66201664
_cell_angle_alpha   62.24196270
_cell_angle_beta   62.03136600
_cell_angle_gamma   61.97328893
_symmetry_Int_Tables_number   1
_chemical_formula_structural   Li6V3P6WO24
_chemical_formula_sum   'Li6 V3 P6 W1 O24'
_cell_volume   479.33841392
_cell_formula_units_Z   1
loop_
 _symmetry_equiv_pos_site_id
 _symmetry_equiv_pos_as_xyz
  1  'x, y, z'
loop_
 _atom_site_type_symbol
 _atom_site_label
 _atom_site_symmetry_multiplicity
 _atom_site_fract_x
 _atom_site_fract_y
 _atom_site_fract_z
 _atom_site_occupancy
  Li  Li0  1  0.02694500  0.00576300  0.99953800  1
  Li  Li1  1  0.75370700  0.14760000  0.34525300  1
  Li  Li2  1  0.47365000  0.50487700  0.49276400  1
  Li  Li3  1  0.27138700  0.83655100  0.64676300  1
  Li  Li4  1  0.65025500  0.27055200  0.83379500  1
  Li  Li5  1  0.83216500  0.65006700  0.27376600  1
  V  V6  1  0.14092700  0.14617500  0.13808600  1
  V  V7  1  0.35726100  0.36036100  0.35379400  1
  V  V8  1  0.64356500  0.64960400  0.64754700  1
  P  P9  1  0.05186900  0.75062000  0.44248600  1
  P  P10  1  0.44455100  0.05639000  0.74954100  1
  P  P11  1  0.74995000  0.44569100  0.05112700  1
  P  P12  1  0.25771000  0.53743100  0.95588400  1
  P  P13  1  0.53858400  0.96110100  0.25799400  1
  P  P14  1  0.95361100  0.25627000  0.53317600  1
  W  W15  1  0.85721900  0.85376000  0.85501700  1
  O  O16  1  0.12376400  0.29769500  0.48826600  1
  O  O17  1  0.31628100  0.50049300  0.11284800  1
  O  O18  1  0.04905000  0.91800700  0.26336800  1
  O  O19  1  0.52657000  0.11672900  0.30722400  1
  O  O20  1  0.23775600  0.59221300  0.41939700  1
  O  O21  1  0.03284200  0.80468000  0.59900700  1
  O  O22  1  0.25847300  0.07013500  0.90839200  1
  O  O23  1  0.43813900  0.23612300  0.58295600  1
  O  O24  1  0.59714400  0.42093400  0.24306000  1
  O  O25  1  0.19342900  0.38593400  0.98798400  1
  O  O26  1  0.10871800  0.73525100  0.92505800  1
  O  O27  1  0.37397300  0.00757500  0.20505100  1
  O  O28  1  0.60084600  0.03063300  0.80799800  1
  O  O29  1  0.90406100  0.25281500  0.07159600  1
  O  O30  1  0.81015500  0.59859900  0.02807600  1
  O  O31  1  0.42062700  0.55460900  0.76585900  1
  O  O32  1  0.54893800  0.77352900  0.42097700  1
  O  O33  1  0.73218400  0.92209900  0.10650300  1
  O  O34  1  0.96792800  0.19769900  0.38214300  1
  O  O35  1  0.76841000  0.42317100  0.55310700  1
  O  O36  1  0.48403400  0.89132300  0.69331100  1
  O  O37  1  0.92373800  0.10699500  0.72869700  1
  O  O38  1  0.69431900  0.48310900  0.88943900  1
  O  O39  1  0.88526700  0.69583600  0.48415100  1
