# generated using pymatgen
data_LiFe4(PO4)3
_symmetry_space_group_name_H-M   'P 1'
_cell_length_a   6.09371100
_cell_length_b   9.54416725
_cell_length_c   9.55986433
_cell_angle_alpha   60.11089001
_cell_angle_beta   89.60253466
_cell_angle_gamma   89.39774542
_symmetry_Int_Tables_number   1
_chemical_formula_structural   LiFe4(PO4)3
_chemical_formula_sum   'Li2 Fe8 P6 O24'
_cell_volume   482.01619103
_cell_formula_units_Z   2
loop_
 _symmetry_equiv_pos_site_id
 _symmetry_equiv_pos_as_xyz
  1  'x, y, z'
loop_
 _atom_site_type_symbol
 _atom_site_label
 _atom_site_symmetry_multiplicity
 _atom_site_fract_x
 _atom_site_fract_y
 _atom_site_fract_z
 _atom_site_occupancy
  Li  Li0  1  0.52840300  0.66778100  0.66311400  1
  Li  Li1  1  0.02743800  0.33035700  0.33334000  1
  Fe  Fe2  1  0.74635800  0.03778400  0.69577000  1
  Fe  Fe3  1  0.99544400  0.67060900  0.66733000  1
  Fe  Fe4  1  0.74880700  0.69657500  0.26846400  1
  Fe  Fe5  1  0.75130000  0.26752600  0.03333100  1
  Fe  Fe6  1  0.24928100  0.73343100  0.96285100  1
  Fe  Fe7  1  0.24777300  0.30275300  0.73285100  1
  Fe  Fe8  1  0.49427200  0.33655400  0.33050100  1
  Fe  Fe9  1  0.24987700  0.96675800  0.30201600  1
  P  P10  1  0.25052300  0.98257700  0.62997000  1
  P  P11  1  0.24880100  0.38499600  0.98409900  1
  P  P12  1  0.24923700  0.63089500  0.38745800  1
  P  P13  1  0.74871300  0.36963700  0.61418200  1
  P  P14  1  0.75269800  0.61259000  0.01770500  1
  P  P15  1  0.74746900  0.01819500  0.36856300  1
  O  O16  1  0.44829700  0.92799500  0.74995100  1
  O  O17  1  0.05013700  0.93450800  0.74845200  1
  O  O18  1  0.24369900  0.86883900  0.55409600  1
  O  O19  1  0.75854600  0.65966500  0.83970900  1
  O  O20  1  0.75198400  0.84092900  0.50084300  1
  O  O21  1  0.23010000  0.57386000  0.87156000  1
  O  O22  1  0.05085900  0.75073200  0.31357800  1
  O  O23  1  0.44822600  0.74910000  0.32345200  1
  O  O24  1  0.75403600  0.50100900  0.65999700  1
  O  O25  1  0.23438700  0.55624800  0.57635800  1
  O  O26  1  0.05754300  0.30702100  0.93762700  1
  O  O27  1  0.45311100  0.32479300  0.92892000  1
  O  O28  1  0.55166200  0.68344800  0.06545200  1
  O  O29  1  0.94947200  0.67860500  0.07118800  1
  O  O30  1  0.73226700  0.44540800  0.42551600  1
  O  O31  1  0.25822100  0.49854300  0.34259700  1
  O  O32  1  0.95126900  0.25244100  0.67463800  1
  O  O33  1  0.55462700  0.24714300  0.69125600  1
  O  O34  1  0.74496700  0.42351900  0.12979300  1
  O  O35  1  0.25565600  0.15921100  0.49962400  1
  O  O36  1  0.25126200  0.33915300  0.16099800  1
  O  O37  1  0.73126200  0.13266600  0.44335200  1
  O  O38  1  0.94925100  0.07083400  0.25235500  1
  O  O39  1  0.55276400  0.06521200  0.24714300  1
