# generated using pymatgen
data_Li7V3P8O29
_symmetry_space_group_name_H-M   'P 1'
_cell_length_a   9.82175900
_cell_length_b   9.82788442
_cell_length_c   13.90089537
_cell_angle_alpha   89.82295281
_cell_angle_beta   89.91021213
_cell_angle_gamma   60.05729279
_symmetry_Int_Tables_number   1
_chemical_formula_structural   Li7V3P8O29
_chemical_formula_sum   'Li14 V6 P16 O58'
_cell_volume   1162.70913313
_cell_formula_units_Z   2
loop_
 _symmetry_equiv_pos_site_id
 _symmetry_equiv_pos_as_xyz
  1  'x, y, z'
loop_
 _atom_site_type_symbol
 _atom_site_label
 _atom_site_symmetry_multiplicity
 _atom_site_fract_x
 _atom_site_fract_y
 _atom_site_fract_z
 _atom_site_occupancy
  Li  Li0  1  0.67200700  0.23168500  0.93588800  1
  Li  Li1  1  0.66508500  0.09632400  0.43624100  1
  Li  Li2  1  0.23538500  0.66674800  0.43805800  1
  Li  Li3  1  0.34002200  0.33403600  0.11507200  1
  Li  Li4  1  0.09204500  0.67322200  0.93732900  1
  Li  Li5  1  0.23557500  0.09510600  0.93786300  1
  Li  Li6  1  0.89409000  0.76224400  0.55973800  1
  Li  Li7  1  0.09951900  0.23974000  0.44109600  1
  Li  Li8  1  0.90058600  0.33169400  0.05844700  1
  Li  Li9  1  0.76403500  0.33483100  0.56315300  1
  Li  Li10  1  0.33547200  0.90043000  0.56139600  1
  Li  Li11  1  0.33320000  0.76540500  0.06230100  1
  Li  Li12  1  0.96323800  0.98213400  0.00583000  1
  Li  Li13  1  0.00129300  0.99971300  0.49947100  1
  V  V14  1  0.99948200  0.56633700  0.75189800  1
  V  V15  1  0.99952700  0.43831400  0.24967200  1
  V  V16  1  0.56658300  0.99564000  0.24664900  1
  V  V17  1  0.43727800  0.99864000  0.74969600  1
  V  V18  1  0.56511300  0.43420500  0.75012300  1
  V  V19  1  0.43815800  0.56346600  0.25371500  1
  P  P20  1  0.68589500  0.22181900  0.15726000  1
  P  P21  1  0.68929900  0.08248800  0.65440400  1
  P  P22  1  0.22268000  0.68984000  0.65763600  1
  P  P23  1  0.33078200  0.33235100  0.87359500  1
  P  P24  1  0.33224200  0.32874700  0.37098800  1
  P  P25  1  0.09068800  0.68808500  0.15482700  1
  P  P26  1  0.91383900  0.77547700  0.34083200  1
  P  P27  1  0.22385900  0.09019300  0.15750300  1
  P  P28  1  0.77822000  0.91411800  0.84125900  1
  P  P29  1  0.08895600  0.22683900  0.65811600  1
  P  P30  1  0.91624600  0.31181200  0.84353500  1
  P  P31  1  0.66771900  0.66875100  0.62885300  1
  P  P32  1  0.66936100  0.66584300  0.12834400  1
  P  P33  1  0.77712500  0.31035900  0.34396600  1
  P  P34  1  0.31016000  0.91771500  0.34490500  1
  P  P35  1  0.31186000  0.77545600  0.84222200  1
  O  O36  1  0.78539200  0.21298700  0.43198900  1
  O  O37  1  0.66687900  0.24774800  0.65557900  1
  O  O38  1  0.79508100  0.00666500  0.92156700  1
  O  O39  1  0.66514600  0.07768300  0.15980400  1
  O  O40  1  0.52364000  0.37062300  0.16473900  1
  O  O41  1  0.48630300  0.32215000  0.84009400  1
  O  O42  1  0.37549100  0.53614000  0.66539300  1
  O  O43  1  0.21733600  0.78676200  0.93158800  1
  O  O44  1  0.25531900  0.66840500  0.15858700  1
  O  O45  1  0.48575000  0.18687600  0.32742100  1
  O  O46  1  0.53152700  0.08623100  0.67159900  1
  O  O47  1  0.32297100  0.48469600  0.33742500  1
  O  O48  1  0.31816300  0.33356100  0.98212800  1
  O  O49  1  0.32336800  0.31503100  0.47757000  1
  O  O50  1  0.18806300  0.48968900  0.83320700  1
  O  O51  1  0.37183600  0.10752400  0.17005300  1
  O  O52  1  0.31998500  0.19021300  0.83174300  1
  O  O53  1  0.07744400  0.66564700  0.66053700  1
  O  O54  1  0.99831500  0.79490400  0.24663700  1
  O  O55  1  0.00245100  0.77841200  0.42972600  1
  O  O56  1  0.00635400  0.77158600  0.06434900  1
  O  O57  1  0.10519000  0.52368200  0.16864500  1
  O  O58  1  0.18636000  0.32475500  0.32326400  1
  O  O59  1  0.91867700  0.74346400  0.84275000  1
  O  O60  1  0.08911300  0.38113000  0.66993400  1
  O  O61  1  0.25672200  0.08247700  0.65699700  1
  O  O62  1  0.80265400  0.98710200  0.74215100  1
  O  O63  1  0.77123600  0.99561500  0.56300900  1
  O  O64  1  0.21892800  0.00903900  0.43344000  1
  O  O65  1  0.74716800  0.91852600  0.34124700  1
  O  O66  1  0.91333700  0.61990500  0.33124500  1
  O  O67  1  0.07762500  0.25520600  0.15448300  1
  O  O68  1  0.80924300  0.68065200  0.67309700  1
  O  O69  1  0.91222400  0.46960500  0.82775500  1
  O  O70  1  0.00638200  0.22816200  0.93337700  1
  O  O71  1  0.99971300  0.22285000  0.56971700  1
  O  O72  1  0.00502900  0.20299500  0.75154700  1
  O  O73  1  0.92323400  0.33052600  0.34220300  1
  O  O74  1  0.66751800  0.81246600  0.17606100  1
  O  O75  1  0.62006900  0.92040300  0.83429100  1
  O  O76  1  0.81810400  0.51568700  0.17450200  1
  O  O77  1  0.68707700  0.65728400  0.02192500  1
  O  O78  1  0.66652700  0.68504900  0.52169900  1
  O  O79  1  0.67878200  0.51274900  0.66329100  1
  O  O80  1  0.46463000  0.91858000  0.33184000  1
  O  O81  1  0.51033400  0.81147500  0.67169900  1
  O  O82  1  0.75137800  0.33324400  0.84395700  1
  O  O83  1  0.79216200  0.20806800  0.24935700  1
  O  O84  1  0.77968100  0.21819000  0.06858100  1
  O  O85  1  0.62529800  0.46658700  0.33693800  1
  O  O86  1  0.51913700  0.66871000  0.16484500  1
  O  O87  1  0.46614800  0.62401900  0.83315400  1
  O  O88  1  0.33557600  0.92109100  0.83821200  1
  O  O89  1  0.23312500  0.99653300  0.06917000  1
  O  O90  1  0.20343100  0.00491800  0.25069700  1
  O  O91  1  0.33180800  0.75297500  0.34671900  1
  O  O92  1  0.20952600  0.78727400  0.56866300  1
  O  O93  1  0.20118000  0.79810900  0.75019200  1
