# generated using pymatgen
data_Li8Mn3Fe5(BO3)8
_symmetry_space_group_name_H-M   'P 1'
_cell_length_a   5.23097600
_cell_length_b   5.23977028
_cell_length_c   20.86160312
_cell_angle_alpha   90.55504450
_cell_angle_beta   90.84304309
_cell_angle_gamma   119.81708360
_symmetry_Int_Tables_number   1
_chemical_formula_structural   Li8Mn3Fe5(BO3)8
_chemical_formula_sum   'Li8 Mn3 Fe5 B8 O24'
_cell_volume   495.95283580
_cell_formula_units_Z   1
loop_
 _symmetry_equiv_pos_site_id
 _symmetry_equiv_pos_as_xyz
  1  'x, y, z'
loop_
 _atom_site_type_symbol
 _atom_site_label
 _atom_site_symmetry_multiplicity
 _atom_site_fract_x
 _atom_site_fract_y
 _atom_site_fract_z
 _atom_site_occupancy
  Li  Li0  1  0.67781400  0.65278000  0.33332600  1
  Li  Li1  1  0.65205600  0.67575300  0.08475300  1
  Li  Li2  1  0.67868500  0.65171300  0.83330300  1
  Li  Li3  1  0.65116700  0.67576400  0.58407200  1
  Li  Li4  1  0.35069300  0.34006400  0.20805600  1
  Li  Li5  1  0.33685600  0.34634400  0.45815400  1
  Li  Li6  1  0.35222200  0.33968000  0.70816000  1
  Li  Li7  1  0.33708900  0.34587400  0.95851400  1
  Mn  Mn8  1  0.67159600  0.00627300  0.44180800  1
  Mn  Mn9  1  0.66840400  0.00353700  0.94264400  1
  Mn  Mn10  1  0.00213400  0.32575000  0.81633800  1
  Fe  Fe11  1  0.31533600  0.00082800  0.06707400  1
  Fe  Fe12  1  0.31490000  0.99810600  0.56679400  1
  Fe  Fe13  1  0.00366300  0.32067000  0.31602200  1
  Fe  Fe14  1  0.01195500  0.66716400  0.19132800  1
  Fe  Fe15  1  0.00441400  0.66683800  0.69061500  1
  B  B16  1  0.99515300  0.33699100  0.06400400  1
  B  B17  1  0.99612900  0.33730800  0.56363400  1
  B  B18  1  0.66770500  0.00533100  0.18798800  1
  B  B19  1  0.66825800  0.00827800  0.68704500  1
  B  B20  1  0.33726700  0.99727100  0.31235100  1
  B  B21  1  0.34017600  0.99749900  0.81201600  1
  B  B22  1  0.00500000  0.66657500  0.43764400  1
  B  B23  1  0.00358000  0.66587400  0.93870200  1
  O  O24  1  0.92977200  0.25575000  0.20790600  1
  O  O25  1  0.93265500  0.25785600  0.70697900  1
  O  O26  1  0.74040500  0.06918600  0.04979400  1
  O  O27  1  0.97524300  0.58201900  0.08271800  1
  O  O28  1  0.74114900  0.07055800  0.54931400  1
  O  O29  1  0.97575500  0.58268600  0.58249000  1
  O  O30  1  0.41755800  0.03079300  0.17350600  1
  O  O31  1  0.73010700  0.64231800  0.43052500  1
  O  O32  1  0.41910600  0.03313200  0.67269300  1
  O  O33  1  0.72890400  0.64114300  0.93112000  1
  O  O34  1  0.65465800  0.73736800  0.18132200  1
  O  O35  1  0.65532500  0.73983500  0.68075200  1
  O  O36  1  0.35896300  0.27184300  0.30585000  1
  O  O37  1  0.36997900  0.27342700  0.80527600  1
  O  O38  1  0.27009500  0.35860800  0.05756400  1
  O  O39  1  0.58409300  0.97896800  0.33171200  1
  O  O40  1  0.27081100  0.35915200  0.55710100  1
  O  O41  1  0.57800500  0.96666600  0.83324100  1
  O  O42  1  0.03844100  0.42397700  0.42199400  1
  O  O43  1  0.03787300  0.42348000  0.92321200  1
  O  O44  1  0.24664500  0.92956400  0.45932200  1
  O  O45  1  0.24487200  0.92942500  0.96007400  1
  O  O46  1  0.06965700  0.74323800  0.29828600  1
  O  O47  1  0.06888000  0.74794600  0.79670900  1
