# generated using pymatgen
data_Li4Mn3O8
_symmetry_space_group_name_H-M   'P 1'
_cell_length_a   8.32473411
_cell_length_b   8.32473411
_cell_length_c   8.32473465
_cell_angle_alpha   90.42736928
_cell_angle_beta   90.42736928
_cell_angle_gamma   90.42737776
_symmetry_Int_Tables_number   1
_chemical_formula_structural   Li4Mn3O8
_chemical_formula_sum   'Li16 Mn12 O32'
_cell_volume   576.86569620
_cell_formula_units_Z   4
loop_
 _symmetry_equiv_pos_site_id
 _symmetry_equiv_pos_as_xyz
  1  'x, y, z'
loop_
 _atom_site_type_symbol
 _atom_site_label
 _atom_site_symmetry_multiplicity
 _atom_site_fract_x
 _atom_site_fract_y
 _atom_site_fract_z
 _atom_site_occupancy
  Li  Li0  1  0.80434400  0.01143000  0.76937400  1
  Li  Li1  1  0.98857000  0.19565600  0.23062600  1
  Li  Li2  1  0.72392600  0.00000000  0.27607400  1
  Li  Li3  1  0.85619800  0.38780100  0.38877800  1
  Li  Li4  1  0.61219900  0.14380200  0.61122200  1
  Li  Li5  1  0.50000000  0.50000000  0.50000000  1
  Li  Li6  1  0.38780100  0.38877800  0.85619800  1
  Li  Li7  1  0.61122200  0.61219900  0.14380200  1
  Li  Li8  1  0.19565600  0.23062600  0.98857000  1
  Li  Li9  1  0.76937400  0.80434400  0.01143000  1
  Li  Li10  1  0.27607400  0.72392600  0.00000000  1
  Li  Li11  1  0.00000000  0.27607400  0.72392600  1
  Li  Li12  1  0.38877800  0.85619800  0.38780100  1
  Li  Li13  1  0.14380200  0.61122200  0.61219900  1
  Li  Li14  1  0.01143000  0.76937400  0.80434400  1
  Li  Li15  1  0.23062600  0.98857000  0.19565600  1
  Mn  Mn16  1  0.99361100  0.50000000  0.00638900  1
  Mn  Mn17  1  0.50000000  0.00638900  0.99361100  1
  Mn  Mn18  1  0.74208100  0.25791800  0.00000000  1
  Mn  Mn19  1  0.25791900  0.00000000  0.74208200  1
  Mn  Mn20  1  0.74998600  0.50640100  0.75472200  1
  Mn  Mn21  1  0.49359900  0.25001400  0.24527800  1
  Mn  Mn22  1  0.25001400  0.24527800  0.49359900  1
  Mn  Mn23  1  0.75472200  0.74998600  0.50640100  1
  Mn  Mn24  1  0.24527800  0.49359900  0.25001400  1
  Mn  Mn25  1  0.50640100  0.75472200  0.74998600  1
  Mn  Mn26  1  0.00000000  0.74208100  0.25791900  1
  Mn  Mn27  1  0.00638900  0.99361100  0.50000000  1
  O  O28  1  0.97021400  0.27019800  0.00769900  1
  O  O29  1  0.72980200  0.02978600  0.99230100  1
  O  O30  1  0.00753300  0.50605000  0.24271900  1
  O  O31  1  0.49395000  0.99246700  0.75728100  1
  O  O32  1  0.98355600  0.51734000  0.77842600  1
  O  O33  1  0.48266000  0.01644400  0.22157400  1
  O  O34  1  0.72436900  0.25112900  0.23285400  1
  O  O35  1  0.74887100  0.27563100  0.76714600  1
  O  O36  1  0.99230100  0.72980200  0.02978600  1
  O  O37  1  0.27019800  0.00769900  0.97021400  1
  O  O38  1  0.75218200  0.52255000  0.53074900  1
  O  O39  1  0.47745000  0.24781800  0.46925100  1
  O  O40  1  0.50605000  0.24271900  0.00753300  1
  O  O41  1  0.75728100  0.49395000  0.99246700  1
  O  O42  1  0.25112900  0.23285400  0.72436900  1
  O  O43  1  0.76714600  0.74887100  0.27563100  1
  O  O44  1  0.74727900  0.74727900  0.74727900  1
  O  O45  1  0.25272100  0.25272100  0.25272100  1
  O  O46  1  0.46925100  0.47745000  0.24781800  1
  O  O47  1  0.52255000  0.53074900  0.75218200  1
  O  O48  1  0.77842600  0.98355600  0.51734000  1
  O  O49  1  0.01644400  0.22157400  0.48266000  1
  O  O50  1  0.53074900  0.75218200  0.52255000  1
  O  O51  1  0.24781800  0.46925100  0.47745000  1
  O  O52  1  0.22157400  0.48266000  0.01644400  1
  O  O53  1  0.51734000  0.77842600  0.98355600  1
  O  O54  1  0.23285400  0.72436900  0.25112900  1
  O  O55  1  0.27563100  0.76714600  0.74887100  1
  O  O56  1  0.99246700  0.75728100  0.49395000  1
  O  O57  1  0.24271900  0.00753300  0.50605000  1
  O  O58  1  0.02978600  0.99230100  0.72980200  1
  O  O59  1  0.00769900  0.97021400  0.27019800  1
