# generated using pymatgen
data_Li4Mn3O5F3
_symmetry_space_group_name_H-M   'P 1'
_cell_length_a   2.93304700
_cell_length_b   15.76265863
_cell_length_c   6.73370898
_cell_angle_alpha   90.22832932
_cell_angle_beta   77.42159341
_cell_angle_gamma   90.00017755
_symmetry_Int_Tables_number   1
_chemical_formula_structural   Li4Mn3O5F3
_chemical_formula_sum   'Li8 Mn6 O10 F6'
_cell_volume   303.84251874
_cell_formula_units_Z   2
loop_
 _symmetry_equiv_pos_site_id
 _symmetry_equiv_pos_as_xyz
  1  'x, y, z'
loop_
 _atom_site_type_symbol
 _atom_site_label
 _atom_site_symmetry_multiplicity
 _atom_site_fract_x
 _atom_site_fract_y
 _atom_site_fract_z
 _atom_site_occupancy
  Li  Li0  1  0.11849600  0.37814900  0.76289100  1
  Li  Li1  1  0.61850900  0.87815900  0.76286600  1
  Li  Li2  1  0.76873100  0.26023500  0.46243500  1
  Li  Li3  1  0.26870800  0.76022200  0.46248200  1
  Li  Li4  1  0.36724400  0.11931800  0.26555200  1
  Li  Li5  1  0.86724000  0.61929300  0.26556100  1
  Li  Li6  1  0.00378000  0.00141400  0.99247500  1
  Li  Li7  1  0.50377400  0.50139700  0.99248600  1
  Mn  Mn8  1  0.55324000  0.69335400  0.89348900  1
  Mn  Mn9  1  0.31608000  0.92875300  0.36790900  1
  Mn  Mn10  1  0.68262100  0.06152000  0.63471600  1
  Mn  Mn11  1  0.05324000  0.19337600  0.89348600  1
  Mn  Mn12  1  0.81610200  0.42872300  0.36786900  1
  Mn  Mn13  1  0.18263600  0.56151600  0.63468500  1
  O  O14  1  0.28120400  0.35247400  0.43769700  1
  O  O15  1  0.78118500  0.85250000  0.43773500  1
  O  O16  1  0.82777400  0.01752700  0.34446600  1
  O  O17  1  0.32779800  0.51749800  0.34442400  1
  O  O18  1  0.54382900  0.09635400  0.91229800  1
  O  O19  1  0.04383300  0.59634500  0.91229200  1
  O  O20  1  0.65713900  0.48275400  0.68571400  1
  O  O21  1  0.15712700  0.98277300  0.68573100  1
  O  O22  1  0.21387800  0.13935400  0.57219900  1
  O  O23  1  0.71388100  0.63934200  0.57219800  1
  F  F24  1  0.89315600  0.19809200  0.21359600  1
  F  F25  1  0.39313900  0.69803900  0.21362500  1
  F  F26  1  0.97987500  0.42160100  0.04040800  1
  F  F27  1  0.47989500  0.92167300  0.04038700  1
  F  F28  1  0.60542400  0.28663200  0.78920200  1
  F  F29  1  0.10546500  0.78660900  0.78912900  1
