# generated using pymatgen
data_Li3Cr(PO4)2
_symmetry_space_group_name_H-M   'P 1'
_cell_length_a   8.11614100
_cell_length_b   8.46606586
_cell_length_c   10.31204251
_cell_angle_alpha   90.24735428
_cell_angle_beta   89.96987428
_cell_angle_gamma   107.54990611
_symmetry_Int_Tables_number   1
_chemical_formula_structural   Li3Cr(PO4)2
_chemical_formula_sum   'Li12 Cr4 P8 O32'
_cell_volume   675.57221311
_cell_formula_units_Z   4
loop_
 _symmetry_equiv_pos_site_id
 _symmetry_equiv_pos_as_xyz
  1  'x, y, z'
loop_
 _atom_site_type_symbol
 _atom_site_label
 _atom_site_symmetry_multiplicity
 _atom_site_fract_x
 _atom_site_fract_y
 _atom_site_fract_z
 _atom_site_occupancy
  Li  Li0  1  0.34785700  0.84208000  0.14824200  1
  Li  Li1  1  0.53659500  0.77026600  0.42986200  1
  Li  Li2  1  0.45897800  0.73085300  0.91580500  1
  Li  Li3  1  0.65474900  0.66916700  0.65668400  1
  Li  Li4  1  0.61681600  0.60703100  0.16746100  1
  Li  Li5  1  0.38465900  0.40241400  0.83849900  1
  Li  Li6  1  0.35855600  0.32519000  0.34162300  1
  Li  Li7  1  0.81890700  0.34691700  0.15354600  1
  Li  Li8  1  0.15935200  0.13272800  0.66185500  1
  Li  Li9  1  0.47588200  0.22067800  0.58334900  1
  Li  Li10  1  0.63608700  0.16756700  0.85119200  1
  Li  Li11  1  0.60493400  0.09714000  0.33610400  1
  Cr  Cr12  1  0.87539300  0.87724800  0.85522900  1
  Cr  Cr13  1  0.12401300  0.62285500  0.35779200  1
  Cr  Cr14  1  0.88521200  0.37739600  0.65305100  1
  Cr  Cr15  1  0.12295000  0.13250800  0.14711200  1
  P  P16  1  0.21757900  0.94919900  0.41158400  1
  P  P17  1  0.72426000  0.97555600  0.08639100  1
  P  P18  1  0.28374300  0.51151600  0.57933200  1
  P  P19  1  0.21257200  0.45496500  0.09095700  1
  P  P20  1  0.78789600  0.55527000  0.91389800  1
  P  P21  1  0.71558300  0.47572400  0.41519300  1
  P  P22  1  0.28586400  0.02481300  0.90680200  1
  P  P23  1  0.77835300  0.05351800  0.59236400  1
  O  O24  1  0.25005100  0.00400100  0.05847000  1
  O  O25  1  0.34258900  0.85668800  0.34936500  1
  O  O26  1  0.04402700  0.80488000  0.41586100  1
  O  O27  1  0.70521800  0.98711900  0.46173000  1
  O  O28  1  0.35303900  0.88609400  0.86438400  1
  O  O29  1  0.90201200  0.95386600  0.12383800  1
  O  O30  1  0.79063400  0.90980100  0.68039700  1
  O  O31  1  0.57842900  0.80983000  0.10456100  1
  O  O32  1  0.43465400  0.66927900  0.59570800  1
  O  O33  1  0.19582500  0.60039900  0.17794800  1
  O  O34  1  0.11086400  0.53910500  0.62515800  1
  O  O35  1  0.64559300  0.60704300  0.35583900  1
  O  O36  1  0.28598200  0.52124400  0.96060100  1
  O  O37  1  0.96107400  0.69929800  0.90873800  1
  O  O38  1  0.65794500  0.63971800  0.84966500  1
  O  O39  1  0.25357200  0.47468200  0.42811600  1
  O  O40  1  0.75722700  0.51289800  0.56434600  1
  O  O41  1  0.32285300  0.35652200  0.15979500  1
  O  O42  1  0.03290900  0.31532100  0.08391800  1
  O  O43  1  0.73288000  0.49450300  0.04996900  1
  O  O44  1  0.32135700  0.36436600  0.64887000  1
  O  O45  1  0.88363500  0.46334000  0.34527000  1
  O  O46  1  0.80258600  0.40870700  0.82792800  1
  O  O47  1  0.57866800  0.30221400  0.40543800  1
  O  O48  1  0.41262800  0.19646500  0.87734000  1
  O  O49  1  0.20305800  0.08814800  0.31812400  1
  O  O50  1  0.11036800  0.02930000  0.83951500  1
  O  O51  1  0.68290300  0.11568800  0.16026100  1
  O  O52  1  0.27953300  0.02870700  0.54138100  1
  O  O53  1  0.96183600  0.18792600  0.58744700  1
  O  O54  1  0.67554400  0.16353900  0.65895900  1
  O  O55  1  0.73997200  0.01281500  0.93508700  1
