# generated using pymatgen
data_Na5LiMn2P2(CO7)2
_symmetry_space_group_name_H-M   'P 1'
_cell_length_a   6.81808800
_cell_length_b   8.96045096
_cell_length_c   10.33569551
_cell_angle_alpha   90.20143597
_cell_angle_beta   90.14937493
_cell_angle_gamma   90.30858384
_symmetry_Int_Tables_number   1
_chemical_formula_structural   Na5LiMn2P2(CO7)2
_chemical_formula_sum   'Na10 Li2 Mn4 P4 C4 O28'
_cell_volume   631.42488797
_cell_formula_units_Z   2
loop_
 _symmetry_equiv_pos_site_id
 _symmetry_equiv_pos_as_xyz
  1  'x, y, z'
loop_
 _atom_site_type_symbol
 _atom_site_label
 _atom_site_symmetry_multiplicity
 _atom_site_fract_x
 _atom_site_fract_y
 _atom_site_fract_z
 _atom_site_occupancy
  Na  Na0  1  0.25195900  0.08372600  0.12003000  1
  Na  Na1  1  0.25239000  0.08295900  0.62015700  1
  Na  Na2  1  0.00042200  0.25865300  0.37644000  1
  Na  Na3  1  0.49975500  0.25824700  0.37651100  1
  Na  Na4  1  0.00228300  0.25855300  0.87596700  1
  Na  Na5  1  0.50167000  0.74145300  0.12519300  1
  Na  Na6  1  0.99847400  0.74129200  0.12481500  1
  Na  Na7  1  0.50200500  0.74166300  0.62264300  1
  Na  Na8  1  0.99807200  0.74128600  0.62243600  1
  Na  Na9  1  0.74763200  0.91705700  0.87946700  1
  Li  Li10  1  0.48859800  0.26989700  0.88027700  1
  Li  Li11  1  0.74992100  0.91542100  0.37821700  1
  Mn  Mn12  1  0.74766200  0.36056400  0.10988400  1
  Mn  Mn13  1  0.74908100  0.36021800  0.61205900  1
  Mn  Mn14  1  0.25020800  0.63952800  0.38923700  1
  Mn  Mn15  1  0.24953100  0.63824100  0.88826900  1
  P  P16  1  0.24972500  0.41091400  0.14709500  1
  P  P17  1  0.25324200  0.40880300  0.64968200  1
  P  P18  1  0.75004600  0.59388200  0.35117800  1
  P  P19  1  0.74571600  0.58612400  0.85055200  1
  C  C20  1  0.74921500  0.05899000  0.13601800  1
  C  C21  1  0.74885800  0.05551900  0.62914800  1
  C  C22  1  0.25008900  0.94013300  0.36792300  1
  C  C23  1  0.25603100  0.94383500  0.86840100  1
  O  O24  1  0.24915400  0.08411100  0.35731200  1
  O  O25  1  0.26781200  0.08863300  0.85869600  1
  O  O26  1  0.74856600  0.11816700  0.02109200  1
  O  O27  1  0.74954900  0.10853500  0.51190100  1
  O  O28  1  0.74822100  0.14563100  0.23741200  1
  O  O29  1  0.74651200  0.14632000  0.72854100  1
  O  O30  1  0.06486800  0.31898200  0.10700600  1
  O  O31  1  0.43097200  0.31867000  0.10262900  1
  O  O32  1  0.06705600  0.31782300  0.61043100  1
  O  O33  1  0.43368000  0.31780800  0.60397800  1
  O  O34  1  0.25300900  0.42841300  0.29784700  1
  O  O35  1  0.75028900  0.43669400  0.41394700  1
  O  O36  1  0.26238400  0.42295800  0.80110200  1
  O  O37  1  0.73568400  0.42522200  0.90771400  1
  O  O38  1  0.24978700  0.56930500  0.08741700  1
  O  O39  1  0.74934300  0.57163100  0.20099300  1
  O  O40  1  0.25023400  0.56796800  0.59074000  1
  O  O41  1  0.74862100  0.57162300  0.69994800  1
  O  O42  1  0.56889900  0.68897900  0.39095500  1
  O  O43  1  0.93240200  0.68925300  0.39110200  1
  O  O44  1  0.56610000  0.68127800  0.89205800  1
  O  O45  1  0.93192700  0.67398600  0.89463200  1
  O  O46  1  0.25045100  0.85567100  0.26480200  1
  O  O47  1  0.24954100  0.85995000  0.76505400  1
  O  O48  1  0.25078500  0.87751400  0.48140400  1
  O  O49  1  0.24991300  0.88023800  0.98126500  1
  O  O50  1  0.75082200  0.91512300  0.15122600  1
  O  O51  1  0.75083300  0.91255900  0.64719700  1
