# generated using pymatgen
data_Li5V3P8O29
_symmetry_space_group_name_H-M   'P 1'
_cell_length_a   9.77646000
_cell_length_b   9.78840519
_cell_length_c   13.96127499
_cell_angle_alpha   89.93897309
_cell_angle_beta   89.96466946
_cell_angle_gamma   60.16272130
_symmetry_Int_Tables_number   1
_chemical_formula_structural   Li5V3P8O29
_chemical_formula_sum   'Li10 V6 P16 O58'
_cell_volume   1158.93427082
_cell_formula_units_Z   2
loop_
 _symmetry_equiv_pos_site_id
 _symmetry_equiv_pos_as_xyz
  1  'x, y, z'
loop_
 _atom_site_type_symbol
 _atom_site_label
 _atom_site_symmetry_multiplicity
 _atom_site_fract_x
 _atom_site_fract_y
 _atom_site_fract_z
 _atom_site_occupancy
  Li  Li0  1  0.22991300  0.67589200  0.05909100  1
  Li  Li1  1  0.09971800  0.66594700  0.56066400  1
  Li  Li2  1  0.66641600  0.23389800  0.56033700  1
  Li  Li3  1  0.67693500  0.09420100  0.05997900  1
  Li  Li4  1  0.09476800  0.22797200  0.05941000  1
  Li  Li5  1  0.23375200  0.09927200  0.55984400  1
  Li  Li6  1  0.90455200  0.77301200  0.93738300  1
  Li  Li7  1  0.32271700  0.90442000  0.93751700  1
  Li  Li8  1  0.77324300  0.32331000  0.93698300  1
  Li  Li9  1  0.00364300  0.00118100  0.50044800  1
  V  V10  1  0.56787400  0.99983900  0.25184200  1
  V  V11  1  0.43264200  0.00004200  0.74788000  1
  V  V12  1  0.99982600  0.56750500  0.74805400  1
  V  V13  1  0.99714100  0.43492600  0.25539400  1
  V  V14  1  0.43627100  0.56676200  0.25506200  1
  V  V15  1  0.56716200  0.43283900  0.74797000  1
  P  P16  1  0.23345300  0.67988000  0.84289200  1
  P  P17  1  0.08725100  0.68693200  0.34227900  1
  P  P18  1  0.68706900  0.22586600  0.34273100  1
  P  P19  1  0.33205600  0.33603500  0.13009400  1
  P  P20  1  0.33292000  0.33357800  0.62592100  1
  P  P21  1  0.68043600  0.08678700  0.84280400  1
  P  P22  1  0.77457700  0.91569400  0.65756600  1
  P  P23  1  0.08686900  0.23325300  0.84279200  1
  P  P24  1  0.91277500  0.76811800  0.15772800  1
  P  P25  1  0.22626500  0.08714400  0.34299400  1
  P  P26  1  0.31860400  0.91138700  0.15927100  1
  P  P27  1  0.66814100  0.66743800  0.37235100  1
  P  P28  1  0.66653200  0.66697900  0.87185800  1
  P  P29  1  0.31042200  0.77384700  0.65760900  1
  P  P30  1  0.91552900  0.30997500  0.65772900  1
  P  P31  1  0.77001500  0.31881900  0.15841300  1
  O  O32  1  0.20674300  0.78692300  0.57572300  1
  O  O33  1  0.25852300  0.65620800  0.33261100  1
  O  O34  1  0.00426100  0.75242600  0.06808800  1
  O  O35  1  0.08410800  0.66367100  0.84151500  1
  O  O36  1  0.38254100  0.52014700  0.82282200  1
  O  O37  1  0.33150900  0.48686200  0.17273000  1
  O  O38  1  0.52782300  0.38179500  0.32609600  1
  O  O39  1  0.75831100  0.24164400  0.06811500  1
  O  O40  1  0.66360400  0.25233600  0.84159900  1
  O  O41  1  0.19005300  0.48929800  0.66728100  1
  O  O42  1  0.08890800  0.52840500  0.32793800  1
  O  O43  1  0.48921400  0.32054900  0.66710200  1
  O  O44  1  0.32371700  0.34391800  0.02338200  1
  O  O45  1  0.33244000  0.33447200  0.51885000  1
  O  O46  1  0.48509800  0.18721300  0.16698200  1
  O  O47  1  0.09729300  0.38280000  0.82271000  1
  O  O48  1  0.18299700  0.33368100  0.17325900  1
  O  O49  1  0.65671000  0.08648900  0.33283800  1
  O  O50  1  0.79659900  0.99201800  0.75629400  1
  O  O51  1  0.78822400  0.00611000  0.57559400  1
  O  O52  1  0.75404400  0.00052000  0.93465800  1
  O  O53  1  0.52040400  0.09691400  0.82285200  1
  O  O54  1  0.32031000  0.18987500  0.66679800  1
  O  O55  1  0.74765100  0.91598800  0.15692800  1
  O  O56  1  0.37873500  0.09173400  0.32927300  1
  O  O57  1  0.08228100  0.25755900  0.33045200  1
  O  O58  1  0.99943900  0.79334700  0.24988200  1
  O  O59  1  0.01329800  0.76846500  0.43360300  1
  O  O60  1  0.00580100  0.20633600  0.57601900  1
  O  O61  1  0.91747900  0.74421400  0.65986200  1
  O  O62  1  0.62021300  0.91284900  0.66856900  1
  O  O63  1  0.25208200  0.08444600  0.84149400  1
  O  O64  1  0.67119000  0.80971900  0.32835700  1
  O  O65  1  0.47687200  0.90542000  0.17707600  1
  O  O66  1  0.23994800  0.99916700  0.06908600  1
  O  O67  1  0.20985000  0.01652900  0.43334400  1
  O  O68  1  0.20780100  0.99604700  0.25086100  1
  O  O69  1  0.33868600  0.91738200  0.65974700  1
  O  O70  1  0.81332700  0.67512800  0.83120700  1
  O  O71  1  0.90402200  0.61798000  0.17840600  1
  O  O72  1  0.51203800  0.81348400  0.83136900  1
  O  O73  1  0.66669100  0.66665500  0.97896200  1
  O  O74  1  0.66815100  0.65433800  0.47734800  1
  O  O75  1  0.51943900  0.66442300  0.32551800  1
  O  O76  1  0.91292900  0.46683200  0.66871600  1
  O  O77  1  0.81573300  0.51566700  0.32570200  1
  O  O78  1  0.33989200  0.74328700  0.15985500  1
  O  O79  1  0.21211700  0.79613500  0.75630200  1
  O  O80  1  0.24655400  0.75358500  0.93443800  1
  O  O81  1  0.46713100  0.62009800  0.66869600  1
  O  O82  1  0.67459100  0.51242000  0.83114800  1
  O  O83  1  0.61848800  0.47702900  0.17725900  1
  O  O84  1  0.91681300  0.33969300  0.15844300  1
  O  O85  1  0.00055200  0.24578600  0.93463800  1
  O  O86  1  0.99169400  0.21174200  0.75645800  1
  O  O87  1  0.74378900  0.33807400  0.66013900  1
  O  O88  1  0.76698400  0.22292900  0.43361400  1
  O  O89  1  0.79481300  0.20827600  0.25019200  1
