# generated using pymatgen
data_Li3MnV(PO4)3
_symmetry_space_group_name_H-M   'P 1'
_cell_length_a   9.87170716
_cell_length_b   9.87170716
_cell_length_c   9.93599505
_cell_angle_alpha   86.55445021
_cell_angle_beta   86.55445021
_cell_angle_gamma   88.39746213
_symmetry_Int_Tables_number   1
_chemical_formula_structural   Li3MnV(PO4)3
_chemical_formula_sum   'Li12 Mn4 V4 P12 O48'
_cell_volume   964.48308111
_cell_formula_units_Z   4
loop_
 _symmetry_equiv_pos_site_id
 _symmetry_equiv_pos_as_xyz
  1  'x, y, z'
loop_
 _atom_site_type_symbol
 _atom_site_label
 _atom_site_symmetry_multiplicity
 _atom_site_fract_x
 _atom_site_fract_y
 _atom_site_fract_z
 _atom_site_occupancy
  Li  Li0  1  0.97869400  0.55035000  0.75703700  1
  Li  Li1  1  0.13997700  0.23724600  0.82006500  1
  Li  Li2  1  0.72834100  0.57506200  0.88796200  1
  Li  Li3  1  0.65392300  0.06210300  0.97822400  1
  Li  Li4  1  0.93789700  0.34607700  0.02177600  1
  Li  Li5  1  0.42493800  0.27165900  0.11203800  1
  Li  Li6  1  0.76275400  0.86002300  0.17993500  1
  Li  Li7  1  0.44965000  0.02130600  0.24296300  1
  Li  Li8  1  0.56166100  0.73356000  0.39120500  1
  Li  Li9  1  0.36482200  0.95649800  0.51747400  1
  Li  Li10  1  0.04350200  0.63517800  0.48252600  1
  Li  Li11  1  0.26644000  0.43833900  0.60879500  1
  Mn  Mn12  1  0.02672200  0.97327800  0.00000000  1
  Mn  Mn13  1  0.73695100  0.46543200  0.27811200  1
  Mn  Mn14  1  0.75362000  0.24638000  0.50000000  1
  Mn  Mn15  1  0.53456800  0.26304900  0.72188800  1
  V  V16  1  0.47312900  0.75832100  0.78126600  1
  V  V17  1  0.24698000  0.75302000  0.00000000  1
  V  V18  1  0.24167900  0.52687100  0.21873400  1
  V  V19  1  0.97183300  0.02816700  0.50000000  1
  P  P20  1  0.85203700  0.16699100  0.79850100  1
  P  P21  1  0.33111500  0.45648100  0.89760200  1
  P  P22  1  0.36294500  0.05342900  0.92102800  1
  P  P23  1  0.94657100  0.63705500  0.07897200  1
  P  P24  1  0.54351900  0.66888500  0.10239800  1
  P  P25  1  0.83300900  0.14796300  0.20149900  1
  P  P26  1  0.18060400  0.84643700  0.29939300  1
  P  P27  1  0.44886500  0.32417300  0.39367300  1
  P  P28  1  0.04522000  0.34458800  0.42486300  1
  P  P29  1  0.65541200  0.95478000  0.57513700  1
  P  P30  1  0.67582700  0.55113500  0.60632700  1
  P  P31  1  0.15356300  0.81939600  0.70060700  1
  O  O32  1  0.41820700  0.11854100  0.78208100  1
  O  O33  1  0.22587700  0.40737000  0.80578300  1
  O  O34  1  0.12318200  0.82233300  0.85752800  1
  O  O35  1  0.33308300  0.61717100  0.87280300  1
  O  O36  1  0.69920300  0.20216800  0.83199200  1
  O  O37  1  0.47331500  0.39425400  0.86409000  1
  O  O38  1  0.94630800  0.27519500  0.84287200  1
  O  O39  1  0.87811100  0.02583900  0.86544000  1
  O  O40  1  0.38252400  0.89339000  0.91585000  1
  O  O41  1  0.21144800  0.09106600  0.93515300  1
  O  O42  1  0.58033100  0.70272300  0.94889000  1
  O  O43  1  0.90560000  0.55099800  0.96428200  1
  O  O44  1  0.10661000  0.61747600  0.08415000  1
  O  O45  1  0.44900200  0.09440000  0.03571800  1
  O  O46  1  0.29727700  0.41966900  0.05111000  1
  O  O47  1  0.90893400  0.78855200  0.06484700  1
  O  O48  1  0.38282900  0.66691700  0.12719700  1
  O  O49  1  0.17766700  0.87681800  0.14247200  1
  O  O50  1  0.60574600  0.52668500  0.13591000  1
  O  O51  1  0.97416100  0.12188900  0.13456000  1
  O  O52  1  0.72480500  0.05369200  0.15712800  1
  O  O53  1  0.59263000  0.77412300  0.19421700  1
  O  O54  1  0.79783200  0.30079700  0.16800800  1
  O  O55  1  0.88145900  0.58179300  0.21791900  1
  O  O56  1  0.10721800  0.38504600  0.28371600  1
  O  O57  1  0.17423300  0.68861100  0.33099300  1
  O  O58  1  0.30657500  0.90874400  0.34787600  1
  O  O59  1  0.41476300  0.20750300  0.30945000  1
  O  O60  1  0.04643800  0.90668000  0.36688400  1
  O  O61  1  0.38149100  0.46023700  0.34215000  1
  O  O62  1  0.83846200  0.12036200  0.36137500  1
  O  O63  1  0.60996300  0.34066300  0.37317900  1
  O  O64  1  0.69382100  0.58814600  0.45220100  1
  O  O65  1  0.07365000  0.18725900  0.45472400  1
  O  O66  1  0.56845800  0.90527700  0.46710000  1
  O  O67  1  0.88555700  0.37174800  0.42495700  1
  O  O68  1  0.09472300  0.43154200  0.53290000  1
  O  O69  1  0.81274100  0.92635000  0.54527600  1
  O  O70  1  0.41185400  0.30617900  0.54779900  1
  O  O71  1  0.62825200  0.11444300  0.57504300  1
  O  O72  1  0.09332000  0.95356200  0.63311600  1
  O  O73  1  0.09125600  0.69342500  0.65212400  1
  O  O74  1  0.53976300  0.61850900  0.65785000  1
  O  O75  1  0.31138900  0.82576700  0.66900700  1
  O  O76  1  0.65933700  0.39003700  0.62682100  1
  O  O77  1  0.79249700  0.58523700  0.69055000  1
  O  O78  1  0.87963800  0.16153800  0.63862500  1
  O  O79  1  0.61495400  0.89278200  0.71628400  1
