# generated using pymatgen
data_NaLi2MnPCO7
_symmetry_space_group_name_H-M   'P 1'
_cell_length_a   6.69945300
_cell_length_b   8.68655479
_cell_length_c   10.09877123
_cell_angle_alpha   91.51880966
_cell_angle_beta   89.99631787
_cell_angle_gamma   90.67218536
_symmetry_Int_Tables_number   1
_chemical_formula_structural   NaLi2MnPCO7
_chemical_formula_sum   'Na4 Li8 Mn4 P4 C4 O28'
_cell_volume   587.45274371
_cell_formula_units_Z   4
loop_
 _symmetry_equiv_pos_site_id
 _symmetry_equiv_pos_as_xyz
  1  'x, y, z'
loop_
 _atom_site_type_symbol
 _atom_site_label
 _atom_site_symmetry_multiplicity
 _atom_site_fract_x
 _atom_site_fract_y
 _atom_site_fract_z
 _atom_site_occupancy
  Na  Na0  1  0.25663100  0.08480300  0.62286300  1
  Na  Na1  1  0.99870800  0.24980700  0.37277100  1
  Na  Na2  1  0.99747800  0.25165200  0.87617200  1
  Na  Na3  1  0.50048500  0.74997700  0.62528700  1
  Li  Li4  1  0.26505400  0.07838700  0.12725800  1
  Li  Li5  1  0.47319600  0.27209600  0.38471500  1
  Li  Li6  1  0.47385900  0.27238000  0.88859800  1
  Li  Li7  1  0.52120600  0.73616800  0.11893600  1
  Li  Li8  1  0.97637800  0.73672500  0.11579500  1
  Li  Li9  1  0.97528700  0.72852500  0.61249100  1
  Li  Li10  1  0.74283200  0.91294400  0.36988900  1
  Li  Li11  1  0.74931000  0.90999400  0.87552300  1
  Mn  Mn12  1  0.74521800  0.35427000  0.11387700  1
  Mn  Mn13  1  0.74270300  0.36013900  0.61118000  1
  Mn  Mn14  1  0.24603800  0.64565400  0.38379400  1
  Mn  Mn15  1  0.24919700  0.64824600  0.89283500  1
  P  P16  1  0.25435300  0.40689100  0.14805300  1
  P  P17  1  0.24629600  0.41493300  0.64631700  1
  P  P18  1  0.74497500  0.59464100  0.35024800  1
  P  P19  1  0.75014400  0.59423900  0.85811400  1
  C  C20  1  0.74881300  0.03909300  0.13356700  1
  C  C21  1  0.75806800  0.04477600  0.63549400  1
  C  C22  1  0.25922500  0.94812300  0.35681500  1
  C  C23  1  0.26070000  0.95644200  0.87158300  1
  O  O24  1  0.27683700  0.09576600  0.33900900  1
  O  O25  1  0.27755500  0.10285900  0.85112500  1
  O  O26  1  0.75352600  0.08265300  0.01162100  1
  O  O27  1  0.75225400  0.08250600  0.51183700  1
  O  O28  1  0.74314300  0.14150300  0.23025000  1
  O  O29  1  0.73666200  0.15057000  0.72858600  1
  O  O30  1  0.06241000  0.31398500  0.10964000  1
  O  O31  1  0.42951300  0.30881600  0.09122300  1
  O  O32  1  0.05904400  0.31509300  0.60959300  1
  O  O33  1  0.42726600  0.32682700  0.58564500  1
  O  O34  1  0.27198600  0.41896300  0.30238500  1
  O  O35  1  0.73430600  0.42729200  0.40220600  1
  O  O36  1  0.27017800  0.42543800  0.80045000  1
  O  O37  1  0.73193100  0.42704400  0.90870700  1
  O  O38  1  0.25556100  0.57454400  0.09721100  1
  O  O39  1  0.75322700  0.58231100  0.19512000  1
  O  O40  1  0.22949800  0.58070500  0.59455900  1
  O  O41  1  0.76597700  0.58229200  0.70356000  1
  O  O42  1  0.56430200  0.69423800  0.39300500  1
  O  O43  1  0.92978400  0.68585500  0.40421400  1
  O  O44  1  0.56940400  0.69628800  0.89961300  1
  O  O45  1  0.93404100  0.68382800  0.91556900  1
  O  O46  1  0.24362200  0.85530800  0.25418800  1
  O  O47  1  0.25034000  0.85938500  0.77078800  1
  O  O48  1  0.25638400  0.89212200  0.47451700  1
  O  O49  1  0.25306100  0.90561200  0.99094300  1
  O  O50  1  0.74881900  0.89406600  0.16260300  1
  O  O51  1  0.78321300  0.90323100  0.66965500  1
