# generated using pymatgen
data_Li2MnV3O8
_symmetry_space_group_name_H-M   'P 1'
_cell_length_a   8.19129400
_cell_length_b   8.52424700
_cell_length_c   8.70641600
_cell_angle_alpha   90.00000000
_cell_angle_beta   90.00000000
_cell_angle_gamma   90.00000000
_symmetry_Int_Tables_number   1
_chemical_formula_structural   Li2MnV3O8
_chemical_formula_sum   'Li8 Mn4 V12 O32'
_cell_volume   607.92213048
_cell_formula_units_Z   4
loop_
 _symmetry_equiv_pos_site_id
 _symmetry_equiv_pos_as_xyz
  1  'x, y, z'
loop_
 _atom_site_type_symbol
 _atom_site_label
 _atom_site_symmetry_multiplicity
 _atom_site_fract_x
 _atom_site_fract_y
 _atom_site_fract_z
 _atom_site_occupancy
  Li  Li0  1  0.74563100  0.74706200  0.74762800  1
  Li  Li1  1  0.50460100  0.50207300  0.50044200  1
  Li  Li2  1  0.49539900  0.00207300  0.99955800  1
  Li  Li3  1  0.25436900  0.24706200  0.75237200  1
  Li  Li4  1  0.24563100  0.75293800  0.25237200  1
  Li  Li5  1  0.00460100  0.99792700  0.49955800  1
  Li  Li6  1  0.99539900  0.49792700  0.00044200  1
  Li  Li7  1  0.75436900  0.25293800  0.24762800  1
  Mn  Mn8  1  0.62678800  0.37453900  0.87689000  1
  Mn  Mn9  1  0.37321200  0.87453900  0.62311000  1
  Mn  Mn10  1  0.12678800  0.12546100  0.12311000  1
  Mn  Mn11  1  0.87321200  0.62546100  0.37689000  1
  V  V12  1  0.62747300  0.12348400  0.62041700  1
  V  V13  1  0.62417800  0.87607900  0.36879900  1
  V  V14  1  0.62322700  0.62731400  0.12278400  1
  V  V15  1  0.37677300  0.12731400  0.37721600  1
  V  V16  1  0.37582200  0.37607900  0.13120100  1
  V  V17  1  0.37252700  0.62348400  0.87958300  1
  V  V18  1  0.12747300  0.37651600  0.37958300  1
  V  V19  1  0.12417800  0.62392100  0.63120100  1
  V  V20  1  0.12322700  0.87268600  0.87721600  1
  V  V21  1  0.87677300  0.37268600  0.62278400  1
  V  V22  1  0.87582200  0.12392100  0.86879900  1
  V  V23  1  0.87252700  0.87651600  0.12041700  1
  O  O24  1  0.64792000  0.36168500  0.63104000  1
  O  O25  1  0.64522200  0.13050900  0.86264700  1
  O  O26  1  0.62718200  0.86169600  0.13927300  1
  O  O27  1  0.61154300  0.88699400  0.60401800  1
  O  O28  1  0.63546200  0.64199900  0.35965100  1
  O  O29  1  0.61081500  0.11306300  0.37859000  1
  O  O30  1  0.60822500  0.39174600  0.12219500  1
  O  O31  1  0.61477700  0.61697000  0.89566100  1
  O  O32  1  0.38522300  0.11697000  0.60433900  1
  O  O33  1  0.39177500  0.89174600  0.37780500  1
  O  O34  1  0.38918500  0.61306300  0.12141000  1
  O  O35  1  0.36453800  0.14199900  0.14034900  1
  O  O36  1  0.38845700  0.38699400  0.89598200  1
  O  O37  1  0.37281800  0.36169600  0.36072700  1
  O  O38  1  0.35477800  0.63050900  0.63735300  1
  O  O39  1  0.35208000  0.86168500  0.86896000  1
  O  O40  1  0.14792000  0.13831500  0.36896000  1
  O  O41  1  0.14522200  0.36949100  0.13735300  1
  O  O42  1  0.12718200  0.63830400  0.86072700  1
  O  O43  1  0.11154300  0.61300600  0.39598200  1
  O  O44  1  0.13546200  0.85800100  0.64034900  1
  O  O45  1  0.11081500  0.38693700  0.62141000  1
  O  O46  1  0.10822500  0.10825400  0.87780500  1
  O  O47  1  0.11477700  0.88303000  0.10433900  1
  O  O48  1  0.88522300  0.38303000  0.39566100  1
  O  O49  1  0.89177500  0.60825400  0.62219500  1
  O  O50  1  0.88918500  0.88693700  0.87859000  1
  O  O51  1  0.86453800  0.35800100  0.85965100  1
  O  O52  1  0.88845700  0.11300600  0.10401800  1
  O  O53  1  0.87281800  0.13830400  0.63927300  1
  O  O54  1  0.85477800  0.86949100  0.36264700  1
  O  O55  1  0.85208000  0.63831500  0.13104000  1
