# generated using pymatgen
data_LiMnPO5
_symmetry_space_group_name_H-M   'P 1'
_cell_length_a   7.59338103
_cell_length_b   6.11954149
_cell_length_c   7.83013720
_cell_angle_alpha   90.00347396
_cell_angle_beta   90.02615486
_cell_angle_gamma   90.07967931
_symmetry_Int_Tables_number   1
_chemical_formula_structural   LiMnPO5
_chemical_formula_sum   'Li4 Mn4 P4 O20'
_cell_volume   363.85050540
_cell_formula_units_Z   4
loop_
 _symmetry_equiv_pos_site_id
 _symmetry_equiv_pos_as_xyz
  1  'x, y, z'
loop_
 _atom_site_type_symbol
 _atom_site_label
 _atom_site_symmetry_multiplicity
 _atom_site_fract_x
 _atom_site_fract_y
 _atom_site_fract_z
 _atom_site_occupancy
  Li  Li0  1  0.14028100  0.25004700  0.66995700  1
  Li  Li1  1  0.35997500  0.74991000  0.16992300  1
  Li  Li2  1  0.63998100  0.25007100  0.83002800  1
  Li  Li3  1  0.85962100  0.74993000  0.33013700  1
  Mn  Mn4  1  0.99998800  0.99989400  0.99986400  1
  Mn  Mn5  1  0.99995300  0.50008600  0.99997900  1
  Mn  Mn6  1  0.49998100  0.00016600  0.49995200  1
  Mn  Mn7  1  0.49982600  0.50008900  0.50004700  1
  P  P8  1  0.13224500  0.75010700  0.66582200  1
  P  P9  1  0.36762200  0.24982300  0.16577000  1
  P  P10  1  0.63235800  0.75017300  0.83426000  1
  P  P11  1  0.86773500  0.24984300  0.33409600  1
  O  O12  1  0.01077900  0.24996200  0.46670600  1
  O  O13  1  0.10882000  0.75015100  0.08967400  1
  O  O14  1  0.12640200  0.95925800  0.77993900  1
  O  O15  1  0.12649200  0.54094300  0.77971100  1
  O  O16  1  0.17961900  0.24938300  0.07605600  1
  O  O17  1  0.32016800  0.75053800  0.57633000  1
  O  O18  1  0.37354200  0.04073300  0.27983700  1
  O  O19  1  0.37340800  0.45899400  0.27960200  1
  O  O20  1  0.39140100  0.24986700  0.58972200  1
  O  O21  1  0.48964500  0.75002000  0.96679300  1
  O  O22  1  0.51041400  0.24995600  0.03318400  1
  O  O23  1  0.60856400  0.75016100  0.41030900  1
  O  O24  1  0.62663700  0.54098700  0.72041700  1
  O  O25  1  0.62651500  0.95925400  0.72018000  1
  O  O26  1  0.67985900  0.24947200  0.42370700  1
  O  O27  1  0.82041300  0.75058600  0.92393000  1
  O  O28  1  0.87366900  0.04071200  0.22003700  1
  O  O29  1  0.87355900  0.45904300  0.22030300  1
  O  O30  1  0.89121600  0.24982200  0.91036300  1
  O  O31  1  0.98931000  0.75002000  0.53336700  1
