# generated using pymatgen
data_Li4Mn3(PO4)4
_symmetry_space_group_name_H-M   'P 1'
_cell_length_a   7.59220700
_cell_length_b   7.67925614
_cell_length_c   11.44077886
_cell_angle_alpha   105.43815287
_cell_angle_beta   105.07217559
_cell_angle_gamma   101.83924517
_symmetry_Int_Tables_number   1
_chemical_formula_structural   Li4Mn3(PO4)4
_chemical_formula_sum   'Li8 Mn6 P8 O32'
_cell_volume   593.24949980
_cell_formula_units_Z   2
loop_
 _symmetry_equiv_pos_site_id
 _symmetry_equiv_pos_as_xyz
  1  'x, y, z'
loop_
 _atom_site_type_symbol
 _atom_site_label
 _atom_site_symmetry_multiplicity
 _atom_site_fract_x
 _atom_site_fract_y
 _atom_site_fract_z
 _atom_site_occupancy
  Li  Li0  1  0.52614500  0.77345600  0.27108000  1
  Li  Li1  1  0.74863200  0.26208300  0.01752100  1
  Li  Li2  1  0.26867700  0.74439700  0.01140000  1
  Li  Li3  1  0.51371600  0.50079300  0.49658400  1
  Li  Li4  1  0.25683700  0.75280100  0.49347900  1
  Li  Li5  1  0.98136300  0.01372700  0.48772100  1
  Li  Li6  1  0.02290700  0.27391000  0.27876600  1
  Li  Li7  1  0.00278100  0.01032200  0.01593300  1
  Mn  Mn8  1  0.99237200  0.73400100  0.22334900  1
  Mn  Mn9  1  0.98027100  0.72760200  0.72243300  1
  Mn  Mn10  1  0.48763000  0.23810700  0.22848900  1
  Mn  Mn11  1  0.50655700  0.75545600  0.78441000  1
  Mn  Mn12  1  0.48228200  0.23537000  0.72532100  1
  Mn  Mn13  1  0.00674600  0.25722700  0.78065600  1
  P  P14  1  0.70430100  0.95875800  0.09733800  1
  P  P15  1  0.87392700  0.62511900  0.40170900  1
  P  P16  1  0.63633300  0.88384800  0.59650400  1
  P  P17  1  0.20412100  0.44822100  0.09325300  1
  P  P18  1  0.78492600  0.53765400  0.90882000  1
  P  P19  1  0.37510200  0.12178000  0.40395200  1
  P  P20  1  0.13507400  0.38633500  0.59475700  1
  P  P21  1  0.28448000  0.03317500  0.90629800  1
  O  O22  1  0.91213600  0.95379700  0.16231100  1
  O  O23  1  0.79817200  0.54326600  0.04511800  1
  O  O24  1  0.54549900  0.80867700  0.10100300  1
  O  O25  1  0.81657800  0.76489800  0.32748300  1
  O  O26  1  0.51346400  0.76528800  0.45754600  1
  O  O27  1  0.49916600  0.95392300  0.66957600  1
  O  O28  1  0.00590100  0.45780000  0.67330500  1
  O  O29  1  0.70017800  0.74144500  0.66582600  1
  O  O30  1  0.70543800  0.47214200  0.39272700  1
  O  O31  1  0.21084700  0.95819800  0.39471200  1
  O  O32  1  0.94024700  0.69146800  0.90119800  1
  O  O33  1  0.69666600  0.94725000  0.95526100  1
  O  O34  1  0.70040100  0.16743900  0.16158100  1
  O  O35  1  0.19930900  0.65722500  0.16121900  1
  O  O36  1  0.40582100  0.44267000  0.16566300  1
  O  O37  1  0.28709200  0.03941700  0.04236900  1
  O  O38  1  0.27647500  0.82249600  0.83254800  1
  O  O39  1  0.77744300  0.32780600  0.83160400  1
  O  O40  1  0.57859900  0.53070200  0.82830900  1
  O  O41  1  0.04113500  0.29349500  0.09364400  1
  O  O42  1  0.30356500  0.55412000  0.60996900  1
  O  O43  1  0.80756900  0.04410700  0.61229300  1
  O  O44  1  0.30992300  0.26107400  0.33159400  1
  O  O45  1  0.01280300  0.55697300  0.33022100  1
  O  O46  1  0.50256400  0.05360700  0.32330700  1
  O  O47  1  0.49073600  0.24622000  0.54306300  1
  O  O48  1  0.00057900  0.75032600  0.54102500  1
  O  O49  1  0.02390700  0.26779600  0.45589600  1
  O  O50  1  0.20419200  0.24851700  0.66750500  1
  O  O51  1  0.44165100  0.17882100  0.89659700  1
  O  O52  1  0.18955600  0.44334600  0.95338200  1
  O  O53  1  0.07526400  0.02810100  0.82993000  1
