# generated using pymatgen
data_LiV2(CO3)4
_symmetry_space_group_name_H-M   'P 1'
_cell_length_a   7.87205300
_cell_length_b   7.98394965
_cell_length_c   8.58904811
_cell_angle_alpha   102.69827194
_cell_angle_beta   102.02219593
_cell_angle_gamma   106.94924071
_symmetry_Int_Tables_number   1
_chemical_formula_structural   LiV2(CO3)4
_chemical_formula_sum   'Li2 V4 C8 O24'
_cell_volume   481.80882256
_cell_formula_units_Z   2
loop_
 _symmetry_equiv_pos_site_id
 _symmetry_equiv_pos_as_xyz
  1  'x, y, z'
loop_
 _atom_site_type_symbol
 _atom_site_label
 _atom_site_symmetry_multiplicity
 _atom_site_fract_x
 _atom_site_fract_y
 _atom_site_fract_z
 _atom_site_occupancy
  Li  Li0  1  0.20539300  0.01745300  0.81638600  1
  Li  Li1  1  0.79460700  0.98254700  0.18361400  1
  V  V2  1  0.28654700  0.74180600  0.55127800  1
  V  V3  1  0.20566500  0.46386300  0.06114100  1
  V  V4  1  0.79433500  0.53613700  0.93885900  1
  V  V5  1  0.71345300  0.25819400  0.44872200  1
  C  C6  1  0.00555400  0.73335500  0.23309300  1
  C  C7  1  0.05575400  0.33501100  0.31324300  1
  C  C8  1  0.46786500  0.63222900  0.75694700  1
  C  C9  1  0.46200000  0.84901900  0.27987100  1
  C  C10  1  0.53800000  0.15098100  0.72012900  1
  C  C11  1  0.53213500  0.36777100  0.24305300  1
  C  C12  1  0.94424600  0.66498900  0.68675700  1
  C  C13  1  0.99444600  0.26664500  0.76690700  1
  O  O14  1  0.07505600  0.77692800  0.64987200  1
  O  O15  1  0.11307700  0.82493700  0.37604100  1
  O  O16  1  0.01062300  0.57785700  0.14234000  1
  O  O17  1  0.12817600  0.22446100  0.84735400  1
  O  O18  1  0.15639200  0.49250000  0.41794600  1
  O  O19  1  0.08443900  0.28058500  0.17160600  1
  O  O20  1  0.30586000  0.64423800  0.75676000  1
  O  O21  1  0.36047300  0.73248700  0.13924700  1
  O  O22  1  0.44945000  0.81983500  0.41967700  1
  O  O23  1  0.52680000  0.68893800  0.64123800  1
  O  O24  1  0.55056900  0.56976300  0.86085200  1
  O  O25  1  0.41159100  0.00287500  0.71982200  1
  O  O26  1  0.58840900  0.99712500  0.28017800  1
  O  O27  1  0.44943100  0.43023700  0.13914800  1
  O  O28  1  0.47320000  0.31106200  0.35876200  1
  O  O29  1  0.55055000  0.18016500  0.58032300  1
  O  O30  1  0.63952700  0.26751300  0.86075300  1
  O  O31  1  0.69414000  0.35576200  0.24324000  1
  O  O32  1  0.91556100  0.71941500  0.82839400  1
  O  O33  1  0.84360800  0.50750000  0.58205400  1
  O  O34  1  0.87182400  0.77553900  0.15264600  1
  O  O35  1  0.98937700  0.42214300  0.85766000  1
  O  O36  1  0.88692300  0.17506300  0.62395900  1
  O  O37  1  0.92494400  0.22307200  0.35012800  1
