# generated using pymatgen
data_LiMnPO5
_symmetry_space_group_name_H-M   'P 1'
_cell_length_a   6.28844800
_cell_length_b   7.10588000
_cell_length_c   7.42632000
_cell_angle_alpha   90.00000000
_cell_angle_beta   90.00000000
_cell_angle_gamma   90.00000000
_symmetry_Int_Tables_number   1
_chemical_formula_structural   LiMnPO5
_chemical_formula_sum   'Li4 Mn4 P4 O20'
_cell_volume   331.84478893
_cell_formula_units_Z   4
loop_
 _symmetry_equiv_pos_site_id
 _symmetry_equiv_pos_as_xyz
  1  'x, y, z'
loop_
 _atom_site_type_symbol
 _atom_site_label
 _atom_site_symmetry_multiplicity
 _atom_site_fract_x
 _atom_site_fract_y
 _atom_site_fract_z
 _atom_site_occupancy
  Li  Li0  1  0.00000000  0.00000000  0.00000000  1
  Li  Li1  1  0.50000000  0.00000000  0.00000000  1
  Li  Li2  1  0.00000000  0.50000000  0.50000000  1
  Li  Li3  1  0.50000000  0.50000000  0.50000000  1
  Mn  Mn4  1  0.25000000  0.14075300  0.73028400  1
  Mn  Mn5  1  0.75000000  0.35924700  0.23028400  1
  Mn  Mn6  1  0.25000000  0.64075300  0.76971600  1
  Mn  Mn7  1  0.75000000  0.85924700  0.26971600  1
  P  P8  1  0.75000000  0.12378600  0.61969400  1
  P  P9  1  0.25000000  0.37621400  0.11969400  1
  P  P10  1  0.75000000  0.62378600  0.88030600  1
  P  P11  1  0.25000000  0.87621400  0.38030600  1
  O  O12  1  0.25000000  0.06161700  0.48790800  1
  O  O13  1  0.75000000  0.10784100  0.16106000  1
  O  O14  1  0.55823800  0.12999400  0.74997000  1
  O  O15  1  0.94176200  0.12999400  0.74997000  1
  O  O16  1  0.25000000  0.20101600  0.99471300  1
  O  O17  1  0.75000000  0.29898400  0.49471300  1
  O  O18  1  0.05823800  0.37000600  0.24997000  1
  O  O19  1  0.44176200  0.37000600  0.24997000  1
  O  O20  1  0.25000000  0.39215900  0.66106000  1
  O  O21  1  0.75000000  0.43838300  0.98790800  1
  O  O22  1  0.25000000  0.56161700  0.01209200  1
  O  O23  1  0.75000000  0.60784100  0.33894000  1
  O  O24  1  0.55823800  0.62999400  0.75003000  1
  O  O25  1  0.94176200  0.62999400  0.75003000  1
  O  O26  1  0.25000000  0.70101600  0.50528700  1
  O  O27  1  0.75000000  0.79898400  0.00528700  1
  O  O28  1  0.05823800  0.87000600  0.25003000  1
  O  O29  1  0.44176200  0.87000600  0.25003000  1
  O  O30  1  0.25000000  0.89215900  0.83894000  1
  O  O31  1  0.75000000  0.93838300  0.51209200  1
