# generated using pymatgen
data_Li5Mn6(BO3)6
_symmetry_space_group_name_H-M   'P 1'
_cell_length_a   5.26404300
_cell_length_b   6.18873729
_cell_length_c   12.92829364
_cell_angle_alpha   94.24888158
_cell_angle_beta   91.10280066
_cell_angle_gamma   114.89384501
_symmetry_Int_Tables_number   1
_chemical_formula_structural   Li5Mn6(BO3)6
_chemical_formula_sum   'Li5 Mn6 B6 O18'
_cell_volume   380.40081811
_cell_formula_units_Z   1
loop_
 _symmetry_equiv_pos_site_id
 _symmetry_equiv_pos_as_xyz
  1  'x, y, z'
loop_
 _atom_site_type_symbol
 _atom_site_label
 _atom_site_symmetry_multiplicity
 _atom_site_fract_x
 _atom_site_fract_y
 _atom_site_fract_z
 _atom_site_occupancy
  Li  Li0  1  0.81145700  0.93592900  0.25302700  1
  Li  Li1  1  0.86424600  0.41385800  0.07008300  1
  Li  Li2  1  0.52349700  0.73402700  0.41156300  1
  Li  Li3  1  0.48088900  0.27106000  0.59107100  1
  Li  Li4  1  0.19356900  0.06334800  0.74806900  1
  Mn  Mn5  1  0.26697900  0.89125800  0.12759600  1
  Mn  Mn6  1  0.39391200  0.44102800  0.19982700  1
  Mn  Mn7  1  0.06164900  0.77400300  0.53315300  1
  Mn  Mn8  1  0.94349900  0.22962300  0.46378200  1
  Mn  Mn9  1  0.60028500  0.56106400  0.81111100  1
  Mn  Mn10  1  0.74730000  0.11776600  0.86614800  1
  B  B11  1  0.72013200  0.78823400  0.02473000  1
  B  B12  1  0.95883300  0.57192500  0.30714500  1
  B  B13  1  0.62151700  0.90208300  0.64397000  1
  B  B14  1  0.37626000  0.09555200  0.35697900  1
  B  B15  1  0.02683100  0.40699900  0.69082400  1
  B  B16  1  0.29227400  0.23090100  0.97691800  1
  O  O17  1  0.93823200  0.72620900  0.01865100  1
  O  O18  1  0.60239900  0.80422400  0.11850500  1
  O  O19  1  0.44375800  0.24324900  0.06822100  1
  O  O20  1  0.05733900  0.53510100  0.21175800  1
  O  O21  1  0.72134900  0.61361700  0.31393300  1
  O  O22  1  0.10947000  0.57576300  0.39894000  1
  O  O23  1  0.72501300  0.86757700  0.54921500  1
  O  O24  1  0.22570300  0.09025300  0.26587300  1
  O  O25  1  0.38465600  0.94356100  0.64911400  1
  O  O26  1  0.61458600  0.05458900  0.35224400  1
  O  O27  1  0.77158500  0.90580100  0.73633300  1
  O  O28  1  0.27784000  0.13303800  0.45328900  1
  O  O29  1  0.89762300  0.42578800  0.59857000  1
  O  O30  1  0.27658800  0.38644800  0.69149400  1
  O  O31  1  0.88143500  0.39890200  0.78137100  1
  O  O32  1  0.59479200  0.81517200  0.93067900  1
  O  O33  1  0.40445400  0.20768000  0.88217900  1
  O  O34  1  0.04338500  0.25378800  0.98156200  1
