# generated using pymatgen
data_Li3MnB8O15
_symmetry_space_group_name_H-M   'P 1'
_cell_length_a   11.36637900
_cell_length_b   9.30286500
_cell_length_c   11.96710804
_cell_angle_alpha   89.62667087
_cell_angle_beta   90.00000000
_cell_angle_gamma   90.00000000
_symmetry_Int_Tables_number   1
_chemical_formula_structural   Li3MnB8O15
_chemical_formula_sum   'Li12 Mn4 B32 O60'
_cell_volume   1265.37381814
_cell_formula_units_Z   4
loop_
 _symmetry_equiv_pos_site_id
 _symmetry_equiv_pos_as_xyz
  1  'x, y, z'
loop_
 _atom_site_type_symbol
 _atom_site_label
 _atom_site_symmetry_multiplicity
 _atom_site_fract_x
 _atom_site_fract_y
 _atom_site_fract_z
 _atom_site_occupancy
  Li  Li0  1  0.07447200  0.07693700  0.58358400  1
  Li  Li1  1  0.66770400  0.10114800  0.54901900  1
  Li  Li2  1  0.42552800  0.07693700  0.08358400  1
  Li  Li3  1  0.83229600  0.10114800  0.04901900  1
  Li  Li4  1  0.17603100  0.47609000  0.71433400  1
  Li  Li5  1  0.32396900  0.47609000  0.21433400  1
  Li  Li6  1  0.67603100  0.52391000  0.78566600  1
  Li  Li7  1  0.82396900  0.52391000  0.28566600  1
  Li  Li8  1  0.16770400  0.89885200  0.95098100  1
  Li  Li9  1  0.57447200  0.92306300  0.91641600  1
  Li  Li10  1  0.33229600  0.89885200  0.45098100  1
  Li  Li11  1  0.92552800  0.92306300  0.41641600  1
  Mn  Mn12  1  0.16357700  0.24767400  0.97682500  1
  Mn  Mn13  1  0.33642300  0.24767400  0.47682500  1
  Mn  Mn14  1  0.66357700  0.75232600  0.52317500  1
  Mn  Mn15  1  0.83642300  0.75232600  0.02317500  1
  B  B16  1  0.33564700  0.10394000  0.88444600  1
  B  B17  1  0.16435300  0.10394000  0.38444600  1
  B  B18  1  0.74572000  0.13684400  0.78599100  1
  B  B19  1  0.75428000  0.13684400  0.28599100  1
  B  B20  1  0.53306500  0.17639900  0.81431600  1
  B  B21  1  0.96693500  0.17639900  0.31431600  1
  B  B22  1  0.94488500  0.18944900  0.84852700  1
  B  B23  1  0.35426100  0.22344400  0.70398500  1
  B  B24  1  0.55511500  0.18944900  0.34852700  1
  B  B25  1  0.14573900  0.22344400  0.20398500  1
  B  B26  1  0.88004600  0.27898200  0.66640900  1
  B  B27  1  0.61995400  0.27898200  0.16640900  1
  B  B28  1  0.60015200  0.34545500  0.96712200  1
  B  B29  1  0.89984800  0.34545500  0.46712200  1
  B  B30  1  0.28041900  0.50849000  0.90951800  1
  B  B31  1  0.21958100  0.50849000  0.40951800  1
  B  B32  1  0.78041900  0.49151000  0.59048200  1
  B  B33  1  0.71958100  0.49151000  0.09048200  1
  B  B34  1  0.10015200  0.65454500  0.53287800  1
  B  B35  1  0.39984800  0.65454500  0.03287800  1
  B  B36  1  0.38004600  0.72101800  0.83359100  1
  B  B37  1  0.11995400  0.72101800  0.33359100  1
  B  B38  1  0.85426100  0.77655600  0.79601500  1
  B  B39  1  0.44488500  0.81055100  0.65147300  1
  B  B40  1  0.64573900  0.77655600  0.29601500  1
  B  B41  1  0.05511500  0.81055100  0.15147300  1
  B  B42  1  0.03306500  0.82360100  0.68568400  1
  B  B43  1  0.46693500  0.82360100  0.18568400  1
  B  B44  1  0.24572000  0.86315600  0.71400900  1
  B  B45  1  0.25428000  0.86315600  0.21400900  1
  B  B46  1  0.83564700  0.89606000  0.61555400  1
  B  B47  1  0.66435300  0.89606000  0.11555400  1
  O  O48  1  0.45548200  0.09366800  0.89400100  1
  O  O49  1  0.26589500  0.07418000  0.97525700  1
  O  O50  1  0.63640500  0.08215900  0.80714500  1
  O  O51  1  0.04451800  0.09366800  0.39400100  1
  O  O52  1  0.23410500  0.07418000  0.47525700  1
  O  O53  1  0.86359500  0.08215900  0.30714500  1
  O  O54  1  0.82627500  0.15279500  0.87378100  1
  O  O55  1  0.28468700  0.16356000  0.78972100  1
  O  O56  1  0.67372500  0.15279500  0.37378100  1
  O  O57  1  0.21531300  0.16356000  0.28972100  1
  O  O58  1  0.02280800  0.15999300  0.92973600  1
  O  O59  1  0.47719200  0.15999300  0.42973600  1
  O  O60  1  0.77801300  0.17466600  0.67918400  1
  O  O61  1  0.47402600  0.20417700  0.70683600  1
  O  O62  1  0.72198700  0.17466600  0.17918400  1
  O  O63  1  0.02597400  0.20417700  0.20683700  1
  O  O64  1  0.29300600  0.29806600  0.62397700  1
  O  O65  1  0.93134300  0.25928600  0.55525100  1
  O  O66  1  0.20699400  0.29806600  0.12397700  1
  O  O67  1  0.97268000  0.24791000  0.74695300  1
  O  O68  1  0.56865700  0.25928600  0.05525100  1
  O  O69  1  0.52732000  0.24791000  0.24695300  1
  O  O70  1  0.56941200  0.32023600  0.85874000  1
  O  O71  1  0.93058800  0.32023600  0.35874000  1
  O  O72  1  0.18580600  0.42186100  0.89242300  1
  O  O73  1  0.31419400  0.42186100  0.39242300  1
  O  O74  1  0.82749400  0.42309600  0.68275000  1
  O  O75  1  0.67158000  0.46654600  0.98387000  1
  O  O76  1  0.67250600  0.42309600  0.18275000  1
  O  O77  1  0.82842000  0.46654600  0.48387000  1
  O  O78  1  0.17158000  0.53345400  0.51613000  1
  O  O79  1  0.32749400  0.57690400  0.81725000  1
  O  O80  1  0.32842000  0.53345400  0.01613000  1
  O  O81  1  0.17250600  0.57690400  0.31725000  1
  O  O82  1  0.68580600  0.57813900  0.60757700  1
  O  O83  1  0.81419400  0.57813900  0.10757700  1
  O  O84  1  0.06941200  0.67976400  0.64126000  1
  O  O85  1  0.43058800  0.67976400  0.14126000  1
  O  O86  1  0.47268000  0.75209000  0.75304700  1
  O  O87  1  0.43134300  0.74071400  0.94474900  1
  O  O88  1  0.02732000  0.75209000  0.25304700  1
  O  O89  1  0.79300600  0.70193400  0.87602300  1
  O  O90  1  0.06865700  0.74071400  0.44474900  1
  O  O91  1  0.70699400  0.70193400  0.37602300  1
  O  O92  1  0.97402600  0.79582300  0.79316400  1
  O  O93  1  0.27801300  0.82533400  0.82081600  1
  O  O94  1  0.52597400  0.79582300  0.29316400  1
  O  O95  1  0.22198700  0.82533400  0.32081600  1
  O  O96  1  0.52280800  0.84000700  0.57026400  1
  O  O97  1  0.97719200  0.84000700  0.07026400  1
  O  O98  1  0.78468700  0.83644000  0.71027900  1
  O  O99  1  0.32627500  0.84720500  0.62621900  1
  O  O100  1  0.71531300  0.83644000  0.21027900  1
  O  O101  1  0.17372500  0.84720500  0.12621900  1
  O  O102  1  0.13640500  0.91784100  0.69285500  1
  O  O103  1  0.76589500  0.92582000  0.52474300  1
  O  O104  1  0.95548200  0.90633200  0.60599900  1
  O  O105  1  0.36359500  0.91784100  0.19285500  1
  O  O106  1  0.73410500  0.92582000  0.02474300  1
  O  O107  1  0.54451800  0.90633200  0.10599900  1
