# generated using pymatgen
data_Li6V3Sb3O16
_symmetry_space_group_name_H-M   'P 1'
_cell_length_a   6.05881800
_cell_length_b   6.11989632
_cell_length_c   10.07365448
_cell_angle_alpha   90.33604724
_cell_angle_beta   89.99103621
_cell_angle_gamma   119.64136601
_symmetry_Int_Tables_number   1
_chemical_formula_structural   Li6V3Sb3O16
_chemical_formula_sum   'Li6 V3 Sb3 O16'
_cell_volume   324.63711562
_cell_formula_units_Z   1
loop_
 _symmetry_equiv_pos_site_id
 _symmetry_equiv_pos_as_xyz
  1  'x, y, z'
loop_
 _atom_site_type_symbol
 _atom_site_label
 _atom_site_symmetry_multiplicity
 _atom_site_fract_x
 _atom_site_fract_y
 _atom_site_fract_z
 _atom_site_occupancy
  Li  Li0  1  0.66399600  0.32818700  0.50669900  1
  Li  Li1  1  0.66831200  0.33693100  0.87944400  1
  Li  Li2  1  0.98809400  0.97647500  0.99747600  1
  Li  Li3  1  0.99508300  0.99015000  0.50295800  1
  Li  Li4  1  0.33746700  0.67488500  0.00273000  1
  Li  Li5  1  0.32945600  0.65911100  0.38840400  1
  V  V6  1  0.17680800  0.83896900  0.71820900  1
  V  V7  1  0.83253500  0.66519200  0.21679300  1
  V  V8  1  0.66854900  0.83101100  0.71321200  1
  Sb  Sb9  1  0.33623300  0.16914000  0.21527900  1
  Sb  Sb10  1  0.83280200  0.16914700  0.21528800  1
  Sb  Sb11  1  0.16917100  0.34017400  0.71549200  1
  O  O12  1  0.30513700  0.15149300  0.60928400  1
  O  O13  1  0.51356000  0.02719400  0.32840100  1
  O  O14  1  0.66220600  0.32453900  0.10135200  1
  O  O15  1  0.00471100  0.00949600  0.32263800  1
  O  O16  1  0.00238400  0.00478500  0.81826100  1
  O  O17  1  0.84503400  0.15158300  0.60953100  1
  O  O18  1  0.50852000  0.48172400  0.32178300  1
  O  O19  1  0.97307000  0.48171200  0.32180800  1
  O  O20  1  0.15164600  0.30343900  0.10212000  1
  O  O21  1  0.84868400  0.70354500  0.61860300  1
  O  O22  1  0.02989900  0.52123100  0.82194700  1
  O  O23  1  0.48974900  0.52149800  0.82236100  1
  O  O24  1  0.33343200  0.66732400  0.60528300  1
  O  O25  1  0.15915900  0.85242000  0.11037300  1
  O  O26  1  0.48081200  0.96618600  0.81173800  1
  O  O27  1  0.69319000  0.85246000  0.11037400  1
