# generated using pymatgen
data_LiCo2(SO4)3
_symmetry_space_group_name_H-M   'P 1'
_cell_length_a   8.48617534
_cell_length_b   8.74156800
_cell_length_c   12.02157836
_cell_angle_alpha   90.00000000
_cell_angle_beta   89.83459032
_cell_angle_gamma   90.00000000
_symmetry_Int_Tables_number   1
_chemical_formula_structural   LiCo2(SO4)3
_chemical_formula_sum   'Li4 Co8 S12 O48'
_cell_volume   891.78676602
_cell_formula_units_Z   4
loop_
 _symmetry_equiv_pos_site_id
 _symmetry_equiv_pos_as_xyz
  1  'x, y, z'
loop_
 _atom_site_type_symbol
 _atom_site_label
 _atom_site_symmetry_multiplicity
 _atom_site_fract_x
 _atom_site_fract_y
 _atom_site_fract_z
 _atom_site_occupancy
  Li  Li0  1  0.18951300  0.71894000  0.82087600  1
  Li  Li1  1  0.31048700  0.21894000  0.67912400  1
  Li  Li2  1  0.68951300  0.78106000  0.32087600  1
  Li  Li3  1  0.81048700  0.28106000  0.17912400  1
  Co  Co4  1  0.24397100  0.96669000  0.38285700  1
  Co  Co5  1  0.24650100  0.53864500  0.60918300  1
  Co  Co6  1  0.25602900  0.46669000  0.11714300  1
  Co  Co7  1  0.25349900  0.03864500  0.89081700  1
  Co  Co8  1  0.74650100  0.96135500  0.10918300  1
  Co  Co9  1  0.74397100  0.53331000  0.88285700  1
  Co  Co10  1  0.75349900  0.46135500  0.39081700  1
  Co  Co11  1  0.75602900  0.03331000  0.61714300  1
  S  S12  1  0.03593600  0.24789500  0.50655000  1
  S  S13  1  0.10253800  0.11940400  0.15072900  1
  S  S14  1  0.10921900  0.39066300  0.85569800  1
  S  S15  1  0.39078100  0.89066300  0.64430200  1
  S  S16  1  0.39746200  0.61940400  0.34927100  1
  S  S17  1  0.46406400  0.74789500  0.99345000  1
  S  S18  1  0.53593600  0.25210500  0.00655000  1
  S  S19  1  0.60253800  0.38059600  0.65072900  1
  S  S20  1  0.60921900  0.10933700  0.35569800  1
  S  S21  1  0.89078100  0.60933700  0.14430200  1
  S  S22  1  0.89746200  0.88059600  0.84927100  1
  S  S23  1  0.96406400  0.75210500  0.49345000  1
  O  O24  1  0.04246800  0.63460300  0.56072400  1
  O  O25  1  0.06258900  0.61951200  0.12234000  1
  O  O26  1  0.06643900  0.91439300  0.82442100  1
  O  O27  1  0.07162200  0.81200600  0.40376900  1
  O  O28  1  0.08756700  0.12365600  0.43103800  1
  O  O29  1  0.11843800  0.28785600  0.16991900  1
  O  O30  1  0.14102700  0.08037200  0.03602100  1
  O  O31  1  0.14421100  0.50984100  0.77050600  1
  O  O32  1  0.17482800  0.31449800  0.56450700  1
  O  O33  1  0.16893300  0.24071700  0.81447900  1
  O  O34  1  0.19615300  0.43602400  0.95793600  1
  O  O35  1  0.20434000  0.02641700  0.22684300  1
  O  O36  1  0.29566000  0.52641700  0.27315700  1
  O  O37  1  0.30384700  0.93602400  0.54206400  1
  O  O38  1  0.33106700  0.74071700  0.68552100  1
  O  O39  1  0.32517200  0.81449800  0.93549300  1
  O  O40  1  0.35897300  0.58037200  0.46397900  1
  O  O41  1  0.35578900  0.00984100  0.72949400  1
  O  O42  1  0.38156200  0.78785600  0.33008100  1
  O  O43  1  0.41243300  0.62365600  0.06896200  1
  O  O44  1  0.42837800  0.31200600  0.09623100  1
  O  O45  1  0.43741100  0.11951200  0.37766000  1
  O  O46  1  0.43356100  0.41439300  0.67557900  1
  O  O47  1  0.45753200  0.13460300  0.93927600  1
  O  O48  1  0.54246800  0.86539700  0.06072400  1
  O  O49  1  0.56643900  0.58560700  0.32442100  1
  O  O50  1  0.56258800  0.88048800  0.62234000  1
  O  O51  1  0.57162200  0.68799400  0.90376900  1
  O  O52  1  0.58756700  0.37634400  0.93103800  1
  O  O53  1  0.61843800  0.21214400  0.66991900  1
  O  O54  1  0.64421100  0.99015900  0.27050600  1
  O  O55  1  0.64102700  0.41962800  0.53602100  1
  O  O56  1  0.67482800  0.18550200  0.06450700  1
  O  O57  1  0.66893300  0.25928300  0.31447900  1
  O  O58  1  0.69615300  0.06397600  0.45793600  1
  O  O59  1  0.70434000  0.47358300  0.72684300  1
  O  O60  1  0.79566000  0.97358300  0.77315700  1
  O  O61  1  0.80384700  0.56397600  0.04206400  1
  O  O62  1  0.83106700  0.75928300  0.18552100  1
  O  O63  1  0.82517200  0.68550200  0.43549300  1
  O  O64  1  0.85578900  0.49015900  0.22949400  1
  O  O65  1  0.85897300  0.91962800  0.96397900  1
  O  O66  1  0.88156200  0.71214400  0.83008100  1
  O  O67  1  0.91243300  0.87634400  0.56896200  1
  O  O68  1  0.92837800  0.18799400  0.59623100  1
  O  O69  1  0.93356100  0.08560700  0.17557900  1
  O  O70  1  0.93741200  0.38048800  0.87766000  1
  O  O71  1  0.95753200  0.36539700  0.43927600  1
