# generated using pymatgen
data_LiVF5
_symmetry_space_group_name_H-M   'P 1'
_cell_length_a   9.80169000
_cell_length_b   5.20107100
_cell_length_c   7.63994933
_cell_angle_alpha   70.08868613
_cell_angle_beta   90.00000000
_cell_angle_gamma   90.00000000
_symmetry_Int_Tables_number   1
_chemical_formula_structural   LiVF5
_chemical_formula_sum   'Li4 V4 F20'
_cell_volume   366.19644357
_cell_formula_units_Z   4
loop_
 _symmetry_equiv_pos_site_id
 _symmetry_equiv_pos_as_xyz
  1  'x, y, z'
loop_
 _atom_site_type_symbol
 _atom_site_label
 _atom_site_symmetry_multiplicity
 _atom_site_fract_x
 _atom_site_fract_y
 _atom_site_fract_z
 _atom_site_occupancy
  Li  Li0  1  0.48157900  0.52118800  0.72591300  1
  Li  Li1  1  0.98157900  0.47881200  0.77408700  1
  Li  Li2  1  0.01842100  0.52118800  0.22591300  1
  Li  Li3  1  0.51842100  0.47881200  0.27408700  1
  V  V4  1  0.74596100  0.07279900  0.10849900  1
  V  V5  1  0.24596100  0.92720100  0.39150100  1
  V  V6  1  0.75403900  0.07279900  0.60849900  1
  V  V7  1  0.25403900  0.92720100  0.89150100  1
  F  F8  1  0.63547600  0.78924200  0.65780400  1
  F  F9  1  0.62632400  0.35396200  0.08246100  1
  F  F10  1  0.88738900  0.32458400  0.01249700  1
  F  F11  1  0.10029700  0.16796500  0.30429400  1
  F  F12  1  0.78903000  0.08060600  0.35837700  1
  F  F13  1  0.87367600  0.35396200  0.58246100  1
  F  F14  1  0.13547600  0.21075800  0.84219600  1
  F  F15  1  0.61261100  0.32458400  0.51249700  1
  F  F16  1  0.39970300  0.16796500  0.80429400  1
  F  F17  1  0.71097000  0.08060600  0.85837700  1
  F  F18  1  0.28903000  0.91939400  0.14162300  1
  F  F19  1  0.60029700  0.83203500  0.19570600  1
  F  F20  1  0.38738900  0.67541600  0.48750300  1
  F  F21  1  0.86452400  0.78924200  0.15780400  1
  F  F22  1  0.12632400  0.64603800  0.41753900  1
  F  F23  1  0.21097000  0.91939400  0.64162300  1
  F  F24  1  0.89970300  0.83203500  0.69570600  1
  F  F25  1  0.11261100  0.67541600  0.98750300  1
  F  F26  1  0.37367600  0.64603800  0.91753900  1
  F  F27  1  0.36452400  0.21075800  0.34219600  1
