# generated using pymatgen
data_Li2CrO3
_symmetry_space_group_name_H-M   'P 1'
_cell_length_a   5.12174615
_cell_length_b   5.12174615
_cell_length_c   2.96378600
_cell_angle_alpha   90.00000000
_cell_angle_beta   90.00000000
_cell_angle_gamma   134.75935795
_symmetry_Int_Tables_number   1
_chemical_formula_structural   Li2CrO3
_chemical_formula_sum   'Li2 Cr1 O3'
_cell_volume   55.20575325
_cell_formula_units_Z   1
loop_
 _symmetry_equiv_pos_site_id
 _symmetry_equiv_pos_as_xyz
  1  'x, y, z'
loop_
 _atom_site_type_symbol
 _atom_site_label
 _atom_site_symmetry_multiplicity
 _atom_site_fract_x
 _atom_site_fract_y
 _atom_site_fract_z
 _atom_site_occupancy
  Li  Li0  1  0.65400200  0.34599800  0.50000000  1
  Li  Li1  1  0.34599800  0.65400200  0.50000000  1
  Cr  Cr2  1  0.00000000  0.00000000  0.00000000  1
  O  O3  1  0.13517100  0.86482900  0.50000000  1
  O  O4  1  0.86482900  0.13517100  0.50000000  1
  O  O5  1  0.50000000  0.50000000  0.00000000  1
