# generated using pymatgen
data_LiAgF4
_symmetry_space_group_name_H-M   'P 1'
_cell_length_a   5.24555100
_cell_length_b   5.82933800
_cell_length_c   6.31235347
_cell_angle_alpha   60.42036107
_cell_angle_beta   90.00000000
_cell_angle_gamma   90.00000000
_symmetry_Int_Tables_number   1
_chemical_formula_structural   LiAgF4
_chemical_formula_sum   'Li2 Ag2 F8'
_cell_volume   167.86353036
_cell_formula_units_Z   2
loop_
 _symmetry_equiv_pos_site_id
 _symmetry_equiv_pos_as_xyz
  1  'x, y, z'
loop_
 _atom_site_type_symbol
 _atom_site_label
 _atom_site_symmetry_multiplicity
 _atom_site_fract_x
 _atom_site_fract_y
 _atom_site_fract_z
 _atom_site_occupancy
  Li  Li0  1  0.50000000  0.50000000  0.00000000  1
  Li  Li1  1  0.00000000  0.50000000  0.50000000  1
  Ag  Ag2  1  0.50000000  0.00000000  0.50000000  1
  Ag  Ag3  1  0.00000000  0.00000000  0.00000000  1
  F  F4  1  0.69035100  0.66297700  0.63890100  1
  F  F5  1  0.19035100  0.33702300  0.86109900  1
  F  F6  1  0.67163300  0.16292400  0.17972300  1
  F  F7  1  0.17163300  0.83707600  0.32027700  1
  F  F8  1  0.82836700  0.16292400  0.67972300  1
  F  F9  1  0.32836700  0.83707600  0.82027700  1
  F  F10  1  0.80964900  0.66297700  0.13890100  1
  F  F11  1  0.30964900  0.33702300  0.36109900  1
