# generated using pymatgen
data_Li4V3Sb5O16
_symmetry_space_group_name_H-M   'P 1'
_cell_length_a   6.21614380
_cell_length_b   6.50962565
_cell_length_c   10.38593859
_cell_angle_alpha   88.65024955
_cell_angle_beta   89.95676535
_cell_angle_gamma   120.88356999
_symmetry_Int_Tables_number   1
_chemical_formula_structural   Li4V3Sb5O16
_chemical_formula_sum   'Li4 V3 Sb5 O16'
_cell_volume   360.53569374
_cell_formula_units_Z   1
loop_
 _symmetry_equiv_pos_site_id
 _symmetry_equiv_pos_as_xyz
  1  'x, y, z'
loop_
 _atom_site_type_symbol
 _atom_site_label
 _atom_site_symmetry_multiplicity
 _atom_site_fract_x
 _atom_site_fract_y
 _atom_site_fract_z
 _atom_site_occupancy
  Li  Li0  1  0.32558100  0.66146800  0.87815200  1
  Li  Li1  1  0.98386400  0.98321900  0.99304600  1
  Li  Li2  1  0.99983600  0.99146600  0.50060000  1
  Li  Li3  1  0.66120900  0.34816700  0.40351700  1
  V  V4  1  0.66736200  0.83958200  0.22140000  1
  V  V5  1  0.83679000  0.66326400  0.71810500  1
  V  V6  1  0.83894800  0.17993800  0.71265200  1
  Sb  Sb7  1  0.16029900  0.82902900  0.21586100  1
  Sb  Sb8  1  0.36499400  0.67507300  0.50640700  1
  Sb  Sb9  1  0.17975900  0.35361600  0.21677700  1
  Sb  Sb10  1  0.33588800  0.17452400  0.71653300  1
  Sb  Sb11  1  0.66463800  0.29573500  0.99302300  1
  O  O12  1  0.16267800  0.87272200  0.61781300  1
  O  O13  1  0.00397400  0.50614700  0.31425400  1
  O  O14  1  0.32720600  0.68520800  0.10957500  1
  O  O15  1  0.00253500  0.97291800  0.32328300  1
  O  O16  1  0.00292300  0.00971600  0.81393300  1
  O  O17  1  0.16405500  0.30259500  0.59947700  1
  O  O18  1  0.47779200  0.97134400  0.32148700  1
  O  O19  1  0.50995500  0.56191000  0.35805600  1
  O  O20  1  0.31145500  0.09754000  0.08032400  1
  O  O21  1  0.69378100  0.85030400  0.60937100  1
  O  O22  1  0.50456000  0.47779000  0.81722700  1
  O  O23  1  0.51893900  0.04474300  0.83291400  1
  O  O24  1  0.65850800  0.33107500  0.60955100  1
  O  O25  1  0.83858700  0.70915200  0.11954700  1
  O  O26  1  0.97698700  0.48136200  0.80911200  1
  O  O27  1  0.82689500  0.13069600  0.09584200  1
