# generated using pymatgen
data_Li2MnF4
_symmetry_space_group_name_H-M   'P 1'
_cell_length_a   8.10741255
_cell_length_b   8.10741255
_cell_length_c   8.10741255
_cell_angle_alpha   136.10333983
_cell_angle_beta   115.58322597
_cell_angle_gamma   81.23319681
_symmetry_Int_Tables_number   1
_chemical_formula_structural   Li2MnF4
_chemical_formula_sum   'Li8 Mn4 F16'
_cell_volume   322.35026982
_cell_formula_units_Z   4
loop_
 _symmetry_equiv_pos_site_id
 _symmetry_equiv_pos_as_xyz
  1  'x, y, z'
loop_
 _atom_site_type_symbol
 _atom_site_label
 _atom_site_symmetry_multiplicity
 _atom_site_fract_x
 _atom_site_fract_y
 _atom_site_fract_z
 _atom_site_occupancy
  Li  Li0  1  0.50000000  0.50000000  0.00000000  1
  Li  Li1  1  0.11276600  0.61276600  0.00000000  1
  Li  Li2  1  0.88723400  0.88723400  0.50000000  1
  Li  Li3  1  0.00000000  0.00000000  0.00000000  1
  Li  Li4  1  0.24529000  0.25000000  0.99529000  1
  Li  Li5  1  0.75471000  0.75000000  0.00471000  1
  Li  Li6  1  0.11276600  0.11276600  0.50000000  1
  Li  Li7  1  0.88723400  0.38723400  0.00000000  1
  Mn  Mn8  1  0.23392900  0.61216100  0.62176800  1
  Mn  Mn9  1  0.50960600  0.88783900  0.62176800  1
  Mn  Mn10  1  0.49039400  0.11216100  0.37823200  1
  Mn  Mn11  1  0.76607100  0.38783900  0.37823200  1
  F  F12  1  0.36601600  0.60433800  0.21819600  1
  F  F13  1  0.24470500  0.48294300  0.76176100  1
  F  F14  1  0.50762900  0.75000000  0.75762900  1
  F  F15  1  0.88614300  0.64782000  0.78180400  1
  F  F16  1  0.11385700  0.89566200  0.76167700  1
  F  F17  1  0.36601600  0.14782000  0.76167700  1
  F  F18  1  0.77881800  0.01705700  0.76176100  1
  F  F19  1  0.98704900  0.75000000  0.23704900  1
  F  F20  1  0.01295100  0.25000000  0.76295100  1
  F  F21  1  0.22118200  0.98294300  0.23823900  1
  F  F22  1  0.63398400  0.85218000  0.23832300  1
  F  F23  1  0.88614300  0.10433800  0.23832300  1
  F  F24  1  0.11385700  0.35218000  0.21819600  1
  F  F25  1  0.75529500  0.51705700  0.23823900  1
  F  F26  1  0.49237100  0.25000000  0.24237100  1
  F  F27  1  0.63398400  0.39566200  0.78180400  1
