# generated using pymatgen
data_Li7W5O16
_symmetry_space_group_name_H-M   'P 1'
_cell_length_a   6.05342976
_cell_length_b   6.09647452
_cell_length_c   9.92142448
_cell_angle_alpha   89.80663579
_cell_angle_beta   90.16178565
_cell_angle_gamma   120.33276523
_symmetry_Int_Tables_number   1
_chemical_formula_structural   Li7W5O16
_chemical_formula_sum   'Li7 W5 O16'
_cell_volume   316.02107510
_cell_formula_units_Z   1
loop_
 _symmetry_equiv_pos_site_id
 _symmetry_equiv_pos_as_xyz
  1  'x, y, z'
loop_
 _atom_site_type_symbol
 _atom_site_label
 _atom_site_symmetry_multiplicity
 _atom_site_fract_x
 _atom_site_fract_y
 _atom_site_fract_z
 _atom_site_occupancy
  Li  Li0  1  0.16671800  0.82573900  0.21273600  1
  Li  Li1  1  0.34717000  0.67753000  0.91275700  1
  Li  Li2  1  0.00850200  0.00136200  0.99738900  1
  Li  Li3  1  0.03316500  0.01994300  0.47910300  1
  Li  Li4  1  0.16764900  0.34018700  0.21192100  1
  Li  Li5  1  0.32831300  0.16716600  0.71499900  1
  Li  Li6  1  0.66164000  0.32967900  0.40059300  1
  W  W7  1  0.30376800  0.64429600  0.47513700  1
  W  W8  1  0.65320400  0.82577000  0.22179700  1
  W  W9  1  0.66160900  0.32752700  0.99392000  1
  W  W10  1  0.82525700  0.66127700  0.71205800  1
  W  W11  1  0.82857300  0.17443100  0.71210600  1
  O  O12  1  0.13417100  0.79731300  0.60147300  1
  O  O13  1  0.03363600  0.51990500  0.35910200  1
  O  O14  1  0.36356400  0.68240600  0.10907800  1
  O  O15  1  0.98990400  0.99334200  0.29229200  1
  O  O16  1  0.99314400  0.99746700  0.81092700  1
  O  O17  1  0.14831500  0.32531400  0.59133000  1
  O  O18  1  0.50250700  0.96472700  0.35516100  1
  O  O19  1  0.49803900  0.53046200  0.35304000  1
  O  O20  1  0.35007800  0.17823900  0.07184500  1
  O  O21  1  0.65439400  0.81820800  0.59914600  1
  O  O22  1  0.54745500  0.50027000  0.84357400  1
  O  O23  1  0.54201400  0.05318200  0.85125400  1
  O  O24  1  0.65884200  0.33344800  0.60341500  1
  O  O25  1  0.81139000  0.64732000  0.08558500  1
  O  O26  1  0.97166500  0.49555800  0.84734000  1
  O  O27  1  0.81531400  0.16823200  0.08875900  1
