# generated using pymatgen
data_Li3V3P8O29
_symmetry_space_group_name_H-M   'P 1'
_cell_length_a   9.78509559
_cell_length_b   9.78509559
_cell_length_c   14.04408014
_cell_angle_alpha   89.94033582
_cell_angle_beta   89.94033582
_cell_angle_gamma   59.85820235
_symmetry_Int_Tables_number   1
_chemical_formula_structural   Li3V3P8O29
_chemical_formula_sum   'Li6 V6 P16 O58'
_cell_volume   1162.87075164
_cell_formula_units_Z   2
loop_
 _symmetry_equiv_pos_site_id
 _symmetry_equiv_pos_as_xyz
  1  'x, y, z'
loop_
 _atom_site_type_symbol
 _atom_site_label
 _atom_site_symmetry_multiplicity
 _atom_site_fract_x
 _atom_site_fract_y
 _atom_site_fract_z
 _atom_site_occupancy
  Li  Li0  1  0.22490100  0.68893800  0.05847800  1
  Li  Li1  1  0.31065400  0.77832800  0.44438700  1
  Li  Li2  1  0.68893800  0.22490100  0.55847800  1
  Li  Li3  1  0.77832800  0.31065400  0.94438700  1
  Li  Li4  1  0.77343600  0.90602900  0.44194100  1
  Li  Li5  1  0.90602900  0.77343600  0.94194100  1
  V  V6  1  0.00200200  0.56224800  0.74336000  1
  V  V7  1  0.42924200  0.00082000  0.75359500  1
  V  V8  1  0.43570500  0.56584100  0.25051700  1
  V  V9  1  0.56584100  0.43570500  0.75051700  1
  V  V10  1  0.56224800  0.00200200  0.24336000  1
  V  V11  1  0.00082000  0.42924200  0.25359500  1
  P  P12  1  0.08363300  0.23141900  0.84169000  1
  P  P13  1  0.23141900  0.08363300  0.34169000  1
  P  P14  1  0.08634400  0.68350100  0.34244100  1
  P  P15  1  0.33786800  0.32897100  0.62929100  1
  P  P16  1  0.32897100  0.33786800  0.12929100  1
  P  P17  1  0.22702300  0.68135100  0.84120400  1
  P  P18  1  0.31668800  0.77254500  0.65953800  1
  P  P19  1  0.68350100  0.08634400  0.84244100  1
  P  P20  1  0.31181700  0.91568200  0.15483600  1
  P  P21  1  0.68135100  0.22702300  0.34120400  1
  P  P22  1  0.77254500  0.31668800  0.15953800  1
  P  P23  1  0.66920400  0.66612300  0.87038300  1
  P  P24  1  0.66612300  0.66920400  0.37038300  1
  P  P25  1  0.91568200  0.31181700  0.65483600  1
  P  P26  1  0.76634600  0.91352300  0.65887400  1
  P  P27  1  0.91352300  0.76634600  0.15887400  1
  O  O28  1  0.99909200  0.23824300  0.56560800  1
  O  O29  1  0.08855100  0.25404200  0.33566000  1
  O  O30  1  0.20881000  0.99874000  0.24903000  1
  O  O31  1  0.23824300  0.99909200  0.06560800  1
  O  O32  1  0.09240200  0.38391200  0.82136700  1
  O  O33  1  0.25404200  0.08855100  0.83566000  1
  O  O34  1  0.18426600  0.33705800  0.17573300  1
  O  O35  1  0.09511200  0.52265300  0.32526400  1
  O  O36  1  0.99829800  0.75679900  0.06797500  1
  O  O37  1  0.08023800  0.66059500  0.83674200  1
  O  O38  1  0.33705800  0.18426600  0.67573300  1
  O  O39  1  0.18702700  0.47922400  0.67297300  1
  O  O40  1  0.38391200  0.09240200  0.32136700  1
  O  O41  1  0.34360700  0.32915200  0.52391500  1
  O  O42  1  0.32915200  0.34360700  0.02391500  1
  O  O43  1  0.52265300  0.09511200  0.82526400  1
  O  O44  1  0.32977300  0.48956100  0.17143700  1
  O  O45  1  0.47922400  0.18702700  0.17297300  1
  O  O46  1  0.25595700  0.66076200  0.34082500  1
  O  O47  1  0.20714500  0.79030400  0.75008500  1
  O  O48  1  0.24108800  0.74914400  0.93236000  1
  O  O49  1  0.24951500  0.75737000  0.56865600  1
  O  O50  1  0.38051800  0.51963300  0.81954300  1
  O  O51  1  0.48956100  0.32977300  0.67143700  1
  O  O52  1  0.66059500  0.08023800  0.33674200  1
  O  O53  1  0.33753000  0.74406100  0.16246300  1
  O  O54  1  0.51963300  0.38051800  0.31954300  1
  O  O55  1  0.24253100  0.99371900  0.42876400  1
  O  O56  1  0.75679900  0.99829800  0.56797500  1
  O  O57  1  0.47901700  0.61794400  0.68047900  1
  O  O58  1  0.66076200  0.25595700  0.84082500  1
  O  O59  1  0.78680800  0.00793900  0.74605900  1
  O  O60  1  0.34161600  0.91552900  0.66791500  1
  O  O61  1  0.51314900  0.67025000  0.32835100  1
  O  O62  1  0.61794400  0.47901700  0.18047900  1
  O  O63  1  0.75737000  0.24951500  0.06865600  1
  O  O64  1  0.74914400  0.24108800  0.43236000  1
  O  O65  1  0.79030400  0.20714500  0.25008500  1
  O  O66  1  0.74406100  0.33753000  0.66246300  1
  O  O67  1  0.52067800  0.81392700  0.82574600  1
  O  O68  1  0.47643800  0.90407300  0.17619800  1
  O  O69  1  0.67025000  0.51314900  0.82835100  1
  O  O70  1  0.66128300  0.66901200  0.47620900  1
  O  O71  1  0.66901200  0.66128300  0.97620900  1
  O  O72  1  0.61516400  0.90584300  0.67755200  1
  O  O73  1  0.81392700  0.52067800  0.32574600  1
  O  O74  1  0.66792500  0.81787900  0.32952500  1
  O  O75  1  0.91552900  0.34161600  0.16791500  1
  O  O76  1  0.99874000  0.20881000  0.74903000  1
  O  O77  1  0.99371900  0.24253100  0.92876400  1
  O  O78  1  0.90407300  0.47643800  0.67619800  1
  O  O79  1  0.81787900  0.66792500  0.82952500  1
  O  O80  1  0.74528700  0.91134800  0.16527300  1
  O  O81  1  0.90584300  0.61516400  0.17755200  1
  O  O82  1  0.76999000  0.99235700  0.92708600  1
  O  O83  1  0.91134800  0.74528700  0.66527300  1
  O  O84  1  0.99235700  0.76999000  0.42708600  1
  O  O85  1  0.00793900  0.78680800  0.24605900  1
