# generated using pymatgen
data_Li2V2Sn(PO4)3
_symmetry_space_group_name_H-M   'P 1'
_cell_length_a   8.86963872
_cell_length_b   8.86963872
_cell_length_c   9.17476083
_cell_angle_alpha   61.91193128
_cell_angle_beta   61.91193128
_cell_angle_gamma   60.02755043
_symmetry_Int_Tables_number   1
_chemical_formula_structural   Li2V2Sn(PO4)3
_chemical_formula_sum   'Li4 V4 Sn2 P6 O24'
_cell_volume   524.74785543
_cell_formula_units_Z   2
loop_
 _symmetry_equiv_pos_site_id
 _symmetry_equiv_pos_as_xyz
  1  'x, y, z'
loop_
 _atom_site_type_symbol
 _atom_site_label
 _atom_site_symmetry_multiplicity
 _atom_site_fract_x
 _atom_site_fract_y
 _atom_site_fract_z
 _atom_site_occupancy
  Li  Li0  1  0.64241100  0.35758900  0.00000000  1
  Li  Li1  1  0.34262100  0.65737900  0.50000000  1
  Li  Li2  1  0.15965100  0.24950000  0.50243300  1
  Li  Li3  1  0.75050000  0.84034900  0.49756700  1
  V  V4  1  0.84711900  0.34638700  0.20458000  1
  V  V5  1  0.65361300  0.15288100  0.79542000  1
  V  V6  1  0.34567500  0.85125300  0.69917200  1
  V  V7  1  0.14874700  0.65432500  0.30082800  1
  Sn  Sn8  1  0.00075500  0.48867800  0.79652300  1
  Sn  Sn9  1  0.51132200  0.99924500  0.20347700  1
  P  P10  1  0.53912100  0.74959000  0.00059700  1
  P  P11  1  0.25041000  0.46087900  0.99940300  1
  P  P12  1  0.95771200  0.04228800  0.00000000  1
  P  P13  1  0.03821100  0.96178900  0.50000000  1
  P  P14  1  0.74783100  0.53648000  0.51005000  1
  P  P15  1  0.46352000  0.25216900  0.48995000  1
  O  O16  1  0.49891400  0.23754600  0.64485100  1
  O  O17  1  0.87711800  0.98488300  0.66454800  1
  O  O18  1  0.71926500  0.57055600  0.01070000  1
  O  O19  1  0.72751200  0.38037900  0.68396500  1
  O  O20  1  0.38606400  0.72153300  0.17155100  1
  O  O21  1  0.57754700  0.91520700  0.98009300  1
  O  O22  1  0.08479300  0.42245300  0.01990700  1
  O  O23  1  0.42944400  0.28073500  0.98930000  1
  O  O24  1  0.01511800  0.12288200  0.33545200  1
  O  O25  1  0.76625300  0.07669000  0.99391400  1
  O  O26  1  0.07078400  0.77959500  0.48256600  1
  O  O27  1  0.76245400  0.50108600  0.35514900  1
  O  O28  1  0.21875500  0.49090000  0.16350800  1
  O  O29  1  0.92331000  0.23374700  0.00608600  1
  O  O30  1  0.22040500  0.92921600  0.51743400  1
  O  O31  1  0.98258300  0.88957700  0.16863300  1
  O  O32  1  0.57910800  0.71932600  0.52427100  1
  O  O33  1  0.91537000  0.57530200  0.47875700  1
  O  O34  1  0.42469800  0.08463000  0.52124300  1
  O  O35  1  0.61962100  0.27248800  0.31603500  1
  O  O36  1  0.27846700  0.61393600  0.82844900  1
  O  O37  1  0.28067400  0.42089200  0.47572900  1
  O  O38  1  0.11042300  0.01741700  0.83136700  1
  O  O39  1  0.50910000  0.78124500  0.83649200  1
