# generated using pymatgen
data_Li2MnFe(BO3)2
_symmetry_space_group_name_H-M   'P 1'
_cell_length_a   5.23562600
_cell_length_b   5.23824851
_cell_length_c   20.84927896
_cell_angle_alpha   92.06594364
_cell_angle_beta   89.12476946
_cell_angle_gamma   119.92453552
_symmetry_Int_Tables_number   1
_chemical_formula_structural   Li2MnFe(BO3)2
_chemical_formula_sum   'Li8 Mn4 Fe4 B8 O24'
_cell_volume   495.24674091
_cell_formula_units_Z   4
loop_
 _symmetry_equiv_pos_site_id
 _symmetry_equiv_pos_as_xyz
  1  'x, y, z'
loop_
 _atom_site_type_symbol
 _atom_site_label
 _atom_site_symmetry_multiplicity
 _atom_site_fract_x
 _atom_site_fract_y
 _atom_site_fract_z
 _atom_site_occupancy
  Li  Li0  1  0.01382200  0.67400400  0.33413300  1
  Li  Li1  1  0.97661700  0.65244700  0.08443500  1
  Li  Li2  1  0.02512400  0.68058200  0.83216400  1
  Li  Li3  1  0.97808500  0.64816700  0.58447300  1
  Li  Li4  1  0.02046400  0.34786100  0.20770100  1
  Li  Li5  1  0.98853700  0.33498800  0.45811900  1
  Li  Li6  1  0.01450200  0.36287700  0.70801900  1
  Li  Li7  1  0.98872700  0.33603600  0.95886000  1
  Mn  Mn8  1  0.66095400  0.66906700  0.44172700  1
  Mn  Mn9  1  0.66456400  0.66808100  0.94152400  1
  Mn  Mn10  1  0.32335300  0.32143000  0.06865900  1
  Mn  Mn11  1  0.67599000  0.00475900  0.81573400  1
  Fe  Fe12  1  0.31651100  0.31380400  0.56550800  1
  Fe  Fe13  1  0.67904100  0.00658700  0.31640600  1
  Fe  Fe14  1  0.33428200  0.99595700  0.19293300  1
  Fe  Fe15  1  0.34371000  0.01638000  0.68990800  1
  B  B16  1  0.65758900  0.99539700  0.06467800  1
  B  B17  1  0.65999900  0.99135400  0.56394300  1
  B  B18  1  0.67188400  0.67068700  0.18991500  1
  B  B19  1  0.66308500  0.67464500  0.68611300  1
  B  B20  1  0.33246800  0.33471200  0.31223700  1
  B  B21  1  0.34107500  0.34155600  0.81122900  1
  B  B22  1  0.33523300  0.00238000  0.43770100  1
  B  B23  1  0.33695900  0.00307200  0.93801400  1
  O  O24  1  0.68777800  0.93666600  0.20860400  1
  O  O25  1  0.67759000  0.93947400  0.70658700  1
  O  O26  1  0.67859600  0.74428100  0.04879400  1
  O  O27  1  0.38977800  0.96479600  0.08559200  1
  O  O28  1  0.67436400  0.73647800  0.54887500  1
  O  O29  1  0.39488200  0.97320700  0.58247300  1
  O  O30  1  0.40024200  0.41986600  0.17588900  1
  O  O31  1  0.08512100  0.72757500  0.43050300  1
  O  O32  1  0.38809800  0.42465000  0.67204100  1
  O  O33  1  0.08795200  0.72829300  0.93026900  1
  O  O34  1  0.92598100  0.65185000  0.18251700  1
  O  O35  1  0.91857600  0.66136400  0.67938500  1
  O  O36  1  0.08103300  0.35898900  0.30592300  1
  O  O37  1  0.09510800  0.37214900  0.80462500  1
  O  O38  1  0.90315800  0.27146800  0.05746200  1
  O  O39  1  0.59692100  0.58103000  0.33162600  1
  O  O40  1  0.91220200  0.26565800  0.55765000  1
  O  O41  1  0.60985300  0.57927100  0.83235100  1
  O  O42  1  0.61200100  0.03648900  0.42211700  1
  O  O43  1  0.61381400  0.03734000  0.92218900  1
  O  O44  1  0.31407700  0.24569500  0.45942300  1
  O  O45  1  0.31498600  0.24572200  0.96015900  1
  O  O46  1  0.31669800  0.06329900  0.29873400  1
  O  O47  1  0.31862000  0.06876000  0.79587800  1
