# generated using pymatgen
data_Li2MnF4
_symmetry_space_group_name_H-M   'P 1'
_cell_length_a   6.12999200
_cell_length_b   6.12999200
_cell_length_c   8.62473400
_cell_angle_alpha   90.00000000
_cell_angle_beta   90.00000000
_cell_angle_gamma   90.00000000
_symmetry_Int_Tables_number   1
_chemical_formula_structural   Li2MnF4
_chemical_formula_sum   'Li8 Mn4 F16'
_cell_volume   324.08992113
_cell_formula_units_Z   4
loop_
 _symmetry_equiv_pos_site_id
 _symmetry_equiv_pos_as_xyz
  1  'x, y, z'
loop_
 _atom_site_type_symbol
 _atom_site_label
 _atom_site_symmetry_multiplicity
 _atom_site_fract_x
 _atom_site_fract_y
 _atom_site_fract_z
 _atom_site_occupancy
  Li  Li0  1  0.00000000  0.21637000  0.00000000  1
  Li  Li1  1  0.00000000  0.78363000  0.50000000  1
  Li  Li2  1  0.24750100  0.24750100  0.62500000  1
  Li  Li3  1  0.24750100  0.75249900  0.87500000  1
  Li  Li4  1  0.21637000  0.00000000  0.25000000  1
  Li  Li5  1  0.78363000  0.00000000  0.75000000  1
  Li  Li6  1  0.75249900  0.24750100  0.37500000  1
  Li  Li7  1  0.75249900  0.75249900  0.12500000  1
  Mn  Mn8  1  0.22768900  0.50000000  0.25000000  1
  Mn  Mn9  1  0.50000000  0.22768900  0.00000000  1
  Mn  Mn10  1  0.50000000  0.77231100  0.50000000  1
  Mn  Mn11  1  0.77231100  0.50000000  0.75000000  1
  F  F12  1  0.00304900  0.24291500  0.23779200  1
  F  F13  1  0.00304900  0.75708500  0.26220800  1
  F  F14  1  0.24291500  0.00304900  0.01220800  1
  F  F15  1  0.24291500  0.99695100  0.48779200  1
  F  F16  1  0.24857800  0.51972600  0.49834500  1
  F  F17  1  0.24857800  0.48027400  0.00165500  1
  F  F18  1  0.51972600  0.24857800  0.75165500  1
  F  F19  1  0.51972600  0.75142200  0.74834500  1
  F  F20  1  0.48027400  0.24857800  0.24834500  1
  F  F21  1  0.48027400  0.75142200  0.25165500  1
  F  F22  1  0.75142200  0.51972600  0.50165500  1
  F  F23  1  0.75142200  0.48027400  0.99834500  1
  F  F24  1  0.75708500  0.99695100  0.51220800  1
  F  F25  1  0.75708500  0.00304900  0.98779200  1
  F  F26  1  0.99695100  0.24291500  0.76220800  1
  F  F27  1  0.99695100  0.75708500  0.73779200  1
