# generated using pymatgen
data_Li4V3P8O29
_symmetry_space_group_name_H-M   'P 1'
_cell_length_a   9.76686800
_cell_length_b   9.77722804
_cell_length_c   14.31263798
_cell_angle_alpha   89.32346706
_cell_angle_beta   89.57932816
_cell_angle_gamma   60.32786132
_symmetry_Int_Tables_number   1
_chemical_formula_structural   Li4V3P8O29
_chemical_formula_sum   'Li8 V6 P16 O58'
_cell_volume   1187.45128156
_cell_formula_units_Z   2
loop_
 _symmetry_equiv_pos_site_id
 _symmetry_equiv_pos_as_xyz
  1  'x, y, z'
loop_
 _atom_site_type_symbol
 _atom_site_label
 _atom_site_symmetry_multiplicity
 _atom_site_fract_x
 _atom_site_fract_y
 _atom_site_fract_z
 _atom_site_occupancy
  Li  Li0  1  0.90835600  0.77856400  0.45156000  1
  Li  Li1  1  0.31287700  0.91689000  0.43800800  1
  Li  Li2  1  0.33614100  0.76414100  0.94545600  1
  Li  Li3  1  0.90530500  0.33006900  0.93709100  1
  Li  Li4  1  0.22366900  0.69178600  0.56038200  1
  Li  Li5  1  0.77220400  0.31137500  0.44116700  1
  Li  Li6  1  0.09416700  0.67331900  0.05681700  1
  Li  Li7  1  0.94490100  0.02820400  0.99399000  1
  V  V8  1  0.43988100  0.56287700  0.75148100  1
  V  V9  1  0.56564100  0.42791100  0.24846000  1
  V  V10  1  0.99766000  0.56541700  0.24942700  1
  V  V11  1  0.00101300  0.43160600  0.75133500  1
  V  V12  1  0.56774400  0.99732200  0.75228600  1
  V  V13  1  0.43506200  0.00273900  0.24543000  1
  P  P14  1  0.77926700  0.91807100  0.15647300  1
  P  P15  1  0.91176200  0.77141500  0.66532400  1
  P  P16  1  0.31828800  0.91232700  0.65560500  1
  P  P17  1  0.66436200  0.66663800  0.86949800  1
  P  P18  1  0.66442800  0.66403500  0.36704400  1
  P  P19  1  0.31686100  0.77076600  0.16250800  1
  P  P20  1  0.22969300  0.67785400  0.34219700  1
  P  P21  1  0.91305000  0.31309300  0.15598600  1
  P  P22  1  0.09065100  0.68320100  0.84359700  1
  P  P23  1  0.77213800  0.31926600  0.65608600  1
  P  P24  1  0.69402500  0.21911200  0.83541800  1
  P  P25  1  0.33469000  0.33314400  0.63550100  1
  P  P26  1  0.32753200  0.34137300  0.13166600  1
  P  P27  1  0.68813600  0.08146800  0.33953800  1
  P  P28  1  0.08708000  0.22498200  0.33587100  1
  P  P29  1  0.22317100  0.07970000  0.83709500  1
  O  O30  1  0.77125200  0.99266700  0.42463800  1
  O  O31  1  0.74510100  0.91729800  0.66953100  1
  O  O32  1  0.01860400  0.77005500  0.93199800  1
  O  O33  1  0.91956200  0.74229800  0.16702200  1
  O  O34  1  0.62200200  0.92057300  0.16585700  1
  O  O35  1  0.67092100  0.81032000  0.82348300  1
  O  O36  1  0.47718600  0.90524000  0.67750800  1
  O  O37  1  0.21215500  0.98592600  0.91702000  1
  O  O38  1  0.34529900  0.91128200  0.16725900  1
  O  O39  1  0.81518200  0.66273300  0.32052000  1
  O  O40  1  0.90048700  0.62219100  0.68202500  1
  O  O41  1  0.51641900  0.81304500  0.32917800  1
  O  O42  1  0.64200600  0.67491600  0.97284500  1
  O  O43  1  0.68111400  0.65676600  0.47042600  1
  O  O44  1  0.51013600  0.67490800  0.82495100  1
  O  O45  1  0.91333600  0.47048600  0.17135100  1
  O  O46  1  0.81137500  0.51201300  0.83664100  1
  O  O47  1  0.33824700  0.74318200  0.66463600  1
  O  O48  1  0.20764700  0.78868100  0.25230000  1
  O  O49  1  0.24074500  0.75560400  0.42959000  1
  O  O50  1  0.23511600  0.76824700  0.07468300  1
  O  O51  1  0.47472500  0.61546500  0.17758800  1
  O  O52  1  0.66308200  0.51441400  0.32790400  1
  O  O53  1  0.26376600  0.65310000  0.83697200  1
  O  O54  1  0.62057400  0.47968200  0.68080200  1
  O  O55  1  0.91583700  0.34123200  0.66892700  1
  O  O56  1  0.00505900  0.79161700  0.75231700  1
  O  O57  1  0.99826900  0.76303000  0.57621100  1
  O  O58  1  0.98903900  0.23673700  0.41762400  1
  O  O59  1  0.08030400  0.66003100  0.34264000  1
  O  O60  1  0.37990500  0.51944700  0.32363100  1
  O  O61  1  0.74281500  0.34235000  0.17238500  1
  O  O62  1  0.33925100  0.48221600  0.67867600  1
  O  O63  1  0.53847100  0.38012100  0.82825100  1
  O  O64  1  0.79726200  0.20810000  0.91486200  1
  O  O65  1  0.75721700  0.25880400  0.56513100  1
  O  O66  1  0.78648400  0.19941200  0.73880800  1
  O  O67  1  0.65991400  0.25365700  0.33817200  1
  O  O68  1  0.18247600  0.49546300  0.17610500  1
  O  O69  1  0.08690500  0.52990500  0.83110400  1
  O  O70  1  0.47979400  0.33582300  0.17732000  1
  O  O71  1  0.32021700  0.36657700  0.02908700  1
  O  O72  1  0.33659100  0.34403800  0.53213400  1
  O  O73  1  0.47865900  0.18305100  0.68059900  1
  O  O74  1  0.09489100  0.37946500  0.31786200  1
  O  O75  1  0.18754900  0.33585800  0.67811600  1
  O  O76  1  0.65534500  0.08395400  0.83553900  1
  O  O77  1  0.79663000  0.00303900  0.24871900  1
  O  O78  1  0.80899500  0.98913800  0.07283300  1
  O  O79  1  0.52805400  0.08963900  0.32067100  1
  O  O80  1  0.32398400  0.19672200  0.17154000  1
  O  O81  1  0.38289100  0.07747500  0.82790700  1
  O  O82  1  0.08539500  0.25150000  0.83891200  1
  O  O83  1  0.97429500  0.23939800  0.06343300  1
  O  O84  1  0.01310300  0.19937500  0.24006900  1
  O  O85  1  0.25503200  0.08215900  0.33730300  1
  O  O86  1  0.25078600  0.98199700  0.56317700  1
  O  O87  1  0.20126800  0.01021000  0.73922300  1
