# generated using pymatgen
data_Li2Mn3NiO8
_symmetry_space_group_name_H-M   'P 1'
_cell_length_a   8.29255100
_cell_length_b   8.29255100
_cell_length_c   8.29255100
_cell_angle_alpha   90.00000000
_cell_angle_beta   90.00000000
_cell_angle_gamma   90.00000000
_symmetry_Int_Tables_number   1
_chemical_formula_structural   Li2Mn3NiO8
_chemical_formula_sum   'Li8 Mn12 Ni4 O32'
_cell_volume   570.24889640
_cell_formula_units_Z   4
loop_
 _symmetry_equiv_pos_site_id
 _symmetry_equiv_pos_as_xyz
  1  'x, y, z'
loop_
 _atom_site_type_symbol
 _atom_site_label
 _atom_site_symmetry_multiplicity
 _atom_site_fract_x
 _atom_site_fract_y
 _atom_site_fract_z
 _atom_site_occupancy
  Li  Li0  1  0.12524400  0.87475600  0.37475600  1
  Li  Li1  1  0.25270900  0.75270900  0.74729100  1
  Li  Li2  1  0.24729100  0.24729100  0.24729100  1
  Li  Li3  1  0.37475600  0.12524400  0.87475600  1
  Li  Li4  1  0.62524400  0.62524400  0.62524400  1
  Li  Li5  1  0.75270900  0.74729100  0.25270900  1
  Li  Li6  1  0.74729100  0.25270900  0.75270900  1
  Li  Li7  1  0.87475600  0.37475600  0.12524400  1
  Mn  Mn8  1  0.12802700  0.62374600  0.12456300  1
  Mn  Mn9  1  0.12374600  0.37543700  0.87197300  1
  Mn  Mn10  1  0.12456300  0.12802700  0.62374600  1
  Mn  Mn11  1  0.37543700  0.87197300  0.12374600  1
  Mn  Mn12  1  0.37625400  0.62456300  0.37197300  1
  Mn  Mn13  1  0.37197300  0.37625400  0.62456300  1
  Mn  Mn14  1  0.62802700  0.87625400  0.87543700  1
  Mn  Mn15  1  0.62374600  0.12456300  0.12802700  1
  Mn  Mn16  1  0.62456300  0.37197300  0.37625400  1
  Mn  Mn17  1  0.87543700  0.62802700  0.87625400  1
  Mn  Mn18  1  0.87625400  0.87543700  0.62802700  1
  Mn  Mn19  1  0.87197300  0.12374600  0.37543700  1
  Ni  Ni20  1  0.99814200  0.50185800  0.49814200  1
  Ni  Ni21  1  0.50185800  0.49814200  0.99814200  1
  Ni  Ni22  1  0.49814200  0.99814200  0.50185800  1
  Ni  Ni23  1  0.00185800  0.00185800  0.00185800  1
  O  O24  1  0.10671900  0.12663800  0.39781700  1
  O  O25  1  0.10218300  0.89328100  0.62663800  1
  O  O26  1  0.11382400  0.61382400  0.88617600  1
  O  O27  1  0.12663800  0.39781700  0.10671900  1
  O  O28  1  0.12539500  0.14742800  0.86335900  1
  O  O29  1  0.13999900  0.36000100  0.63999900  1
  O  O30  1  0.13664100  0.62539500  0.35257200  1
  O  O31  1  0.14742800  0.86335900  0.12539500  1
  O  O32  1  0.35257200  0.13664100  0.62539500  1
  O  O33  1  0.36335900  0.37460500  0.85257200  1
  O  O34  1  0.36000100  0.63999900  0.13999900  1
  O  O35  1  0.37460500  0.85257200  0.36335900  1
  O  O36  1  0.37336200  0.60218300  0.60671900  1
  O  O37  1  0.38617600  0.38617600  0.38617600  1
  O  O38  1  0.39781700  0.10671900  0.12663800  1
  O  O39  1  0.39328100  0.87336200  0.89781700  1
  O  O40  1  0.60671900  0.37336200  0.60218300  1
  O  O41  1  0.60218300  0.60671900  0.37336200  1
  O  O42  1  0.61382400  0.88617600  0.11382400  1
  O  O43  1  0.62663800  0.10218300  0.89328100  1
  O  O44  1  0.62539500  0.35257200  0.13664100  1
  O  O45  1  0.63999900  0.13999900  0.36000100  1
  O  O46  1  0.63664100  0.87460500  0.64742800  1
  O  O47  1  0.64742800  0.63664100  0.87460500  1
  O  O48  1  0.85257200  0.36335900  0.37460500  1
  O  O49  1  0.86335900  0.12539500  0.14742800  1
  O  O50  1  0.86000100  0.86000100  0.86000100  1
  O  O51  1  0.87460500  0.64742800  0.63664100  1
  O  O52  1  0.87336200  0.89781700  0.39328100  1
  O  O53  1  0.88617600  0.11382400  0.61382400  1
  O  O54  1  0.89781700  0.39328100  0.87336200  1
  O  O55  1  0.89328100  0.62663800  0.10218300  1
