# generated using pymatgen
data_K8Li13(FeO4)4
_symmetry_space_group_name_H-M   'P 1'
_cell_length_a   5.69835500
_cell_length_b   8.81316348
_cell_length_c   10.95492617
_cell_angle_alpha   89.91568947
_cell_angle_beta   97.64180244
_cell_angle_gamma   93.01540727
_symmetry_Int_Tables_number   1
_chemical_formula_structural   K8Li13(FeO4)4
_chemical_formula_sum   'K8 Li13 Fe4 O16'
_cell_volume   544.51267836
_cell_formula_units_Z   1
loop_
 _symmetry_equiv_pos_site_id
 _symmetry_equiv_pos_as_xyz
  1  'x, y, z'
loop_
 _atom_site_type_symbol
 _atom_site_label
 _atom_site_symmetry_multiplicity
 _atom_site_fract_x
 _atom_site_fract_y
 _atom_site_fract_z
 _atom_site_occupancy
  K  K0  1  0.10286100  0.00298000  0.85573500  1
  K  K1  1  0.14224500  0.75104900  0.39338700  1
  K  K2  1  0.42190300  0.50515600  0.65790800  1
  K  K3  1  0.33286300  0.24732300  0.14607500  1
  K  K4  1  0.62528300  0.76140800  0.88463600  1
  K  K5  1  0.61233600  0.55925800  0.30683000  1
  K  K6  1  0.85890500  0.94032900  0.18188900  1
  K  K7  1  0.87139600  0.25275500  0.64712600  1
  Li  Li8  1  0.09959700  0.74932200  0.69594700  1
  Li  Li9  1  0.97246200  0.47412700  0.48620400  1
  Li  Li10  1  0.32616200  0.47783600  0.92860600  1
  Li  Li11  1  0.19925500  0.99611200  0.57133900  1
  Li  Li12  1  0.08123300  0.47828400  0.19118500  1
  Li  Li13  1  0.42423700  0.25731400  0.81015200  1
  Li  Li14  1  0.41875400  0.98346100  0.30004300  1
  Li  Li15  1  0.57100400  0.01720400  0.70245300  1
  Li  Li16  1  0.52902800  0.04836000  0.01804600  1
  Li  Li17  1  0.93690300  0.51463500  0.83521400  1
  Li  Li18  1  0.69676900  0.50257700  0.05906600  1
  Li  Li19  1  0.80684800  0.03086300  0.44045300  1
  Li  Li20  1  0.89068800  0.24713700  0.29832400  1
  Fe  Fe21  1  0.68005200  0.79368900  0.55744600  1
  Fe  Fe22  1  0.84147100  0.27320000  0.94871800  1
  Fe  Fe23  1  0.20051400  0.71625500  0.05669000  1
  Fe  Fe24  1  0.33056900  0.22568700  0.44387000  1
  O  O25  1  0.11682300  0.31862800  0.85763600  1
  O  O26  1  0.13476200  0.69604200  0.87914000  1
  O  O27  1  0.12637900  0.05823300  0.38131900  1
  O  O28  1  0.15945300  0.40487100  0.37823700  1
  O  O29  1  0.39920400  0.81817600  0.63273600  1
  O  O30  1  0.33811100  0.92115400  0.10548500  1
  O  O31  1  0.37295400  0.19713100  0.61692000  1
  O  O32  1  0.63155900  0.45194200  0.87518300  1
  O  O33  1  0.37064600  0.53931600  0.10017000  1
  O  O34  1  0.62293600  0.08284700  0.87116800  1
  O  O35  1  0.61433200  0.19983300  0.37640900  1
  O  O36  1  0.62360800  0.84017300  0.38801100  1
  O  O37  1  0.85590500  0.60979400  0.58433700  1
  O  O38  1  0.88903900  0.95438200  0.62546500  1
  O  O39  1  0.83093900  0.28420500  0.12621800  1
  O  O40  1  0.93315300  0.66162700  0.13928000  1
