# generated using pymatgen
data_Li15(FeO6)2
_symmetry_space_group_name_H-M   'P 1'
_cell_length_a   5.44830300
_cell_length_b   5.82502089
_cell_length_c   8.09213193
_cell_angle_alpha   86.08709979
_cell_angle_beta   89.14808659
_cell_angle_gamma   89.56111653
_symmetry_Int_Tables_number   1
_chemical_formula_structural   Li15(FeO6)2
_chemical_formula_sum   'Li15 Fe2 O12'
_cell_volume   256.18311450
_cell_formula_units_Z   1
loop_
 _symmetry_equiv_pos_site_id
 _symmetry_equiv_pos_as_xyz
  1  'x, y, z'
loop_
 _atom_site_type_symbol
 _atom_site_label
 _atom_site_symmetry_multiplicity
 _atom_site_fract_x
 _atom_site_fract_y
 _atom_site_fract_z
 _atom_site_occupancy
  Li  Li0  1  0.98097600  0.31061300  0.65261800  1
  Li  Li1  1  0.85410900  0.72582600  0.63708300  1
  Li  Li2  1  0.85786500  0.43812200  0.93410500  1
  Li  Li3  1  0.77955300  0.03217900  0.27350100  1
  Li  Li4  1  0.63244200  0.79703800  0.89937100  1
  Li  Li5  1  0.68731100  0.48066100  0.20710800  1
  Li  Li6  1  0.65838400  0.06654100  0.56511600  1
  Li  Li7  1  0.51690600  0.19317600  0.83896100  1
  Li  Li8  1  0.34045200  0.89823800  0.40802200  1
  Li  Li9  1  0.30295600  0.56268100  0.79508000  1
  Li  Li10  1  0.37319300  0.19478100  0.12757400  1
  Li  Li11  1  0.19172600  0.94568200  0.69883600  1
  Li  Li12  1  0.20710600  0.61532600  0.08622700  1
  Li  Li13  1  0.12546200  0.25700100  0.37151600  1
  Li  Li14  1  0.00248300  0.68061200  0.35170900  1
  Fe  Fe15  1  0.49617800  0.48964200  0.50302700  1
  Fe  Fe16  1  0.00490600  0.01010600  0.99499100  1
  O  O17  1  0.84974400  0.00290000  0.76091900  1
  O  O18  1  0.86127000  0.70605300  0.06528700  1
  O  O19  1  0.78660900  0.32866800  0.42635400  1
  O  O20  1  0.64202900  0.49667400  0.73240500  1
  O  O21  1  0.71415200  0.18017900  0.06035900  1
  O  O22  1  0.66876300  0.78491400  0.43975000  1
  O  O23  1  0.33078500  0.19506100  0.56586600  1
  O  O24  1  0.29492400  0.85136300  0.91434100  1
  O  O25  1  0.34867700  0.48381200  0.28208500  1
  O  O26  1  0.20022700  0.65837300  0.57263800  1
  O  O27  1  0.17876600  0.30345500  0.93500200  1
  O  O28  1  0.12973300  0.99844400  0.23674200  1
