# generated using pymatgen
data_Li4Mn3V2Cr3O16
_symmetry_space_group_name_H-M   'P 1'
_cell_length_a   5.86221700
_cell_length_b   5.88593071
_cell_length_c   9.50950814
_cell_angle_alpha   90.46434642
_cell_angle_beta   90.05653959
_cell_angle_gamma   119.24952279
_symmetry_Int_Tables_number   1
_chemical_formula_structural   Li4Mn3V2Cr3O16
_chemical_formula_sum   'Li4 Mn3 V2 Cr3 O16'
_cell_volume   286.27229600
_cell_formula_units_Z   1
loop_
 _symmetry_equiv_pos_site_id
 _symmetry_equiv_pos_as_xyz
  1  'x, y, z'
loop_
 _atom_site_type_symbol
 _atom_site_label
 _atom_site_symmetry_multiplicity
 _atom_site_fract_x
 _atom_site_fract_y
 _atom_site_fract_z
 _atom_site_occupancy
  Li  Li0  1  0.33382900  0.66334700  0.10096800  1
  Li  Li1  1  0.00206700  0.00719400  0.00429200  1
  Li  Li2  1  0.00075800  0.00417000  0.50592600  1
  Li  Li3  1  0.66359300  0.32391000  0.60502100  1
  Mn  Mn4  1  0.17069000  0.34134400  0.78502700  1
  Mn  Mn5  1  0.33688300  0.17127200  0.28668700  1
  Mn  Mn6  1  0.82837400  0.16801700  0.28546200  1
  V  V7  1  0.33088900  0.67762300  0.51266400  1
  V  V8  1  0.66969600  0.34721800  0.00948200  1
  Cr  Cr9  1  0.16935400  0.83015500  0.78739000  1
  Cr  Cr10  1  0.66151400  0.83010700  0.78708200  1
  Cr  Cr11  1  0.82866300  0.65939400  0.28575200  1
  O  O12  1  0.15496600  0.80534200  0.41169800  1
  O  O13  1  0.47638100  0.95542700  0.65619500  1
  O  O14  1  0.32984900  0.65722100  0.89269000  1
  O  O15  1  0.00376100  0.01006300  0.69229000  1
  O  O16  1  0.00003900  0.00205900  0.19245400  1
  O  O17  1  0.67059400  0.84081000  0.40171900  1
  O  O18  1  0.03809700  0.51432600  0.66165500  1
  O  O19  1  0.47026600  0.51199700  0.65831700  1
  O  O20  1  0.83739200  0.67160400  0.90375200  1
  O  O21  1  0.16213500  0.32577600  0.39950800  1
  O  O22  1  0.53961500  0.49323200  0.14502900  1
  O  O23  1  0.96062300  0.46896500  0.16197800  1
  O  O24  1  0.66464300  0.32709100  0.39129400  1
  O  O25  1  0.33538100  0.17594200  0.90236800  1
  O  O26  1  0.52263300  0.03883000  0.16235200  1
  O  O27  1  0.83701700  0.17756300  0.90311100  1
