# generated using pymatgen
data_Li4Co3Ni5O16
_symmetry_space_group_name_H-M   'P 1'
_cell_length_a   5.64394062
_cell_length_b   5.64975967
_cell_length_c   9.38625232
_cell_angle_alpha   89.97237837
_cell_angle_beta   90.02955690
_cell_angle_gamma   120.02808167
_symmetry_Int_Tables_number   1
_chemical_formula_structural   Li4Co3Ni5O16
_chemical_formula_sum   'Li4 Co3 Ni5 O16'
_cell_volume   259.12674059
_cell_formula_units_Z   1
loop_
 _symmetry_equiv_pos_site_id
 _symmetry_equiv_pos_as_xyz
  1  'x, y, z'
loop_
 _atom_site_type_symbol
 _atom_site_label
 _atom_site_symmetry_multiplicity
 _atom_site_fract_x
 _atom_site_fract_y
 _atom_site_fract_z
 _atom_site_occupancy
  Li  Li0  1  0.33572800  0.66797100  0.89282800  1
  Li  Li1  1  0.00343100  0.00210900  0.99755600  1
  Li  Li2  1  0.99921500  0.99995300  0.49785300  1
  Li  Li3  1  0.66574300  0.33254200  0.39423100  1
  Co  Co4  1  0.16734100  0.83043000  0.21400000  1
  Co  Co5  1  0.16738200  0.33659300  0.21408200  1
  Co  Co6  1  0.33663700  0.16841800  0.71377600  1
  Ni  Ni7  1  0.33376100  0.66691500  0.49071500  1
  Ni  Ni8  1  0.66215800  0.83090200  0.21470600  1
  Ni  Ni9  1  0.66791100  0.33404500  0.99039600  1
  Ni  Ni10  1  0.83108200  0.66229600  0.71505600  1
  Ni  Ni11  1  0.83105500  0.16898700  0.71509700  1
  O  O12  1  0.16077400  0.84452400  0.60688600  1
  O  O13  1  0.03461400  0.51709300  0.32628100  1
  O  O14  1  0.33779900  0.66875900  0.11041800  1
  O  O15  1  0.99482300  0.99710200  0.31030000  1
  O  O16  1  0.99493300  0.99743600  0.80894500  1
  O  O17  1  0.16066500  0.31655900  0.60692800  1
  O  O18  1  0.47856600  0.96215500  0.32936900  1
  O  O19  1  0.47855100  0.51596100  0.32945300  1
  O  O20  1  0.31766900  0.15881800  0.10921000  1
  O  O21  1  0.68263200  0.84154200  0.60557100  1
  O  O22  1  0.51542300  0.47930500  0.82822700  1
  O  O23  1  0.51548400  0.03633200  0.82830300  1
  O  O24  1  0.67184600  0.33611500  0.61241500  1
  O  O25  1  0.84560700  0.68513400  0.10639500  1
  O  O26  1  0.96364700  0.48182100  0.83227500  1
  O  O27  1  0.84552100  0.16048500  0.10657000  1
