# generated using pymatgen
data_Li7Mn14O32
_symmetry_space_group_name_H-M   'P 1'
_cell_length_a   19.31771711
_cell_length_b   19.31771711
_cell_length_c   19.31771657
_cell_angle_alpha   17.36640894
_cell_angle_beta   17.36640894
_cell_angle_gamma   17.36640881
_symmetry_Int_Tables_number   1
_chemical_formula_structural   Li7Mn14O32
_chemical_formula_sum   'Li7 Mn14 O32'
_cell_volume   560.45916693
_cell_formula_units_Z   1
loop_
 _symmetry_equiv_pos_site_id
 _symmetry_equiv_pos_as_xyz
  1  'x, y, z'
loop_
 _atom_site_type_symbol
 _atom_site_label
 _atom_site_symmetry_multiplicity
 _atom_site_fract_x
 _atom_site_fract_y
 _atom_site_fract_z
 _atom_site_occupancy
  Li  Li0  1  0.40396800  0.40396800  0.40396800  1
  Li  Li1  1  0.09434900  0.09434900  0.09434900  1
  Li  Li2  1  0.84531300  0.84531300  0.84531300  1
  Li  Li3  1  0.90588900  0.90588900  0.90588900  1
  Li  Li4  1  0.15473100  0.15473100  0.15473100  1
  Li  Li5  1  0.59547300  0.59547300  0.59547300  1
  Li  Li6  1  0.65524300  0.65524300  0.65524300  1
  Mn  Mn7  1  0.87323500  0.87323500  0.38026400  1
  Mn  Mn8  1  0.38026400  0.87323500  0.87323500  1
  Mn  Mn9  1  0.11766600  0.62759000  0.62759000  1
  Mn  Mn10  1  0.00055400  0.00055400  0.00055400  1
  Mn  Mn11  1  0.62759000  0.11766600  0.62759000  1
  Mn  Mn12  1  0.87323500  0.38026400  0.87323500  1
  Mn  Mn13  1  0.62759000  0.62759000  0.11766600  1
  Mn  Mn14  1  0.49997600  0.49997600  0.49997600  1
  Mn  Mn15  1  0.37232600  0.88237100  0.37232600  1
  Mn  Mn16  1  0.37232600  0.37232600  0.88237100  1
  Mn  Mn17  1  0.12776500  0.61794300  0.12776500  1
  Mn  Mn18  1  0.61794300  0.12776500  0.12776500  1
  Mn  Mn19  1  0.88237100  0.37232600  0.37232600  1
  Mn  Mn20  1  0.12776500  0.12776500  0.61794300  1
  O  O21  1  0.16744600  0.73161500  0.16744600  1
  O  O22  1  0.73161500  0.16744600  0.16744600  1
  O  O23  1  0.04045900  0.56733900  0.56733900  1
  O  O24  1  0.69067700  0.69067700  0.69067700  1
  O  O25  1  0.56733900  0.04045900  0.56733900  1
  O  O26  1  0.56733900  0.56733900  0.04045900  1
  O  O27  1  0.93271900  0.93271900  0.45973800  1
  O  O28  1  0.16744600  0.16744600  0.73161500  1
  O  O29  1  0.22696100  0.66889000  0.66889000  1
  O  O30  1  0.45973800  0.93271900  0.93271900  1
  O  O31  1  0.80952700  0.80952700  0.80952700  1
  O  O32  1  0.05983700  0.05983700  0.05983700  1
  O  O33  1  0.44049700  0.44049700  0.44049700  1
  O  O34  1  0.33102400  0.33102500  0.77302900  1
  O  O35  1  0.33102500  0.77302900  0.33102400  1
  O  O36  1  0.06713800  0.54041000  0.06713800  1
  O  O37  1  0.66889000  0.22696100  0.66889000  1
  O  O38  1  0.93271900  0.45973800  0.93271900  1
  O  O39  1  0.66889000  0.66889000  0.22696100  1
  O  O40  1  0.55944600  0.55944600  0.55944600  1
  O  O41  1  0.94044900  0.94044900  0.94044900  1
  O  O42  1  0.19043800  0.19043800  0.19043800  1
  O  O43  1  0.77302900  0.33102500  0.33102500  1
  O  O44  1  0.54041000  0.06713800  0.06713800  1
  O  O45  1  0.06713800  0.06713800  0.54041000  1
  O  O46  1  0.83092000  0.83092000  0.27264500  1
  O  O47  1  0.43313600  0.43313600  0.95863300  1
  O  O48  1  0.43313600  0.95863300  0.43313600  1
  O  O49  1  0.95863300  0.43313600  0.43313600  1
  O  O50  1  0.30889500  0.30889500  0.30889500  1
  O  O51  1  0.27264500  0.83092000  0.83092000  1
  O  O52  1  0.83092000  0.27264500  0.83092000  1
