# generated using pymatgen
data_Li2FeO3
_symmetry_space_group_name_H-M   'P 1'
_cell_length_a   4.99980039
_cell_length_b   8.91569264
_cell_length_c   5.05458542
_cell_angle_alpha   89.99995756
_cell_angle_beta   107.78790269
_cell_angle_gamma   89.99984939
_symmetry_Int_Tables_number   1
_chemical_formula_structural   Li2FeO3
_chemical_formula_sum   'Li8 Fe4 O12'
_cell_volume   214.54514775
_cell_formula_units_Z   4
loop_
 _symmetry_equiv_pos_site_id
 _symmetry_equiv_pos_as_xyz
  1  'x, y, z'
loop_
 _atom_site_type_symbol
 _atom_site_label
 _atom_site_symmetry_multiplicity
 _atom_site_fract_x
 _atom_site_fract_y
 _atom_site_fract_z
 _atom_site_occupancy
  Li  Li0  1  0.74999900  0.25000000  0.00000100  1
  Li  Li1  1  0.24999800  0.75000000  0.00000000  1
  Li  Li2  1  0.25000000  0.25000000  0.50000000  1
  Li  Li3  1  0.75000100  0.75000000  0.50000000  1
  Li  Li4  1  0.24999900  0.09232500  0.00000000  1
  Li  Li5  1  0.75000100  0.59231700  0.00000100  1
  Li  Li6  1  0.25000100  0.40767500  0.00000000  1
  Li  Li7  1  0.75000100  0.90768300  0.00000000  1
  Fe  Fe8  1  0.24999700  0.91354400  0.49999800  1
  Fe  Fe9  1  0.25000600  0.58645600  0.49999800  1
  Fe  Fe10  1  0.74999600  0.41351300  0.49999900  1
  Fe  Fe11  1  0.74999900  0.08648800  0.49999800  1
  O  O12  1  0.97951900  0.25000000  0.73583700  1
  O  O13  1  0.47952800  0.75000100  0.73584700  1
  O  O14  1  0.52048000  0.24999900  0.26416600  1
  O  O15  1  0.02047300  0.75000000  0.26415300  1
  O  O16  1  0.51491100  0.07336000  0.72567200  1
  O  O17  1  0.01491300  0.57336300  0.72567700  1
  O  O18  1  0.98508800  0.07335900  0.27432700  1
  O  O19  1  0.48508800  0.57336300  0.27432400  1
  O  O20  1  0.98508900  0.42663900  0.27432800  1
  O  O21  1  0.48508600  0.92663700  0.27432500  1
  O  O22  1  0.51491200  0.42664000  0.72567300  1
  O  O23  1  0.01491400  0.92663600  0.72567400  1
