# generated using pymatgen
data_Li11Nb4(Ni3O8)3
_symmetry_space_group_name_H-M   'P 1'
_cell_length_a   5.26148300
_cell_length_b   9.33730718
_cell_length_c   9.86583086
_cell_angle_alpha   73.44166039
_cell_angle_beta   81.85287975
_cell_angle_gamma   79.74647395
_symmetry_Int_Tables_number   1
_chemical_formula_structural   Li11Nb4(Ni3O8)3
_chemical_formula_sum   'Li11 Nb4 Ni9 O24'
_cell_volume   455.03773897
_cell_formula_units_Z   1
loop_
 _symmetry_equiv_pos_site_id
 _symmetry_equiv_pos_as_xyz
  1  'x, y, z'
loop_
 _atom_site_type_symbol
 _atom_site_label
 _atom_site_symmetry_multiplicity
 _atom_site_fract_x
 _atom_site_fract_y
 _atom_site_fract_z
 _atom_site_occupancy
  Li  Li0  1  0.72825600  0.58632500  0.97851800  1
  Li  Li1  1  0.93456300  0.75536700  0.68780300  1
  Li  Li2  1  0.55699500  0.25033300  0.81424100  1
  Li  Li3  1  0.39391200  0.91703200  0.64628700  1
  Li  Li4  1  0.85733300  0.07290900  0.60714500  1
  Li  Li5  1  0.22884100  0.58579700  0.47847200  1
  Li  Li6  1  0.89798500  0.91510400  0.14575200  1
  Li  Li7  1  0.43781000  0.75547800  0.18463600  1
  Li  Li8  1  0.06796000  0.24973200  0.31078200  1
  Li  Li9  1  0.35647500  0.07369900  0.10621900  1
  Li  Li10  1  0.27269300  0.40940000  0.02273900  1
  Nb  Nb11  1  0.18878400  0.74566300  0.93838900  1
  Nb  Nb12  1  0.68895500  0.74439200  0.43952200  1
  Nb  Nb13  1  0.31381600  0.25393400  0.56133200  1
  Nb  Nb14  1  0.81281600  0.24882400  0.06277900  1
  Ni  Ni15  1  0.64401800  0.92392700  0.89386600  1
  Ni  Ni16  1  0.47686600  0.57794700  0.73255500  1
  Ni  Ni17  1  0.01316200  0.42384300  0.77372300  1
  Ni  Ni18  1  0.77121300  0.41040100  0.52139400  1
  Ni  Ni19  1  0.10425500  0.08352700  0.85471100  1
  Ni  Ni20  1  0.14418800  0.92269100  0.39446600  1
  Ni  Ni21  1  0.98398900  0.57764000  0.22914600  1
  Ni  Ni22  1  0.52465000  0.42375600  0.26403900  1
  Ni  Ni23  1  0.60339400  0.08264800  0.35345000  1
  O  O24  1  0.73627600  0.08891300  0.97986300  1
  O  O25  1  0.65389300  0.41239300  0.89938900  1
  O  O26  1  0.53655900  0.75070900  0.82029600  1
  O  O27  1  0.01434600  0.91165200  0.78172600  1
  O  O28  1  0.11462300  0.58913100  0.85250800  1
  O  O29  1  0.96194100  0.24863900  0.68358100  1
  O  O30  1  0.16074300  0.25059500  0.94487800  1
  O  O31  1  0.83741300  0.58958300  0.60881800  1
  O  O32  1  0.78234000  0.90997800  0.51132600  1
  O  O33  1  0.33933500  0.74844800  0.55456200  1
  O  O34  1  0.36108400  0.41532600  0.65350000  1
  O  O35  1  0.46862400  0.09150200  0.72459200  1
  O  O36  1  0.51189900  0.90966700  0.28377800  1
  O  O37  1  0.61777600  0.58899000  0.34696900  1
  O  O38  1  0.66437400  0.24748600  0.44104500  1
  O  O39  1  0.17998500  0.41496600  0.38971300  1
  O  O40  1  0.23666900  0.09115200  0.47984900  1
  O  O41  1  0.83948800  0.75039800  0.05406000  1
  O  O42  1  0.03595900  0.74858800  0.32172000  1
  O  O43  1  0.96849000  0.08854800  0.22565200  1
  O  O44  1  0.88949400  0.41206300  0.14469500  1
  O  O45  1  0.46383400  0.25038100  0.18013900  1
  O  O46  1  0.34094800  0.58904000  0.10307800  1
  O  O47  1  0.28097900  0.91148100  0.01229100  1
