# generated using pymatgen
data_Li4V2OF7
_symmetry_space_group_name_H-M   'P 1'
_cell_length_a   6.03343274
_cell_length_b   6.07929447
_cell_length_c   8.59578429
_cell_angle_alpha   88.98013386
_cell_angle_beta   91.32863043
_cell_angle_gamma   90.74288346
_symmetry_Int_Tables_number   1
_chemical_formula_structural   Li4V2OF7
_chemical_formula_sum   'Li8 V4 O2 F14'
_cell_volume   315.12534575
_cell_formula_units_Z   2
loop_
 _symmetry_equiv_pos_site_id
 _symmetry_equiv_pos_as_xyz
  1  'x, y, z'
loop_
 _atom_site_type_symbol
 _atom_site_label
 _atom_site_symmetry_multiplicity
 _atom_site_fract_x
 _atom_site_fract_y
 _atom_site_fract_z
 _atom_site_occupancy
  Li  Li0  1  0.74979600  0.24640600  0.24942300  1
  Li  Li1  1  0.24979900  0.74634100  0.74937800  1
  Li  Li2  1  0.99023300  0.98745600  0.50286400  1
  Li  Li3  1  0.49016800  0.48741300  0.00295500  1
  Li  Li4  1  0.24936400  0.00408400  0.10981900  1
  Li  Li5  1  0.74933500  0.50411700  0.60977900  1
  Li  Li6  1  0.75940300  0.01029100  0.88503600  1
  Li  Li7  1  0.25947800  0.51019800  0.38518900  1
  V  V8  1  0.00600000  0.49644700  0.00327100  1
  V  V9  1  0.25201200  0.24763800  0.76322800  1
  V  V10  1  0.50604400  0.99637800  0.50317200  1
  V  V11  1  0.75196700  0.74764100  0.26312300  1
  O  O12  1  0.73967800  0.76283500  0.47745900  1
  O  O13  1  0.23980600  0.26294100  0.97734400  1
  F  F14  1  0.02023800  0.00780200  0.74032300  1
  F  F15  1  0.52028900  0.50763100  0.24039200  1
  F  F16  1  0.24332600  0.76819800  0.51270800  1
  F  F17  1  0.74328300  0.26829100  0.01255900  1
  F  F18  1  0.25203900  0.24184800  0.51700000  1
  F  F19  1  0.75189100  0.74199100  0.01680000  1
  F  F20  1  0.49078100  0.00320400  0.75199300  1
  F  F21  1  0.99060700  0.50319000  0.25210500  1
  F  F22  1  0.51286800  0.99527000  0.25340600  1
  F  F23  1  0.01304300  0.49521900  0.75348600  1
  F  F24  1  0.97925600  0.99062600  0.24743400  1
  F  F25  1  0.47916100  0.49055400  0.74719900  1
  F  F26  1  0.75500200  0.23800800  0.48641600  1
  F  F27  1  0.25513000  0.73798000  0.98614000  1
