# generated using pymatgen
data_Li2Mn2P2(H4O5)3
_symmetry_space_group_name_H-M   'P 1'
_cell_length_a   4.83828124
_cell_length_b   11.54272019
_cell_length_c   12.12457253
_cell_angle_alpha   87.02138945
_cell_angle_beta   89.92570168
_cell_angle_gamma   77.89623279
_symmetry_Int_Tables_number   1
_chemical_formula_structural   Li2Mn2P2(H4O5)3
_chemical_formula_sum   'Li4 Mn4 P4 H24 O30'
_cell_volume   661.14096085
_cell_formula_units_Z   2
loop_
 _symmetry_equiv_pos_site_id
 _symmetry_equiv_pos_as_xyz
  1  'x, y, z'
loop_
 _atom_site_type_symbol
 _atom_site_label
 _atom_site_symmetry_multiplicity
 _atom_site_fract_x
 _atom_site_fract_y
 _atom_site_fract_z
 _atom_site_occupancy
  Li  Li0  1  0.98899412  0.78886901  0.92171976  1
  Li  Li1  1  0.22425779  0.78903787  0.42204191  1
  Li  Li2  1  0.77615029  0.21096608  0.57723599  1
  Li  Li3  1  0.01293088  0.21051120  0.07861042  1
  Mn  Mn4  1  0.07736741  0.50190829  0.87544628  1
  Mn  Mn5  1  0.57917051  0.49841433  0.62375711  1
  Mn  Mn6  1  0.42001996  0.50157528  0.37575870  1
  Mn  Mn7  1  0.92226998  0.49776891  0.12414975  1
  P  P8  1  0.51987766  0.67021977  0.78550780  1
  P  P9  1  0.81032220  0.66940804  0.28618854  1
  P  P10  1  0.18913769  0.33047855  0.71320666  1
  P  P11  1  0.47979569  0.32966378  0.21421735  1
  H  H12  1  0.56718786  0.96367170  0.85611772  1
  H  H13  1  0.23515290  0.93087095  0.76757630  1
  H  H14  1  0.46803479  0.96393404  0.35299559  1
  H  H15  1  0.15182726  0.82790046  0.62618432  1
  H  H16  1  0.83399837  0.92547616  0.26823734  1
  H  H17  1  0.01918080  0.83272207  0.12426572  1
  H  H18  1  0.89825223  0.77241097  0.59657466  1
  H  H19  1  0.32838759  0.77340347  0.09796690  1
  H  H20  1  0.63106041  0.46387532  0.92990599  1
  H  H21  1  0.09495663  0.53634908  0.57019618  1
  H  H22  1  0.90402850  0.46384848  0.42910659  1
  H  H23  1  0.36832604  0.53615298  0.07010386  1
  H  H24  1  0.68099873  0.22637565  0.90073160  1
  H  H25  1  0.10284039  0.22785937  0.40301069  1
  H  H26  1  0.98971547  0.16398743  0.87679056  1
  H  H27  1  0.16787512  0.07413945  0.73081065  1
  H  H28  1  0.85119281  0.17137619  0.37331094  1
  H  H29  1  0.53434068  0.03564774  0.64644658  1
  H  H30  1  0.75995528  0.01499352  0.93375720  1
  H  H31  1  0.76716837  0.06877090  0.23180365  1
  H  H32  1  0.77855460  0.98370260  0.56850026  1
  H  H33  1  0.43470027  0.03552671  0.14407389  1
  H  H34  1  0.22481686  0.01610283  0.43131421  1
  H  H35  1  0.24112809  0.98428367  0.06672368  1
  O  O36  1  0.72526049  0.93925359  0.90954559  1
  O  O37  1  0.33451324  0.94021531  0.40720260  1
  O  O38  1  0.01052668  0.82932197  0.56794613  1
  O  O39  1  0.29661532  0.77806402  0.81013728  1
  O  O40  1  0.16281261  0.83009854  0.06707555  1
  O  O41  1  0.60495602  0.66456329  0.66056782  1
  O  O42  1  0.92720933  0.77686849  0.31164108  1
  O  O43  1  0.79311634  0.65764745  0.85814965  1
  O  O44  1  0.73131124  0.66427013  0.16116833  1
  O  O45  1  0.54902691  0.65729616  0.35854673  1
  O  O46  1  0.40554485  0.55092091  0.80588979  1
  O  O47  1  0.25317363  0.56201893  0.53238051  1
  O  O48  1  0.04324695  0.55005738  0.30613472  1
  O  O49  1  0.81474700  0.43828948  0.96721800  1
  O  O50  1  0.18485724  0.56138475  0.03250673  1
  O  O51  1  0.95612354  0.44981238  0.69310586  1
  O  O52  1  0.74620468  0.43813407  0.46699175  1
  O  O53  1  0.59414877  0.44895953  0.19385835  1
  O  O54  1  0.45075076  0.34278110  0.64078234  1
  O  O55  1  0.26800653  0.33576520  0.83810519  1
  O  O56  1  0.20702281  0.34201066  0.14158072  1
  O  O57  1  0.07328405  0.22295221  0.68752136  1
  O  O58  1  0.39470101  0.33528949  0.33910129  1
  O  O59  1  0.84291966  0.16860138  0.93304006  1
  O  O60  1  0.70396658  0.22175645  0.18958254  1
  O  O61  1  0.99157651  0.17081727  0.43160585  1
  O  O62  1  0.66764443  0.05940045  0.59214125  1
  O  O63  1  0.31333869  0.00240055  0.75193026  1
  O  O64  1  0.27554972  0.05987401  0.09090614  1
  O  O65  1  0.68870722  0.99743200  0.24774014  1
