# generated using pymatgen
data_LiH2ClO
_symmetry_space_group_name_H-M   'P 1'
_cell_length_a   5.48661316
_cell_length_b   5.48661316
_cell_length_c   7.70825900
_cell_angle_alpha   90.00000000
_cell_angle_beta   90.00000000
_cell_angle_gamma   91.31479995
_symmetry_Int_Tables_number   1
_chemical_formula_structural   LiH2ClO
_chemical_formula_sum   'Li4 H8 Cl4 O4'
_cell_volume   231.98004157
_cell_formula_units_Z   4
loop_
 _symmetry_equiv_pos_site_id
 _symmetry_equiv_pos_as_xyz
  1  'x, y, z'
loop_
 _atom_site_type_symbol
 _atom_site_label
 _atom_site_symmetry_multiplicity
 _atom_site_fract_x
 _atom_site_fract_y
 _atom_site_fract_z
 _atom_site_occupancy
  Li  Li0  1  0.50000000  0.50000000  0.00000000  1
  Li  Li1  1  0.50000000  0.50000000  0.50000000  1
  Li  Li2  1  0.82026900  0.17973100  0.75000000  1
  Li  Li3  1  0.17973100  0.82026900  0.25000000  1
  H  H4  1  0.71081900  0.08780400  0.06973600  1
  H  H5  1  0.71081900  0.08780400  0.43026400  1
  H  H6  1  0.08780400  0.71081900  0.56973600  1
  H  H7  1  0.08780400  0.71081900  0.93026400  1
  H  H8  1  0.91219600  0.28918100  0.06973600  1
  H  H9  1  0.28918100  0.91219600  0.56973600  1
  H  H10  1  0.91219600  0.28918100  0.43026400  1
  H  H11  1  0.28918100  0.91219600  0.93026400  1
  Cl  Cl12  1  0.22660700  0.28591400  0.25000000  1
  Cl  Cl13  1  0.28591400  0.22660700  0.75000000  1
  Cl  Cl14  1  0.77339300  0.71408600  0.75000000  1
  Cl  Cl15  1  0.71408600  0.77339300  0.25000000  1
  O  O16  1  0.23900700  0.76099300  0.50631700  1
  O  O17  1  0.76099300  0.23900700  0.00631700  1
  O  O18  1  0.76099300  0.23900700  0.49368300  1
  O  O19  1  0.23900700  0.76099300  0.99368300  1
