# generated using pymatgen
data_LiFeSiO4
_symmetry_space_group_name_H-M   'P 1'
_cell_length_a   4.95680171
_cell_length_b   6.23686900
_cell_length_c   4.95680503
_cell_angle_alpha   90.00017409
_cell_angle_beta   67.15105769
_cell_angle_gamma   90.00014081
_symmetry_Int_Tables_number   1
_chemical_formula_structural   LiFeSiO4
_chemical_formula_sum   'Li2 Fe2 Si2 O8'
_cell_volume   141.21483732
_cell_formula_units_Z   2
loop_
 _symmetry_equiv_pos_site_id
 _symmetry_equiv_pos_as_xyz
  1  'x, y, z'
loop_
 _atom_site_type_symbol
 _atom_site_label
 _atom_site_symmetry_multiplicity
 _atom_site_fract_x
 _atom_site_fract_y
 _atom_site_fract_z
 _atom_site_occupancy
  Li  Li0  1  0.17021300  0.25000000  0.17021400  1
  Li  Li1  1  0.82978500  0.75000200  0.82978600  1
  Fe  Fe2  1  0.50000900  0.49999300  0.49999800  1
  Fe  Fe3  1  0.50000100  0.99999900  0.50000400  1
  Si  Si4  1  0.15338800  0.75000200  0.15338900  1
  Si  Si5  1  0.84661100  0.24999900  0.84661000  1
  O  O6  1  0.78612000  0.75000500  0.26753200  1
  O  O7  1  0.73247100  0.24999600  0.21387700  1
  O  O8  1  0.26753100  0.75000500  0.78612100  1
  O  O9  1  0.21387700  0.24999700  0.73246800  1
  O  O10  1  0.26508000  0.53572900  0.26508100  1
  O  O11  1  0.73491600  0.03572700  0.73491600  1
  O  O12  1  0.26508200  0.96427500  0.26508500  1
  O  O13  1  0.73491600  0.46427200  0.73491900  1
