# generated using pymatgen
data_Li6V3P8O29
_symmetry_space_group_name_H-M   'P 1'
_cell_length_a   9.81361500
_cell_length_b   9.82278637
_cell_length_c   13.98139659
_cell_angle_alpha   90.25908549
_cell_angle_beta   90.39672656
_cell_angle_gamma   119.86341980
_symmetry_Int_Tables_number   1
_chemical_formula_structural   Li6V3P8O29
_chemical_formula_sum   'Li12 V6 P16 O58'
_cell_volume   1168.72467525
_cell_formula_units_Z   2
loop_
 _symmetry_equiv_pos_site_id
 _symmetry_equiv_pos_as_xyz
  1  'x, y, z'
loop_
 _atom_site_type_symbol
 _atom_site_label
 _atom_site_symmetry_multiplicity
 _atom_site_fract_x
 _atom_site_fract_y
 _atom_site_fract_z
 _atom_site_occupancy
  Li  Li0  1  0.67583200  0.90501200  0.56227400  1
  Li  Li1  1  0.23176100  0.32398200  0.56461300  1
  Li  Li2  1  0.34215200  0.66418800  0.88549400  1
  Li  Li3  1  0.09238000  0.32826700  0.05993100  1
  Li  Li4  1  0.22741500  0.90762500  0.05934900  1
  Li  Li5  1  0.90836100  0.22710000  0.44082600  1
  Li  Li6  1  0.09216300  0.76896000  0.56167700  1
  Li  Li7  1  0.90251200  0.67168000  0.93831500  1
  Li  Li8  1  0.65934200  0.32932400  0.11180800  1
  Li  Li9  1  0.77059100  0.67831500  0.43694800  1
  Li  Li10  1  0.31844000  0.09016900  0.44215400  1
  Li  Li11  1  0.95832500  0.01184400  0.99071100  1
  V  V12  1  0.00195400  0.43146100  0.25224600  1
  V  V13  1  0.99954900  0.56799400  0.74812000  1
  V  V14  1  0.57145900  0.00247400  0.75338500  1
  V  V15  1  0.43587300  0.99898500  0.24668800  1
  V  V16  1  0.56603000  0.57022300  0.24512600  1
  V  V17  1  0.43820900  0.43158800  0.75481700  1
  P  P18  1  0.69225000  0.77929900  0.83966500  1
  P  P19  1  0.68227600  0.91403900  0.34222000  1
  P  P20  1  0.23756600  0.32037600  0.34480200  1
  P  P21  1  0.33038800  0.66451600  0.12596800  1
  P  P22  1  0.33488200  0.66539300  0.62920700  1
  P  P23  1  0.09316000  0.31811700  0.84461600  1
  P  P24  1  0.91284600  0.23094500  0.66082400  1
  P  P25  1  0.22703900  0.90912000  0.84380900  1
  P  P26  1  0.77841100  0.08671600  0.15781500  1
  P  P27  1  0.08863900  0.76949700  0.34120700  1
  P  P28  1  0.90723500  0.67914700  0.15794200  1
  P  P29  1  0.66714000  0.33420300  0.37021200  1
  P  P30  1  0.67284800  0.33811600  0.87290600  1
  P  P31  1  0.76460800  0.67887800  0.65444300  1
  P  P32  1  0.31641400  0.08424600  0.66027700  1
  P  P33  1  0.30803400  0.22262100  0.15825700  1
  O  O34  1  0.75487300  0.75534600  0.56326400  1
  O  O35  1  0.66839900  0.75037000  0.33847200  1
  O  O36  1  0.79380100  0.00379100  0.07417000  1
  O  O37  1  0.66202100  0.91995900  0.83758900  1
  O  O38  1  0.52882200  0.62848500  0.83463400  1
  O  O39  1  0.47912500  0.67104900  0.16876000  1
  O  O40  1  0.38501900  0.47850900  0.32272800  1
  O  O41  1  0.20368900  0.21764700  0.07858700  1
  O  O42  1  0.25876100  0.34192300  0.83898700  1
  O  O43  1  0.48777600  0.81443800  0.66786900  1
  O  O44  1  0.52168500  0.90026800  0.32255100  1
  O  O45  1  0.33362300  0.51661600  0.67368800  1
  O  O46  1  0.32553000  0.66581200  0.01843900  1
  O  O47  1  0.32886500  0.65784300  0.52243200  1
  O  O48  1  0.18351200  0.51371900  0.16381000  1
  O  O49  1  0.37348600  0.89069000  0.83093800  1
  O  O50  1  0.32750600  0.81620100  0.16528900  1
  O  O51  1  0.08764900  0.33576600  0.34279200  1
  O  O52  1  0.00018500  0.20995100  0.75165600  1
  O  O53  1  0.00231700  0.24565400  0.57075700  1
  O  O54  1  0.00973200  0.23238200  0.93316200  1
  O  O55  1  0.10501800  0.48057300  0.83042400  1
  O  O56  1  0.18669000  0.67223600  0.66835900  1
  O  O57  1  0.92031900  0.25984700  0.16304900  1
  O  O58  1  0.09893700  0.61958300  0.32013200  1
  O  O59  1  0.25200600  0.91628000  0.34145300  1
  O  O60  1  0.79790200  0.01127900  0.25614400  1
  O  O61  1  0.75575600  0.99999000  0.43461200  1
  O  O62  1  0.23995600  0.99441300  0.56936300  1
  O  O63  1  0.74792900  0.08416000  0.65915600  1
  O  O64  1  0.90131600  0.38070100  0.67937000  1
  O  O65  1  0.07927300  0.74093800  0.83736100  1
  O  O66  1  0.81569300  0.32681100  0.33338700  1
  O  O67  1  0.89092600  0.51574100  0.17119000  1
  O  O68  1  0.99589100  0.76339900  0.06953500  1
  O  O69  1  0.99865100  0.75255600  0.43113100  1
  O  O70  1  0.99687200  0.78785100  0.25015800  1
  O  O71  1  0.91649000  0.66641300  0.65743200  1
  O  O72  1  0.67272800  0.19302000  0.83055100  1
  O  O73  1  0.62688000  0.10043400  0.16609200  1
  O  O74  1  0.81761500  0.49186500  0.83589200  1
  O  O75  1  0.66944900  0.34403700  0.97995700  1
  O  O76  1  0.66140800  0.33032600  0.47687000  1
  O  O77  1  0.67138500  0.48401500  0.32833400  1
  O  O78  1  0.47444900  0.09078700  0.68030500  1
  O  O79  1  0.51644900  0.18336500  0.32528900  1
  O  O80  1  0.74068500  0.65822700  0.16042500  1
  O  O81  1  0.78499300  0.79606300  0.74159400  1
  O  O82  1  0.79842200  0.79313300  0.92123200  1
  O  O83  1  0.61975600  0.52034600  0.67274300  1
  O  O84  1  0.52367700  0.33899800  0.82842200  1
  O  O85  1  0.47285300  0.37123800  0.16801600  1
  O  O86  1  0.33264500  0.07898200  0.15587300  1
  O  O87  1  0.21940900  0.98680300  0.93371400  1
  O  O88  1  0.20761800  0.99579000  0.75107200  1
  O  O89  1  0.33447800  0.24831400  0.65994300  1
  O  O90  1  0.25019100  0.24829000  0.43708800  1
  O  O91  1  0.21721200  0.20322300  0.25900900  1
