# generated using pymatgen
data_LiTiMn3O8
_symmetry_space_group_name_H-M   'P 1'
_cell_length_a   5.96980700
_cell_length_b   6.04697448
_cell_length_c   14.43624317
_cell_angle_alpha   90.10560855
_cell_angle_beta   91.55974987
_cell_angle_gamma   119.21259298
_symmetry_Int_Tables_number   1
_chemical_formula_structural   LiTiMn3O8
_chemical_formula_sum   'Li3 Ti3 Mn9 O24'
_cell_volume   454.61995993
_cell_formula_units_Z   3
loop_
 _symmetry_equiv_pos_site_id
 _symmetry_equiv_pos_as_xyz
  1  'x, y, z'
loop_
 _atom_site_type_symbol
 _atom_site_label
 _atom_site_symmetry_multiplicity
 _atom_site_fract_x
 _atom_site_fract_y
 _atom_site_fract_z
 _atom_site_occupancy
  Li  Li0  1  0.33361200  0.16241600  0.66538500  1
  Li  Li1  1  0.66638800  0.83758400  0.33461500  1
  Li  Li2  1  0.50000000  0.50000000  0.00000000  1
  Ti  Ti3  1  0.17254800  0.35042100  0.33202200  1
  Ti  Ti4  1  0.50000000  0.00000000  0.00000000  1
  Ti  Ti5  1  0.82745200  0.64957900  0.66797800  1
  Mn  Mn6  1  0.50000000  0.50000000  0.50000000  1
  Mn  Mn7  1  0.84255500  0.18322800  0.16439100  1
  Mn  Mn8  1  0.00000000  0.00000000  0.00000000  1
  Mn  Mn9  1  0.67088000  0.84379800  0.83152200  1
  Mn  Mn10  1  0.15744500  0.81677200  0.83560900  1
  Mn  Mn11  1  0.34091800  0.67342100  0.66512000  1
  Mn  Mn12  1  0.00000000  0.50000000  0.50000000  1
  Mn  Mn13  1  0.65908200  0.32657900  0.33488000  1
  Mn  Mn14  1  0.32912000  0.15620200  0.16847800  1
  O  O15  1  0.65106900  0.36613400  0.58666400  1
  O  O16  1  0.17856400  0.29116400  0.08111100  1
  O  O17  1  0.36151400  0.21491100  0.41238400  1
  O  O18  1  0.81132300  0.12387000  0.92132600  1
  O  O19  1  0.02412000  0.05347100  0.24214300  1
  O  O20  1  0.49203500  0.95946000  0.74667200  1
  O  O21  1  0.18867700  0.87613000  0.07867400  1
  O  O22  1  0.70069100  0.88601300  0.07571400  1
  O  O23  1  0.63848600  0.78508900  0.58761600  1
  O  O24  1  0.14109000  0.78785000  0.59021100  1
  O  O25  1  0.82143600  0.70883600  0.91888900  1
  O  O26  1  0.37103100  0.71426000  0.91023100  1
  O  O27  1  0.34893100  0.63386600  0.41333600  1
  O  O28  1  0.79888100  0.61524700  0.42313700  1
  O  O29  1  0.52065400  0.54784100  0.74493700  1
  O  O30  1  0.03579900  0.54557700  0.74145400  1
  O  O31  1  0.96420100  0.45442300  0.25854600  1
  O  O32  1  0.47934600  0.45215900  0.25506300  1
  O  O33  1  0.20111900  0.38475300  0.57686300  1
  O  O34  1  0.62896900  0.28574000  0.08976900  1
  O  O35  1  0.85891000  0.21215000  0.40978900  1
  O  O36  1  0.29930900  0.11398700  0.92428600  1
  O  O37  1  0.50796500  0.04054000  0.25332800  1
  O  O38  1  0.97588000  0.94652900  0.75785700  1
