# generated using pymatgen
data_LiLa5Ti8O24
_symmetry_space_group_name_H-M   'P 1'
_cell_length_a   5.50806300
_cell_length_b   9.57214691
_cell_length_c   9.60376015
_cell_angle_alpha   109.86174243
_cell_angle_beta   90.40928717
_cell_angle_gamma   90.07365378
_symmetry_Int_Tables_number   1
_chemical_formula_structural   LiLa5Ti8O24
_chemical_formula_sum   'Li1 La5 Ti8 O24'
_cell_volume   476.21263297
_cell_formula_units_Z   1
loop_
 _symmetry_equiv_pos_site_id
 _symmetry_equiv_pos_as_xyz
  1  'x, y, z'
loop_
 _atom_site_type_symbol
 _atom_site_label
 _atom_site_symmetry_multiplicity
 _atom_site_fract_x
 _atom_site_fract_y
 _atom_site_fract_z
 _atom_site_occupancy
  Li  Li0  1  0.17391300  0.11200200  0.69583900  1
  La  La1  1  0.25297800  0.86868800  0.87378900  1
  La  La2  1  0.74688200  0.62596200  0.62612500  1
  La  La3  1  0.25767300  0.37061600  0.37629000  1
  La  La4  1  0.74897100  0.12264000  0.13053700  1
  La  La5  1  0.25498400  0.61880800  0.11986600  1
  Ti  Ti6  1  0.75586600  0.23697000  0.51084200  1
  Ti  Ti7  1  0.73607300  0.00628300  0.74366600  1
  Ti  Ti8  1  0.74942800  0.50323000  0.25157700  1
  Ti  Ti9  1  0.75372700  0.74450800  0.00367300  1
  Ti  Ti10  1  0.25394600  0.48212800  0.74905600  1
  Ti  Ti11  1  0.25462900  0.99712400  0.26555500  1
  Ti  Ti12  1  0.24551900  0.76095200  0.50103000  1
  Ti  Ti13  1  0.24821300  0.25052700  0.99784600  1
  O  O14  1  0.71471600  0.85460400  0.85563100  1
  O  O15  1  0.48121500  0.62075700  0.89476800  1
  O  O16  1  0.49303600  0.88819100  0.61983300  1
  O  O17  1  0.29029500  0.64330400  0.64218900  1
  O  O18  1  0.81261700  0.13733100  0.63970100  1
  O  O19  1  0.78984600  0.63789500  0.13735900  1
  O  O20  1  0.49412400  0.11386100  0.88122800  1
  O  O21  1  0.50504700  0.38673900  0.61327600  1
  O  O22  1  0.48831600  0.87843600  0.11457300  1
  O  O23  1  0.00600000  0.63509300  0.87189700  1
  O  O24  1  0.48796300  0.61515700  0.37770800  1
  O  O25  1  0.00631100  0.87030400  0.63893000  1
  O  O26  1  0.22273500  0.84529000  0.34544600  1
  O  O27  1  0.22177800  0.36102600  0.86265900  1
  O  O28  1  0.71404400  0.35778300  0.35234300  1
  O  O29  1  0.48363600  0.39657800  0.11957000  1
  O  O30  1  0.99842300  0.60329900  0.39934200  1
  O  O31  1  0.49883600  0.12211700  0.38362900  1
  O  O32  1  0.00038000  0.89710200  0.10194300  1
  O  O33  1  0.00259500  0.10140600  0.89648000  1
  O  O34  1  0.00025200  0.40061800  0.59934000  1
  O  O35  1  0.29167500  0.14330500  0.14106200  1
  O  O36  1  0.00052100  0.13896500  0.36134800  1
  O  O37  1  0.00714000  0.37320400  0.13695200  1
