# generated using pymatgen
data_Li2Bi2B2O7
_symmetry_space_group_name_H-M   'P 1'
_cell_length_a   6.50345000
_cell_length_b   10.47995300
_cell_length_c   10.57185714
_cell_angle_alpha   61.04547939
_cell_angle_beta   90.00000000
_cell_angle_gamma   90.00000000
_symmetry_Int_Tables_number   1
_chemical_formula_structural   Li2Bi2B2O7
_chemical_formula_sum   'Li8 Bi8 B8 O28'
_cell_volume   630.47024108
_cell_formula_units_Z   4
loop_
 _symmetry_equiv_pos_site_id
 _symmetry_equiv_pos_as_xyz
  1  'x, y, z'
loop_
 _atom_site_type_symbol
 _atom_site_label
 _atom_site_symmetry_multiplicity
 _atom_site_fract_x
 _atom_site_fract_y
 _atom_site_fract_z
 _atom_site_occupancy
  Li  Li0  1  0.28023000  0.59884200  0.97968200  1
  Li  Li1  1  0.90784700  0.49975600  0.72410100  1
  Li  Li2  1  0.40784700  0.50024400  0.77589900  1
  Li  Li3  1  0.21977000  0.59884200  0.47968200  1
  Li  Li4  1  0.78023000  0.40115800  0.52031800  1
  Li  Li5  1  0.59215300  0.49975600  0.22410100  1
  Li  Li6  1  0.09215300  0.50024400  0.27589900  1
  Li  Li7  1  0.71977000  0.40115800  0.02031800  1
  Bi  Bi8  1  0.45511200  0.00167200  0.81559300  1
  Bi  Bi9  1  0.04488800  0.00167200  0.31559300  1
  Bi  Bi10  1  0.57401800  0.80009900  0.59664900  1
  Bi  Bi11  1  0.92598200  0.80009900  0.09664900  1
  Bi  Bi12  1  0.07401800  0.19990100  0.90335100  1
  Bi  Bi13  1  0.42598200  0.19990100  0.40335100  1
  Bi  Bi14  1  0.95511200  0.99832800  0.68440700  1
  Bi  Bi15  1  0.54488800  0.99832800  0.18440700  1
  B  B16  1  0.74737000  0.66073400  0.93255700  1
  B  B17  1  0.15146400  0.76649400  0.65759800  1
  B  B18  1  0.75263000  0.66073400  0.43255700  1
  B  B19  1  0.34853600  0.76649400  0.15759800  1
  B  B20  1  0.65146400  0.23350600  0.84240200  1
  B  B21  1  0.24737000  0.33926600  0.56744300  1
  B  B22  1  0.84853600  0.23350600  0.34240200  1
  B  B23  1  0.25263000  0.33926600  0.06744300  1
  O  O24  1  0.12872000  0.98154300  0.90255800  1
  O  O25  1  0.79595700  0.81138900  0.87666800  1
  O  O26  1  0.24856400  0.81074400  0.74752700  1
  O  O27  1  0.37128000  0.98154300  0.40255800  1
  O  O28  1  0.96325900  0.83449300  0.59635500  1
  O  O29  1  0.64808000  0.60976300  0.85144700  1
  O  O30  1  0.70404300  0.81138900  0.37666800  1
  O  O31  1  0.24350500  0.67067000  0.62166400  1
  O  O32  1  0.25143600  0.81074400  0.24752700  1
  O  O33  1  0.53674100  0.83449300  0.09635500  1
  O  O34  1  0.70002500  0.56938000  0.57483500  1
  O  O35  1  0.20002500  0.43062000  0.92516500  1
  O  O36  1  0.85192000  0.60976300  0.35144700  1
  O  O37  1  0.25649500  0.67067000  0.12166400  1
  O  O38  1  0.74350500  0.32933000  0.87833600  1
  O  O39  1  0.14808000  0.39023700  0.64855300  1
  O  O40  1  0.79997500  0.56938000  0.07483500  1
  O  O41  1  0.29997500  0.43062000  0.42516500  1
  O  O42  1  0.46325900  0.16550700  0.90364500  1
  O  O43  1  0.74856400  0.18925600  0.75247300  1
  O  O44  1  0.75649500  0.32933000  0.37833600  1
  O  O45  1  0.29595700  0.18861100  0.62333200  1
  O  O46  1  0.35192000  0.39023700  0.14855300  1
  O  O47  1  0.03674100  0.16550700  0.40364500  1
  O  O48  1  0.62872000  0.01845700  0.59744200  1
  O  O49  1  0.75143600  0.18925600  0.25247300  1
  O  O50  1  0.20404300  0.18861100  0.12333200  1
  O  O51  1  0.87128000  0.01845700  0.09744200  1
