# generated using pymatgen
data_Li3CrPCO7
_symmetry_space_group_name_H-M   'P 1'
_cell_length_a   6.47441900
_cell_length_b   8.56687900
_cell_length_c   9.97812615
_cell_angle_alpha   84.81540805
_cell_angle_beta   90.00000000
_cell_angle_gamma   90.00000000
_symmetry_Int_Tables_number   1
_chemical_formula_structural   Li3CrPCO7
_chemical_formula_sum   'Li12 Cr4 P4 C4 O28'
_cell_volume   551.17811721
_cell_formula_units_Z   4
loop_
 _symmetry_equiv_pos_site_id
 _symmetry_equiv_pos_as_xyz
  1  'x, y, z'
loop_
 _atom_site_type_symbol
 _atom_site_label
 _atom_site_symmetry_multiplicity
 _atom_site_fract_x
 _atom_site_fract_y
 _atom_site_fract_z
 _atom_site_occupancy
  Li  Li0  1  0.75146400  0.89178200  0.36461800  1
  Li  Li1  1  0.74853600  0.89178200  0.86461800  1
  Li  Li2  1  0.51938600  0.71069900  0.63246700  1
  Li  Li3  1  0.98061400  0.71069900  0.13246700  1
  Li  Li4  1  0.24741900  0.64566900  0.36194700  1
  Li  Li5  1  0.25258100  0.64566900  0.86194700  1
  Li  Li6  1  0.75258100  0.35433100  0.63805300  1
  Li  Li7  1  0.74741900  0.35433100  0.13805300  1
  Li  Li8  1  0.48061400  0.28930100  0.36753300  1
  Li  Li9  1  0.01938600  0.28930100  0.86753300  1
  Li  Li10  1  0.24853600  0.10821800  0.63538200  1
  Li  Li11  1  0.25146400  0.10821800  0.13538200  1
  Cr  Cr12  1  0.01409100  0.73806000  0.62476800  1
  Cr  Cr13  1  0.48590900  0.73806000  0.12476800  1
  Cr  Cr14  1  0.98590900  0.26194000  0.37523200  1
  Cr  Cr15  1  0.51409100  0.26194000  0.87523200  1
  P  P16  1  0.75074700  0.58968400  0.38853000  1
  P  P17  1  0.74925300  0.58968400  0.88853000  1
  P  P18  1  0.24925300  0.41031600  0.61147000  1
  P  P19  1  0.25074700  0.41031600  0.11147000  1
  C  C20  1  0.24066300  0.96060000  0.39723100  1
  C  C21  1  0.25933700  0.96060000  0.89723100  1
  C  C22  1  0.75933700  0.03940000  0.60276900  1
  C  C23  1  0.74066300  0.03940000  0.10276900  1
  O  O24  1  0.25202200  0.93580300  0.27378900  1
  O  O25  1  0.77155100  0.89398400  0.56707500  1
  O  O26  1  0.24797800  0.93580300  0.77378900  1
  O  O27  1  0.24474500  0.84708100  0.49263800  1
  O  O28  1  0.72844900  0.89398400  0.06707500  1
  O  O29  1  0.25525500  0.84708100  0.99263800  1
  O  O30  1  0.94012700  0.68855500  0.33802900  1
  O  O31  1  0.56069000  0.68628000  0.33020000  1
  O  O32  1  0.93931000  0.68628000  0.83020000  1
  O  O33  1  0.55987300  0.68855500  0.83802900  1
  O  O34  1  0.24994100  0.57759700  0.66135100  1
  O  O35  1  0.74026400  0.57447300  0.54431100  1
  O  O36  1  0.25005900  0.57759700  0.16135100  1
  O  O37  1  0.75973600  0.57447300  0.04431100  1
  O  O38  1  0.25973600  0.42552700  0.45568900  1
  O  O39  1  0.75005900  0.42240300  0.33864900  1
  O  O40  1  0.24026400  0.42552700  0.95568900  1
  O  O41  1  0.74994100  0.42240300  0.83864900  1
  O  O42  1  0.05987300  0.31144500  0.66197100  1
  O  O43  1  0.43931000  0.31372000  0.66980000  1
  O  O44  1  0.44012700  0.31144500  0.16197100  1
  O  O45  1  0.06069000  0.31372000  0.16980000  1
  O  O46  1  0.75525500  0.15291900  0.50736200  1
  O  O47  1  0.22844900  0.10601600  0.43292500  1
  O  O48  1  0.74474500  0.15291900  0.00736200  1
  O  O49  1  0.74797800  0.06419700  0.72621100  1
  O  O50  1  0.27155100  0.10601600  0.93292500  1
  O  O51  1  0.75202200  0.06419700  0.22621100  1
