# generated using pymatgen
data_Na2LiMnPCO7
_symmetry_space_group_name_H-M   'P 1'
_cell_length_a   6.84843400
_cell_length_b   8.82981681
_cell_length_c   10.21140029
_cell_angle_alpha   91.08128535
_cell_angle_beta   90.02737588
_cell_angle_gamma   90.42051031
_symmetry_Int_Tables_number   1
_chemical_formula_structural   Na2LiMnPCO7
_chemical_formula_sum   'Na8 Li4 Mn4 P4 C4 O28'
_cell_volume   617.36093910
_cell_formula_units_Z   4
loop_
 _symmetry_equiv_pos_site_id
 _symmetry_equiv_pos_as_xyz
  1  'x, y, z'
loop_
 _atom_site_type_symbol
 _atom_site_label
 _atom_site_symmetry_multiplicity
 _atom_site_fract_x
 _atom_site_fract_y
 _atom_site_fract_z
 _atom_site_occupancy
  Na  Na0  1  0.25600600  0.08390100  0.12282700  1
  Na  Na1  1  0.99975900  0.25522700  0.37498500  1
  Na  Na2  1  0.00029500  0.25644900  0.87415600  1
  Na  Na3  1  0.50032300  0.25574700  0.87381900  1
  Na  Na4  1  0.50316800  0.74419500  0.12398400  1
  Na  Na5  1  0.99676400  0.74371000  0.12394800  1
  Na  Na6  1  0.50152300  0.74317800  0.62476600  1
  Na  Na7  1  0.99919800  0.74337500  0.62398600  1
  Li  Li8  1  0.25464400  0.08779200  0.62186800  1
  Li  Li9  1  0.47221600  0.27248000  0.38708800  1
  Li  Li10  1  0.74075400  0.91369100  0.37434300  1
  Li  Li11  1  0.74972800  0.90854500  0.87272500  1
  Mn  Mn12  1  0.74801500  0.36039800  0.11305400  1
  Mn  Mn13  1  0.74652900  0.35710700  0.60834800  1
  Mn  Mn14  1  0.24951600  0.64352600  0.38702200  1
  Mn  Mn15  1  0.25066800  0.64040200  0.88822500  1
  P  P16  1  0.25412900  0.40862600  0.14795700  1
  P  P17  1  0.24890200  0.40366200  0.64353600  1
  P  P18  1  0.74536600  0.59325400  0.35289000  1
  P  P19  1  0.75057200  0.59439400  0.85191500  1
  C  C20  1  0.74932600  0.05097400  0.13641700  1
  C  C21  1  0.74983300  0.04982100  0.63537700  1
  C  C22  1  0.25961000  0.95533800  0.37346300  1
  C  C23  1  0.25038000  0.94115900  0.86026200  1
  O  O24  1  0.27632500  0.09915200  0.35304300  1
  O  O25  1  0.24849400  0.08568200  0.83983600  1
  O  O26  1  0.74924300  0.08718400  0.01284300  1
  O  O27  1  0.75173700  0.08786300  0.51254800  1
  O  O28  1  0.74697800  0.15637500  0.22762000  1
  O  O29  1  0.74564600  0.15521600  0.72725200  1
  O  O30  1  0.06752500  0.31605900  0.11023500  1
  O  O31  1  0.43223000  0.31716500  0.09740900  1
  O  O32  1  0.06504500  0.30840200  0.60435700  1
  O  O33  1  0.42673800  0.30616600  0.59729800  1
  O  O34  1  0.26751700  0.42402900  0.30120700  1
  O  O35  1  0.73205200  0.43056500  0.41020000  1
  O  O36  1  0.25459100  0.42511600  0.79586900  1
  O  O37  1  0.75162400  0.43518300  0.91424700  1
  O  O38  1  0.24901200  0.57089900  0.09146000  1
  O  O39  1  0.74791300  0.57492100  0.20063500  1
  O  O40  1  0.25034600  0.56372500  0.58358700  1
  O  O41  1  0.74907500  0.57050500  0.69984900  1
  O  O42  1  0.56920700  0.69448300  0.39404300  1
  O  O43  1  0.93186900  0.68191300  0.39716600  1
  O  O44  1  0.57029500  0.69074500  0.89313000  1
  O  O45  1  0.93215200  0.69169600  0.89227600  1
  O  O46  1  0.24987500  0.85974200  0.27393200  1
  O  O47  1  0.25160800  0.84707000  0.76127300  1
  O  O48  1  0.25137400  0.90454200  0.49206400  1
  O  O49  1  0.25127900  0.88751800  0.97844400  1
  O  O50  1  0.75146100  0.91099300  0.17140600  1
  O  O51  1  0.75156400  0.91013600  0.66980800  1
