# generated using pymatgen
data_Li2Mn(PO4)2
_symmetry_space_group_name_H-M   'P 1'
_cell_length_a   4.66156681
_cell_length_b   4.96179076
_cell_length_c   28.17420247
_cell_angle_alpha   93.82383511
_cell_angle_beta   88.01632114
_cell_angle_gamma   116.54700314
_symmetry_Int_Tables_number   1
_chemical_formula_structural   Li2Mn(PO4)2
_chemical_formula_sum   'Li8 Mn4 P8 O32'
_cell_volume   581.64922520
_cell_formula_units_Z   4
loop_
 _symmetry_equiv_pos_site_id
 _symmetry_equiv_pos_as_xyz
  1  'x, y, z'
loop_
 _atom_site_type_symbol
 _atom_site_label
 _atom_site_symmetry_multiplicity
 _atom_site_fract_x
 _atom_site_fract_y
 _atom_site_fract_z
 _atom_site_occupancy
  Li  Li0  1  0.67394200  0.20812500  0.03774900  1
  Li  Li1  1  0.42403300  0.20826500  0.28776500  1
  Li  Li2  1  0.17392800  0.20826400  0.53775900  1
  Li  Li3  1  0.92392400  0.20810300  0.78771000  1
  Li  Li4  1  0.07582300  0.79172600  0.21227600  1
  Li  Li5  1  0.82596600  0.79175400  0.46223400  1
  Li  Li6  1  0.57589600  0.79169800  0.71225800  1
  Li  Li7  1  0.32583000  0.79162200  0.96226900  1
  Mn  Mn8  1  0.87461000  0.49994700  0.62499300  1
  Mn  Mn9  1  0.62517500  0.50012000  0.87496600  1
  Mn  Mn10  1  0.37534600  0.50004100  0.12502200  1
  Mn  Mn11  1  0.12534500  0.50010900  0.37500500  1
  P  P12  1  0.71470700  0.15750800  0.17793000  1
  P  P13  1  0.46476400  0.15760600  0.42791200  1
  P  P14  1  0.21415700  0.15723400  0.67790500  1
  P  P15  1  0.96455600  0.15747700  0.92788200  1
  P  P16  1  0.03565400  0.84268700  0.07211100  1
  P  P17  1  0.78569000  0.84279500  0.32209700  1
  P  P18  1  0.53512500  0.84240200  0.57209400  1
  P  P19  1  0.28551500  0.84266700  0.82206300  1
  O  O20  1  0.53982000  0.14976900  0.22432100  1
  O  O21  1  0.28995200  0.14988900  0.47430500  1
  O  O22  1  0.03925800  0.14976700  0.72430100  1
  O  O23  1  0.78975100  0.14980600  0.97429800  1
  O  O24  1  0.21034900  0.85004700  0.02571100  1
  O  O25  1  0.96051300  0.85022600  0.27570300  1
  O  O26  1  0.70997000  0.85002400  0.52569300  1
  O  O27  1  0.46047600  0.85023500  0.77568200  1
  O  O28  1  0.58178600  0.26331800  0.13719800  1
  O  O29  1  0.33191600  0.26350600  0.38718000  1
  O  O30  1  0.08136700  0.26333300  0.63716200  1
  O  O31  1  0.83164500  0.26343000  0.88715400  1
  O  O32  1  0.16841200  0.73653000  0.11284700  1
  O  O33  1  0.91850100  0.73670500  0.36283400  1
  O  O34  1  0.66794700  0.73651800  0.61282000  1
  O  O35  1  0.41819400  0.73660600  0.86279400  1
  O  O36  1  0.06252400  0.16604600  0.08598600  1
  O  O37  1  0.81254400  0.16615400  0.33597200  1
  O  O38  1  0.56202500  0.16584200  0.58592800  1
  O  O39  1  0.31237700  0.16601500  0.83591800  1
  O  O40  1  0.68785600  0.83404600  0.16408500  1
  O  O41  1  0.43790100  0.83414200  0.41406200  1
  O  O42  1  0.18724600  0.83382100  0.66403500  1
  O  O43  1  0.93764400  0.83398800  0.91402300  1
  O  O44  1  0.08387000  0.37879900  0.18244200  1
  O  O45  1  0.83398600  0.37890000  0.43242100  1
  O  O46  1  0.58348000  0.37880400  0.68241700  1
  O  O47  1  0.33378300  0.37890800  0.93239400  1
  O  O48  1  0.66628700  0.62107400  0.06760800  1
  O  O49  1  0.41637400  0.62119500  0.31759000  1
  O  O50  1  0.16598500  0.62114400  0.56757700  1
  O  O51  1  0.91627600  0.62126400  0.81753700  1
