# generated using pymatgen
data_Li4Fe3Co3(CuO8)2
_symmetry_space_group_name_H-M   'P 1'
_cell_length_a   5.80333868
_cell_length_b   5.78023651
_cell_length_c   9.55011348
_cell_angle_alpha   90.21783643
_cell_angle_beta   90.32702746
_cell_angle_gamma   119.90065921
_symmetry_Int_Tables_number   1
_chemical_formula_structural   Li4Fe3Co3(CuO8)2
_chemical_formula_sum   'Li4 Fe3 Co3 Cu2 O16'
_cell_volume   277.70053501
_cell_formula_units_Z   1
loop_
 _symmetry_equiv_pos_site_id
 _symmetry_equiv_pos_as_xyz
  1  'x, y, z'
loop_
 _atom_site_type_symbol
 _atom_site_label
 _atom_site_symmetry_multiplicity
 _atom_site_fract_x
 _atom_site_fract_y
 _atom_site_fract_z
 _atom_site_occupancy
  Li  Li0  1  0.32430700  0.66063000  0.89902900  1
  Li  Li1  1  0.01619700  0.00794200  0.99693400  1
  Li  Li2  1  0.02096900  0.01099500  0.49493800  1
  Li  Li3  1  0.65433800  0.32741600  0.39621700  1
  Fe  Fe4  1  0.66062700  0.82857500  0.21370100  1
  Fe  Fe5  1  0.82721100  0.66215300  0.71335900  1
  Fe  Fe6  1  0.82959600  0.16908600  0.71227100  1
  Co  Co7  1  0.16734500  0.82948300  0.21214200  1
  Co  Co8  1  0.16799600  0.33638300  0.21269700  1
  Co  Co9  1  0.33945700  0.17048900  0.71211400  1
  Cu  Cu10  1  0.33805600  0.67252800  0.48695400  1
  Cu  Cu11  1  0.67548200  0.33497100  0.98937200  1
  O  O12  1  0.17385100  0.84642000  0.60609100  1
  O  O13  1  0.03397900  0.51760700  0.32488700  1
  O  O14  1  0.32203000  0.65862400  0.10709300  1
  O  O15  1  0.00952800  0.00449200  0.30890700  1
  O  O16  1  0.01249900  0.00834600  0.80970400  1
  O  O17  1  0.17770100  0.33189100  0.60632900  1
  O  O18  1  0.46311200  0.95959800  0.33531900  1
  O  O19  1  0.46369300  0.50525100  0.33618500  1
  O  O20  1  0.32258500  0.15960600  0.11282800  1
  O  O21  1  0.67769600  0.84217500  0.59782500  1
  O  O22  1  0.50512300  0.46942400  0.83761500  1
  O  O23  1  0.50229100  0.03384600  0.83551700  1
  O  O24  1  0.65729900  0.32957900  0.60221300  1
  O  O25  1  0.85082400  0.67779800  0.10288700  1
  O  O26  1  0.95678500  0.47574100  0.84039600  1
  O  O27  1  0.84941900  0.16925000  0.10431600  1
