# generated using pymatgen
data_Li6V2C4SO16
_symmetry_space_group_name_H-M   'P 1'
_cell_length_a   9.47050598
_cell_length_b   9.47050598
_cell_length_c   9.47050598
_cell_angle_alpha   60.00000000
_cell_angle_beta   60.00000000
_cell_angle_gamma   60.00000000
_symmetry_Int_Tables_number   1
_chemical_formula_structural   Li6V2C4SO16
_chemical_formula_sum   'Li12 V4 C8 S2 O32'
_cell_volume   600.62658371
_cell_formula_units_Z   2
loop_
 _symmetry_equiv_pos_site_id
 _symmetry_equiv_pos_as_xyz
  1  'x, y, z'
loop_
 _atom_site_type_symbol
 _atom_site_label
 _atom_site_symmetry_multiplicity
 _atom_site_fract_x
 _atom_site_fract_y
 _atom_site_fract_z
 _atom_site_occupancy
  Li  Li0  1  0.71740200  0.71740200  0.28259800  1
  Li  Li1  1  0.28259800  0.71740200  0.71740200  1
  Li  Li2  1  0.71740200  0.28259800  0.71740200  1
  Li  Li3  1  0.28259800  0.71740200  0.28259800  1
  Li  Li4  1  0.53259800  0.96740200  0.96740200  1
  Li  Li5  1  0.96740200  0.96740200  0.53259800  1
  Li  Li6  1  0.71740200  0.28259800  0.28259800  1
  Li  Li7  1  0.28259800  0.28259800  0.71740200  1
  Li  Li8  1  0.53259800  0.96740200  0.53259800  1
  Li  Li9  1  0.96740200  0.53259800  0.96740200  1
  Li  Li10  1  0.53259800  0.53259800  0.96740200  1
  Li  Li11  1  0.96740200  0.53259800  0.53259800  1
  V  V12  1  0.12500000  0.62500000  0.12500000  1
  V  V13  1  0.12500000  0.12500000  0.62500000  1
  V  V14  1  0.62500000  0.12500000  0.12500000  1
  V  V15  1  0.12500000  0.12500000  0.12500000  1
  C  C16  1  0.89992700  0.89992700  0.89992700  1
  C  C17  1  0.89992700  0.89992700  0.30021800  1
  C  C18  1  0.30021800  0.89992700  0.89992700  1
  C  C19  1  0.89992700  0.30021800  0.89992700  1
  C  C20  1  0.35007300  0.94978200  0.35007300  1
  C  C21  1  0.35007300  0.35007300  0.94978200  1
  C  C22  1  0.94978200  0.35007300  0.35007300  1
  C  C23  1  0.35007300  0.35007300  0.35007300  1
  S  S24  1  0.75000000  0.75000000  0.75000000  1
  S  S25  1  0.50000000  0.50000000  0.50000000  1
  O  O26  1  0.68551200  0.68551200  0.68551200  1
  O  O27  1  0.68551200  0.68551200  0.94346500  1
  O  O28  1  0.94346500  0.68551200  0.68551200  1
  O  O29  1  0.68551200  0.94346500  0.68551200  1
  O  O30  1  0.90734100  0.75900000  0.03271800  1
  O  O31  1  0.03271800  0.90734100  0.75900000  1
  O  O32  1  0.30094100  0.75900000  0.90734100  1
  O  O33  1  0.75900000  0.03271800  0.90734100  1
  O  O34  1  0.03271800  0.75900000  0.30094100  1
  O  O35  1  0.75900000  0.90734100  0.30094100  1
  O  O36  1  0.30094100  0.03271800  0.75900000  1
  O  O37  1  0.30094100  0.90734100  0.03271800  1
  O  O38  1  0.90734100  0.30094100  0.75900000  1
  O  O39  1  0.90734100  0.03271800  0.30094100  1
  O  O40  1  0.75900000  0.30094100  0.03271800  1
  O  O41  1  0.21728200  0.94905900  0.34265900  1
  O  O42  1  0.03271800  0.30094100  0.90734100  1
  O  O43  1  0.49100000  0.94905900  0.21728200  1
  O  O44  1  0.34265900  0.21728200  0.94905900  1
  O  O45  1  0.34265900  0.94905900  0.49100000  1
  O  O46  1  0.94905900  0.34265900  0.21728200  1
  O  O47  1  0.94905900  0.21728200  0.49100000  1
  O  O48  1  0.49100000  0.34265900  0.94905900  1
  O  O49  1  0.21728200  0.49100000  0.94905900  1
  O  O50  1  0.49100000  0.21728200  0.34265900  1
  O  O51  1  0.94905900  0.49100000  0.34265900  1
  O  O52  1  0.21728200  0.34265900  0.49100000  1
  O  O53  1  0.34265900  0.49100000  0.21728200  1
  O  O54  1  0.56448800  0.30653500  0.56448800  1
  O  O55  1  0.56448800  0.56448800  0.30653500  1
  O  O56  1  0.30653500  0.56448800  0.56448800  1
  O  O57  1  0.56448800  0.56448800  0.56448800  1
