# generated using pymatgen
data_Li4V3P8O29
_symmetry_space_group_name_H-M   'P 1'
_cell_length_a   9.76575600
_cell_length_b   9.77176503
_cell_length_c   14.14337307
_cell_angle_alpha   89.82434468
_cell_angle_beta   90.50847254
_cell_angle_gamma   119.83944257
_symmetry_Int_Tables_number   1
_chemical_formula_structural   Li4V3P8O29
_chemical_formula_sum   'Li8 V6 P16 O58'
_cell_volume   1170.69901200
_cell_formula_units_Z   2
loop_
 _symmetry_equiv_pos_site_id
 _symmetry_equiv_pos_as_xyz
  1  'x, y, z'
loop_
 _atom_site_type_symbol
 _atom_site_label
 _atom_site_symmetry_multiplicity
 _atom_site_fract_x
 _atom_site_fract_y
 _atom_site_fract_z
 _atom_site_occupancy
  Li  Li0  1  0.08384100  0.77430000  0.94132500  1
  Li  Li1  1  0.22872900  0.32320200  0.94021500  1
  Li  Li2  1  0.68933500  0.91247900  0.93656400  1
  Li  Li3  1  0.33137100  0.23337200  0.56281100  1
  Li  Li4  1  0.66664200  0.76797900  0.44397600  1
  Li  Li5  1  0.31683800  0.08805400  0.05984100  1
  Li  Li6  1  0.90365300  0.67032000  0.55809000  1
  Li  Li7  1  0.01051500  0.04311900  0.50432000  1
  V  V8  1  0.43398200  0.43271300  0.75223300  1
  V  V9  1  0.56805400  0.56555100  0.24495400  1
  V  V10  1  0.43328800  0.99208900  0.25774400  1
  V  V11  1  0.57017000  0.00338100  0.74476200  1
  V  V12  1  0.99900700  0.56107400  0.74645000  1
  V  V13  1  0.00028600  0.43345800  0.25186800  1
  P  P14  1  0.08831700  0.77129900  0.15948500  1
  P  P15  1  0.22089900  0.91568900  0.66022700  1
  P  P16  1  0.08375500  0.30501500  0.65673800  1
  P  P17  1  0.33300700  0.66788600  0.86819100  1
  P  P18  1  0.33494600  0.66182100  0.37041600  1
  P  P19  1  0.22590400  0.31700600  0.16076300  1
  P  P20  1  0.31696200  0.22837200  0.34216000  1
  P  P21  1  0.68068300  0.91282800  0.15508600  1
  P  P22  1  0.32086000  0.08500600  0.84347500  1
  P  P23  1  0.68330200  0.76912100  0.65772000  1
  P  P24  1  0.77329400  0.68343200  0.83926000  1
  P  P25  1  0.66681200  0.33536300  0.62943600  1
  P  P26  1  0.66345400  0.32649700  0.13161900  1
  P  P27  1  0.91247100  0.68743900  0.34154400  1
  P  P28  1  0.78150800  0.08542300  0.33816000  1
  P  P29  1  0.91597800  0.22873400  0.84104400  1
  O  O30  1  0.98572600  0.77004600  0.43199200  1
  O  O31  1  0.07886200  0.74182900  0.66087300  1
  O  O32  1  0.24947200  0.99910000  0.93424700  1
  O  O33  1  0.25747600  0.91775000  0.16589100  1
  O  O34  1  0.09476900  0.61827800  0.18053800  1
  O  O35  1  0.18324000  0.66721500  0.81941200  1
  O  O36  1  0.07974000  0.46253000  0.66923200  1
  O  O37  1  0.01066200  0.24608800  0.92703300  1
  O  O38  1  0.08249600  0.34166200  0.16502100  1
  O  O39  1  0.33102700  0.81113600  0.32492800  1
  O  O40  1  0.37780600  0.91733500  0.66691800  1
  O  O41  1  0.18776200  0.51539900  0.32547000  1
  O  O42  1  0.31728300  0.66743000  0.97306100  1
  O  O43  1  0.33905200  0.67168500  0.47498400  1
  O  O44  1  0.32769200  0.51249300  0.83237900  1
  O  O45  1  0.52204800  0.90449300  0.18001900  1
  O  O46  1  0.48334500  0.81409300  0.82928900  1
  O  O47  1  0.25796300  0.34194500  0.66511200  1
  O  O48  1  0.20627700  0.20773300  0.25129400  1
  O  O49  1  0.23400300  0.21443900  0.43254900  1
  O  O50  1  0.23999200  0.24128700  0.07223900  1
  O  O51  1  0.37892200  0.47849500  0.17822400  1
  O  O52  1  0.48858300  0.67022000  0.33092300  1
  O  O53  1  0.33807100  0.25131100  0.84227400  1
  O  O54  1  0.52740000  0.61613500  0.67045300  1
  O  O55  1  0.65748200  0.91234700  0.66693600  1
  O  O56  1  0.20000000  0.98769300  0.75934900  1
  O  O57  1  0.19953800  0.00659300  0.58165500  1
  O  O58  1  0.79432700  0.99343300  0.41866600  1
  O  O59  1  0.35099400  0.08960000  0.33088900  1
  O  O60  1  0.47089500  0.38557900  0.32725000  1
  O  O61  1  0.65471100  0.74276400  0.16867400  1
  O  O62  1  0.51167600  0.32419200  0.66808600  1
  O  O63  1  0.62046500  0.52263700  0.82188900  1
  O  O64  1  0.76666200  0.77031300  0.92289700  1
  O  O65  1  0.76893300  0.77609600  0.56773100  1
  O  O66  1  0.79874700  0.78627100  0.74421600  1
  O  O67  1  0.74031700  0.65820900  0.33458700  1
  O  O68  1  0.51630400  0.17758600  0.17206500  1
  O  O69  1  0.47963900  0.09537700  0.82107400  1
  O  O70  1  0.65708300  0.47421400  0.17803100  1
  O  O71  1  0.66165700  0.33516100  0.02722900  1
  O  O72  1  0.67901600  0.35533800  0.52468400  1
  O  O73  1  0.81412300  0.49289500  0.67385300  1
  O  O74  1  0.61964500  0.08123400  0.33059500  1
  O  O75  1  0.67832500  0.19515700  0.67196100  1
  O  O76  1  0.91882500  0.65836600  0.83905900  1
  O  O77  1  0.99858500  0.79259400  0.24949400  1
  O  O78  1  0.00992900  0.76573700  0.06837300  1
  O  O79  1  0.91295500  0.53015800  0.32700700  1
  O  O80  1  0.81476200  0.33688200  0.17849000  1
  O  O81  1  0.90601600  0.38129700  0.81871800  1
  O  O82  1  0.74842500  0.08429800  0.83948600  1
  O  O83  1  0.74466400  0.98421500  0.06252800  1
  O  O84  1  0.79964300  0.01221600  0.23968300  1
  O  O85  1  0.91603900  0.25862500  0.33543200  1
  O  O86  1  0.00698900  0.21142600  0.57092000  1
  O  O87  1  0.99998600  0.20468400  0.74976300  1
