# generated using pymatgen
data_Li2Mn3FeO8
_symmetry_space_group_name_H-M   'P 1'
_cell_length_a   5.93293746
_cell_length_b   5.93293746
_cell_length_c   5.93293720
_cell_angle_alpha   60.23443266
_cell_angle_beta   60.23443266
_cell_angle_gamma   60.23443171
_symmetry_Int_Tables_number   1
_chemical_formula_structural   Li2Mn3FeO8
_chemical_formula_sum   'Li2 Mn3 Fe1 O8'
_cell_volume   148.45441277
_cell_formula_units_Z   1
loop_
 _symmetry_equiv_pos_site_id
 _symmetry_equiv_pos_as_xyz
  1  'x, y, z'
loop_
 _atom_site_type_symbol
 _atom_site_label
 _atom_site_symmetry_multiplicity
 _atom_site_fract_x
 _atom_site_fract_y
 _atom_site_fract_z
 _atom_site_occupancy
  Li  Li0  1  0.12089100  0.12089100  0.12089100  1
  Li  Li1  1  0.87910900  0.87910900  0.87910900  1
  Mn  Mn2  1  0.50000000  0.00000000  0.50000000  1
  Mn  Mn3  1  0.50000000  0.50000000  0.00000000  1
  Mn  Mn4  1  0.00000000  0.50000000  0.50000000  1
  Fe  Fe5  1  0.50000000  0.50000000  0.50000000  1
  O  O6  1  0.26049100  0.26049100  0.26049100  1
  O  O7  1  0.70787400  0.25900800  0.25900800  1
  O  O8  1  0.25900800  0.25900800  0.70787400  1
  O  O9  1  0.25900800  0.70787400  0.25900800  1
  O  O10  1  0.74099200  0.29212600  0.74099200  1
  O  O11  1  0.74099200  0.74099200  0.29212600  1
  O  O12  1  0.29212600  0.74099200  0.74099200  1
  O  O13  1  0.73950900  0.73950900  0.73950900  1
