# generated using pymatgen
data_LiVPO4F
_symmetry_space_group_name_H-M   'P 1'
_cell_length_a   6.35881100
_cell_length_b   10.74469908
_cell_length_c   11.00597576
_cell_angle_alpha   89.84148955
_cell_angle_beta   89.95274102
_cell_angle_gamma   89.75643872
_symmetry_Int_Tables_number   1
_chemical_formula_structural   LiVPO4F
_chemical_formula_sum   'Li8 V8 P8 O32 F8'
_cell_volume   751.95698203
_cell_formula_units_Z   8
loop_
 _symmetry_equiv_pos_site_id
 _symmetry_equiv_pos_as_xyz
  1  'x, y, z'
loop_
 _atom_site_type_symbol
 _atom_site_label
 _atom_site_symmetry_multiplicity
 _atom_site_fract_x
 _atom_site_fract_y
 _atom_site_fract_z
 _atom_site_occupancy
  Li  Li0  1  0.49140800  0.24057800  0.32025300  1
  Li  Li1  1  0.00449400  0.24095800  0.32488400  1
  Li  Li2  1  0.98971400  0.27574900  0.81644800  1
  Li  Li3  1  0.50586400  0.72583100  0.18860800  1
  Li  Li4  1  0.00107400  0.72441900  0.19688500  1
  Li  Li5  1  0.52194100  0.74179100  0.66485000  1
  Li  Li6  1  0.24577500  0.77229800  0.90823000  1
  Li  Li7  1  0.75342600  0.95736800  0.72937100  1
  V  V8  1  0.00073500  0.00404000  0.00256700  1
  V  V9  1  0.49917400  0.00526600  0.00250500  1
  V  V10  1  0.99922700  0.99646800  0.49835400  1
  V  V11  1  0.49387500  0.00223800  0.49572800  1
  V  V12  1  0.99786000  0.50176000  0.50134800  1
  V  V13  1  0.49757800  0.49696400  0.50072000  1
  V  V14  1  0.00299500  0.50011900  0.00083500  1
  V  V15  1  0.50496200  0.49307000  0.99534600  1
  P  P16  1  0.24287200  0.03877500  0.74288800  1
  P  P17  1  0.24961000  0.24058400  0.07886500  1
  P  P18  1  0.75296400  0.26020000  0.57263500  1
  P  P19  1  0.74807500  0.46816300  0.24172500  1
  P  P20  1  0.25938200  0.53507300  0.76093700  1
  P  P21  1  0.25008600  0.73889900  0.42409200  1
  P  P22  1  0.74476200  0.76148700  0.92499100  1
  P  P23  1  0.75096900  0.96598400  0.25696400  1
  O  O24  1  0.75336700  0.01673900  0.12065400  1
  O  O25  1  0.94713400  0.02170000  0.32096500  1
  O  O26  1  0.55313200  0.02472600  0.31895400  1
  O  O27  1  0.74895000  0.11626000  0.52950400  1
  O  O28  1  0.22755200  0.17572900  0.75547200  1
  O  O29  1  0.45194000  0.18047300  0.02603100  1
  O  O30  1  0.05505600  0.18210400  0.01437700  1
  O  O31  1  0.24200400  0.23730300  0.21596500  1
  O  O32  1  0.76236800  0.26604700  0.70707300  1
  O  O33  1  0.94677800  0.31767900  0.50415900  1
  O  O34  1  0.55185900  0.31575000  0.50915800  1
  O  O35  1  0.75004400  0.32700900  0.24858600  1
  O  O36  1  0.25099400  0.38192400  0.03335900  1
  O  O37  1  0.45565000  0.47548900  0.82187100  1
  O  O38  1  0.06066500  0.47959300  0.82443900  1
  O  O39  1  0.25010500  0.48980200  0.62341400  1
  O  O40  1  0.74337000  0.51928000  0.37704000  1
  O  O41  1  0.94485700  0.52808900  0.17850100  1
  O  O42  1  0.55393500  0.52533700  0.17443300  1
  O  O43  1  0.75099900  0.61934200  0.96249600  1
  O  O44  1  0.27350400  0.67644900  0.76151200  1
  O  O45  1  0.44536100  0.68156100  0.48900600  1
  O  O46  1  0.04630400  0.68040100  0.47291200  1
  O  O47  1  0.26083100  0.73745100  0.28619200  1
  O  O48  1  0.72943100  0.78294100  0.78997600  1
  O  O49  1  0.95006000  0.81702900  0.98218900  1
  O  O50  1  0.54801000  0.81694600  0.99302600  1
  O  O51  1  0.75081000  0.82480800  0.24941900  1
  O  O52  1  0.24956400  0.88107300  0.46840200  1
  O  O53  1  0.44420700  0.98476600  0.67717000  1
  O  O54  1  0.04821500  0.97892200  0.67758500  1
  O  O55  1  0.25022300  0.97519300  0.87697100  1
  F  F56  1  0.75062400  0.03501800  0.88749500  1
  F  F57  1  0.24273800  0.11752900  0.47908000  1
  F  F58  1  0.76178400  0.38220500  0.98678900  1
  F  F59  1  0.24725400  0.45999700  0.39245000  1
  F  F60  1  0.74588000  0.53714300  0.60907600  1
  F  F61  1  0.25477800  0.62078900  0.01421600  1
  F  F62  1  0.74070800  0.88399000  0.52341100  1
  F  F63  1  0.25014100  0.96113200  0.10865000  1
