# generated using pymatgen
data_LiBi3(P3O10)2
_symmetry_space_group_name_H-M   'P 1'
_cell_length_a   8.65019949
_cell_length_b   8.65019949
_cell_length_c   12.94974300
_cell_angle_alpha   90.00000000
_cell_angle_beta   90.00000000
_cell_angle_gamma   105.84169061
_symmetry_Int_Tables_number   1
_chemical_formula_structural   LiBi3(P3O10)2
_chemical_formula_sum   'Li2 Bi6 P12 O40'
_cell_volume   932.17472708
_cell_formula_units_Z   2
loop_
 _symmetry_equiv_pos_site_id
 _symmetry_equiv_pos_as_xyz
  1  'x, y, z'
loop_
 _atom_site_type_symbol
 _atom_site_label
 _atom_site_symmetry_multiplicity
 _atom_site_fract_x
 _atom_site_fract_y
 _atom_site_fract_z
 _atom_site_occupancy
  Li  Li0  1  0.56648100  0.56648100  0.00000000  1
  Li  Li1  1  0.43351900  0.43351900  0.50000000  1
  Bi  Bi2  1  0.12428500  0.12428500  0.50000000  1
  Bi  Bi3  1  0.71792900  0.28207100  0.25000000  1
  Bi  Bi4  1  0.28207100  0.71792900  0.75000000  1
  Bi  Bi5  1  0.75750100  0.24249900  0.75000000  1
  Bi  Bi6  1  0.24249900  0.75750100  0.25000000  1
  Bi  Bi7  1  0.87571500  0.87571500  0.00000000  1
  P  P8  1  0.12957100  0.39103600  0.16726200  1
  P  P9  1  0.39103600  0.12957100  0.83273800  1
  P  P10  1  0.20235800  0.30012800  0.71483100  1
  P  P11  1  0.30012800  0.20235800  0.28516900  1
  P  P12  1  0.13641100  0.71738600  0.51845300  1
  P  P13  1  0.71738600  0.13641100  0.48154700  1
  P  P14  1  0.86358900  0.28261400  0.01845300  1
  P  P15  1  0.28261400  0.86358900  0.98154700  1
  P  P16  1  0.79764200  0.69987200  0.21483100  1
  P  P17  1  0.69987200  0.79764200  0.78516900  1
  P  P18  1  0.87042900  0.60896400  0.66726200  1
  P  P19  1  0.60896400  0.87042900  0.33273800  1
  O  O20  1  0.16570600  0.22430200  0.20189100  1
  O  O21  1  0.22430200  0.16570600  0.79810900  1
  O  O22  1  0.05298300  0.34735000  0.05563100  1
  O  O23  1  0.34735000  0.05298300  0.94436900  1
  O  O24  1  0.30087400  0.28844500  0.61423400  1
  O  O25  1  0.28844500  0.30087400  0.38576600  1
  O  O26  1  0.99009800  0.57436600  0.74239800  1
  O  O27  1  0.57436600  0.99009800  0.25760200  1
  O  O28  1  0.45705200  0.26689600  0.22826500  1
  O  O29  1  0.26689600  0.45705200  0.77173500  1
  O  O30  1  0.76124200  0.97517500  0.81698400  1
  O  O31  1  0.97517500  0.76124200  0.18301600  1
  O  O32  1  0.28203900  0.52600400  0.15509700  1
  O  O33  1  0.52600400  0.28203900  0.84490300  1
  O  O34  1  0.11975300  0.68278100  0.40468900  1
  O  O35  1  0.68278100  0.11975300  0.59531100  1
  O  O36  1  0.10457800  0.81448500  0.94688700  1
  O  O37  1  0.81448500  0.10457800  0.05311300  1
  O  O38  1  0.24182300  0.62848100  0.57580800  1
  O  O39  1  0.62848100  0.24182300  0.42419200  1
  O  O40  1  0.75817700  0.37151900  0.07580800  1
  O  O41  1  0.37151900  0.75817700  0.92419200  1
  O  O42  1  0.89542200  0.18551500  0.44688700  1
  O  O43  1  0.18551500  0.89542200  0.55311300  1
  O  O44  1  0.88024700  0.31721900  0.90468900  1
  O  O45  1  0.31721900  0.88024700  0.09531100  1
  O  O46  1  0.71796100  0.47399600  0.65509700  1
  O  O47  1  0.47399600  0.71796100  0.34490300  1
  O  O48  1  0.02482500  0.23875800  0.68301600  1
  O  O49  1  0.23875800  0.02482500  0.31698400  1
  O  O50  1  0.54294800  0.73310400  0.72826500  1
  O  O51  1  0.73310400  0.54294800  0.27173500  1
  O  O52  1  0.00990200  0.42563400  0.24239800  1
  O  O53  1  0.42563400  0.00990200  0.75760200  1
  O  O54  1  0.69912600  0.71155500  0.11423400  1
  O  O55  1  0.71155500  0.69912600  0.88576600  1
  O  O56  1  0.94701700  0.65265000  0.55563100  1
  O  O57  1  0.65265000  0.94701700  0.44436900  1
  O  O58  1  0.83429400  0.77569800  0.70189100  1
  O  O59  1  0.77569800  0.83429400  0.29810900  1
