# generated using pymatgen
data_Li34(Sb3S2)3
_symmetry_space_group_name_H-M   'P 1'
_cell_length_a   11.70584875
_cell_length_b   11.70584875
_cell_length_c   11.70584875
_cell_angle_alpha   129.97550640
_cell_angle_beta   129.97550640
_cell_angle_gamma   73.44592479
_symmetry_Int_Tables_number   1
_chemical_formula_structural   Li34(Sb3S2)3
_chemical_formula_sum   'Li34 Sb9 S6'
_cell_volume   919.36155741
_cell_formula_units_Z   1
loop_
 _symmetry_equiv_pos_site_id
 _symmetry_equiv_pos_as_xyz
  1  'x, y, z'
loop_
 _atom_site_type_symbol
 _atom_site_label
 _atom_site_symmetry_multiplicity
 _atom_site_fract_x
 _atom_site_fract_y
 _atom_site_fract_z
 _atom_site_occupancy
  Li  Li0  1  0.71823500  0.15231900  0.87055400  1
  Li  Li1  1  0.05479100  0.34506500  0.14850000  1
  Li  Li2  1  0.15231900  0.28176500  0.43408400  1
  Li  Li3  1  0.48710200  0.35792300  0.69299900  1
  Li  Li4  1  0.65602800  0.54945900  0.72611600  1
  Li  Li5  1  0.92991200  0.65602800  0.10656800  1
  Li  Li6  1  0.79410300  0.48710200  0.12917900  1
  Li  Li7  1  0.65493500  0.80343600  0.70972600  1
  Li  Li8  1  0.07382100  0.57382100  0.50000000  1
  Li  Li9  1  0.25000000  0.75000000  0.50000000  1
  Li  Li10  1  0.42617900  0.92617900  0.50000000  1
  Li  Li11  1  0.09371000  0.94520900  0.29027400  1
  Li  Li12  1  0.35792300  0.66492400  0.87082100  1
  Li  Li13  1  0.54945900  0.82334400  0.89343200  1
  Li  Li14  1  0.82334400  0.92991200  0.27388400  1
  Li  Li15  1  0.80343600  0.09371000  0.14850000  1
  Li  Li16  1  0.66492400  0.79410300  0.30700100  1
  Li  Li17  1  0.84768100  0.71823500  0.56591600  1
  Li  Li18  1  0.33507600  0.20589700  0.69299900  1
  Li  Li19  1  0.19656400  0.90629000  0.85150000  1
  Li  Li20  1  0.17665600  0.07008800  0.72611600  1
  Li  Li21  1  0.28176500  0.84768100  0.12944600  1
  Li  Li22  1  0.45054100  0.17665600  0.10656800  1
  Li  Li23  1  0.64207700  0.33507600  0.12917900  1
  Li  Li24  1  0.90629000  0.05479100  0.70972600  1
  Li  Li25  1  0.75000000  0.25000000  0.50000000  1
  Li  Li26  1  0.92617900  0.42617900  0.50000000  1
  Li  Li27  1  0.57382100  0.07382100  0.50000000  1
  Li  Li28  1  0.34506500  0.19656400  0.29027400  1
  Li  Li29  1  0.20589700  0.51289800  0.87082100  1
  Li  Li30  1  0.07008800  0.34397200  0.89343200  1
  Li  Li31  1  0.34397200  0.45054100  0.27388400  1
  Li  Li32  1  0.51289800  0.64207700  0.30700100  1
  Li  Li33  1  0.94520900  0.65493500  0.85150000  1
  Sb  Sb34  1  0.78559900  0.34798100  0.81955100  1
  Sb  Sb35  1  0.34798100  0.52843000  0.56238300  1
  Sb  Sb36  1  0.50000000  0.50000000  0.00000000  1
  Sb  Sb37  1  0.96604800  0.78559900  0.43761700  1
  Sb  Sb38  1  0.47157000  0.03395200  0.81955100  1
  Sb  Sb39  1  0.52843000  0.96604800  0.18044900  1
  Sb  Sb40  1  0.03395200  0.21440100  0.56238300  1
  Sb  Sb41  1  0.65201900  0.47157000  0.43761700  1
  Sb  Sb42  1  0.21440100  0.65201900  0.18044900  1
  S  S43  1  0.31523300  0.10178000  0.41701300  1
  S  S44  1  0.89822000  0.31523300  0.21345300  1
  S  S45  1  0.81648400  0.81648400  0.00000000  1
  S  S46  1  0.10178000  0.68476700  0.78654700  1
  S  S47  1  0.68476700  0.89822000  0.58298700  1
  S  S48  1  0.18351600  0.18351600  0.00000000  1
