# generated using pymatgen
data_Li5Co2(PO4)3
_symmetry_space_group_name_H-M   'P 1'
_cell_length_a   8.79296000
_cell_length_b   8.69997800
_cell_length_c   12.41254107
_cell_angle_alpha   89.30162044
_cell_angle_beta   90.00000000
_cell_angle_gamma   90.00000000
_symmetry_Int_Tables_number   1
_chemical_formula_structural   Li5Co2(PO4)3
_chemical_formula_sum   'Li20 Co8 P12 O48'
_cell_volume   949.47096283
_cell_formula_units_Z   4
loop_
 _symmetry_equiv_pos_site_id
 _symmetry_equiv_pos_as_xyz
  1  'x, y, z'
loop_
 _atom_site_type_symbol
 _atom_site_label
 _atom_site_symmetry_multiplicity
 _atom_site_fract_x
 _atom_site_fract_y
 _atom_site_fract_z
 _atom_site_occupancy
  Li  Li0  1  0.52074400  0.18272900  0.10040800  1
  Li  Li1  1  0.09356200  0.17799800  0.44581600  1
  Li  Li2  1  0.73251300  0.10732500  0.49696200  1
  Li  Li3  1  0.65709400  0.15496000  0.72483600  1
  Li  Li4  1  0.77004700  0.04755100  0.93423800  1
  Li  Li5  1  0.27004700  0.95244900  0.06576200  1
  Li  Li6  1  0.15709400  0.84504000  0.27516400  1
  Li  Li7  1  0.23251300  0.89267500  0.50303800  1
  Li  Li8  1  0.59356200  0.82200200  0.55418400  1
  Li  Li9  1  0.02074400  0.81727100  0.89959200  1
  Li  Li10  1  0.98700900  0.69614800  0.59183400  1
  Li  Li11  1  0.40585000  0.67420300  0.94398500  1
  Li  Li12  1  0.77163600  0.62433900  0.00666000  1
  Li  Li13  1  0.68144600  0.59704600  0.24311600  1
  Li  Li14  1  0.73836100  0.55075900  0.44597500  1
  Li  Li15  1  0.23836100  0.44924100  0.55402500  1
  Li  Li16  1  0.18144600  0.40295400  0.75688400  1
  Li  Li17  1  0.27163600  0.37566100  0.99334000  1
  Li  Li18  1  0.90585000  0.32579700  0.05601500  1
  Li  Li19  1  0.48700900  0.30385200  0.40816600  1
  Co  Co20  1  0.53061500  0.99167400  0.34878000  1
  Co  Co21  1  0.03061500  0.00832600  0.65122000  1
  Co  Co22  1  0.45022400  0.00060900  0.86027500  1
  Co  Co23  1  0.95022400  0.99939100  0.13972500  1
  Co  Co24  1  0.04469300  0.50035600  0.35174200  1
  Co  Co25  1  0.54469300  0.49964400  0.64825800  1
  Co  Co26  1  0.94406000  0.50589900  0.85784300  1
  Co  Co27  1  0.44406000  0.49410100  0.14215700  1
  P  P28  1  0.24736300  0.20057000  0.24342800  1
  P  P29  1  0.39353400  0.14256100  0.59970300  1
  P  P30  1  0.10034500  0.14260600  0.90615000  1
  P  P31  1  0.89353400  0.85743900  0.40029700  1
  P  P32  1  0.60034500  0.85739400  0.09385000  1
  P  P33  1  0.74736300  0.79943000  0.75657200  1
  P  P34  1  0.24788100  0.70263400  0.74086900  1
  P  P35  1  0.39940700  0.64780700  0.39845100  1
  P  P36  1  0.10787400  0.64558200  0.09788000  1
  P  P37  1  0.89940700  0.35219300  0.60154900  1
  P  P38  1  0.60787400  0.35441800  0.90212000  1
  P  P39  1  0.74788100  0.29736600  0.25913100  1
  O  O40  1  0.86165200  0.20821000  0.19173400  1
  O  O41  1  0.86356900  0.17765400  0.61972700  1
  O  O42  1  0.68046500  0.20576000  0.35656100  1
  O  O43  1  0.58931300  0.18402900  0.94107500  1
  O  O44  1  0.37356700  0.15989100  0.32632000  1
  O  O45  1  0.22689000  0.09960100  0.56848900  1
  O  O46  1  0.42108800  0.12509700  0.72066300  1
  O  O47  1  0.97559100  0.12226900  0.99443000  1
  O  O48  1  0.25854500  0.08780700  0.94438500  1
  O  O49  1  0.17910300  0.04798700  0.19901500  1
  O  O50  1  0.04752000  0.04617600  0.80981000  1
  O  O51  1  0.51044800  0.04182000  0.53664100  1
  O  O52  1  0.01044800  0.95818000  0.46335900  1
  O  O53  1  0.54752000  0.95382400  0.19019000  1
  O  O54  1  0.67910300  0.95201300  0.80098500  1
  O  O55  1  0.75854500  0.91219300  0.05561500  1
  O  O56  1  0.92108800  0.87490300  0.27933700  1
  O  O57  1  0.47559100  0.87773100  0.00557000  1
  O  O58  1  0.72689000  0.90039900  0.43151100  1
  O  O59  1  0.87356700  0.84010900  0.67368000  1
  O  O60  1  0.18046500  0.79424000  0.64343900  1
  O  O61  1  0.36356900  0.82234600  0.38027300  1
  O  O62  1  0.08931300  0.81597100  0.05892500  1
  O  O63  1  0.36165200  0.79179000  0.80826600  1
  O  O64  1  0.62818600  0.70842400  0.69414600  1
  O  O65  1  0.91866700  0.68666500  0.43747600  1
  O  O66  1  0.61364200  0.68064900  0.11383100  1
  O  O67  1  0.81587900  0.71035900  0.85573100  1
  O  O68  1  0.11990000  0.64994000  0.82023100  1
  O  O69  1  0.26648200  0.59005800  0.05614300  1
  O  O70  1  0.51938600  0.62930100  0.49059000  1
  O  O71  1  0.10875100  0.63634300  0.22142800  1
  O  O72  1  0.24838100  0.56905700  0.42898300  1
  O  O73  1  0.31764400  0.55058200  0.69363400  1
  O  O74  1  0.47330600  0.57257500  0.29906200  1
  O  O75  1  0.98076000  0.54826200  0.04509000  1
  O  O76  1  0.48076000  0.45173800  0.95491000  1
  O  O77  1  0.97330600  0.42742500  0.70093800  1
  O  O78  1  0.81764400  0.44941800  0.30636600  1
  O  O79  1  0.74838100  0.43094300  0.57101700  1
  O  O80  1  0.01938600  0.37069900  0.50941000  1
  O  O81  1  0.60875100  0.36365700  0.77857200  1
  O  O82  1  0.76648200  0.40994200  0.94385700  1
  O  O83  1  0.61990000  0.35006000  0.17976900  1
  O  O84  1  0.41866700  0.31333500  0.56252400  1
  O  O85  1  0.31587900  0.28964100  0.14426900  1
  O  O86  1  0.11364200  0.31935100  0.88616900  1
  O  O87  1  0.12818600  0.29157600  0.30585400  1
