# generated using pymatgen
data_Li2AlFeO4
_symmetry_space_group_name_H-M   'P 1'
_cell_length_a   5.42030700
_cell_length_b   6.29633100
_cell_length_c   10.91610203
_cell_angle_alpha   88.70711517
_cell_angle_beta   90.00000000
_cell_angle_gamma   90.00000000
_symmetry_Int_Tables_number   1
_chemical_formula_structural   Li2AlFeO4
_chemical_formula_sum   'Li8 Al4 Fe4 O16'
_cell_volume   372.45040020
_cell_formula_units_Z   4
loop_
 _symmetry_equiv_pos_site_id
 _symmetry_equiv_pos_as_xyz
  1  'x, y, z'
loop_
 _atom_site_type_symbol
 _atom_site_label
 _atom_site_symmetry_multiplicity
 _atom_site_fract_x
 _atom_site_fract_y
 _atom_site_fract_z
 _atom_site_occupancy
  Li  Li0  1  0.32708000  0.01109000  0.82583800  1
  Li  Li1  1  0.17292000  0.01109000  0.32583800  1
  Li  Li2  1  0.17026400  0.24554100  0.58018100  1
  Li  Li3  1  0.32973600  0.24554100  0.08018100  1
  Li  Li4  1  0.67026400  0.75445900  0.91981900  1
  Li  Li5  1  0.82973600  0.75445900  0.41981900  1
  Li  Li6  1  0.82708000  0.98891000  0.67416200  1
  Li  Li7  1  0.67292000  0.98891000  0.17416200  1
  Al  Al8  1  0.18420700  0.50307600  0.83242500  1
  Al  Al9  1  0.68420700  0.49692400  0.66757500  1
  Al  Al10  1  0.31579300  0.50307600  0.33242500  1
  Al  Al11  1  0.81579300  0.49692400  0.16757500  1
  Fe  Fe12  1  0.82424600  0.23509300  0.92043400  1
  Fe  Fe13  1  0.67575400  0.23509300  0.42043400  1
  Fe  Fe14  1  0.32424600  0.76490700  0.57956600  1
  Fe  Fe15  1  0.17575400  0.76490700  0.07956600  1
  O  O16  1  0.68563800  0.02577300  0.83535800  1
  O  O17  1  0.81436200  0.02577300  0.33535800  1
  O  O18  1  0.18077900  0.25648300  0.91628500  1
  O  O19  1  0.31922100  0.25648300  0.41628500  1
  O  O20  1  0.80158400  0.28957100  0.57997700  1
  O  O21  1  0.34664600  0.48758000  0.68947800  1
  O  O22  1  0.69841600  0.28957100  0.07997700  1
  O  O23  1  0.15335400  0.48758000  0.18947800  1
  O  O24  1  0.84664600  0.51242000  0.81052200  1
  O  O25  1  0.30158400  0.71042900  0.92002300  1
  O  O26  1  0.65335400  0.51242000  0.31052200  1
  O  O27  1  0.19841600  0.71042900  0.42002300  1
  O  O28  1  0.68077900  0.74351700  0.58371500  1
  O  O29  1  0.81922100  0.74351700  0.08371500  1
  O  O30  1  0.18563800  0.97422700  0.66464200  1
  O  O31  1  0.31436200  0.97422700  0.16464200  1
