# generated using pymatgen
data_Li2NbCr3O8
_symmetry_space_group_name_H-M   'P 1'
_cell_length_a   6.02959250
_cell_length_b   6.05194869
_cell_length_c   10.40976803
_cell_angle_alpha   106.70751515
_cell_angle_beta   90.00068047
_cell_angle_gamma   60.12215708
_symmetry_Int_Tables_number   1
_chemical_formula_structural   Li2NbCr3O8
_chemical_formula_sum   'Li4 Nb2 Cr6 O16'
_cell_volume   310.74344119
_cell_formula_units_Z   2
loop_
 _symmetry_equiv_pos_site_id
 _symmetry_equiv_pos_as_xyz
  1  'x, y, z'
loop_
 _atom_site_type_symbol
 _atom_site_label
 _atom_site_symmetry_multiplicity
 _atom_site_fract_x
 _atom_site_fract_y
 _atom_site_fract_z
 _atom_site_occupancy
  Li  Li0  1  0.30713500  0.38572400  0.56456300  1
  Li  Li1  1  0.80712500  0.38574800  0.06459100  1
  Li  Li2  1  0.19278600  0.61442400  0.93571900  1
  Li  Li3  1  0.69279600  0.61440200  0.43569800  1
  Nb  Nb4  1  0.75035300  0.49928500  0.74962100  1
  Nb  Nb5  1  0.25037300  0.49925300  0.24959600  1
  Cr  Cr6  1  0.75017300  0.99989300  0.75066500  1
  Cr  Cr7  1  0.24991600  0.99991400  0.75067900  1
  Cr  Cr8  1  0.00011600  0.99974700  0.49928100  1
  Cr  Cr9  1  0.25013900  0.99995000  0.25072100  1
  Cr  Cr10  1  0.74992200  0.99994700  0.25071300  1
  Cr  Cr11  1  0.50020300  0.99962100  0.99922800  1
  O  O12  1  0.10145400  0.79703400  0.63265000  1
  O  O13  1  0.60148200  0.79703600  0.13263000  1
  O  O14  1  0.39671900  0.20655800  0.86703000  1
  O  O15  1  0.89672300  0.20655400  0.36703000  1
  O  O16  1  0.87831900  0.24335700  0.85856600  1
  O  O17  1  0.37832500  0.24335100  0.35854400  1
  O  O18  1  0.65286000  0.24239400  0.63142000  1
  O  O19  1  0.15275100  0.24245700  0.13148700  1
  O  O20  1  0.10474800  0.24242800  0.63146500  1
  O  O21  1  0.60479200  0.24245900  0.13148800  1
  O  O22  1  0.39503900  0.75599900  0.86811800  1
  O  O23  1  0.89506300  0.75599300  0.36809400  1
  O  O24  1  0.84896000  0.75600500  0.86812600  1
  O  O25  1  0.34896100  0.75600800  0.36813000  1
  O  O26  1  0.62138400  0.75722600  0.64207600  1
  O  O27  1  0.12138300  0.75723300  0.14207300  1
