# generated using pymatgen
data_Li3Ti2(PO4)3
_symmetry_space_group_name_H-M   'P 1'
_cell_length_a   8.47641100
_cell_length_b   8.49786165
_cell_length_c   9.10340892
_cell_angle_alpha   62.45203314
_cell_angle_beta   62.38048361
_cell_angle_gamma   60.10798607
_symmetry_Int_Tables_number   1
_chemical_formula_structural   Li3Ti2(PO4)3
_chemical_formula_sum   'Li6 Ti4 P6 O24'
_cell_volume   480.30629967
_cell_formula_units_Z   2
loop_
 _symmetry_equiv_pos_site_id
 _symmetry_equiv_pos_as_xyz
  1  'x, y, z'
loop_
 _atom_site_type_symbol
 _atom_site_label
 _atom_site_symmetry_multiplicity
 _atom_site_fract_x
 _atom_site_fract_y
 _atom_site_fract_z
 _atom_site_occupancy
  Li  Li0  1  0.24404400  0.56928100  0.35502600  1
  Li  Li1  1  0.33049200  0.07186800  0.86286500  1
  Li  Li2  1  0.07639000  0.73306700  0.86450700  1
  Li  Li3  1  0.92451600  0.26869500  0.13950000  1
  Li  Li4  1  0.66985900  0.92330200  0.13887300  1
  Li  Li5  1  0.73281700  0.33154700  0.85941800  1
  Ti  Ti6  1  0.14434700  0.14338300  0.56307800  1
  Ti  Ti7  1  0.34628000  0.35082600  0.95713800  1
  Ti  Ti8  1  0.64511100  0.65454300  0.04359600  1
  Ti  Ti9  1  0.84655700  0.85627300  0.43871200  1
  P  P10  1  0.04414600  0.45665500  0.75004100  1
  P  P11  1  0.54208500  0.25149900  0.25043400  1
  P  P12  1  0.25013000  0.95739800  0.25191900  1
  P  P13  1  0.74770800  0.04296600  0.75007400  1
  P  P14  1  0.46058000  0.74836300  0.74929000  1
  P  P15  1  0.95702900  0.53990800  0.24961300  1
  O  O16  1  0.20554800  0.15023300  0.10025500  1
  O  O17  1  0.15141500  0.53242800  0.09910200  1
  O  O18  1  0.01773600  0.60495600  0.57492200  1
  O  O19  1  0.14372900  0.25257300  0.73246500  1
  O  O20  1  0.12691000  0.85349800  0.27896300  1
  O  O21  1  0.54142500  0.20810400  0.09986800  1
  O  O22  1  0.38537700  0.20746500  0.41756800  1
  O  O23  1  0.16473100  0.49583400  0.80681900  1
  O  O24  1  0.50497600  0.46689400  0.19845700  1
  O  O25  1  0.20065200  0.99735800  0.41767900  1
  O  O26  1  0.74737300  0.12873800  0.26659000  1
  O  O27  1  0.46575200  0.83514800  0.19505700  1
  O  O28  1  0.53154800  0.16649600  0.80898000  1
  O  O29  1  0.25614900  0.87080100  0.73151900  1
  O  O30  1  0.79998300  0.00418900  0.58243800  1
  O  O31  1  0.49629600  0.53340300  0.80777900  1
  O  O32  1  0.83152700  0.50641600  0.19215500  1
  O  O33  1  0.61353800  0.79930300  0.57756600  1
  O  O34  1  0.47268800  0.79762900  0.88957800  1
  O  O35  1  0.87052700  0.14284300  0.73170700  1
  O  O36  1  0.85774800  0.74456300  0.26707400  1
  O  O37  1  0.99665400  0.38977100  0.41735400  1
  O  O38  1  0.84717300  0.46178400  0.89664000  1
  O  O39  1  0.79045100  0.84900100  0.90138100  1
