# generated using pymatgen
data_LiNiPO4
_symmetry_space_group_name_H-M   'P 1'
_cell_length_a   4.94453100
_cell_length_b   8.14134500
_cell_length_c   17.97535100
_cell_angle_alpha   90.00000000
_cell_angle_beta   90.00000000
_cell_angle_gamma   90.00000000
_symmetry_Int_Tables_number   1
_chemical_formula_structural   LiNiPO4
_chemical_formula_sum   'Li8 Ni8 P8 O32'
_cell_volume   723.60014045
_cell_formula_units_Z   8
loop_
 _symmetry_equiv_pos_site_id
 _symmetry_equiv_pos_as_xyz
  1  'x, y, z'
loop_
 _atom_site_type_symbol
 _atom_site_label
 _atom_site_symmetry_multiplicity
 _atom_site_fract_x
 _atom_site_fract_y
 _atom_site_fract_z
 _atom_site_occupancy
  Li  Li0  1  0.47200700  0.62727400  0.26074500  1
  Li  Li1  1  0.56751000  0.58563200  0.05624400  1
  Li  Li2  1  0.06751000  0.91436800  0.55624400  1
  Li  Li3  1  0.97200700  0.87272600  0.76074500  1
  Li  Li4  1  0.47200700  0.12727400  0.23925500  1
  Li  Li5  1  0.56751000  0.08563200  0.44375600  1
  Li  Li6  1  0.06751000  0.41436800  0.94375600  1
  Li  Li7  1  0.97200700  0.37272600  0.73925500  1
  Ni  Ni8  1  0.96806500  0.51108800  0.43180100  1
  Ni  Ni9  1  0.47347500  0.65082300  0.84642200  1
  Ni  Ni10  1  0.97347500  0.84917700  0.34642200  1
  Ni  Ni11  1  0.46806500  0.98891200  0.93180100  1
  Ni  Ni12  1  0.96806500  0.01108800  0.06819900  1
  Ni  Ni13  1  0.47347500  0.15082300  0.65357800  1
  Ni  Ni14  1  0.97347500  0.34917700  0.15357800  1
  Ni  Ni15  1  0.46806500  0.48891200  0.56819900  1
  P  P16  1  0.93777000  0.70003500  0.18223100  1
  P  P17  1  0.43681100  0.73456800  0.43116800  1
  P  P18  1  0.93681100  0.76543200  0.93116800  1
  P  P19  1  0.43777000  0.79996500  0.68223100  1
  P  P20  1  0.93777000  0.20003500  0.31776900  1
  P  P21  1  0.43681100  0.23456800  0.06883200  1
  P  P22  1  0.93681100  0.26543200  0.56883200  1
  P  P23  1  0.43777000  0.29996500  0.81776900  1
  O  O24  1  0.77510900  0.55314400  0.14655500  1
  O  O25  1  0.32667900  0.58009500  0.47384500  1
  O  O26  1  0.84116400  0.60721400  0.96813300  1
  O  O27  1  0.36029900  0.64299800  0.63968900  1
  O  O28  1  0.23771500  0.65734000  0.17998100  1
  O  O29  1  0.75353600  0.72293500  0.42847000  1
  O  O30  1  0.82786400  0.71935200  0.26303700  1
  O  O31  1  0.81316300  0.78260000  0.85191400  1
  O  O32  1  0.31316300  0.71740000  0.35191400  1
  O  O33  1  0.32786400  0.78064800  0.76303700  1
  O  O34  1  0.25353600  0.77706500  0.92847000  1
  O  O35  1  0.73771500  0.84266000  0.67998100  1
  O  O36  1  0.86029900  0.85700200  0.13968900  1
  O  O37  1  0.34116400  0.89278600  0.46813300  1
  O  O38  1  0.82667900  0.91990500  0.97384500  1
  O  O39  1  0.27510900  0.94685600  0.64655500  1
  O  O40  1  0.77510900  0.05314400  0.35344500  1
  O  O41  1  0.32667900  0.08009500  0.02615500  1
  O  O42  1  0.84116400  0.10721400  0.53186700  1
  O  O43  1  0.36029900  0.14299800  0.86031100  1
  O  O44  1  0.23771500  0.15734000  0.32001900  1
  O  O45  1  0.75353600  0.22293500  0.07153000  1
  O  O46  1  0.82786400  0.21935200  0.23696300  1
  O  O47  1  0.81316300  0.28260000  0.64808600  1
  O  O48  1  0.31316300  0.21740000  0.14808600  1
  O  O49  1  0.32786400  0.28064800  0.73696300  1
  O  O50  1  0.25353600  0.27706500  0.57153000  1
  O  O51  1  0.73771500  0.34266000  0.82001900  1
  O  O52  1  0.86029900  0.35700200  0.36031100  1
  O  O53  1  0.34116400  0.39278600  0.03186700  1
  O  O54  1  0.82667900  0.41990500  0.52615500  1
  O  O55  1  0.27510900  0.44685600  0.85344500  1
