# generated using pymatgen
data_Li5CoO4
_symmetry_space_group_name_H-M   'P 1'
_cell_length_a   6.68264900
_cell_length_b   7.08101500
_cell_length_c   7.99330900
_cell_angle_alpha   90.00000000
_cell_angle_beta   90.00000000
_cell_angle_gamma   90.00000000
_symmetry_Int_Tables_number   1
_chemical_formula_structural   Li5CoO4
_chemical_formula_sum   'Li20 Co4 O16'
_cell_volume   378.24288477
_cell_formula_units_Z   4
loop_
 _symmetry_equiv_pos_site_id
 _symmetry_equiv_pos_as_xyz
  1  'x, y, z'
loop_
 _atom_site_type_symbol
 _atom_site_label
 _atom_site_symmetry_multiplicity
 _atom_site_fract_x
 _atom_site_fract_y
 _atom_site_fract_z
 _atom_site_occupancy
  Li  Li0  1  0.75662000  0.50000000  0.00000000  1
  Li  Li1  1  0.24338000  0.50000000  0.00000000  1
  Li  Li2  1  0.50000000  0.74397600  0.09777400  1
  Li  Li3  1  0.74488300  0.97794300  0.15552400  1
  Li  Li4  1  0.25511700  0.97794300  0.15552400  1
  Li  Li5  1  0.50000000  0.24209600  0.20380900  1
  Li  Li6  1  0.00000000  0.74209600  0.29619100  1
  Li  Li7  1  0.75511700  0.47794300  0.34447600  1
  Li  Li8  1  0.24488300  0.47794300  0.34447600  1
  Li  Li9  1  0.00000000  0.24397600  0.40222600  1
  Li  Li10  1  0.25662000  0.00000000  0.50000000  1
  Li  Li11  1  0.74338000  0.00000000  0.50000000  1
  Li  Li12  1  0.00000000  0.75602400  0.59777400  1
  Li  Li13  1  0.75511700  0.52205700  0.65552400  1
  Li  Li14  1  0.24488300  0.52205700  0.65552400  1
  Li  Li15  1  0.00000000  0.25790400  0.70380900  1
  Li  Li16  1  0.50000000  0.75790400  0.79619100  1
  Li  Li17  1  0.74488300  0.02205700  0.84447600  1
  Li  Li18  1  0.25511700  0.02205700  0.84447600  1
  Li  Li19  1  0.50000000  0.25602400  0.90222600  1
  Co  Co20  1  0.00000000  0.23234400  0.10280500  1
  Co  Co21  1  0.50000000  0.73234400  0.39719500  1
  Co  Co22  1  0.50000000  0.26765600  0.60280500  1
  Co  Co23  1  0.00000000  0.76765600  0.89719500  1
  O  O24  1  0.74042800  0.21758600  0.02402100  1
  O  O25  1  0.25957200  0.21758600  0.02402100  1
  O  O26  1  0.00000000  0.46851400  0.21618400  1
  O  O27  1  0.50000000  0.52324000  0.23690800  1
  O  O28  1  0.00000000  0.02324000  0.26309200  1
  O  O29  1  0.50000000  0.96851400  0.28381600  1
  O  O30  1  0.75957200  0.71758600  0.47597900  1
  O  O31  1  0.24042800  0.71758600  0.47597900  1
  O  O32  1  0.75957200  0.28241400  0.52402100  1
  O  O33  1  0.24042800  0.28241400  0.52402100  1
  O  O34  1  0.50000000  0.03148600  0.71618400  1
  O  O35  1  0.00000000  0.97676000  0.73690800  1
  O  O36  1  0.50000000  0.47676000  0.76309200  1
  O  O37  1  0.00000000  0.53148600  0.78381600  1
  O  O38  1  0.74042800  0.78241400  0.97597900  1
  O  O39  1  0.25957200  0.78241400  0.97597900  1
