# generated using pymatgen
data_Li4Mn3(SnO5)2
_symmetry_space_group_name_H-M   'P 1'
_cell_length_a   6.64368700
_cell_length_b   8.25232135
_cell_length_c   8.35386339
_cell_angle_alpha   95.25345274
_cell_angle_beta   88.26785820
_cell_angle_gamma   113.28710718
_symmetry_Int_Tables_number   1
_chemical_formula_structural   Li4Mn3(SnO5)2
_chemical_formula_sum   'Li8 Mn6 Sn4 O20'
_cell_volume   418.92006031
_cell_formula_units_Z   2
loop_
 _symmetry_equiv_pos_site_id
 _symmetry_equiv_pos_as_xyz
  1  'x, y, z'
loop_
 _atom_site_type_symbol
 _atom_site_label
 _atom_site_symmetry_multiplicity
 _atom_site_fract_x
 _atom_site_fract_y
 _atom_site_fract_z
 _atom_site_occupancy
  Li  Li0  1  0.89842500  0.21842500  0.31007200  1
  Li  Li1  1  0.19187600  0.60360000  0.39612400  1
  Li  Li2  1  0.74337500  0.51986700  0.23917600  1
  Li  Li3  1  0.25662500  0.48013300  0.76082400  1
  Li  Li4  1  0.80812400  0.39640000  0.60387600  1
  Li  Li5  1  0.10157500  0.78157500  0.68992800  1
  Li  Li6  1  0.69295800  0.61251700  0.91178300  1
  Li  Li7  1  0.30704200  0.38748300  0.08821700  1
  Mn  Mn8  1  0.03390200  0.89744100  0.34091800  1
  Mn  Mn9  1  0.96609800  0.10255900  0.65908200  1
  Mn  Mn10  1  0.50000000  0.00000000  0.50000000  1
  Mn  Mn11  1  0.00000000  0.00000000  0.00000000  1
  Mn  Mn12  1  0.54191300  0.89580000  0.84442300  1
  Mn  Mn13  1  0.45808700  0.10420000  0.15557700  1
  Sn  Sn14  1  0.64622900  0.69537800  0.54094400  1
  Sn  Sn15  1  0.35377100  0.30462200  0.45905600  1
  Sn  Sn16  1  0.15844800  0.69389800  0.04689700  1
  Sn  Sn17  1  0.84155200  0.30610200  0.95310300  1
  O  O18  1  0.21939500  0.05805900  0.56503200  1
  O  O19  1  0.06733700  0.32428000  0.54040000  1
  O  O20  1  0.93266300  0.67572000  0.45960000  1
  O  O21  1  0.61280100  0.23210700  0.39328200  1
  O  O22  1  0.46306200  0.53357000  0.34397000  1
  O  O23  1  0.78060500  0.94194100  0.43496800  1
  O  O24  1  0.10261000  0.23791900  0.89063900  1
  O  O25  1  0.30672300  0.86670100  0.25998200  1
  O  O26  1  0.96447300  0.53904000  0.84044500  1
  O  O27  1  0.69327700  0.13329900  0.74001800  1
  O  O28  1  0.81362500  0.85588300  0.76023900  1
  O  O29  1  0.53693800  0.46643000  0.65603000  1
  O  O30  1  0.18637500  0.14411700  0.23976100  1
  O  O31  1  0.38719900  0.76789300  0.60671800  1
  O  O32  1  0.72388500  0.07085700  0.07473300  1
  O  O33  1  0.03552700  0.46096000  0.15955500  1
  O  O34  1  0.89739000  0.76208100  0.10936100  1
  O  O35  1  0.57385200  0.33283400  0.05944300  1
  O  O36  1  0.42614800  0.66716600  0.94055700  1
  O  O37  1  0.27611500  0.92914300  0.92526700  1
