# generated using pymatgen
data_Li3V3P8O29
_symmetry_space_group_name_H-M   'P 1'
_cell_length_a   9.75855500
_cell_length_b   9.75986888
_cell_length_c   14.42754530
_cell_angle_alpha   90.50327631
_cell_angle_beta   89.93890189
_cell_angle_gamma   119.93832977
_symmetry_Int_Tables_number   1
_chemical_formula_structural   Li3V3P8O29
_chemical_formula_sum   'Li6 V6 P16 O58'
_cell_volume   1190.69954340
_cell_formula_units_Z   2
loop_
 _symmetry_equiv_pos_site_id
 _symmetry_equiv_pos_as_xyz
  1  'x, y, z'
loop_
 _atom_site_type_symbol
 _atom_site_label
 _atom_site_symmetry_multiplicity
 _atom_site_fract_x
 _atom_site_fract_y
 _atom_site_fract_z
 _atom_site_occupancy
  Li  Li0  1  0.90956700  0.67867400  0.44269200  1
  Li  Li1  1  0.77751200  0.69666600  0.94051700  1
  Li  Li2  1  0.30969800  0.08196800  0.93670900  1
  Li  Li3  1  0.32120200  0.22860300  0.44963800  1
  Li  Li4  1  0.21556800  0.30267700  0.04933600  1
  Li  Li5  1  0.96091400  0.02368800  0.50195300  1
  V  V6  1  0.56733900  0.57145400  0.74625700  1
  V  V7  1  0.43773400  0.43454300  0.25324200  1
  V  V8  1  0.56935400  0.00546000  0.25196000  1
  V  V9  1  0.43820500  0.99389600  0.74643300  1
  V  V10  1  0.99908700  0.43303300  0.75126200  1
  V  V11  1  0.00167200  0.56221800  0.25136100  1
  P  P12  1  0.91361000  0.22396200  0.16204800  1
  P  P13  1  0.78143000  0.08200200  0.66318200  1
  P  P14  1  0.91613400  0.68779200  0.65614700  1
  P  P15  1  0.66377600  0.33622900  0.86626400  1
  P  P16  1  0.66549900  0.33486300  0.36889600  1
  P  P17  1  0.77115400  0.67685400  0.15783200  1
  P  P18  1  0.69574500  0.78208400  0.33464100  1
  P  P19  1  0.31885000  0.08852400  0.15480100  1
  P  P20  1  0.69049900  0.91647900  0.84484100  1
  P  P21  1  0.31530900  0.22334800  0.66062800  1
  P  P22  1  0.22942400  0.32038200  0.83720500  1
  P  P23  1  0.32872600  0.66106200  0.63335400  1
  P  P24  1  0.33586400  0.66539300  0.13665800  1
  P  P25  1  0.08398200  0.30439700  0.34352700  1
  P  P26  1  0.22331100  0.91822800  0.33416000  1
  P  P27  1  0.08838100  0.77602900  0.83581300  1
  O  O28  1  0.01204900  0.20737400  0.42651300  1
  O  O29  1  0.91299300  0.25784900  0.67235500  1
  O  O30  1  0.76762300  0.99650200  0.93200400  1
  O  O31  1  0.74249600  0.08415600  0.16872700  1
  O  O32  1  0.90541200  0.37874200  0.18191000  1
  O  O33  1  0.81558100  0.34542200  0.82086500  1
  O  O34  1  0.91674500  0.53141000  0.67075200  1
  O  O35  1  0.99322800  0.77433200  0.91633100  1
  O  O36  1  0.91645300  0.65501800  0.17475700  1
  O  O37  1  0.67196400  0.19086400  0.32414000  1
  O  O38  1  0.61802000  0.07564800  0.67181400  1
  O  O39  1  0.81348200  0.48882200  0.33257100  1
  O  O40  1  0.66489500  0.34394800  0.96911200  1
  O  O41  1  0.64874700  0.33289100  0.47137100  1
  O  O42  1  0.65836200  0.48247900  0.82406900  1
  O  O43  1  0.47859300  0.09777300  0.17860100  1
  O  O44  1  0.51907800  0.18252400  0.82538800  1
  O  O45  1  0.74473500  0.65796600  0.67257400  1
  O  O46  1  0.78527400  0.79982300  0.23708900  1
  O  O47  1  0.80064700  0.79553300  0.41320300  1
  O  O48  1  0.76179600  0.73467100  0.06538600  1
  O  O49  1  0.62022200  0.51737000  0.18300900  1
  O  O50  1  0.51001700  0.32500600  0.32499500  1
  O  O51  1  0.65953300  0.74268800  0.83657800  1
  O  O52  1  0.47108600  0.38348100  0.67307700  1
  O  O53  1  0.34977900  0.08552800  0.67189200  1
  O  O54  1  0.79862600  0.99973700  0.75471000  1
  O  O55  1  0.80000900  0.00451700  0.57983200  1
  O  O56  1  0.21216900  0.01354400  0.41160000  1
  O  O57  1  0.65689600  0.91748900  0.33290300  1
  O  O58  1  0.53806200  0.62019600  0.32714000  1
  O  O59  1  0.33595400  0.25625100  0.16617500  1
  O  O60  1  0.48192900  0.66828400  0.67669700  1
  O  O61  1  0.38035300  0.47987400  0.81970900  1
  O  O62  1  0.23981600  0.24248700  0.92417800  1
  O  O63  1  0.23106100  0.20846400  0.57188100  1
  O  O64  1  0.20666100  0.20689600  0.74909100  1
  O  O65  1  0.26148600  0.34669600  0.33557700  1
  O  O66  1  0.47653600  0.81684200  0.18045900  1
  O  O67  1  0.52962800  0.90880200  0.82116000  1
  O  O68  1  0.34062000  0.51878100  0.17905500  1
  O  O69  1  0.32692200  0.65487600  0.03432000  1
  O  O70  1  0.32984400  0.66235700  0.53095100  1
  O  O71  1  0.18531500  0.51489200  0.67878000  1
  O  O72  1  0.38443100  0.92274000  0.32632700  1
  O  O73  1  0.32814200  0.81023500  0.67840000  1
  O  O74  1  0.08344600  0.34249200  0.83434500  1
  O  O75  1  0.00129100  0.20279500  0.25101700  1
  O  O76  1  0.00314900  0.23369300  0.07744900  1
  O  O77  1  0.07613500  0.45904300  0.33220100  1
  O  O78  1  0.18369200  0.65593200  0.18420500  1
  O  O79  1  0.09320500  0.62070800  0.82176300  1
  O  O80  1  0.26045000  0.91810100  0.83765000  1
  O  O81  1  0.25550700  0.02118200  0.06177400  1
  O  O82  1  0.19879900  0.98238300  0.23529000  1
  O  O83  1  0.08635000  0.74306900  0.33800200  1
  O  O84  1  0.97629000  0.76515900  0.56517700  1
  O  O85  1  0.01714100  0.80314000  0.74006300  1
