# generated using pymatgen
data_Li3Co2(SiO4)2
_symmetry_space_group_name_H-M   'P 1'
_cell_length_a   11.05014200
_cell_length_b   5.22181200
_cell_length_c   6.12890002
_cell_angle_alpha   89.23799387
_cell_angle_beta   90.00000000
_cell_angle_gamma   90.00000000
_symmetry_Int_Tables_number   1
_chemical_formula_structural   Li3Co2(SiO4)2
_chemical_formula_sum   'Li6 Co4 Si4 O16'
_cell_volume   353.61706762
_cell_formula_units_Z   2
loop_
 _symmetry_equiv_pos_site_id
 _symmetry_equiv_pos_as_xyz
  1  'x, y, z'
loop_
 _atom_site_type_symbol
 _atom_site_label
 _atom_site_symmetry_multiplicity
 _atom_site_fract_x
 _atom_site_fract_y
 _atom_site_fract_z
 _atom_site_occupancy
  Li  Li0  1  0.83022800  0.54948800  0.74349400  1
  Li  Li1  1  0.33022800  0.45051200  0.25650600  1
  Li  Li2  1  0.16948900  0.95391000  0.24116100  1
  Li  Li3  1  0.67078100  0.05528000  0.24360700  1
  Li  Li4  1  0.66948900  0.04609000  0.75883900  1
  Li  Li5  1  0.17078100  0.94472000  0.75639300  1
  Co  Co6  1  0.57644100  0.43995300  0.49948600  1
  Co  Co7  1  0.07644100  0.56004700  0.50051400  1
  Co  Co8  1  0.42197900  0.07781900  0.98578200  1
  Co  Co9  1  0.92197900  0.92218100  0.01421800  1
  Si  Si10  1  0.91682600  0.06308200  0.50479500  1
  Si  Si11  1  0.41682600  0.93691800  0.49520500  1
  Si  Si12  1  0.57992000  0.56431800  0.00435600  1
  Si  Si13  1  0.07992000  0.43568200  0.99564400  1
  O  O14  1  0.84229000  0.95580100  0.72258800  1
  O  O15  1  0.34225800  0.00510000  0.71659300  1
  O  O16  1  0.93010200  0.37961300  0.52776000  1
  O  O17  1  0.55690400  0.06240600  0.50435200  1
  O  O18  1  0.05690400  0.93759400  0.49564800  1
  O  O19  1  0.43010200  0.62038700  0.47224000  1
  O  O20  1  0.84225800  0.99490000  0.28340700  1
  O  O21  1  0.34229000  0.04419900  0.27741200  1
  O  O22  1  0.15631200  0.53623200  0.21794700  1
  O  O23  1  0.65376500  0.45622200  0.22502400  1
  O  O24  1  0.44421700  0.44360000  0.00356200  1
  O  O25  1  0.94421700  0.55640000  0.99643800  1
  O  O26  1  0.57723200  0.88244900  0.00163900  1
  O  O27  1  0.07723200  0.11755100  0.99836100  1
  O  O28  1  0.65631200  0.46376800  0.78205300  1
  O  O29  1  0.15376500  0.54377800  0.77497600  1
