# generated using pymatgen
data_LiMnP2HO7
_symmetry_space_group_name_H-M   'P 1'
_cell_length_a   7.45438764
_cell_length_b   10.57033577
_cell_length_c   7.22202515
_cell_angle_alpha   91.56015506
_cell_angle_beta   103.82967688
_cell_angle_gamma   88.36583940
_symmetry_Int_Tables_number   1
_chemical_formula_structural   LiMnP2HO7
_chemical_formula_sum   'Li4 Mn4 P8 H4 O28'
_cell_volume   552.21858674
_cell_formula_units_Z   4
loop_
 _symmetry_equiv_pos_site_id
 _symmetry_equiv_pos_as_xyz
  1  'x, y, z'
loop_
 _atom_site_type_symbol
 _atom_site_label
 _atom_site_symmetry_multiplicity
 _atom_site_fract_x
 _atom_site_fract_y
 _atom_site_fract_z
 _atom_site_occupancy
  Li  Li0  1  0.10427700  0.28529400  0.11308700  1
  Li  Li1  1  0.10391700  0.78539800  0.61273800  1
  Li  Li2  1  0.89569600  0.71473200  0.88688400  1
  Li  Li3  1  0.89609900  0.21457100  0.38730800  1
  Mn  Mn4  1  0.69677800  0.00969200  0.71929000  1
  Mn  Mn5  1  0.30322200  0.99030600  0.28071000  1
  Mn  Mn6  1  0.69635100  0.50983400  0.21921500  1
  Mn  Mn7  1  0.30375600  0.49011500  0.78081400  1
  P  P8  1  0.68041000  0.28412100  0.96355100  1
  P  P9  1  0.67987800  0.78418500  0.46317600  1
  P  P10  1  0.31956700  0.71587900  0.03645700  1
  P  P11  1  0.32012600  0.21580900  0.53680300  1
  P  P12  1  0.13944500  0.58270700  0.29862200  1
  P  P13  1  0.13954000  0.08279200  0.79860700  1
  P  P14  1  0.86059000  0.41729400  0.70142300  1
  P  P15  1  0.86042700  0.91721500  0.20135700  1
  H  H16  1  0.69459500  0.58652300  0.61813800  1
  H  H17  1  0.69462500  0.08653200  0.11822700  1
  H  H18  1  0.30543200  0.41347800  0.38186100  1
  H  H19  1  0.30534100  0.91347700  0.88176600  1
  O  O20  1  0.62707200  0.14375600  0.93638700  1
  O  O21  1  0.62686300  0.64374100  0.43619700  1
  O  O22  1  0.37290400  0.85625100  0.06360600  1
  O  O23  1  0.37316500  0.35625100  0.56379300  1
  O  O24  1  0.17163600  0.10464400  0.01276500  1
  O  O25  1  0.17171100  0.60465500  0.51278000  1
  O  O26  1  0.82830800  0.89537000  0.98719900  1
  O  O27  1  0.82833800  0.39533600  0.48725700  1
  O  O28  1  0.84424800  0.30770900  0.13235000  1
  O  O29  1  0.84362500  0.80803300  0.63204000  1
  O  O30  1  0.15571700  0.69230100  0.86768300  1
  O  O31  1  0.15638600  0.19197200  0.36792800  1
  O  O32  1  0.52379400  0.37720700  0.98352200  1
  O  O33  1  0.52310100  0.87718200  0.48287200  1
  O  O34  1  0.47618200  0.62279500  0.01648200  1
  O  O35  1  0.47689900  0.12280600  0.51711600  1
  O  O36  1  0.23280200  0.45272100  0.25187900  1
  O  O37  1  0.23273500  0.95280400  0.75179400  1
  O  O38  1  0.76722200  0.54728700  0.74812900  1
  O  O39  1  0.76723400  0.04720000  0.24819100  1
  O  O40  1  0.74346200  0.31052500  0.77014300  1
  O  O41  1  0.74316100  0.81043600  0.26981900  1
  O  O42  1  0.25654300  0.68948200  0.22989000  1
  O  O43  1  0.25682200  0.18956600  0.73014700  1
  O  O44  1  0.05755100  0.40693600  0.82113200  1
  O  O45  1  0.05735200  0.90673700  0.32111100  1
  O  O46  1  0.94246500  0.59306500  0.17892600  1
  O  O47  1  0.94262700  0.09327400  0.67882900  1
