# generated using pymatgen
data_Li3V3P8O29
_symmetry_space_group_name_H-M   'P 1'
_cell_length_a   9.73544800
_cell_length_b   9.77300010
_cell_length_c   14.23634104
_cell_angle_alpha   90.51620768
_cell_angle_beta   90.13467176
_cell_angle_gamma   119.78231037
_symmetry_Int_Tables_number   1
_chemical_formula_structural   Li3V3P8O29
_chemical_formula_sum   'Li6 V6 P16 O58'
_cell_volume   1175.52072603
_cell_formula_units_Z   2
loop_
 _symmetry_equiv_pos_site_id
 _symmetry_equiv_pos_as_xyz
  1  'x, y, z'
loop_
 _atom_site_type_symbol
 _atom_site_label
 _atom_site_symmetry_multiplicity
 _atom_site_fract_x
 _atom_site_fract_y
 _atom_site_fract_z
 _atom_site_occupancy
  Li  Li0  1  0.92197600  0.22304900  0.94501100  1
  Li  Li1  1  0.77705400  0.68392700  0.94249500  1
  Li  Li2  1  0.09401000  0.32835700  0.55353700  1
  Li  Li3  1  0.90270200  0.66947600  0.43929300  1
  Li  Li4  1  0.68132500  0.91107900  0.06241200  1
  Li  Li5  1  0.99252800  0.99768100  0.49257700  1
  V  V6  1  0.00136600  0.43661500  0.75185100  1
  V  V7  1  0.00353200  0.56895400  0.24492600  1
  V  V8  1  0.43383100  0.42849300  0.24939100  1
  V  V9  1  0.55661300  0.56306000  0.74644800  1
  V  V10  1  0.43435900  0.00022500  0.74561700  1
  V  V11  1  0.56112200  0.00501200  0.26033800  1
  P  P12  1  0.30969700  0.08095600  0.15646000  1
  P  P13  1  0.30188000  0.22036200  0.66153600  1
  P  P14  1  0.78104600  0.08362200  0.65827000  1
  P  P15  1  0.66779300  0.33372700  0.86716400  1
  P  P16  1  0.67262500  0.34286400  0.36893900  1
  P  P17  1  0.90537200  0.22555500  0.16085800  1
  P  P18  1  0.08890800  0.31544300  0.33956300  1
  P  P19  1  0.76780900  0.68121400  0.15661400  1
  P  P20  1  0.22965300  0.31418800  0.84748100  1
  P  P21  1  0.90939700  0.68357400  0.65823100  1
  P  P22  1  0.09125300  0.77814800  0.83745200  1
  P  P23  1  0.32810400  0.66365400  0.63144500  1
  P  P24  1  0.34091400  0.66875100  0.13280400  1
  P  P25  1  0.21489900  0.91682200  0.34183300  1
  P  P26  1  0.69245600  0.77693700  0.33856300  1
  P  P27  1  0.68305800  0.91355900  0.84130800  1
  O  O28  1  0.18977000  0.98999900  0.42659400  1
  O  O29  1  0.34336200  0.08674200  0.66542600  1
  O  O30  1  0.23671100  0.24368900  0.93607600  1
  O  O31  1  0.34331500  0.25430800  0.16883300  1
  O  O32  1  0.47004300  0.08740200  0.18327300  1
  O  O33  1  0.52749800  0.18500500  0.81773700  1
  O  O34  1  0.61735200  0.07544200  0.66788400  1
  O  O35  1  0.75591000  0.99819400  0.93221900  1
  O  O36  1  0.73705400  0.08024600  0.16602000  1
  O  O37  1  0.52163100  0.33341700  0.32289900  1
  O  O38  1  0.46127400  0.38142300  0.67149900  1
  O  O39  1  0.67477000  0.19220900  0.32655000  1
  O  O40  1  0.67845200  0.32936800  0.97081400  1
  O  O41  1  0.67571900  0.34818400  0.47306300  1
  O  O42  1  0.82043900  0.33569900  0.82353700  1
  O  O43  1  0.61854000  0.52141100  0.17489400  1
  O  O44  1  0.66400800  0.48127300  0.82901800  1
  O  O45  1  0.91660800  0.26031600  0.66525300  1
  O  O46  1  0.99685300  0.20591800  0.24966100  1
  O  O47  1  0.01748200  0.23315600  0.42909600  1
  O  O48  1  0.98559900  0.23540500  0.07085000  1
  O  O49  1  0.89780200  0.37934800  0.18072200  1
  O  O50  1  0.81936100  0.49418200  0.32825300  1
  O  O51  1  0.08380000  0.34162600  0.83817600  1
  O  O52  1  0.91073900  0.52732300  0.67565100  1
  O  O53  1  0.73790800  0.65048000  0.67427100  1
  O  O54  1  0.20662600  0.20271900  0.75672100  1
  O  O55  1  0.20313600  0.21105400  0.57941100  1
  O  O56  1  0.80426200  0.79978900  0.41691500  1
  O  O57  1  0.26063700  0.34723000  0.32973600  1
  O  O58  1  0.08675000  0.47138800  0.32535000  1
  O  O59  1  0.91376700  0.65772000  0.16443200  1
  O  O60  1  0.18321800  0.50978000  0.67364500  1
  O  O61  1  0.09780700  0.62209300  0.82054300  1
  O  O62  1  0.99488300  0.76543400  0.92025500  1
  O  O63  1  0.97154000  0.75529100  0.56559200  1
  O  O64  1  0.01048500  0.79997300  0.74249400  1
  O  O65  1  0.08239900  0.73951000  0.33402000  1
  O  O66  1  0.34557900  0.52615100  0.17983600  1
  O  O67  1  0.38121800  0.47415600  0.82187000  1
  O  O68  1  0.18554200  0.66041100  0.17685900  1
  O  O69  1  0.33922200  0.66324600  0.02890100  1
  O  O70  1  0.32346900  0.65060500  0.52766100  1
  O  O71  1  0.32599000  0.81064000  0.67381400  1
  O  O72  1  0.54111200  0.61524900  0.33138600  1
  O  O73  1  0.48030800  0.66906700  0.67719900  1
  O  O74  1  0.26181400  0.91793000  0.83241900  1
  O  O75  1  0.19826000  0.99378400  0.24654800  1
  O  O76  1  0.23908400  0.00016000  0.06750600  1
  O  O77  1  0.37883900  0.92169300  0.33356600  1
  O  O78  1  0.48503000  0.82040900  0.17526900  1
  O  O79  1  0.52349800  0.90575900  0.81989100  1
  O  O80  1  0.65998000  0.74473800  0.83897700  1
  O  O81  1  0.75753800  0.75442900  0.06663500  1
  O  O82  1  0.78714400  0.79970400  0.24043500  1
  O  O83  1  0.64947500  0.91032200  0.33498300  1
  O  O84  1  0.80757500  0.00633800  0.57615200  1
  O  O85  1  0.79913000  0.00809900  0.75640700  1
