# generated using pymatgen
data_SrLi4NiO4
_symmetry_space_group_name_H-M   'P 1'
_cell_length_a   14.64239200
_cell_length_b   5.69464000
_cell_length_c   11.15823866
_cell_angle_alpha   73.45781108
_cell_angle_beta   90.00000000
_cell_angle_gamma   90.00000000
_symmetry_Int_Tables_number   1
_chemical_formula_structural   SrLi4NiO4
_chemical_formula_sum   'Sr8 Li32 Ni8 O32'
_cell_volume   891.89978842
_cell_formula_units_Z   8
loop_
 _symmetry_equiv_pos_site_id
 _symmetry_equiv_pos_as_xyz
  1  'x, y, z'
loop_
 _atom_site_type_symbol
 _atom_site_label
 _atom_site_symmetry_multiplicity
 _atom_site_fract_x
 _atom_site_fract_y
 _atom_site_fract_z
 _atom_site_occupancy
  Sr  Sr0  1  0.80015900  0.63603800  0.74407600  1
  Sr  Sr1  1  0.55723100  0.07981900  0.33398500  1
  Sr  Sr2  1  0.30015900  0.36396200  0.75592400  1
  Sr  Sr3  1  0.05723100  0.92018100  0.16601500  1
  Sr  Sr4  1  0.94276900  0.07981900  0.83398500  1
  Sr  Sr5  1  0.69984100  0.63603800  0.24407600  1
  Sr  Sr6  1  0.44276900  0.92018100  0.66601500  1
  Sr  Sr7  1  0.19984100  0.36396200  0.25592400  1
  Li  Li8  1  0.92869100  0.92415400  0.54145600  1
  Li  Li9  1  0.17129800  0.81253300  0.61772700  1
  Li  Li10  1  0.66664000  0.45874300  0.00477600  1
  Li  Li11  1  0.61056900  0.66315200  0.63073600  1
  Li  Li12  1  0.92504100  0.37857800  0.02605300  1
  Li  Li13  1  0.47353100  0.34320500  0.07559000  1
  Li  Li14  1  0.36849300  0.10599500  0.22090300  1
  Li  Li15  1  0.11056900  0.33684800  0.86926400  1
  Li  Li16  1  0.72722200  0.88084500  0.48324300  1
  Li  Li17  1  0.83336000  0.45874300  0.50477600  1
  Li  Li18  1  0.67129800  0.18746700  0.88227300  1
  Li  Li19  1  0.22722200  0.11915500  0.01675700  1
  Li  Li20  1  0.86849300  0.89400500  0.27909700  1
  Li  Li21  1  0.57495900  0.37857800  0.52605300  1
  Li  Li22  1  0.42869100  0.07584600  0.95854400  1
  Li  Li23  1  0.02646900  0.34320500  0.57559000  1
  Li  Li24  1  0.97353100  0.65679500  0.42441000  1
  Li  Li25  1  0.57130900  0.92415400  0.04145600  1
  Li  Li26  1  0.42504100  0.62142200  0.47394700  1
  Li  Li27  1  0.13150700  0.10599500  0.72090300  1
  Li  Li28  1  0.77277800  0.88084500  0.98324300  1
  Li  Li29  1  0.32870200  0.81253300  0.11772700  1
  Li  Li30  1  0.16664000  0.54125700  0.49522400  1
  Li  Li31  1  0.27277800  0.11915500  0.51675700  1
  Li  Li32  1  0.88943100  0.66315200  0.13073600  1
  Li  Li33  1  0.63150700  0.89400500  0.77909700  1
  Li  Li34  1  0.52646900  0.65679500  0.92441000  1
  Li  Li35  1  0.07495900  0.62142200  0.97394700  1
  Li  Li36  1  0.38943100  0.33684800  0.36926400  1
  Li  Li37  1  0.33336000  0.54125700  0.99522400  1
  Li  Li38  1  0.82870200  0.18746700  0.38227300  1
  Li  Li39  1  0.07130900  0.07584600  0.45854400  1
  Ni  Ni40  1  0.02296100  0.64427800  0.70523200  1
  Ni  Ni41  1  0.77912100  0.18636500  0.13074900  1
  Ni  Ni42  1  0.52296100  0.35572200  0.79476800  1
  Ni  Ni43  1  0.27912100  0.81363500  0.36925100  1
  Ni  Ni44  1  0.72087900  0.18636500  0.63074900  1
  Ni  Ni45  1  0.47703900  0.64427800  0.20523200  1
  Ni  Ni46  1  0.22087900  0.81363500  0.86925100  1
  Ni  Ni47  1  0.97703900  0.35572200  0.29476800  1
  O  O48  1  0.20223900  0.46502700  0.95754500  1
  O  O49  1  0.63514700  0.54051600  0.82224900  1
  O  O50  1  0.98328400  0.46895900  0.87136600  1
  O  O51  1  0.42741900  0.45205700  0.89813200  1
  O  O52  1  0.92741900  0.54794300  0.60186800  1
  O  O53  1  0.96546200  0.00181600  0.36286200  1
  O  O54  1  0.73724300  0.02986100  0.30579400  1
  O  O55  1  0.48328400  0.53104100  0.62863400  1
  O  O56  1  0.39312500  0.97973800  0.41639100  1
  O  O57  1  0.13514700  0.45948400  0.67775100  1
  O  O58  1  0.70223900  0.53497300  0.54245500  1
  O  O59  1  0.18378200  0.95918500  0.44159700  1
  O  O60  1  0.68378200  0.04081500  0.05840300  1
  O  O61  1  0.89312500  0.02026200  0.08360900  1
  O  O62  1  0.23724300  0.97013900  0.19420600  1
  O  O63  1  0.46546200  0.99818400  0.13713800  1
  O  O64  1  0.53453800  0.00181600  0.86286200  1
  O  O65  1  0.76275700  0.02986100  0.80579400  1
  O  O66  1  0.10687500  0.97973800  0.91639100  1
  O  O67  1  0.31621800  0.95918500  0.94159700  1
  O  O68  1  0.81621800  0.04081500  0.55840300  1
  O  O69  1  0.29776100  0.46502700  0.45754500  1
  O  O70  1  0.86485300  0.54051600  0.32224900  1
  O  O71  1  0.60687500  0.02026200  0.58360900  1
  O  O72  1  0.51671600  0.46895900  0.37136600  1
  O  O73  1  0.26275700  0.97013900  0.69420600  1
  O  O74  1  0.03453800  0.99818400  0.63713800  1
  O  O75  1  0.07258100  0.45205700  0.39813200  1
  O  O76  1  0.57258100  0.54794300  0.10186800  1
  O  O77  1  0.01671600  0.53104100  0.12863400  1
  O  O78  1  0.36485300  0.45948400  0.17775100  1
  O  O79  1  0.79776100  0.53497300  0.04245500  1
