# generated using pymatgen
data_Li4Cr3Fe3(WO8)2
_symmetry_space_group_name_H-M   'P 1'
_cell_length_a   5.98297500
_cell_length_b   5.98667569
_cell_length_c   9.70920264
_cell_angle_alpha   89.32963202
_cell_angle_beta   89.44447165
_cell_angle_gamma   60.05093090
_symmetry_Int_Tables_number   1
_chemical_formula_structural   Li4Cr3Fe3(WO8)2
_chemical_formula_sum   'Li4 Cr3 Fe3 W2 O16'
_cell_volume   301.30459149
_cell_formula_units_Z   1
loop_
 _symmetry_equiv_pos_site_id
 _symmetry_equiv_pos_as_xyz
  1  'x, y, z'
loop_
 _atom_site_type_symbol
 _atom_site_label
 _atom_site_symmetry_multiplicity
 _atom_site_fract_x
 _atom_site_fract_y
 _atom_site_fract_z
 _atom_site_occupancy
  Li  Li0  1  0.66823000  0.66791800  0.09151500  1
  Li  Li1  1  0.99858400  0.99635300  0.01099900  1
  Li  Li2  1  0.99548400  0.00434900  0.50962900  1
  Li  Li3  1  0.33359400  0.33171600  0.59528400  1
  Cr  Cr4  1  0.83243400  0.34042300  0.78505600  1
  Cr  Cr5  1  0.34096000  0.82989200  0.78523000  1
  Cr  Cr6  1  0.16961900  0.17243500  0.28609400  1
  Fe  Fe7  1  0.83214700  0.83069600  0.78856700  1
  Fe  Fe8  1  0.66058700  0.17117900  0.28968900  1
  Fe  Fe9  1  0.18438300  0.65545500  0.28205300  1
  W  W10  1  0.67070800  0.66932100  0.51466100  1
  W  W11  1  0.33849700  0.32884700  0.01249400  1
  O  O12  1  0.83192000  0.35212100  0.41130800  1
  O  O13  1  0.51983100  0.52006500  0.65687800  1
  O  O14  1  0.66499500  0.66265000  0.89014400  1
  O  O15  1  0.00203700  0.00280700  0.69532500  1
  O  O16  1  0.00485500  0.99401100  0.19829900  1
  O  O17  1  0.34332800  0.83068000  0.40927300  1
  O  O18  1  0.95939200  0.50985900  0.64898300  1
  O  O19  1  0.50697200  0.95920300  0.64799700  1
  O  O20  1  0.17093400  0.17044400  0.90673800  1
  O  O21  1  0.82575000  0.83076300  0.41511300  1
  O  O22  1  0.46546000  0.04020400  0.14829100  1
  O  O23  1  0.04102100  0.47534800  0.15212100  1
  O  O24  1  0.32324400  0.34340800  0.39173100  1
  O  O25  1  0.65615800  0.17661900  0.91162500  1
  O  O26  1  0.47817000  0.48260900  0.14480900  1
  O  O27  1  0.18100600  0.65032700  0.91225400  1
