# generated using pymatgen
data_Li11Ti24O48
_symmetry_space_group_name_H-M   'P 1'
_cell_length_a   10.36542964
_cell_length_b   10.36542964
_cell_length_c   10.36539213
_cell_angle_alpha   80.40941291
_cell_angle_beta   80.40941291
_cell_angle_gamma   119.99937222
_symmetry_Int_Tables_number   1
_chemical_formula_structural   Li11Ti24O48
_chemical_formula_sum   'Li11 Ti24 O48'
_cell_volume   909.36344841
_cell_formula_units_Z   1
loop_
 _symmetry_equiv_pos_site_id
 _symmetry_equiv_pos_as_xyz
  1  'x, y, z'
loop_
 _atom_site_type_symbol
 _atom_site_label
 _atom_site_symmetry_multiplicity
 _atom_site_fract_x
 _atom_site_fract_y
 _atom_site_fract_z
 _atom_site_occupancy
  Li  Li0  1  0.45835700  0.79165100  0.62505300  1
  Li  Li1  1  0.16659000  0.83330400  0.50006300  1
  Li  Li2  1  0.79165100  0.45835700  0.62505300  1
  Li  Li3  1  0.29107700  0.95843800  0.12468400  1
  Li  Li4  1  0.50004200  0.50004200  0.50006200  1
  Li  Li5  1  0.83330400  0.16659000  0.50006300  1
  Li  Li6  1  0.33335900  0.66669300  0.99993300  1
  Li  Li7  1  0.12469700  0.12469700  0.62578400  1
  Li  Li8  1  0.62579800  0.62579800  0.12468000  1
  Li  Li9  1  0.95843800  0.29107700  0.12468400  1
  Li  Li10  1  0.66669300  0.33335900  0.99993300  1
  Ti  Ti11  1  0.73073700  0.89696500  0.81391300  1
  Ti  Ti12  1  0.22707200  0.89575900  0.81390400  1
  Ti  Ti13  1  0.89696500  0.73073700  0.81391300  1
  Ti  Ti14  1  0.22830400  0.39335900  0.81389900  1
  Ti  Ti15  1  0.06263200  0.56260000  0.81205000  1
  Ti  Ti16  1  0.73136900  0.89642700  0.31083100  1
  Ti  Ti17  1  0.56273700  0.56273700  0.81204700  1
  Ti  Ti18  1  0.89575900  0.22707200  0.81390400  1
  Ti  Ti19  1  0.81203000  0.81203000  0.56280000  1
  Ti  Ti20  1  0.64822500  0.97957100  0.06133100  1
  Ti  Ti21  1  0.14565300  0.47938100  0.56302100  1
  Ti  Ti22  1  0.39605000  0.72980700  0.31250500  1
  Ti  Ti23  1  0.39335900  0.22830400  0.81389900  1
  Ti  Ti24  1  0.89642700  0.73136900  0.31083100  1
  Ti  Ti25  1  0.06183500  0.56203000  0.31251000  1
  Ti  Ti26  1  0.22957500  0.39562300  0.31254700  1
  Ti  Ti27  1  0.56260000  0.06263200  0.81205000  1
  Ti  Ti28  1  0.72980700  0.39605000  0.31250500  1
  Ti  Ti29  1  0.97957100  0.64822500  0.06133100  1
  Ti  Ti30  1  0.47938100  0.14565300  0.56302100  1
  Ti  Ti31  1  0.39562300  0.22957500  0.31254700  1
  Ti  Ti32  1  0.56203000  0.06183500  0.31251000  1
  Ti  Ti33  1  0.06136900  0.06136900  0.31085300  1
  Ti  Ti34  1  0.31086800  0.31086800  0.06131400  1
  O  O35  1  0.53872800  0.87243600  0.93138300  1
  O  O36  1  0.61862100  0.76868900  0.69365300  1
  O  O37  1  0.43560400  0.95204500  0.69362500  1
  O  O38  1  0.02342300  0.83608900  0.92972500  1
  O  O39  1  0.17336700  0.68917800  0.93131600  1
  O  O40  1  0.35654300  0.50703300  0.93132600  1
  O  O41  1  0.87243600  0.53872800  0.93138300  1
  O  O42  1  0.09824100  0.76460900  0.70551800  1
  O  O43  1  0.69329700  0.69329700  0.91881700  1
  O  O44  1  0.25218400  0.58565100  0.69356900  1
  O  O45  1  0.91883500  0.91883500  0.69327600  1
  O  O46  1  0.52685100  0.86031200  0.41895500  1
  O  O47  1  0.02701400  0.36076500  0.91878800  1
  O  O48  1  0.76868900  0.61862100  0.69365300  1
  O  O49  1  0.95204500  0.43560400  0.69362500  1
  O  O50  1  0.45178800  0.93544900  0.19380600  1
  O  O51  1  0.60160800  0.78500500  0.19395100  1
  O  O52  1  0.10224600  0.28562000  0.69328600  1
  O  O53  1  0.00660500  0.85606300  0.43178500  1
  O  O54  1  0.50703300  0.35654300  0.93132600  1
  O  O55  1  0.68917800  0.17336700  0.93131600  1
  O  O56  1  0.33976200  0.52291400  0.43134400  1
  O  O57  1  0.18948200  0.67313500  0.43127800  1
  O  O58  1  0.83608900  0.02342300  0.92972500  1
  O  O59  1  0.21077100  0.21077100  0.92977200  1
  O  O60  1  0.70554800  0.70554800  0.43174300  1
  O  O61  1  0.03937000  0.37266800  0.43139800  1
  O  O62  1  0.43175100  0.43175100  0.70552600  1
  O  O63  1  0.76460900  0.09824100  0.70551800  1
  O  O64  1  0.92978000  0.92978000  0.21078900  1
  O  O65  1  0.26467200  0.59803600  0.20608200  1
  O  O66  1  0.86031200  0.52685100  0.41895500  1
  O  O67  1  0.36076500  0.02701400  0.91878800  1
  O  O68  1  0.08570600  0.75195200  0.19389700  1
  O  O69  1  0.58565100  0.25218400  0.69356900  1
  O  O70  1  0.78500500  0.60160800  0.19395100  1
  O  O71  1  0.93544900  0.45178800  0.19380600  1
  O  O72  1  0.28562000  0.10224600  0.69328600  1
  O  O73  1  0.11874800  0.26911700  0.19394800  1
  O  O74  1  0.52291400  0.33976200  0.43134400  1
  O  O75  1  0.67313500  0.18948200  0.43127800  1
  O  O76  1  0.85606300  0.00660500  0.43178500  1
  O  O77  1  0.59803600  0.26467200  0.20608200  1
  O  O78  1  0.37266800  0.03937000  0.43139800  1
  O  O79  1  0.19372900  0.19372900  0.41902300  1
  O  O80  1  0.41898400  0.41898400  0.19375700  1
  O  O81  1  0.75195200  0.08570600  0.19389700  1
  O  O82  1  0.26911700  0.11874800  0.19394800  1
