# generated using pymatgen
data_LiFePO4
_symmetry_space_group_name_H-M   'P 1'
_cell_length_a   5.13599900
_cell_length_b   10.22301600
_cell_length_c   13.67166800
_cell_angle_alpha   90.00000000
_cell_angle_beta   90.00000000
_cell_angle_gamma   90.00000000
_symmetry_Int_Tables_number   1
_chemical_formula_structural   LiFePO4
_chemical_formula_sum   'Li8 Fe8 P8 O32'
_cell_volume   717.83639636
_cell_formula_units_Z   8
loop_
 _symmetry_equiv_pos_site_id
 _symmetry_equiv_pos_as_xyz
  1  'x, y, z'
loop_
 _atom_site_type_symbol
 _atom_site_label
 _atom_site_symmetry_multiplicity
 _atom_site_fract_x
 _atom_site_fract_y
 _atom_site_fract_z
 _atom_site_occupancy
  Li  Li0  1  0.05435200  0.03314100  0.24759800  1
  Li  Li1  1  0.55008000  0.21441100  0.99793500  1
  Li  Li2  1  0.55008000  0.28558900  0.49793500  1
  Li  Li3  1  0.05435200  0.46685900  0.74759800  1
  Li  Li4  1  0.94564800  0.53314100  0.24759800  1
  Li  Li5  1  0.44992000  0.71441100  0.99793500  1
  Li  Li6  1  0.44992000  0.78558900  0.49793500  1
  Li  Li7  1  0.94564800  0.96685900  0.74759800  1
  Fe  Fe8  1  0.93348100  0.03100300  0.49897300  1
  Fe  Fe9  1  0.54805100  0.21967700  0.25003800  1
  Fe  Fe10  1  0.54805100  0.28032300  0.75003800  1
  Fe  Fe11  1  0.93348100  0.46899700  0.99897300  1
  Fe  Fe12  1  0.06651900  0.53100300  0.49897300  1
  Fe  Fe13  1  0.45194900  0.71967700  0.25003800  1
  Fe  Fe14  1  0.45194900  0.78032300  0.75003800  1
  Fe  Fe15  1  0.06651900  0.96899700  0.99897300  1
  P  P16  1  0.44226700  0.03142500  0.62385700  1
  P  P17  1  0.05108000  0.21759200  0.87226200  1
  P  P18  1  0.05108000  0.28240800  0.37226200  1
  P  P19  1  0.44226700  0.46857500  0.12385700  1
  P  P20  1  0.55773300  0.53142500  0.62385700  1
  P  P21  1  0.94892000  0.71759200  0.87226200  1
  P  P22  1  0.94892000  0.78240800  0.37226200  1
  P  P23  1  0.55773300  0.96857500  0.12385700  1
  O  O24  1  0.85652200  0.99483100  0.12377700  1
  O  O25  1  0.55988000  0.96943100  0.53002200  1
  O  O26  1  0.43627000  0.03058000  0.21712100  1
  O  O27  1  0.00279100  0.06748500  0.87134400  1
  O  O28  1  0.50179100  0.18051200  0.62322300  1
  O  O29  1  0.91575400  0.22573100  0.46466100  1
  O  O30  1  0.93957500  0.28073300  0.77769200  1
  O  O31  1  0.34760200  0.24911800  0.87589600  1
  O  O32  1  0.34760200  0.25088200  0.37589600  1
  O  O33  1  0.93957500  0.21926700  0.27769200  1
  O  O34  1  0.91575400  0.27426900  0.96466100  1
  O  O35  1  0.50179100  0.31948800  0.12322300  1
  O  O36  1  0.00279100  0.43251500  0.37134400  1
  O  O37  1  0.43627000  0.46942000  0.71712100  1
  O  O38  1  0.55988000  0.53056900  0.03002200  1
  O  O39  1  0.85652200  0.50516900  0.62377700  1
  O  O40  1  0.14347800  0.49483100  0.12377700  1
  O  O41  1  0.44012000  0.46943100  0.53002200  1
  O  O42  1  0.56373000  0.53058000  0.21712100  1
  O  O43  1  0.99720900  0.56748500  0.87134400  1
  O  O44  1  0.49820900  0.68051200  0.62322300  1
  O  O45  1  0.08424600  0.72573100  0.46466100  1
  O  O46  1  0.06042500  0.78073300  0.77769200  1
  O  O47  1  0.65239800  0.74911800  0.87589600  1
  O  O48  1  0.65239800  0.75088200  0.37589600  1
  O  O49  1  0.06042500  0.71926700  0.27769200  1
  O  O50  1  0.08424600  0.77426900  0.96466100  1
  O  O51  1  0.49820900  0.81948800  0.12322300  1
  O  O52  1  0.99720900  0.93251500  0.37134400  1
  O  O53  1  0.56373000  0.96942000  0.71712100  1
  O  O54  1  0.44012000  0.03056900  0.03002200  1
  O  O55  1  0.14347800  0.00516900  0.62377700  1
