# generated using pymatgen
data_LiCoPO4
_symmetry_space_group_name_H-M   'P 1'
_cell_length_a   8.47811032
_cell_length_b   8.47811032
_cell_length_c   7.48655800
_cell_angle_alpha   90.00000000
_cell_angle_beta   90.00000000
_cell_angle_gamma   120.00000246
_symmetry_Int_Tables_number   1
_chemical_formula_structural   LiCoPO4
_chemical_formula_sum   'Li6 Co6 P6 O24'
_cell_volume   466.02685182
_cell_formula_units_Z   6
loop_
 _symmetry_equiv_pos_site_id
 _symmetry_equiv_pos_as_xyz
  1  'x, y, z'
loop_
 _atom_site_type_symbol
 _atom_site_label
 _atom_site_symmetry_multiplicity
 _atom_site_fract_x
 _atom_site_fract_y
 _atom_site_fract_z
 _atom_site_occupancy
  Li  Li0  1  0.01309200  0.68218600  0.40743700  1
  Li  Li1  1  0.31781400  0.33090600  0.40743700  1
  Li  Li2  1  0.66909400  0.98690800  0.40743700  1
  Li  Li3  1  0.33090600  0.01309200  0.90743700  1
  Li  Li4  1  0.68218600  0.66909400  0.90743700  1
  Li  Li5  1  0.98690800  0.31781400  0.90743700  1
  Co  Co6  1  0.33333300  0.66666700  0.29705700  1
  Co  Co7  1  0.33333300  0.66666700  0.69965600  1
  Co  Co8  1  0.00000000  0.00000000  0.13957900  1
  Co  Co9  1  0.00000000  0.00000000  0.63957900  1
  Co  Co10  1  0.66666700  0.33333300  0.79705700  1
  Co  Co11  1  0.66666700  0.33333300  0.19965600  1
  P  P12  1  0.03651900  0.67593000  0.00564800  1
  P  P13  1  0.32407000  0.36058900  0.00564800  1
  P  P14  1  0.63941100  0.96348100  0.00564800  1
  P  P15  1  0.36058900  0.03651900  0.50564800  1
  P  P16  1  0.67593000  0.63941100  0.50564800  1
  P  P17  1  0.96348100  0.32407000  0.50564800  1
  O  O18  1  0.14615100  0.92999400  0.50361200  1
  O  O19  1  0.14388000  0.72206100  0.18270100  1
  O  O20  1  0.17295600  0.74305400  0.84849600  1
  O  O21  1  0.10560800  0.52792500  0.49635000  1
  O  O22  1  0.42231700  0.89439200  0.49635000  1
  O  O23  1  0.07000600  0.21615700  0.50361200  1
  O  O24  1  0.25694600  0.42990100  0.84849600  1
  O  O25  1  0.27793900  0.42181900  0.18270100  1
  O  O26  1  0.21615700  0.14615100  0.00361200  1
  O  O27  1  0.57818100  0.85612000  0.18270100  1
  O  O28  1  0.57009900  0.82704400  0.84849600  1
  O  O29  1  0.47207500  0.57768300  0.49635000  1
  O  O30  1  0.52792500  0.42231700  0.99635000  1
  O  O31  1  0.42990100  0.17295600  0.34849600  1
  O  O32  1  0.42181900  0.14388000  0.68270100  1
  O  O33  1  0.78384300  0.85384900  0.50361200  1
  O  O34  1  0.72206100  0.57818100  0.68270100  1
  O  O35  1  0.74305400  0.57009900  0.34849600  1
  O  O36  1  0.92999400  0.78384300  0.00361200  1
  O  O37  1  0.57768300  0.10560800  0.99635000  1
  O  O38  1  0.89439200  0.47207500  0.99635000  1
  O  O39  1  0.82704400  0.25694600  0.34849600  1
  O  O40  1  0.85612000  0.27793900  0.68270100  1
  O  O41  1  0.85384900  0.07000600  0.00361200  1
