# generated using pymatgen
data_Na2LiVPO6
_symmetry_space_group_name_H-M   'P 1'
_cell_length_a   12.59234400
_cell_length_b   5.97118600
_cell_length_c   8.11571643
_cell_angle_alpha   66.60972039
_cell_angle_beta   90.00000000
_cell_angle_gamma   90.00000000
_symmetry_Int_Tables_number   1
_chemical_formula_structural   Na2LiVPO6
_chemical_formula_sum   'Na8 Li4 V4 P4 O24'
_cell_volume   560.08314237
_cell_formula_units_Z   4
loop_
 _symmetry_equiv_pos_site_id
 _symmetry_equiv_pos_as_xyz
  1  'x, y, z'
loop_
 _atom_site_type_symbol
 _atom_site_label
 _atom_site_symmetry_multiplicity
 _atom_site_fract_x
 _atom_site_fract_y
 _atom_site_fract_z
 _atom_site_occupancy
  Na  Na0  1  0.90759400  0.70537700  0.43182700  1
  Na  Na1  1  0.40759400  0.29462300  0.06817300  1
  Na  Na2  1  0.66375100  0.64366400  0.54700300  1
  Na  Na3  1  0.16375100  0.35633600  0.95299700  1
  Na  Na4  1  0.83624900  0.64366400  0.04700300  1
  Na  Na5  1  0.33624900  0.35633600  0.45299700  1
  Na  Na6  1  0.59240600  0.70537700  0.93182700  1
  Na  Na7  1  0.09240600  0.29462300  0.56817300  1
  Li  Li8  1  0.47612900  0.79984700  0.24912300  1
  Li  Li9  1  0.97612900  0.20015300  0.25087700  1
  Li  Li10  1  0.02387100  0.79984700  0.74912300  1
  Li  Li11  1  0.52387100  0.20015300  0.75087700  1
  V  V12  1  0.21557900  0.91356400  0.39598000  1
  V  V13  1  0.71557900  0.08643600  0.10402000  1
  V  V14  1  0.28442100  0.91356400  0.89598000  1
  V  V15  1  0.78442100  0.08643600  0.60402000  1
  P  P16  1  0.90373500  0.27581500  0.81795300  1
  P  P17  1  0.59626500  0.27581500  0.31795300  1
  P  P18  1  0.40373500  0.72418500  0.68204700  1
  P  P19  1  0.09626500  0.72418500  0.18204700  1
  O  O20  1  0.76318500  0.80763500  0.24838100  1
  O  O21  1  0.62269000  0.08250900  0.94690900  1
  O  O22  1  0.06448000  0.97838600  0.17568300  1
  O  O23  1  0.81642300  0.37206400  0.66542100  1
  O  O24  1  0.56448000  0.02161400  0.32431700  1
  O  O25  1  0.85269800  0.26189700  0.99739500  1
  O  O26  1  0.99631900  0.46001600  0.76642500  1
  O  O27  1  0.26318500  0.19236500  0.25161900  1
  O  O28  1  0.87731000  0.08250900  0.44690900  1
  O  O29  1  0.49631900  0.53998400  0.73357500  1
  O  O30  1  0.35269800  0.73810300  0.50260500  1
  O  O31  1  0.68357700  0.37206400  0.16542100  1
  O  O32  1  0.31642300  0.62793600  0.83457900  1
  O  O33  1  0.64730200  0.26189700  0.49739500  1
  O  O34  1  0.50368100  0.46001600  0.26642500  1
  O  O35  1  0.12269000  0.91749100  0.55309100  1
  O  O36  1  0.73681500  0.80763500  0.74838100  1
  O  O37  1  0.00368100  0.53998400  0.23357500  1
  O  O38  1  0.14730200  0.73810300  0.00260500  1
  O  O39  1  0.43552000  0.97838600  0.67568300  1
  O  O40  1  0.18357700  0.62793600  0.33457900  1
  O  O41  1  0.93552000  0.02161400  0.82431700  1
  O  O42  1  0.37731000  0.91749100  0.05309100  1
  O  O43  1  0.23681500  0.19236500  0.75161900  1
