# generated using pymatgen
data_LiMnPO4
_symmetry_space_group_name_H-M   'P 1'
_cell_length_a   7.26791300
_cell_length_b   7.26784600
_cell_length_c   7.26792200
_cell_angle_alpha   89.99982656
_cell_angle_beta   90.00029957
_cell_angle_gamma   89.99990540
_symmetry_Int_Tables_number   1
_chemical_formula_structural   LiMnPO4
_chemical_formula_sum   'Li4 Mn4 P4 O16'
_cell_volume   383.90670226
_cell_formula_units_Z   4
loop_
 _symmetry_equiv_pos_site_id
 _symmetry_equiv_pos_as_xyz
  1  'x, y, z'
loop_
 _atom_site_type_symbol
 _atom_site_label
 _atom_site_symmetry_multiplicity
 _atom_site_fract_x
 _atom_site_fract_y
 _atom_site_fract_z
 _atom_site_occupancy
  Li  Li0  1  0.20261300  0.70261400  0.79738700  1
  Li  Li1  1  0.29739000  0.29739100  0.29739000  1
  Li  Li2  1  0.70261100  0.79739000  0.20261300  1
  Li  Li3  1  0.79738900  0.20261300  0.70261300  1
  Mn  Mn4  1  0.25639400  0.74359900  0.24357800  1
  Mn  Mn5  1  0.24359800  0.25639900  0.74359800  1
  Mn  Mn6  1  0.75638300  0.75637300  0.75639500  1
  Mn  Mn7  1  0.74360100  0.24358500  0.25640600  1
  P  P8  1  0.02880600  0.02880900  0.02880700  1
  P  P9  1  0.97119400  0.52881200  0.47119000  1
  P  P10  1  0.47119300  0.97119200  0.52880900  1
  P  P11  1  0.52881000  0.47119400  0.97119600  1
  O  O12  1  0.97880300  0.60280800  0.67405500  1
  O  O13  1  0.14903600  0.14903600  0.14903500  1
  O  O14  1  0.17405900  0.52120500  0.39719500  1
  O  O15  1  0.10280100  0.82594100  0.02119500  1
  O  O16  1  0.39719700  0.17406100  0.52120100  1
  O  O17  1  0.32594600  0.47880500  0.89719500  1
  O  O18  1  0.35096800  0.85096600  0.64904000  1
  O  O19  1  0.52120500  0.39719400  0.17406000  1
  O  O20  1  0.47879700  0.89719200  0.32594400  1
  O  O21  1  0.64904000  0.35096900  0.85096800  1
  O  O22  1  0.67405800  0.97880000  0.60280500  1
  O  O23  1  0.60280500  0.67406100  0.97880800  1
  O  O24  1  0.89720000  0.32594500  0.47880100  1
  O  O25  1  0.82594400  0.02119900  0.10280600  1
  O  O26  1  0.85096400  0.64904200  0.35096500  1
  O  O27  1  0.02119500  0.10280700  0.82594400  1
