# generated using pymatgen
data_LiMn3P2(HO3)4
_symmetry_space_group_name_H-M   'P 1'
_cell_length_a   10.36078500
_cell_length_b   7.46522200
_cell_length_c   13.04146932
_cell_angle_alpha   63.58643255
_cell_angle_beta   90.00000000
_cell_angle_gamma   90.00000000
_symmetry_Int_Tables_number   1
_chemical_formula_structural   LiMn3P2(HO3)4
_chemical_formula_sum   'Li4 Mn12 P8 H16 O48'
_cell_volume   903.39799849
_cell_formula_units_Z   4
loop_
 _symmetry_equiv_pos_site_id
 _symmetry_equiv_pos_as_xyz
  1  'x, y, z'
loop_
 _atom_site_type_symbol
 _atom_site_label
 _atom_site_symmetry_multiplicity
 _atom_site_fract_x
 _atom_site_fract_y
 _atom_site_fract_z
 _atom_site_occupancy
  Li  Li0  1  0.39306700  0.23296600  0.17327100  1
  Li  Li1  1  0.89306700  0.76703400  0.32672900  1
  Li  Li2  1  0.10693300  0.23296600  0.67327100  1
  Li  Li3  1  0.60693300  0.76703400  0.82672900  1
  Mn  Mn4  1  0.78341000  0.51047000  0.04051500  1
  Mn  Mn5  1  0.23894200  0.02690600  0.03754000  1
  Mn  Mn6  1  0.42858400  0.75462300  0.23390300  1
  Mn  Mn7  1  0.92858400  0.24537700  0.26609700  1
  Mn  Mn8  1  0.28341000  0.48953000  0.45948500  1
  Mn  Mn9  1  0.73894200  0.97309400  0.46246000  1
  Mn  Mn10  1  0.26105800  0.02690600  0.53754000  1
  Mn  Mn11  1  0.71659000  0.51047000  0.54051500  1
  Mn  Mn12  1  0.07141600  0.75462300  0.73390300  1
  Mn  Mn13  1  0.57141600  0.24537700  0.76609700  1
  Mn  Mn14  1  0.76105800  0.97309400  0.96246000  1
  Mn  Mn15  1  0.21659000  0.48953000  0.95948500  1
  P  P16  1  0.16920100  0.55579700  0.19495800  1
  P  P17  1  0.68207300  0.04740900  0.18146300  1
  P  P18  1  0.66920100  0.44420300  0.30504200  1
  P  P19  1  0.18207300  0.95259100  0.31853700  1
  P  P20  1  0.81792700  0.04740900  0.68146300  1
  P  P21  1  0.33079900  0.55579700  0.69495800  1
  P  P22  1  0.31792700  0.95259100  0.81853700  1
  P  P23  1  0.83079900  0.44420300  0.80504200  1
  H  H24  1  0.38872900  0.77823300  0.03043800  1
  H  H25  1  0.96054200  0.77146700  0.05686700  1
  H  H26  1  0.59609400  0.66317600  0.06928500  1
  H  H27  1  0.99321600  0.28300500  0.06850900  1
  H  H28  1  0.09609400  0.33682400  0.43071500  1
  H  H29  1  0.46054200  0.22853300  0.44313300  1
  H  H30  1  0.88872900  0.22176700  0.46956200  1
  H  H31  1  0.49321600  0.71699500  0.43149100  1
  H  H32  1  0.50678400  0.28300500  0.56850900  1
  H  H33  1  0.11127100  0.77823300  0.53043800  1
  H  H34  1  0.53945800  0.77146700  0.55686700  1
  H  H35  1  0.90390600  0.66317600  0.56928500  1
  H  H36  1  0.00678400  0.71699500  0.93149100  1
  H  H37  1  0.40390600  0.33682400  0.93071500  1
  H  H38  1  0.03945800  0.22853300  0.94313300  1
  H  H39  1  0.61127100  0.22176700  0.96956200  1
  O  O40  1  0.64373400  0.70125100  0.99640000  1
  O  O41  1  0.10516200  0.22851300  0.99912200  1
  O  O42  1  0.39254800  0.86450100  0.07022400  1
  O  O43  1  0.12218400  0.76886600  0.11093400  1
  O  O44  1  0.22056000  0.44047900  0.13027500  1
  O  O45  1  0.93341600  0.34797900  0.10242400  1
  O  O46  1  0.66398100  0.27137200  0.09357500  1
  O  O47  1  0.75340100  0.93082300  0.12599200  1
  O  O48  1  0.78477400  0.43692100  0.22767600  1
  O  O49  1  0.55919100  0.55302200  0.22023900  1
  O  O50  1  0.26613800  0.98424900  0.21221000  1
  O  O51  1  0.05919100  0.44697800  0.27976100  1
  O  O52  1  0.28477400  0.56307900  0.27232400  1
  O  O53  1  0.54140700  0.97653300  0.21952200  1
  O  O54  1  0.04140700  0.02346700  0.28047800  1
  O  O55  1  0.76613800  0.01575100  0.28779000  1
  O  O56  1  0.72056000  0.55952100  0.36972500  1
  O  O57  1  0.62218400  0.23113400  0.38906600  1
  O  O58  1  0.25340100  0.06917700  0.37400800  1
  O  O59  1  0.89254800  0.13549900  0.42977600  1
  O  O60  1  0.16398100  0.72862800  0.40642500  1
  O  O61  1  0.43341600  0.65202100  0.39757600  1
  O  O62  1  0.14373400  0.29874900  0.50360000  1
  O  O63  1  0.39483800  0.22851300  0.49912200  1
  O  O64  1  0.60516200  0.77148700  0.50087800  1
  O  O65  1  0.85626600  0.70125100  0.49640000  1
  O  O66  1  0.56658400  0.34797900  0.60242400  1
  O  O67  1  0.83601900  0.27137200  0.59357500  1
  O  O68  1  0.10745200  0.86450100  0.57022400  1
  O  O69  1  0.74659900  0.93082300  0.62599200  1
  O  O70  1  0.37781600  0.76886600  0.61093400  1
  O  O71  1  0.27944000  0.44047900  0.63027500  1
  O  O72  1  0.23386200  0.98424900  0.71221000  1
  O  O73  1  0.95859300  0.97653300  0.71952200  1
  O  O74  1  0.45859300  0.02346700  0.78047800  1
  O  O75  1  0.71522600  0.43692100  0.72767600  1
  O  O76  1  0.94080900  0.55302200  0.72023900  1
  O  O77  1  0.73386200  0.01575100  0.78779000  1
  O  O78  1  0.44080900  0.44697800  0.77976100  1
  O  O79  1  0.21522600  0.56307900  0.77232400  1
  O  O80  1  0.24659900  0.06917700  0.87400800  1
  O  O81  1  0.33601900  0.72862800  0.90642500  1
  O  O82  1  0.06658400  0.65202100  0.89757600  1
  O  O83  1  0.77944000  0.55952100  0.86972500  1
  O  O84  1  0.87781600  0.23113400  0.88906600  1
  O  O85  1  0.60745200  0.13549900  0.92977600  1
  O  O86  1  0.89483800  0.77148700  0.00087800  1
  O  O87  1  0.35626600  0.29874900  0.00360000  1
