# generated using pymatgen
data_Li2TiV3O8
_symmetry_space_group_name_H-M   'P 1'
_cell_length_a   5.93375249
_cell_length_b   6.02797870
_cell_length_c   8.58545928
_cell_angle_alpha   89.25127853
_cell_angle_beta   89.82130444
_cell_angle_gamma   90.70397715
_symmetry_Int_Tables_number   1
_chemical_formula_structural   Li2TiV3O8
_chemical_formula_sum   'Li4 Ti2 V6 O16'
_cell_volume   307.03824061
_cell_formula_units_Z   2
loop_
 _symmetry_equiv_pos_site_id
 _symmetry_equiv_pos_as_xyz
  1  'x, y, z'
loop_
 _atom_site_type_symbol
 _atom_site_label
 _atom_site_symmetry_multiplicity
 _atom_site_fract_x
 _atom_site_fract_y
 _atom_site_fract_z
 _atom_site_occupancy
  Li  Li0  1  0.74938300  0.74949600  0.74966200  1
  Li  Li1  1  0.24965600  0.25024800  0.24945800  1
  Li  Li2  1  0.25054900  0.75122400  0.74879700  1
  Li  Li3  1  0.74955200  0.24810700  0.25142400  1
  Ti  Ti4  1  0.00047800  0.99670500  0.00024700  1
  Ti  Ti5  1  0.49912500  0.49867600  0.50028300  1
  V  V6  1  0.99975700  0.50150800  0.49931100  1
  V  V7  1  0.25067200  0.74973600  0.24967600  1
  V  V8  1  0.25056800  0.25014500  0.75146100  1
  V  V9  1  0.50085200  0.00340200  0.99951200  1
  V  V10  1  0.75078500  0.24925400  0.74906300  1
  V  V11  1  0.75051700  0.74946000  0.25143500  1
  O  O12  1  0.00108600  0.51534700  0.26819400  1
  O  O13  1  0.49947300  0.01517900  0.76825400  1
  O  O14  1  0.00107700  0.48396200  0.73035300  1
  O  O15  1  0.50007000  0.98436400  0.23051700  1
  O  O16  1  0.49824400  0.51361300  0.27096500  1
  O  O17  1  0.99732800  0.01348000  0.77094000  1
  O  O18  1  0.50387100  0.48529300  0.72938500  1
  O  O19  1  0.00223700  0.98563600  0.22966000  1
  O  O20  1  0.25439200  0.78817500  0.00687300  1
  O  O21  1  0.75585100  0.28805500  0.50619400  1
  O  O22  1  0.74867900  0.78476900  0.01157500  1
  O  O23  1  0.24988000  0.28429400  0.51145800  1
  O  O24  1  0.24856100  0.21684200  0.99069500  1
  O  O25  1  0.74866300  0.71722200  0.49037100  1
  O  O26  1  0.74425800  0.21287500  0.99186000  1
  O  O27  1  0.24442700  0.71294400  0.49242700  1
