# generated using pymatgen
data_Li2Mn3WO8
_symmetry_space_group_name_H-M   'P 1'
_cell_length_a   6.05120949
_cell_length_b   6.05120949
_cell_length_c   9.89045000
_cell_angle_alpha   90.00000000
_cell_angle_beta   90.00000000
_cell_angle_gamma   119.99999447
_symmetry_Int_Tables_number   1
_chemical_formula_structural   Li2Mn3WO8
_chemical_formula_sum   'Li4 Mn6 W2 O16'
_cell_volume   313.63973975
_cell_formula_units_Z   2
loop_
 _symmetry_equiv_pos_site_id
 _symmetry_equiv_pos_as_xyz
  1  'x, y, z'
loop_
 _atom_site_type_symbol
 _atom_site_label
 _atom_site_symmetry_multiplicity
 _atom_site_fract_x
 _atom_site_fract_y
 _atom_site_fract_z
 _atom_site_occupancy
  Li  Li0  1  0.33333300  0.66666700  0.90645600  1
  Li  Li1  1  0.00000000  0.00000000  0.98530900  1
  Li  Li2  1  0.00000000  0.00000000  0.48530900  1
  Li  Li3  1  0.66666700  0.33333300  0.40645600  1
  Mn  Mn4  1  0.17037100  0.82962900  0.21332800  1
  Mn  Mn5  1  0.17037100  0.34074200  0.21332800  1
  Mn  Mn6  1  0.65925800  0.82962900  0.21332800  1
  Mn  Mn7  1  0.34074200  0.17037100  0.71332800  1
  Mn  Mn8  1  0.82962900  0.65925800  0.71332800  1
  Mn  Mn9  1  0.82962900  0.17037100  0.71332800  1
  W  W10  1  0.33333300  0.66666700  0.48597300  1
  W  W11  1  0.66666700  0.33333300  0.98597300  1
  O  O12  1  0.17348000  0.82652000  0.58612600  1
  O  O13  1  0.03955100  0.51977500  0.35593900  1
  O  O14  1  0.33333300  0.66666700  0.11473300  1
  O  O15  1  0.00000000  0.00000000  0.29528900  1
  O  O16  1  0.00000000  0.00000000  0.79528900  1
  O  O17  1  0.17348000  0.34696000  0.58612600  1
  O  O18  1  0.48022500  0.96044900  0.35593900  1
  O  O19  1  0.48022500  0.51977500  0.35593900  1
  O  O20  1  0.34696000  0.17348000  0.08612600  1
  O  O21  1  0.65304000  0.82652000  0.58612600  1
  O  O22  1  0.51977500  0.48022500  0.85593900  1
  O  O23  1  0.51977500  0.03955100  0.85593900  1
  O  O24  1  0.66666700  0.33333300  0.61473300  1
  O  O25  1  0.82652000  0.65304000  0.08612600  1
  O  O26  1  0.96044900  0.48022500  0.85593900  1
  O  O27  1  0.82652000  0.17348000  0.08612600  1
