# generated using pymatgen
data_Li3Fe(PO4)2
_symmetry_space_group_name_H-M   'P 1'
_cell_length_a   5.09208700
_cell_length_b   12.81801100
_cell_length_c   19.67860897
_cell_angle_alpha   71.02293154
_cell_angle_beta   90.00000000
_cell_angle_gamma   90.00000000
_symmetry_Int_Tables_number   1
_chemical_formula_structural   Li3Fe(PO4)2
_chemical_formula_sum   'Li24 Fe8 P16 O64'
_cell_volume   1214.62083871
_cell_formula_units_Z   8
loop_
 _symmetry_equiv_pos_site_id
 _symmetry_equiv_pos_as_xyz
  1  'x, y, z'
loop_
 _atom_site_type_symbol
 _atom_site_label
 _atom_site_symmetry_multiplicity
 _atom_site_fract_x
 _atom_site_fract_y
 _atom_site_fract_z
 _atom_site_occupancy
  Li  Li0  1  0.70222300  0.18356000  0.96712300  1
  Li  Li1  1  0.19983500  0.28557500  0.88148200  1
  Li  Li2  1  0.79777700  0.68356000  0.96712300  1
  Li  Li3  1  0.79164900  0.43301000  0.81433700  1
  Li  Li4  1  0.28672000  0.25135200  0.67874100  1
  Li  Li5  1  0.30016500  0.78557500  0.88148200  1
  Li  Li6  1  0.69005500  0.17329100  0.61765900  1
  Li  Li7  1  0.70835100  0.93301000  0.81433700  1
  Li  Li8  1  0.20243300  0.14790600  0.53686200  1
  Li  Li9  1  0.21328000  0.75135200  0.67874100  1
  Li  Li10  1  0.80994500  0.67329100  0.61765900  1
  Li  Li11  1  0.70243300  0.35209400  0.46313800  1
  Li  Li12  1  0.29756700  0.64790600  0.53686200  1
  Li  Li13  1  0.19005500  0.32670900  0.38234100  1
  Li  Li14  1  0.78672000  0.24864800  0.32125900  1
  Li  Li15  1  0.79756700  0.85209400  0.46313800  1
  Li  Li16  1  0.29164900  0.06699000  0.18566300  1
  Li  Li17  1  0.30994500  0.82670900  0.38234100  1
  Li  Li18  1  0.69983500  0.21442500  0.11851800  1
  Li  Li19  1  0.71328000  0.74864800  0.32125900  1
  Li  Li20  1  0.20835100  0.56699000  0.18566300  1
  Li  Li21  1  0.20222300  0.31644000  0.03287700  1
  Li  Li22  1  0.80016500  0.71442500  0.11851800  1
  Li  Li23  1  0.29777700  0.81644000  0.03287700  1
  Fe  Fe24  1  0.21102700  0.02634600  0.85927700  1
  Fe  Fe25  1  0.28897300  0.52634600  0.85927700  1
  Fe  Fe26  1  0.77273900  0.38619200  0.63841600  1
  Fe  Fe27  1  0.27273900  0.11380800  0.36158400  1
  Fe  Fe28  1  0.72726100  0.88619200  0.63841600  1
  Fe  Fe29  1  0.22726100  0.61380800  0.36158400  1
  Fe  Fe30  1  0.71102700  0.47365400  0.14072300  1
  Fe  Fe31  1  0.78897300  0.97365400  0.14072300  1
  P  P32  1  0.75968700  0.42497300  0.95744500  1
  P  P33  1  0.70265200  0.19489800  0.80018900  1
  P  P34  1  0.22310300  0.99448900  0.69802100  1
  P  P35  1  0.74031300  0.92497300  0.95744500  1
  P  P36  1  0.79734800  0.69489800  0.80018900  1
  P  P37  1  0.27689700  0.49448900  0.69802100  1
  P  P38  1  0.75059000  0.11462200  0.46127800  1
  P  P39  1  0.25059000  0.38537800  0.53872200  1
  P  P40  1  0.74941000  0.61462200  0.46127800  1
  P  P41  1  0.24941000  0.88537800  0.53872200  1
  P  P42  1  0.72310300  0.50551100  0.30197900  1
  P  P43  1  0.20265200  0.30510200  0.19981100  1
  P  P44  1  0.25968700  0.07502700  0.04255500  1
  P  P45  1  0.77689700  0.00551100  0.30197900  1
  P  P46  1  0.29734800  0.80510200  0.19981100  1
  P  P47  1  0.24031300  0.57502700  0.04255500  1
  O  O48  1  0.75832500  0.03507400  0.96969300  1
  O  O49  1  0.29169700  0.17999700  0.97682600  1
  O  O50  1  0.74167500  0.53507400  0.96969300  1
  O  O51  1  0.99760700  0.42487200  0.90508000  1
  O  O52  1  0.51246500  0.40355200  0.91482400  1
  O  O53  1  0.86693600  0.08897600  0.81153000  1
  O  O54  1  0.82179800  0.26979900  0.83862900  1
  O  O55  1  0.20830300  0.67999700  0.97682600  1
  O  O56  1  0.40936200  0.16686800  0.82521100  1
  O  O57  1  0.22693300  0.46816500  0.78049100  1
  O  O58  1  0.31764000  0.11028900  0.65433900  1
  O  O59  1  0.68486800  0.24913200  0.71625400  1
  O  O60  1  0.50239300  0.92487200  0.90508000  1
  O  O61  1  0.98753500  0.90355200  0.91482400  1
  O  O62  1  0.63306400  0.58897600  0.81153000  1
  O  O63  1  0.67820200  0.76979900  0.83862900  1
  O  O64  1  0.09063800  0.66686800  0.82521100  1
  O  O65  1  0.11897900  0.40197400  0.68154900  1
  O  O66  1  0.57752300  0.48256800  0.68403600  1
  O  O67  1  0.78193500  0.14921100  0.52883900  1
  O  O68  1  0.00511500  0.31966300  0.58173000  1
  O  O69  1  0.49086000  0.33110400  0.58977300  1
  O  O70  1  0.74018500  0.99328600  0.47143800  1
  O  O71  1  0.27306700  0.96816500  0.78049100  1
  O  O72  1  0.18236000  0.61028900  0.65433900  1
  O  O73  1  0.81513200  0.74913200  0.71625400  1
  O  O74  1  0.38102100  0.90197400  0.68154900  1
  O  O75  1  0.24018500  0.50671400  0.52856200  1
  O  O76  1  0.92247700  0.98256800  0.68403600  1
  O  O77  1  0.99086000  0.16889600  0.41022700  1
  O  O78  1  0.50511500  0.18033700  0.41827000  1
  O  O79  1  0.28193500  0.35078900  0.47116100  1
  O  O80  1  0.71806500  0.64921100  0.52883900  1
  O  O81  1  0.49488500  0.81966300  0.58173000  1
  O  O82  1  0.00914000  0.83110400  0.58977300  1
  O  O83  1  0.07752300  0.01743200  0.31596400  1
  O  O84  1  0.75981500  0.49328600  0.47143800  1
  O  O85  1  0.61897900  0.09802600  0.31845100  1
  O  O86  1  0.18486800  0.25086800  0.28374600  1
  O  O87  1  0.81764000  0.38971100  0.34566100  1
  O  O88  1  0.72693300  0.03183500  0.21950900  1
  O  O89  1  0.25981500  0.00671400  0.52856200  1
  O  O90  1  0.50914000  0.66889600  0.41022700  1
  O  O91  1  0.99488500  0.68033700  0.41827000  1
  O  O92  1  0.21806500  0.85078900  0.47116100  1
  O  O93  1  0.42247700  0.51743200  0.31596400  1
  O  O94  1  0.88102100  0.59802600  0.31845100  1
  O  O95  1  0.90936200  0.33313200  0.17478900  1
  O  O96  1  0.32179800  0.23020100  0.16137100  1
  O  O97  1  0.36693600  0.41102400  0.18847000  1
  O  O98  1  0.01246500  0.09644800  0.08517600  1
  O  O99  1  0.49760700  0.07512800  0.09492000  1
  O  O100  1  0.31513200  0.75086800  0.28374600  1
  O  O101  1  0.68236000  0.88971100  0.34566100  1
  O  O102  1  0.77306700  0.53183500  0.21950900  1
  O  O103  1  0.59063800  0.83313200  0.17478900  1
  O  O104  1  0.79169700  0.32000300  0.02317400  1
  O  O105  1  0.17820200  0.73020100  0.16137100  1
  O  O106  1  0.13306400  0.91102400  0.18847000  1
  O  O107  1  0.48753500  0.59644800  0.08517600  1
  O  O108  1  0.00239300  0.57512800  0.09492000  1
  O  O109  1  0.25832500  0.46492600  0.03030700  1
  O  O110  1  0.70830300  0.82000300  0.02317400  1
  O  O111  1  0.24167500  0.96492600  0.03030700  1
