# generated using pymatgen
data_Li8Mn7Fe(BO3)8
_symmetry_space_group_name_H-M   'P 1'
_cell_length_a   5.25475400
_cell_length_b   8.29364163
_cell_length_c   12.12627578
_cell_angle_alpha   103.29875627
_cell_angle_beta   90.65501686
_cell_angle_gamma   90.73619990
_symmetry_Int_Tables_number   1
_chemical_formula_structural   Li8Mn7Fe(BO3)8
_chemical_formula_sum   'Li8 Mn7 Fe1 B8 O24'
_cell_volume   514.20544379
_cell_formula_units_Z   1
loop_
 _symmetry_equiv_pos_site_id
 _symmetry_equiv_pos_as_xyz
  1  'x, y, z'
loop_
 _atom_site_type_symbol
 _atom_site_label
 _atom_site_symmetry_multiplicity
 _atom_site_fract_x
 _atom_site_fract_y
 _atom_site_fract_z
 _atom_site_occupancy
  Li  Li0  1  0.34930300  0.71842800  0.02278800  1
  Li  Li1  1  0.15117400  0.78246000  0.22764800  1
  Li  Li2  1  0.84899800  0.21834700  0.27296200  1
  Li  Li3  1  0.34857300  0.71737500  0.52288400  1
  Li  Li4  1  0.64987700  0.28142000  0.47704500  1
  Li  Li5  1  0.15251400  0.77990200  0.72654800  1
  Li  Li6  1  0.84971100  0.21890400  0.77218200  1
  Li  Li7  1  0.65053400  0.28192800  0.97695900  1
  Mn  Mn8  1  0.16785400  0.41976200  0.09261800  1
  Mn  Mn9  1  0.33228200  0.08046500  0.15738100  1
  Mn  Mn10  1  0.66759000  0.91965000  0.34300900  1
  Mn  Mn11  1  0.83376800  0.58033600  0.40660600  1
  Mn  Mn12  1  0.33138000  0.08305500  0.65591400  1
  Mn  Mn13  1  0.66779400  0.92103400  0.84271100  1
  Mn  Mn14  1  0.83215500  0.58018700  0.90710600  1
  Fe  Fe15  1  0.16371700  0.42152700  0.59235800  1
  B  B16  1  0.83072400  0.90406900  0.08319700  1
  B  B17  1  0.66933500  0.59599600  0.16682800  1
  B  B18  1  0.33063500  0.40430600  0.33378700  1
  B  B19  1  0.16859300  0.09817000  0.41726100  1
  B  B20  1  0.83053100  0.90370100  0.58364000  1
  B  B21  1  0.67132000  0.59215700  0.66703400  1
  B  B22  1  0.32995600  0.40504300  0.83250500  1
  B  B23  1  0.16952400  0.09563800  0.91681400  1
  O  O24  1  0.08975800  0.87747400  0.08770800  1
  O  O25  1  0.31862000  0.18805300  0.00700600  1
  O  O26  1  0.78679500  0.48327300  0.08007900  1
  O  O27  1  0.41039200  0.62290100  0.16272700  1
  O  O28  1  0.81847200  0.68840200  0.25706300  1
  O  O29  1  0.28742600  0.98475300  0.33114800  1
  O  O30  1  0.71295900  0.01666300  0.17001900  1
  O  O31  1  0.18210000  0.31204500  0.24337700  1
  O  O32  1  0.58985100  0.37795600  0.33820800  1
  O  O33  1  0.21308000  0.51714200  0.42041600  1
  O  O34  1  0.68219900  0.81051900  0.49342700  1
  O  O35  1  0.90907600  0.12268700  0.41260400  1
  O  O36  1  0.08989700  0.87763700  0.58810000  1
  O  O37  1  0.31567000  0.19265200  0.50730900  1
  O  O38  1  0.79363500  0.47805700  0.58197900  1
  O  O39  1  0.41181600  0.61445900  0.66010500  1
  O  O40  1  0.81632800  0.68898300  0.75649300  1
  O  O41  1  0.28618900  0.98217200  0.83018700  1
  O  O42  1  0.71159700  0.01671100  0.66983700  1
  O  O43  1  0.18135900  0.31365800  0.74201700  1
  O  O44  1  0.58900000  0.37762300  0.83714400  1
  O  O45  1  0.21301700  0.51715300  0.91993100  1
  O  O46  1  0.68216300  0.81174800  0.99283400  1
  O  O47  1  0.91076000  0.12341400  0.91250000  1
