# generated using pymatgen
data_Li4Ti3Sn5O16
_symmetry_space_group_name_H-M   'P 1'
_cell_length_a   6.23251903
_cell_length_b   6.23251903
_cell_length_c   10.69937785
_cell_angle_alpha   89.89956129
_cell_angle_beta   89.89956129
_cell_angle_gamma   59.68354690
_symmetry_Int_Tables_number   1
_chemical_formula_structural   Li4Ti3Sn5O16
_chemical_formula_sum   'Li4 Ti3 Sn5 O16'
_cell_volume   358.77466771
_cell_formula_units_Z   1
loop_
 _symmetry_equiv_pos_site_id
 _symmetry_equiv_pos_as_xyz
  1  'x, y, z'
loop_
 _atom_site_type_symbol
 _atom_site_label
 _atom_site_symmetry_multiplicity
 _atom_site_fract_x
 _atom_site_fract_y
 _atom_site_fract_z
 _atom_site_occupancy
  Li  Li0  1  0.66825200  0.66825200  0.13227300  1
  Li  Li1  1  0.99005200  0.99005200  0.00379700  1
  Li  Li2  1  0.99414700  0.99414700  0.49909100  1
  Li  Li3  1  0.33563100  0.33563100  0.60978600  1
  Ti  Ti4  1  0.82600700  0.82600700  0.77819100  1
  Ti  Ti5  1  0.65862300  0.17055600  0.28423000  1
  Ti  Ti6  1  0.17055600  0.65862300  0.28423000  1
  Sn  Sn7  1  0.66992100  0.66992100  0.48939300  1
  Sn  Sn8  1  0.33785900  0.33785900  0.99168800  1
  Sn  Sn9  1  0.33217200  0.83213200  0.77983400  1
  Sn  Sn10  1  0.83213200  0.33217200  0.77983400  1
  Sn  Sn11  1  0.16625900  0.16625900  0.28334800  1
  O  O12  1  0.29630100  0.84493000  0.39038000  1
  O  O13  1  0.50996400  0.50996400  0.67527100  1
  O  O14  1  0.67161000  0.67161000  0.88653500  1
  O  O15  1  0.99539600  0.99539600  0.67783000  1
  O  O16  1  0.99605600  0.99605600  0.18382400  1
  O  O17  1  0.84493000  0.29630100  0.39038000  1
  O  O18  1  0.52450300  0.98041800  0.68131700  1
  O  O19  1  0.98041800  0.52450300  0.68131700  1
  O  O20  1  0.14962100  0.14962100  0.89037700  1
  O  O21  1  0.85472000  0.85472000  0.38495300  1
  O  O22  1  0.02052700  0.50497100  0.18916600  1
  O  O23  1  0.50497100  0.02052700  0.18916600  1
  O  O24  1  0.34139200  0.34139200  0.38897500  1
  O  O25  1  0.14117400  0.70104200  0.88776700  1
  O  O26  1  0.48765200  0.48765200  0.19179100  1
  O  O27  1  0.70104200  0.14117400  0.88776700  1
