# generated using pymatgen
data_Li7Cr3(SiO6)2
_symmetry_space_group_name_H-M   'P 1'
_cell_length_a   4.94515197
_cell_length_b   10.62136856
_cell_length_c   8.56482990
_cell_angle_alpha   66.22056364
_cell_angle_beta   90.00025761
_cell_angle_gamma   94.45159232
_symmetry_Int_Tables_number   1
_chemical_formula_structural   Li7Cr3(SiO6)2
_chemical_formula_sum   'Li14 Cr6 Si4 O24'
_cell_volume   410.18691187
_cell_formula_units_Z   2
loop_
 _symmetry_equiv_pos_site_id
 _symmetry_equiv_pos_as_xyz
  1  'x, y, z'
loop_
 _atom_site_type_symbol
 _atom_site_label
 _atom_site_symmetry_multiplicity
 _atom_site_fract_x
 _atom_site_fract_y
 _atom_site_fract_z
 _atom_site_occupancy
  Li  Li0  1  0.37498600  0.24999400  0.20833200  1
  Li  Li1  1  0.87500900  0.25000700  0.70832500  1
  Li  Li2  1  0.24324700  0.49438000  0.58613200  1
  Li  Li3  1  0.74324100  0.49419300  0.08630700  1
  Li  Li4  1  0.00675700  0.00562000  0.33051900  1
  Li  Li5  1  0.50675700  0.00580700  0.83050600  1
  Li  Li6  1  0.99802800  0.00574800  0.66660200  1
  Li  Li7  1  0.49816300  0.00555800  0.16678100  1
  Li  Li8  1  0.25195200  0.49431600  0.24986900  1
  Li  Li9  1  0.75197600  0.49436400  0.75001600  1
  Li  Li10  1  0.25194700  0.49425600  0.92235600  1
  Li  Li11  1  0.75181000  0.49444800  0.42234400  1
  Li  Li12  1  0.49799500  0.00564500  0.49438300  1
  Li  Li13  1  0.99802600  0.00569300  0.99418800  1
  Cr  Cr14  1  0.12499900  0.74998000  0.95593700  1
  Cr  Cr15  1  0.62500600  0.74998900  0.46068000  1
  Cr  Cr16  1  0.62500900  0.74998500  0.12561600  1
  Cr  Cr17  1  0.12499200  0.75000700  0.28914200  1
  Cr  Cr18  1  0.62501600  0.75000800  0.79397500  1
  Cr  Cr19  1  0.12501300  0.75000900  0.62466900  1
  Si  Si20  1  0.87499700  0.24999800  0.37502000  1
  Si  Si21  1  0.37501200  0.24998700  0.87502500  1
  Si  Si22  1  0.37504800  0.25003500  0.54166300  1
  Si  Si23  1  0.87497400  0.24996500  0.04169500  1
  O  O24  1  0.30996200  0.86914200  0.39799800  1
  O  O25  1  0.81299800  0.86998000  0.89952300  1
  O  O26  1  0.43700000  0.63002600  0.01949100  1
  O  O27  1  0.94002700  0.63087300  0.51713200  1
  O  O28  1  0.23170800  0.14697200  0.75980500  1
  O  O29  1  0.73160200  0.14683400  0.25997800  1
  O  O30  1  0.01830100  0.35302200  0.15676600  1
  O  O31  1  0.51840000  0.35316900  0.65679200  1
  O  O32  1  0.07914700  0.35317100  0.46980300  1
  O  O33  1  0.57906000  0.35302900  0.96993800  1
  O  O34  1  0.17090200  0.14697900  0.44676800  1
  O  O35  1  0.67088800  0.14691800  0.94680400  1
  O  O36  1  0.17086600  0.14682200  0.07301300  1
  O  O37  1  0.67094700  0.14696600  0.57299600  1
  O  O38  1  0.57913200  0.35307000  0.34371500  1
  O  O39  1  0.07911900  0.35301200  0.84375000  1
  O  O40  1  0.93828000  0.63256100  0.18175100  1
  O  O41  1  0.43833700  0.63253400  0.68575600  1
  O  O42  1  0.31170700  0.86743400  0.06429400  1
  O  O43  1  0.81166700  0.86748100  0.56826700  1
  O  O44  1  0.44052500  0.63294800  0.35094600  1
  O  O45  1  0.93740000  0.63209200  0.84932000  1
  O  O46  1  0.31258100  0.86790800  0.73142100  1
  O  O47  1  0.80948100  0.86705900  0.23389400  1
