# generated using pymatgen
data_Li5BiO4
_symmetry_space_group_name_H-M   'P 1'
_cell_length_a   13.65635200
_cell_length_b   13.65635200
_cell_length_c   4.87800500
_cell_angle_alpha   90.00000000
_cell_angle_beta   90.00000000
_cell_angle_gamma   90.00000000
_symmetry_Int_Tables_number   1
_chemical_formula_structural   Li5BiO4
_chemical_formula_sum   'Li40 Bi8 O32'
_cell_volume   909.72817633
_cell_formula_units_Z   8
loop_
 _symmetry_equiv_pos_site_id
 _symmetry_equiv_pos_as_xyz
  1  'x, y, z'
loop_
 _atom_site_type_symbol
 _atom_site_label
 _atom_site_symmetry_multiplicity
 _atom_site_fract_x
 _atom_site_fract_y
 _atom_site_fract_z
 _atom_site_occupancy
  Li  Li0  1  0.75969600  0.24030400  0.00000000  1
  Li  Li1  1  0.74030400  0.25969600  0.50000000  1
  Li  Li2  1  0.24030400  0.24030400  0.00000000  1
  Li  Li3  1  0.25969600  0.25969600  0.50000000  1
  Li  Li4  1  0.11024400  0.35553800  0.57263500  1
  Li  Li5  1  0.88975600  0.35553800  0.57263500  1
  Li  Li6  1  0.37193800  0.37193800  0.00000000  1
  Li  Li7  1  0.62806200  0.37193800  0.00000000  1
  Li  Li8  1  0.85553800  0.38975600  0.07263500  1
  Li  Li9  1  0.14446200  0.38975600  0.07263500  1
  Li  Li10  1  0.00000000  0.50000000  0.09410100  1
  Li  Li11  1  0.50000000  0.50000000  0.50000000  1
  Li  Li12  1  0.50000000  0.50000000  0.00000000  1
  Li  Li13  1  0.00000000  0.50000000  0.59410100  1
  Li  Li14  1  0.85553800  0.61024400  0.07263500  1
  Li  Li15  1  0.14446200  0.61024400  0.07263500  1
  Li  Li16  1  0.37193800  0.62806200  0.00000000  1
  Li  Li17  1  0.62806200  0.62806200  0.00000000  1
  Li  Li18  1  0.88975600  0.64446200  0.57263500  1
  Li  Li19  1  0.11024400  0.64446200  0.57263500  1
  Li  Li20  1  0.24030400  0.75969600  0.00000000  1
  Li  Li21  1  0.25969600  0.74030400  0.50000000  1
  Li  Li22  1  0.75969600  0.75969600  0.00000000  1
  Li  Li23  1  0.74030400  0.74030400  0.50000000  1
  Li  Li24  1  0.38975600  0.85553800  0.92736500  1
  Li  Li25  1  0.61024400  0.85553800  0.92736500  1
  Li  Li26  1  0.87193800  0.87193800  0.50000000  1
  Li  Li27  1  0.12806200  0.87193800  0.50000000  1
  Li  Li28  1  0.35553800  0.88975600  0.42736500  1
  Li  Li29  1  0.64446200  0.88975600  0.42736500  1
  Li  Li30  1  0.00000000  0.00000000  0.00000000  1
  Li  Li31  1  0.00000000  0.00000000  0.50000000  1
  Li  Li32  1  0.50000000  0.00000000  0.90589900  1
  Li  Li33  1  0.50000000  0.00000000  0.40589900  1
  Li  Li34  1  0.35553800  0.11024400  0.42736500  1
  Li  Li35  1  0.64446200  0.11024400  0.42736500  1
  Li  Li36  1  0.87193800  0.12806200  0.50000000  1
  Li  Li37  1  0.12806200  0.12806200  0.50000000  1
  Li  Li38  1  0.38975600  0.14446200  0.92736500  1
  Li  Li39  1  0.61024400  0.14446200  0.92736500  1
  Bi  Bi40  1  0.50000000  0.27257100  0.44896600  1
  Bi  Bi41  1  0.27257100  0.50000000  0.55103400  1
  Bi  Bi42  1  0.72742900  0.50000000  0.55103400  1
  Bi  Bi43  1  0.50000000  0.72742900  0.44896600  1
  Bi  Bi44  1  0.00000000  0.77257100  0.05103400  1
  Bi  Bi45  1  0.77257100  0.00000000  0.94896600  1
  Bi  Bi46  1  0.22742900  0.00000000  0.94896600  1
  Bi  Bi47  1  0.00000000  0.22742900  0.05103400  1
  O  O48  1  0.86109000  0.26391600  0.28174000  1
  O  O49  1  0.13891000  0.26391600  0.28174000  1
  O  O50  1  0.76391600  0.36109000  0.78174000  1
  O  O51  1  0.23608400  0.36109000  0.78174000  1
  O  O52  1  0.00000000  0.38067800  0.84139200  1
  O  O53  1  0.50000000  0.38325000  0.78449500  1
  O  O54  1  0.88067800  0.50000000  0.34139200  1
  O  O55  1  0.38325000  0.50000000  0.21550500  1
  O  O56  1  0.61675000  0.50000000  0.21550500  1
  O  O57  1  0.11932200  0.50000000  0.34139200  1
  O  O58  1  0.50000000  0.61675000  0.78449500  1
  O  O59  1  0.00000000  0.61932200  0.84139200  1
  O  O60  1  0.23608400  0.63891000  0.78174000  1
  O  O61  1  0.76391600  0.63891000  0.78174000  1
  O  O62  1  0.86109000  0.73608400  0.28174000  1
  O  O63  1  0.13891000  0.73608400  0.28174000  1
  O  O64  1  0.36109000  0.76391600  0.21826000  1
  O  O65  1  0.63891000  0.76391600  0.21826000  1
  O  O66  1  0.73608400  0.86109000  0.71826000  1
  O  O67  1  0.26391600  0.86109000  0.71826000  1
  O  O68  1  0.50000000  0.88067800  0.65860800  1
  O  O69  1  0.00000000  0.88325000  0.71550500  1
  O  O70  1  0.88325000  0.00000000  0.28449500  1
  O  O71  1  0.11675000  0.00000000  0.28449500  1
  O  O72  1  0.38067800  0.00000000  0.15860800  1
  O  O73  1  0.61932200  0.00000000  0.15860800  1
  O  O74  1  0.00000000  0.11675000  0.71550500  1
  O  O75  1  0.50000000  0.11932200  0.65860800  1
  O  O76  1  0.73608400  0.13891000  0.71826000  1
  O  O77  1  0.26391600  0.13891000  0.71826000  1
  O  O78  1  0.36109000  0.23608400  0.21826000  1
  O  O79  1  0.63891000  0.23608400  0.21826000  1
