# generated using pymatgen
data_Li5V3P8O29
_symmetry_space_group_name_H-M   'P 1'
_cell_length_a   9.79849300
_cell_length_b   9.80320694
_cell_length_c   14.01483084
_cell_angle_alpha   90.15430711
_cell_angle_beta   90.02110751
_cell_angle_gamma   119.74804055
_symmetry_Int_Tables_number   1
_chemical_formula_structural   Li5V3P8O29
_chemical_formula_sum   'Li10 V6 P16 O58'
_cell_volume   1168.80102069
_cell_formula_units_Z   2
loop_
 _symmetry_equiv_pos_site_id
 _symmetry_equiv_pos_as_xyz
  1  'x, y, z'
loop_
 _atom_site_type_symbol
 _atom_site_label
 _atom_site_symmetry_multiplicity
 _atom_site_fract_x
 _atom_site_fract_y
 _atom_site_fract_z
 _atom_site_occupancy
  Li  Li0  1  0.67466300  0.77016800  0.43826100  1
  Li  Li1  1  0.22729500  0.91426200  0.43794200  1
  Li  Li2  1  0.09363400  0.76551100  0.94424900  1
  Li  Li3  1  0.23094300  0.33361400  0.94178700  1
  Li  Li4  1  0.90898200  0.68357200  0.55574500  1
  Li  Li5  1  0.09583000  0.32422600  0.43863300  1
  Li  Li6  1  0.66410800  0.33629600  0.88913800  1
  Li  Li7  1  0.77197600  0.09277200  0.55998900  1
  Li  Li8  1  0.32539300  0.09213500  0.06329000  1
  Li  Li9  1  0.93277600  0.97072000  0.00107400  1
  V  V10  1  0.00567800  0.56902200  0.75023800  1
  V  V11  1  0.99919600  0.43037100  0.24629600  1
  V  V12  1  0.56828800  0.56478800  0.24508200  1
  V  V13  1  0.43468700  0.43312100  0.74795600  1
  V  V14  1  0.56974700  0.99731400  0.75228700  1
  V  V15  1  0.43401300  0.99910800  0.25106300  1
  P  P16  1  0.68829700  0.91381500  0.15866000  1
  P  P17  1  0.68047200  0.76583800  0.65773100  1
  P  P18  1  0.23312900  0.91423200  0.65799800  1
  P  P19  1  0.33523200  0.66500200  0.87163300  1
  P  P20  1  0.33388400  0.66523200  0.37040300  1
  P  P21  1  0.08835500  0.77228700  0.15717900  1
  P  P22  1  0.91252900  0.68060500  0.33921000  1
  P  P23  1  0.22906000  0.31429100  0.15781200  1
  P  P24  1  0.77753200  0.68932300  0.84298800  1
  P  P25  1  0.08732600  0.31469600  0.65625700  1
  P  P26  1  0.91274700  0.22461700  0.84042100  1
  P  P27  1  0.67160900  0.33543600  0.62924800  1
  P  P28  1  0.66355700  0.32909500  0.12784200  1
  P  P29  1  0.76916200  0.08813400  0.34199600  1
  P  P30  1  0.31726700  0.23172200  0.34247000  1
  P  P31  1  0.31620300  0.08946900  0.84271500  1
  O  O32  1  0.75333600  0.99973400  0.43302100  1
  O  O33  1  0.66939500  0.91818200  0.66062100  1
  O  O34  1  0.79636700  0.79017200  0.92576900  1
  O  O35  1  0.65539900  0.74059000  0.16910600  1
  O  O36  1  0.53411400  0.91539600  0.16840400  1
  O  O37  1  0.47943800  0.80787300  0.82879100  1
  O  O38  1  0.38489900  0.90833400  0.67959700  1
  O  O39  1  0.23180300  0.99660200  0.93037200  1
  O  O40  1  0.25688300  0.91823100  0.16476800  1
  O  O41  1  0.48588400  0.66824900  0.32781800  1
  O  O42  1  0.51899000  0.62178800  0.67611900  1
  O  O43  1  0.32854200  0.81326000  0.33013300  1
  O  O44  1  0.31327400  0.65663100  0.97695200  1
  O  O45  1  0.34141400  0.67136500  0.47697700  1
  O  O46  1  0.18349400  0.66759600  0.82685400  1
  O  O47  1  0.38295800  0.47363300  0.17216200  1
  O  O48  1  0.33057300  0.51188100  0.83179900  1
  O  O49  1  0.08536500  0.74398700  0.66332000  1
  O  O50  1  0.99853200  0.79194100  0.24921700  1
  O  O51  1  0.99994800  0.75929600  0.42939200  1
  O  O52  1  0.01319400  0.78479600  0.06700600  1
  O  O53  1  0.09344500  0.62085200  0.17076800  1
  O  O54  1  0.18586600  0.51329100  0.33202100  1
  O  O55  1  0.92194600  0.65886300  0.83865400  1
  O  O56  1  0.09294400  0.47382900  0.68123100  1
  O  O57  1  0.25198500  0.33869700  0.66075600  1
  O  O58  1  0.79579500  0.78394000  0.74486000  1
  O  O59  1  0.75443800  0.75328000  0.56634300  1
  O  O60  1  0.23172400  0.24156500  0.42661100  1
  O  O61  1  0.74488600  0.66019700  0.33946000  1
  O  O62  1  0.90535300  0.52247300  0.32150700  1
  O  O63  1  0.08794000  0.34158300  0.16356700  1
  O  O64  1  0.82166500  0.48652300  0.67498000  1
  O  O65  1  0.90203500  0.37827300  0.83037300  1
  O  O66  1  0.00514000  0.21971100  0.92317900  1
  O  O67  1  0.99809500  0.24905500  0.56520600  1
  O  O68  1  0.98805600  0.20145400  0.74304800  1
  O  O69  1  0.91626400  0.25284400  0.34121300  1
  O  O70  1  0.66507400  0.48082900  0.17305600  1
  O  O71  1  0.62649000  0.52653500  0.83499700  1
  O  O72  1  0.80699000  0.32648100  0.16995200  1
  O  O73  1  0.65977800  0.33824600  0.02106000  1
  O  O74  1  0.67943100  0.35141500  0.52385900  1
  O  O75  1  0.67369500  0.18625500  0.66591900  1
  O  O76  1  0.47581100  0.38325100  0.32216000  1
  O  O77  1  0.52809800  0.33963300  0.67816700  1
  O  O78  1  0.74120000  0.08708500  0.83775400  1
  O  O79  1  0.79092900  0.99553300  0.25467300  1
  O  O80  1  0.78658400  0.99161500  0.07427800  1
  O  O81  1  0.61971900  0.09969500  0.32224400  1
  O  O82  1  0.50815400  0.18556300  0.16390000  1
  O  O83  1  0.48174600  0.10952600  0.82914900  1
  O  O84  1  0.33149000  0.25335800  0.84329200  1
  O  O85  1  0.23185400  0.23388300  0.06653100  1
  O  O86  1  0.21247300  0.20399700  0.24567400  1
  O  O87  1  0.34039800  0.08666700  0.34267600  1
  O  O88  1  0.23486300  0.98827800  0.56604400  1
  O  O89  1  0.21048800  0.00209300  0.74909600  1
