# generated using pymatgen
data_Li4Ti15O32
_symmetry_space_group_name_H-M   'P 1'
_cell_length_a   19.68046305
_cell_length_b   19.68046305
_cell_length_c   19.68046242
_cell_angle_alpha   17.47135166
_cell_angle_beta   17.47135166
_cell_angle_gamma   17.47135368
_symmetry_Int_Tables_number   1
_chemical_formula_structural   Li4Ti15O32
_chemical_formula_sum   'Li4 Ti15 O32'
_cell_volume   599.64367940
_cell_formula_units_Z   1
loop_
 _symmetry_equiv_pos_site_id
 _symmetry_equiv_pos_as_xyz
  1  'x, y, z'
loop_
 _atom_site_type_symbol
 _atom_site_label
 _atom_site_symmetry_multiplicity
 _atom_site_fract_x
 _atom_site_fract_y
 _atom_site_fract_z
 _atom_site_occupancy
  Li  Li0  1  0.34428300  0.34428300  0.34428300  1
  Li  Li1  1  0.40570500  0.40570500  0.40570500  1
  Li  Li2  1  0.59429500  0.59429500  0.59429500  1
  Li  Li3  1  0.65571700  0.65571700  0.65571700  1
  Ti  Ti4  1  0.25120200  0.25120200  0.25120200  1
  Ti  Ti5  1  0.87934900  0.36101800  0.87934900  1
  Ti  Ti6  1  0.12146000  0.62668000  0.62668000  1
  Ti  Ti7  1  0.87854000  0.37332000  0.37332000  1
  Ti  Ti8  1  0.37332000  0.37332000  0.87854000  1
  Ti  Ti9  1  0.50000000  0.50000000  0.50000000  1
  Ti  Ti10  1  0.62668000  0.62668000  0.12146000  1
  Ti  Ti11  1  0.74879800  0.74879800  0.74879800  1
  Ti  Ti12  1  0.87934900  0.87934900  0.36101800  1
  Ti  Ti13  1  0.37332000  0.87854000  0.37332000  1
  Ti  Ti14  1  0.62668000  0.12146000  0.62668000  1
  Ti  Ti15  1  0.36101800  0.87934900  0.87934900  1
  Ti  Ti16  1  0.12065100  0.63898200  0.12065100  1
  Ti  Ti17  1  0.12065100  0.12065100  0.63898200  1
  Ti  Ti18  1  0.63898200  0.12065100  0.12065100  1
  O  O19  1  0.70342100  0.18535000  0.18535000  1
  O  O20  1  0.76767100  0.33264900  0.33264900  1
  O  O21  1  0.30980000  0.30980000  0.30980000  1
  O  O22  1  0.19108000  0.19108000  0.19108000  1
  O  O23  1  0.18535000  0.18535000  0.70342100  1
  O  O24  1  0.33264900  0.33264900  0.76767100  1
  O  O25  1  0.44017500  0.44017500  0.44017500  1
  O  O26  1  0.33264900  0.76767100  0.33264900  1
  O  O27  1  0.97777600  0.41828800  0.41828800  1
  O  O28  1  0.81465000  0.29657900  0.81465000  1
  O  O29  1  0.18535000  0.70342100  0.18535000  1
  O  O30  1  0.66735100  0.23232900  0.66735100  1
  O  O31  1  0.91876700  0.47978000  0.91876700  1
  O  O32  1  0.02222400  0.58171200  0.58171200  1
  O  O33  1  0.69020000  0.69020000  0.69020000  1
  O  O34  1  0.55982500  0.55982500  0.55982500  1
  O  O35  1  0.80892000  0.80892000  0.80892000  1
  O  O36  1  0.41828800  0.41828800  0.97777600  1
  O  O37  1  0.66735100  0.66735100  0.23232900  1
  O  O38  1  0.81465000  0.81465000  0.29657900  1
  O  O39  1  0.91876700  0.91876700  0.47978000  1
  O  O40  1  0.58171200  0.58171200  0.02222400  1
  O  O41  1  0.58171200  0.02222400  0.58171200  1
  O  O42  1  0.47978000  0.91876700  0.91876700  1
  O  O43  1  0.23232900  0.66735100  0.66735100  1
  O  O44  1  0.08123300  0.52022000  0.08123300  1
  O  O45  1  0.29657900  0.81465000  0.81465000  1
  O  O46  1  0.41828800  0.97777600  0.41828800  1
  O  O47  1  0.08123300  0.08123300  0.52022000  1
  O  O48  1  0.05820500  0.05820500  0.05820500  1
  O  O49  1  0.94179500  0.94179500  0.94179500  1
  O  O50  1  0.52022000  0.08123300  0.08123300  1
