# generated using pymatgen
data_LiNi(SO4)2
_symmetry_space_group_name_H-M   'P 1'
_cell_length_a   9.22061895
_cell_length_b   9.08003700
_cell_length_c   13.74807779
_cell_angle_alpha   90.00000000
_cell_angle_beta   90.26132908
_cell_angle_gamma   90.00000000
_symmetry_Int_Tables_number   1
_chemical_formula_structural   LiNi(SO4)2
_chemical_formula_sum   'Li8 Ni8 S16 O64'
_cell_volume   1151.02606011
_cell_formula_units_Z   8
loop_
 _symmetry_equiv_pos_site_id
 _symmetry_equiv_pos_as_xyz
  1  'x, y, z'
loop_
 _atom_site_type_symbol
 _atom_site_label
 _atom_site_symmetry_multiplicity
 _atom_site_fract_x
 _atom_site_fract_y
 _atom_site_fract_z
 _atom_site_occupancy
  Li  Li0  1  0.04730200  0.21507600  0.37389700  1
  Li  Li1  1  0.04730200  0.28492400  0.87389700  1
  Li  Li2  1  0.45265400  0.71421100  0.37559000  1
  Li  Li3  1  0.45265400  0.78578900  0.87559000  1
  Li  Li4  1  0.76788200  0.45271400  0.12681400  1
  Li  Li5  1  0.76788200  0.04728600  0.62681400  1
  Li  Li6  1  0.95976500  0.77498200  0.62641000  1
  Li  Li7  1  0.95976500  0.72501800  0.12641000  1
  Ni  Ni8  1  0.13935500  0.10715500  0.12298200  1
  Ni  Ni9  1  0.13935500  0.39284500  0.62298200  1
  Ni  Ni10  1  0.36164500  0.60650400  0.12365300  1
  Ni  Ni11  1  0.36164500  0.89349600  0.62365300  1
  Ni  Ni12  1  0.63942400  0.10691100  0.37549400  1
  Ni  Ni13  1  0.63942400  0.39308900  0.87549400  1
  Ni  Ni14  1  0.86108000  0.60493800  0.37611700  1
  Ni  Ni15  1  0.86108000  0.89506200  0.87611700  1
  S  S16  1  0.07825600  0.06656900  0.72601600  1
  S  S17  1  0.07825600  0.43343100  0.22601600  1
  S  S18  1  0.16016900  0.68481800  0.49081300  1
  S  S19  1  0.16016900  0.81518200  0.99081300  1
  S  S20  1  0.34333900  0.18659000  0.49246900  1
  S  S21  1  0.34333900  0.31341000  0.99246900  1
  S  S22  1  0.42271000  0.93213900  0.22648000  1
  S  S23  1  0.42271000  0.56786100  0.72648000  1
  S  S24  1  0.57445000  0.43177700  0.27506700  1
  S  S25  1  0.57445000  0.06822300  0.77506700  1
  S  S26  1  0.66053200  0.68608300  0.00950700  1
  S  S27  1  0.66053200  0.81391700  0.50950700  1
  S  S28  1  0.84051600  0.18418600  0.00919400  1
  S  S29  1  0.84051600  0.31581400  0.50919400  1
  S  S30  1  0.92206900  0.56641000  0.77254600  1
  S  S31  1  0.92206900  0.93359000  0.27254600  1
  O  O32  1  0.00000000  0.70052700  0.47625100  1
  O  O33  1  0.00000000  0.79947300  0.97625100  1
  O  O34  1  0.01447700  0.99711000  0.34879700  1
  O  O35  1  0.01447700  0.50289000  0.84879700  1
  O  O36  1  0.02165000  0.46411700  0.32632600  1
  O  O37  1  0.02165000  0.03588300  0.82632600  1
  O  O38  1  0.07915800  0.23224200  0.72197200  1
  O  O39  1  0.07915800  0.26775800  0.22197200  1
  O  O40  1  0.18671400  0.72653900  0.08151800  1
  O  O41  1  0.18671400  0.77346100  0.58151800  1
  O  O42  1  0.20076200  0.97112400  0.01167200  1
  O  O43  1  0.20076200  0.52887600  0.51167200  1
  O  O44  1  0.22601300  0.00546800  0.71918400  1
  O  O45  1  0.22601300  0.49453200  0.21918400  1
  O  O46  1  0.24251200  0.73423600  0.40685300  1
  O  O47  1  0.24251200  0.76576400  0.90685300  1
  O  O48  1  0.25744200  0.23197800  0.40782800  1
  O  O49  1  0.25744200  0.26802200  0.90782800  1
  O  O50  1  0.27374900  0.99426200  0.21927600  1
  O  O51  1  0.27374900  0.50573800  0.71927600  1
  O  O52  1  0.30289100  0.02991900  0.51285700  1
  O  O53  1  0.30289100  0.47008100  0.01285700  1
  O  O54  1  0.31451300  0.22413500  0.08117300  1
  O  O55  1  0.31451300  0.27586500  0.58117300  1
  O  O56  1  0.41768200  0.76595600  0.22519700  1
  O  O57  1  0.41768200  0.73404400  0.72519700  1
  O  O58  1  0.47968900  0.53514700  0.82655100  1
  O  O59  1  0.47968900  0.96485300  0.32655100  1
  O  O60  1  0.48521000  0.49856800  0.35013400  1
  O  O61  1  0.48521000  0.00143200  0.85013400  1
  O  O62  1  0.50132200  0.20266600  0.47469400  1
  O  O63  1  0.50132200  0.29733400  0.97469400  1
  O  O64  1  0.50068300  0.70261000  0.02462100  1
  O  O65  1  0.50068300  0.79739000  0.52462100  1
  O  O66  1  0.51303600  0.50822600  0.64865200  1
  O  O67  1  0.51303600  0.99177400  0.14865200  1
  O  O68  1  0.52250600  0.46673500  0.17337700  1
  O  O69  1  0.52250600  0.03326500  0.67337700  1
  O  O70  1  0.57471700  0.26782800  0.27930500  1
  O  O71  1  0.57471700  0.23217200  0.77930500  1
  O  O72  1  0.68699100  0.72668300  0.41935600  1
  O  O73  1  0.68699100  0.77331700  0.91935600  1
  O  O74  1  0.69881500  0.52774100  0.99012700  1
  O  O75  1  0.69881500  0.97225900  0.49012700  1
  O  O76  1  0.72773800  0.48904900  0.27667700  1
  O  O77  1  0.72773800  0.01095100  0.77667700  1
  O  O78  1  0.74505300  0.72992400  0.09487800  1
  O  O79  1  0.74505300  0.77007600  0.59487800  1
  O  O80  1  0.76455900  0.24126500  0.09368700  1
  O  O81  1  0.76455900  0.25873500  0.59368700  1
  O  O82  1  0.77274300  0.50609400  0.77884600  1
  O  O83  1  0.77274300  0.99390600  0.27884600  1
  O  O84  1  0.79963900  0.47056700  0.49000100  1
  O  O85  1  0.79963900  0.02943300  0.99000100  1
  O  O86  1  0.81515500  0.22642900  0.41810300  1
  O  O87  1  0.81515500  0.27357100  0.91810300  1
  O  O88  1  0.92075200  0.73194400  0.77581400  1
  O  O89  1  0.92075200  0.76805600  0.27581400  1
  O  O90  1  0.97870200  0.53378800  0.67231800  1
  O  O91  1  0.97870200  0.96621200  0.17231800  1
  O  O92  1  0.98210600  0.00329900  0.65045800  1
  O  O93  1  0.98210600  0.49670100  0.15045700  1
  O  O94  1  0.00277500  0.19850800  0.02152700  1
  O  O95  1  0.00277500  0.30149200  0.52152700  1
