# generated using pymatgen
data_LiLa8Cu3O16
_symmetry_space_group_name_H-M   'P 1'
_cell_length_a   8.45853557
_cell_length_b   7.57231371
_cell_length_c   8.88050327
_cell_angle_alpha   102.35324304
_cell_angle_beta   118.48724996
_cell_angle_gamma   116.44042252
_symmetry_Int_Tables_number   1
_chemical_formula_structural   LiLa8Cu3O16
_chemical_formula_sum   'Li1 La8 Cu3 O16'
_cell_volume   376.27172974
_cell_formula_units_Z   1
loop_
 _symmetry_equiv_pos_site_id
 _symmetry_equiv_pos_as_xyz
  1  'x, y, z'
loop_
 _atom_site_type_symbol
 _atom_site_label
 _atom_site_symmetry_multiplicity
 _atom_site_fract_x
 _atom_site_fract_y
 _atom_site_fract_z
 _atom_site_occupancy
  Li  Li0  1  0.49995219  0.75012005  0.99934647  1
  La  La1  1  0.04565235  0.20658252  0.72538065  1
  La  La2  1  0.95367279  0.79873675  0.27779773  1
  La  La3  1  0.04988375  0.70458565  0.72360424  1
  La  La4  1  0.53720445  0.94502989  0.72190876  1
  La  La5  1  0.54073009  0.45730857  0.72285077  1
  La  La6  1  0.95798320  0.29688584  0.27659000  1
  La  La7  1  0.46364798  0.55718219  0.27755740  1
  La  La8  1  0.46002210  0.04526185  0.27684750  1
  Cu  Cu9  1  0.49997842  0.25019173  0.99971325  1
  Cu  Cu10  1  0.00026008  0.49976525  0.99898069  1
  Cu  Cu11  1  0.00041437  0.00016976  0.00290385  1
  O  O12  1  0.25078321  0.12735409  0.00432490  1
  O  O13  1  0.78265729  0.48744136  0.37153848  1
  O  O14  1  0.24555255  0.62171135  0.99600177  1
  O  O15  1  0.49376669  0.48978892  0.99313134  1
  O  O16  1  0.76661407  0.96898925  0.36521315  1
  O  O17  1  0.26933634  0.71860365  0.36627685  1
  O  O18  1  0.26875011  0.22066967  0.37075367  1
  O  O19  1  0.23022925  0.52752426  0.63772113  1
  O  O20  1  0.75300906  0.87833553  0.00302326  1
  O  O21  1  0.50527310  0.01037944  0.00667066  1
  O  O22  1  0.00402485  0.75219353  0.00355415  1
  O  O23  1  0.00359383  0.25193270  0.00290214  1
  O  O24  1  0.21360664  0.00813107  0.63118402  1
  O  O25  1  0.71865721  0.25816373  0.62927703  1
  O  O26  1  0.71732787  0.76050109  0.63209166  1
  O  O27  1  0.74839814  0.37341832  0.99543344  1
