# generated using pymatgen
data_NaLi2FePCO7
_symmetry_space_group_name_H-M   'P 1'
_cell_length_a   6.69448400
_cell_length_b   8.65748590
_cell_length_c   10.09361663
_cell_angle_alpha   87.71595332
_cell_angle_beta   89.44446678
_cell_angle_gamma   89.65395928
_symmetry_Int_Tables_number   1
_chemical_formula_structural   NaLi2FePCO7
_chemical_formula_sum   'Na4 Li8 Fe4 P4 C4 O28'
_cell_volume   584.49818863
_cell_formula_units_Z   4
loop_
 _symmetry_equiv_pos_site_id
 _symmetry_equiv_pos_as_xyz
  1  'x, y, z'
loop_
 _atom_site_type_symbol
 _atom_site_label
 _atom_site_symmetry_multiplicity
 _atom_site_fract_x
 _atom_site_fract_y
 _atom_site_fract_z
 _atom_site_occupancy
  Na  Na0  1  0.74893000  0.91697500  0.12450800  1
  Na  Na1  1  0.99763100  0.74474400  0.87387000  1
  Na  Na2  1  0.50042200  0.74817800  0.87512100  1
  Na  Na3  1  0.49833500  0.25593400  0.62580100  1
  Li  Li4  1  0.76491900  0.90162700  0.61598000  1
  Li  Li5  1  0.96844400  0.72012500  0.38738100  1
  Li  Li6  1  0.53689300  0.71806100  0.38905300  1
  Li  Li7  1  0.46977100  0.27712400  0.11211000  1
  Li  Li8  1  0.03233600  0.27757700  0.11746900  1
  Li  Li9  1  0.01092000  0.26910300  0.62099100  1
  Li  Li10  1  0.24334100  0.09517300  0.37362200  1
  Li  Li11  1  0.23700300  0.10526900  0.87947300  1
  Fe  Fe12  1  0.24756500  0.64831700  0.12020500  1
  Fe  Fe13  1  0.24807400  0.64888400  0.60434100  1
  Fe  Fe14  1  0.75706400  0.33824500  0.38426800  1
  Fe  Fe15  1  0.75377300  0.35453800  0.89383700  1
  P  P16  1  0.74851800  0.58092500  0.15255300  1
  P  P17  1  0.75370000  0.58639600  0.63752500  1
  P  P18  1  0.25161100  0.40576700  0.35393700  1
  P  P19  1  0.24610400  0.41025400  0.86147100  1
  C  C20  1  0.24838200  0.96198100  0.13427800  1
  C  C21  1  0.23918100  0.95727500  0.63696400  1
  C  C22  1  0.75177400  0.03312800  0.37384100  1
  C  C23  1  0.75730300  0.06387300  0.84626700  1
  O  O24  1  0.74909100  0.88562200  0.35501000  1
  O  O25  1  0.75005100  0.91972300  0.81623200  1
  O  O26  1  0.24671500  0.92674300  0.01042200  1
  O  O27  1  0.24504800  0.92746500  0.51253400  1
  O  O28  1  0.24367300  0.85206900  0.22643400  1
  O  O29  1  0.25005200  0.84123800  0.72454200  1
  O  O30  1  0.93243400  0.67418800  0.10110300  1
  O  O31  1  0.56316500  0.67624300  0.10662100  1
  O  O32  1  0.93066700  0.69464500  0.59351300  1
  O  O33  1  0.56464400  0.67691500  0.58868200  1
  O  O34  1  0.75268500  0.56895600  0.30829200  1
  O  O35  1  0.24654600  0.57333200  0.40601600  1
  O  O36  1  0.74786800  0.56652700  0.79212300  1
  O  O37  1  0.25270900  0.57080200  0.92222500  1
  O  O38  1  0.74562300  0.41293900  0.10234600  1
  O  O39  1  0.24349400  0.42037800  0.19875700  1
  O  O40  1  0.77257600  0.42582700  0.57817400  1
  O  O41  1  0.22737200  0.43161000  0.70746100  1
  O  O42  1  0.44030700  0.31287100  0.39618400  1
  O  O43  1  0.07417600  0.30514800  0.40760800  1
  O  O44  1  0.43336300  0.31013600  0.89828300  1
  O  O45  1  0.06922600  0.31103000  0.91851000  1
  O  O46  1  0.76115400  0.13182700  0.27260600  1
  O  O47  1  0.77546100  0.17141400  0.75346700  1
  O  O48  1  0.74607800  0.08518500  0.49228300  1
  O  O49  1  0.74612300  0.10594900  0.96807400  1
  O  O50  1  0.25449700  0.10529900  0.16890100  1
  O  O51  1  0.22320100  0.09644800  0.67873000  1
