# generated using pymatgen
data_Li2FeBO4
_symmetry_space_group_name_H-M   'P 1'
_cell_length_a   4.82327700
_cell_length_b   6.18018700
_cell_length_c   10.25800100
_cell_angle_alpha   90.00000000
_cell_angle_beta   90.00000000
_cell_angle_gamma   90.00000000
_symmetry_Int_Tables_number   1
_chemical_formula_structural   Li2FeBO4
_chemical_formula_sum   'Li8 Fe4 B4 O16'
_cell_volume   305.77822642
_cell_formula_units_Z   4
loop_
 _symmetry_equiv_pos_site_id
 _symmetry_equiv_pos_as_xyz
  1  'x, y, z'
loop_
 _atom_site_type_symbol
 _atom_site_label
 _atom_site_symmetry_multiplicity
 _atom_site_fract_x
 _atom_site_fract_y
 _atom_site_fract_z
 _atom_site_occupancy
  Li  Li0  1  0.75805600  0.00342100  0.15763700  1
  Li  Li1  1  0.75596400  0.23492900  0.92562300  1
  Li  Li2  1  0.75596400  0.26507100  0.42562300  1
  Li  Li3  1  0.75805600  0.49657900  0.65763700  1
  Li  Li4  1  0.25805600  0.50342100  0.34236300  1
  Li  Li5  1  0.25596400  0.73492900  0.57437700  1
  Li  Li6  1  0.25596400  0.76507100  0.07437700  1
  Li  Li7  1  0.25805600  0.99657900  0.84236300  1
  Fe  Fe8  1  0.25990100  0.01054700  0.33828300  1
  Fe  Fe9  1  0.25990100  0.48945300  0.83828300  1
  Fe  Fe10  1  0.75990100  0.51054700  0.16171700  1
  Fe  Fe11  1  0.75990100  0.98945300  0.66171700  1
  B  B12  1  0.26520000  0.24381100  0.58976600  1
  B  B13  1  0.26520000  0.25618900  0.08976600  1
  B  B14  1  0.76520000  0.74381100  0.91023400  1
  B  B15  1  0.76520000  0.75618900  0.41023400  1
  O  O16  1  0.15327300  0.04255300  0.65563000  1
  O  O17  1  0.16468900  0.05590100  0.15854800  1
  O  O18  1  0.17265200  0.25091000  0.94995300  1
  O  O19  1  0.57339000  0.23788400  0.59698900  1
  O  O20  1  0.57339000  0.26211600  0.09698900  1
  O  O21  1  0.17265200  0.24909000  0.44995300  1
  O  O22  1  0.16468900  0.44409900  0.65854800  1
  O  O23  1  0.15327300  0.45744700  0.15563000  1
  O  O24  1  0.65327300  0.54255300  0.84437000  1
  O  O25  1  0.66468900  0.55590100  0.34145200  1
  O  O26  1  0.67265200  0.75091000  0.55004700  1
  O  O27  1  0.07339000  0.73788400  0.90301100  1
  O  O28  1  0.07339000  0.76211600  0.40301100  1
  O  O29  1  0.67265200  0.74909000  0.05004700  1
  O  O30  1  0.66468900  0.94409900  0.84145200  1
  O  O31  1  0.65327300  0.95744700  0.34437000  1
