# generated using pymatgen
data_LiMnCO3F2
_symmetry_space_group_name_H-M   'P 1'
_cell_length_a   6.39932300
_cell_length_b   7.12821000
_cell_length_c   8.10446700
_cell_angle_alpha   90.00000000
_cell_angle_beta   90.00000000
_cell_angle_gamma   90.00000000
_symmetry_Int_Tables_number   1
_chemical_formula_structural   LiMnCO3F2
_chemical_formula_sum   'Li4 Mn4 C4 O12 F8'
_cell_volume   369.69108285
_cell_formula_units_Z   4
loop_
 _symmetry_equiv_pos_site_id
 _symmetry_equiv_pos_as_xyz
  1  'x, y, z'
loop_
 _atom_site_type_symbol
 _atom_site_label
 _atom_site_symmetry_multiplicity
 _atom_site_fract_x
 _atom_site_fract_y
 _atom_site_fract_z
 _atom_site_occupancy
  Li  Li0  1  0.75000000  0.26209600  0.29026200  1
  Li  Li1  1  0.75000000  0.76209600  0.20973800  1
  Li  Li2  1  0.25000000  0.73790400  0.70973800  1
  Li  Li3  1  0.25000000  0.23790400  0.79026200  1
  Mn  Mn4  1  0.75000000  0.92721800  0.62348600  1
  Mn  Mn5  1  0.75000000  0.42721800  0.87651400  1
  Mn  Mn6  1  0.25000000  0.57278200  0.12348600  1
  Mn  Mn7  1  0.25000000  0.07278200  0.37651400  1
  C  C8  1  0.75000000  0.57438200  0.54701400  1
  C  C9  1  0.75000000  0.07438200  0.95298600  1
  C  C10  1  0.25000000  0.92561800  0.04701400  1
  C  C11  1  0.25000000  0.42561800  0.45298600  1
  O  O12  1  0.75000000  0.22698000  0.04526400  1
  O  O13  1  0.75000000  0.72698000  0.45473600  1
  O  O14  1  0.75000000  0.41129100  0.49521500  1
  O  O15  1  0.75000000  0.91129100  0.00478500  1
  O  O16  1  0.75000000  0.12124100  0.79302100  1
  O  O17  1  0.75000000  0.62124100  0.70697900  1
  O  O18  1  0.25000000  0.08870900  0.99521500  1
  O  O19  1  0.25000000  0.87875900  0.20697900  1
  O  O20  1  0.25000000  0.37875900  0.29302100  1
  O  O21  1  0.25000000  0.58870900  0.50478500  1
  O  O22  1  0.25000000  0.27302000  0.54526400  1
  O  O23  1  0.25000000  0.77302000  0.95473600  1
  F  F24  1  0.95668500  0.57581700  0.14131700  1
  F  F25  1  0.95668500  0.07581700  0.35868300  1
  F  F26  1  0.54331500  0.57581700  0.14131700  1
  F  F27  1  0.54331500  0.07581700  0.35868300  1
  F  F28  1  0.45668500  0.42418300  0.85868300  1
  F  F29  1  0.45668500  0.92418300  0.64131700  1
  F  F30  1  0.04331500  0.92418300  0.64131700  1
  F  F31  1  0.04331500  0.42418300  0.85868300  1
