# generated using pymatgen
data_Li2V(CO3)2
_symmetry_space_group_name_H-M   'P 1'
_cell_length_a   4.90407900
_cell_length_b   13.04071020
_cell_length_c   8.42258578
_cell_angle_alpha   100.73298235
_cell_angle_beta   89.99971249
_cell_angle_gamma   90.00009645
_symmetry_Int_Tables_number   1
_chemical_formula_structural   Li2V(CO3)2
_chemical_formula_sum   'Li8 V4 C8 O24'
_cell_volume   529.22365363
_cell_formula_units_Z   4
loop_
 _symmetry_equiv_pos_site_id
 _symmetry_equiv_pos_as_xyz
  1  'x, y, z'
loop_
 _atom_site_type_symbol
 _atom_site_label
 _atom_site_symmetry_multiplicity
 _atom_site_fract_x
 _atom_site_fract_y
 _atom_site_fract_z
 _atom_site_occupancy
  Li  Li0  1  0.53218200  0.04028700  0.94041000  1
  Li  Li1  1  0.53211400  0.54052400  0.94012400  1
  Li  Li2  1  0.03217000  0.45971500  0.05958600  1
  Li  Li3  1  0.03212700  0.95948300  0.05988500  1
  Li  Li4  1  0.96437600  0.27465500  0.65601300  1
  Li  Li5  1  0.96445800  0.77435800  0.65522300  1
  Li  Li6  1  0.46439500  0.22534400  0.34398800  1
  Li  Li7  1  0.46447600  0.72565000  0.34479500  1
  V  V8  1  0.50518200  0.60441300  0.59539600  1
  V  V9  1  0.00518000  0.89558700  0.40460500  1
  V  V10  1  0.50531400  0.10464900  0.59627700  1
  V  V11  1  0.00531200  0.39534500  0.40371600  1
  C  C12  1  0.02599500  0.10309400  0.82791300  1
  C  C13  1  0.02595900  0.60298900  0.82716200  1
  C  C14  1  0.52598900  0.39690500  0.17208300  1
  C  C15  1  0.52596600  0.89701300  0.17284000  1
  C  C16  1  0.46781600  0.36979200  0.60379400  1
  C  C17  1  0.46784000  0.86983700  0.60416300  1
  C  C18  1  0.96782800  0.13020400  0.39620400  1
  C  C19  1  0.96784500  0.63016400  0.39584000  1
  O  O20  1  0.91400700  0.05391700  0.92992400  1
  O  O21  1  0.91405900  0.55397600  0.92935300  1
  O  O22  1  0.41399500  0.44608200  0.07007300  1
  O  O23  1  0.41407000  0.94602400  0.07064600  1
  O  O24  1  0.29039300  0.10949600  0.81946800  1
  O  O25  1  0.29034700  0.60943000  0.81867200  1
  O  O26  1  0.79038700  0.39050500  0.18052800  1
  O  O27  1  0.79035900  0.89057400  0.18132900  1
  O  O28  1  0.87800000  0.14903000  0.73385800  1
  O  O29  1  0.87790600  0.64877600  0.73294500  1
  O  O30  1  0.37799700  0.35096700  0.26614000  1
  O  O31  1  0.37791700  0.85122800  0.26705900  1
  O  O32  1  0.56642800  0.27711800  0.60034400  1
  O  O33  1  0.56626200  0.77702000  0.59970600  1
  O  O34  1  0.06644000  0.22287800  0.39965000  1
  O  O35  1  0.06627000  0.72298100  0.40029100  1
  O  O36  1  0.13242700  0.05758300  0.42717000  1
  O  O37  1  0.13250700  0.55743500  0.42622800  1
  O  O38  1  0.63241600  0.44241300  0.57283200  1
  O  O39  1  0.63250500  0.94256500  0.57377500  1
  O  O40  1  0.21249500  0.38951400  0.63343500  1
  O  O41  1  0.21266900  0.88955300  0.63423300  1
  O  O42  1  0.71250600  0.11048100  0.36656300  1
  O  O43  1  0.71267100  0.61044800  0.36577400  1
