# generated using pymatgen
data_LiP4WO12
_symmetry_space_group_name_H-M   'P 1'
_cell_length_a   7.37142419
_cell_length_b   7.37142419
_cell_length_c   10.16235393
_cell_angle_alpha   66.41745143
_cell_angle_beta   66.41745143
_cell_angle_gamma   70.48252583
_symmetry_Int_Tables_number   1
_chemical_formula_structural   LiP4WO12
_chemical_formula_sum   'Li2 P8 W2 O24'
_cell_volume   453.75215820
_cell_formula_units_Z   2
loop_
 _symmetry_equiv_pos_site_id
 _symmetry_equiv_pos_as_xyz
  1  'x, y, z'
loop_
 _atom_site_type_symbol
 _atom_site_label
 _atom_site_symmetry_multiplicity
 _atom_site_fract_x
 _atom_site_fract_y
 _atom_site_fract_z
 _atom_site_occupancy
  Li  Li0  1  0.00000000  0.50000000  0.00000000  1
  Li  Li1  1  0.50000000  0.00000000  0.50000000  1
  P  P2  1  0.70854300  0.68868000  0.29906600  1
  P  P3  1  0.25982700  0.72073700  0.47717900  1
  P  P4  1  0.27926300  0.74017300  0.02282100  1
  P  P5  1  0.68868000  0.70854300  0.79906600  1
  P  P6  1  0.31132000  0.29145700  0.20093400  1
  P  P7  1  0.72073700  0.25982700  0.97717900  1
  P  P8  1  0.74017300  0.27926300  0.52282100  1
  P  P9  1  0.29145700  0.31132000  0.70093400  1
  W  W10  1  0.05704700  0.94295300  0.75000000  1
  W  W11  1  0.94295300  0.05704700  0.25000000  1
  O  O12  1  0.81099100  0.65049000  0.15216500  1
  O  O13  1  0.28801700  0.80074400  0.58258200  1
  O  O14  1  0.46904200  0.69544200  0.34544000  1
  O  O15  1  0.09349400  0.83529400  0.40901500  1
  O  O16  1  0.87728000  0.72085700  0.81861800  1
  O  O17  1  0.22293200  0.49464400  0.56177600  1
  O  O18  1  0.80074400  0.28801700  0.08258200  1
  O  O19  1  0.16470600  0.90650600  0.09098500  1
  O  O20  1  0.50535600  0.77706800  0.93822400  1
  O  O21  1  0.65049000  0.81099100  0.65216500  1
  O  O22  1  0.30455800  0.53095800  0.15456000  1
  O  O23  1  0.27914300  0.12272000  0.68138200  1
  O  O24  1  0.72085700  0.87728000  0.31861800  1
  O  O25  1  0.69544200  0.46904200  0.84544000  1
  O  O26  1  0.34951000  0.18900900  0.34783500  1
  O  O27  1  0.49464400  0.22293200  0.06177600  1
  O  O28  1  0.83529400  0.09349400  0.90901500  1
  O  O29  1  0.19925600  0.71198300  0.91741800  1
  O  O30  1  0.77706800  0.50535600  0.43822400  1
  O  O31  1  0.12272000  0.27914300  0.18138200  1
  O  O32  1  0.90650600  0.16470600  0.59098500  1
  O  O33  1  0.53095800  0.30455800  0.65456000  1
  O  O34  1  0.71198300  0.19925600  0.41741800  1
  O  O35  1  0.18900900  0.34951000  0.84783500  1
