# generated using pymatgen
data_Li4Mn5Cr(PO4)6
_symmetry_space_group_name_H-M   'P 1'
_cell_length_a   8.50744100
_cell_length_b   8.62200803
_cell_length_c   8.68347169
_cell_angle_alpha   62.38691627
_cell_angle_beta   63.20689208
_cell_angle_gamma   63.26080019
_symmetry_Int_Tables_number   1
_chemical_formula_structural   Li4Mn5Cr(PO4)6
_chemical_formula_sum   'Li4 Mn5 Cr1 P6 O24'
_cell_volume   479.84590999
_cell_formula_units_Z   1
loop_
 _symmetry_equiv_pos_site_id
 _symmetry_equiv_pos_as_xyz
  1  'x, y, z'
loop_
 _atom_site_type_symbol
 _atom_site_label
 _atom_site_symmetry_multiplicity
 _atom_site_fract_x
 _atom_site_fract_y
 _atom_site_fract_z
 _atom_site_occupancy
  Li  Li0  1  0.74202700  0.14926200  0.36199400  1
  Li  Li1  1  0.26933300  0.84888900  0.65122300  1
  Li  Li2  1  0.64786500  0.26276000  0.85710500  1
  Li  Li3  1  0.85147300  0.65166100  0.26970300  1
  Mn  Mn4  1  0.01569900  0.00144800  0.99243400  1
  Mn  Mn5  1  0.35006600  0.35241400  0.35097300  1
  Mn  Mn6  1  0.49076900  0.50192900  0.50129300  1
  Mn  Mn7  1  0.14492000  0.15081900  0.14821900  1
  Mn  Mn8  1  0.65641700  0.65056400  0.65822200  1
  Cr  Cr9  1  0.85233700  0.85000700  0.85221300  1
  P  P10  1  0.05600500  0.75235500  0.44568900  1
  P  P11  1  0.44594800  0.04896200  0.74883300  1
  P  P12  1  0.75282000  0.44403100  0.05424800  1
  P  P13  1  0.24632700  0.54864200  0.95117300  1
  P  P14  1  0.55806300  0.95356800  0.24616900  1
  P  P15  1  0.93604200  0.24501700  0.55142200  1
  O  O16  1  0.46411100  0.90066000  0.68409400  1
  O  O17  1  0.68803800  0.45681300  0.90896700  1
  O  O18  1  0.90547200  0.68926800  0.45939600  1
  O  O19  1  0.06165200  0.92260500  0.26138100  1
  O  O20  1  0.00594600  0.81037900  0.61020500  1
  O  O21  1  0.24684800  0.60619500  0.42843200  1
  O  O22  1  0.25679800  0.07395100  0.89927600  1
  O  O23  1  0.45576400  0.23263000  0.58807000  1
  O  O24  1  0.17980500  0.39047200  0.99483200  1
  O  O25  1  0.61020700  0.42349700  0.24787800  1
  O  O26  1  0.09018600  0.74469500  0.92328700  1
  O  O27  1  0.38799400  0.01624800  0.18871900  1
  O  O28  1  0.60692000  0.99562300  0.81975900  1
  O  O29  1  0.91097400  0.25129800  0.07692000  1
  O  O30  1  0.39468300  0.57020600  0.75779600  1
  O  O31  1  0.81568000  0.60682100  0.00435100  1
  O  O32  1  0.57038900  0.75893600  0.39555200  1
  O  O33  1  0.74960800  0.92097600  0.08706400  1
  O  O34  1  0.74578900  0.39956300  0.58357100  1
  O  O35  1  0.94734400  0.18627800  0.40502400  1
  O  O36  1  0.92043400  0.08793600  0.74753100  1
  O  O37  1  0.10189000  0.29846400  0.50708300  1
  O  O38  1  0.30845900  0.52427300  0.10061000  1
  O  O39  1  0.55890200  0.09688500  0.30228700  1
