# generated using pymatgen
data_Li2VO3F
_symmetry_space_group_name_H-M   'P 1'
_cell_length_a   5.15012300
_cell_length_b   7.72886083
_cell_length_c   7.74323758
_cell_angle_alpha   98.40839601
_cell_angle_beta   102.65171530
_cell_angle_gamma   103.37869126
_symmetry_Int_Tables_number   1
_chemical_formula_structural   Li2VO3F
_chemical_formula_sum   'Li8 V4 O12 F4'
_cell_volume   286.20753756
_cell_formula_units_Z   4
loop_
 _symmetry_equiv_pos_site_id
 _symmetry_equiv_pos_as_xyz
  1  'x, y, z'
loop_
 _atom_site_type_symbol
 _atom_site_label
 _atom_site_symmetry_multiplicity
 _atom_site_fract_x
 _atom_site_fract_y
 _atom_site_fract_z
 _atom_site_occupancy
  Li  Li0  1  0.51372100  0.37112900  0.11835500  1
  Li  Li1  1  0.49413900  0.73167500  0.25916200  1
  Li  Li2  1  0.54259700  0.12167600  0.38379800  1
  Li  Li3  1  0.50200300  0.50357200  0.49700100  1
  Li  Li4  1  0.00447400  0.37259900  0.61467500  1
  Li  Li5  1  0.45267000  0.87312000  0.60732400  1
  Li  Li6  1  0.51028800  0.26413000  0.74977300  1
  Li  Li7  1  0.49631400  0.63091400  0.88185200  1
  V  V8  1  0.02631200  0.89504800  0.16528000  1
  V  V9  1  0.00094800  0.28219100  0.23035000  1
  V  V10  1  0.00099500  0.72154700  0.76027700  1
  V  V11  1  0.96491200  0.09594500  0.84284900  1
  O  O12  1  0.80110000  0.25132500  0.00526300  1
  O  O13  1  0.20799000  0.11536300  0.12009200  1
  O  O14  1  0.80276400  0.00118000  0.25007200  1
  O  O15  1  0.26441600  0.47289600  0.25144500  1
  O  O16  1  0.78093400  0.34777400  0.35194100  1
  O  O17  1  0.26135800  0.88025200  0.34853500  1
  O  O18  1  0.75162800  0.13323000  0.65478100  1
  O  O19  1  0.22653500  0.64236500  0.65628300  1
  O  O20  1  0.74832800  0.52145900  0.73972000  1
  O  O21  1  0.19277700  0.99532000  0.75329300  1
  O  O22  1  0.76857700  0.88576800  0.87287900  1
  O  O23  1  0.18339300  0.75698300  0.99141500  1
  F  F24  1  0.73156400  0.65811200  0.11862200  1
  F  F25  1  0.72332100  0.74709200  0.52460100  1
  F  F26  1  0.26683000  0.26580200  0.49215700  1
  F  F27  1  0.26305700  0.34815700  0.87133600  1
