# generated using pymatgen
data_Li7Mn8(BO3)8
_symmetry_space_group_name_H-M   'P 1'
_cell_length_a   5.28573200
_cell_length_b   9.10311547
_cell_length_c   11.62823422
_cell_angle_alpha   112.84072600
_cell_angle_beta   101.67322097
_cell_angle_gamma   89.52984548
_symmetry_Int_Tables_number   1
_chemical_formula_structural   Li7Mn8(BO3)8
_chemical_formula_sum   'Li7 Mn8 B8 O24'
_cell_volume   503.43835563
_cell_formula_units_Z   1
loop_
 _symmetry_equiv_pos_site_id
 _symmetry_equiv_pos_as_xyz
  1  'x, y, z'
loop_
 _atom_site_type_symbol
 _atom_site_label
 _atom_site_symmetry_multiplicity
 _atom_site_fract_x
 _atom_site_fract_y
 _atom_site_fract_z
 _atom_site_occupancy
  Li  Li0  1  0.13130900  0.29727200  0.58522500  1
  Li  Li1  1  0.32817400  0.18380200  0.33469500  1
  Li  Li2  1  0.57288100  0.40087500  0.83700400  1
  Li  Li3  1  0.07441300  0.90171800  0.83270000  1
  Li  Li4  1  0.39092300  0.54580400  0.08494400  1
  Li  Li5  1  0.63811300  0.80110100  0.59306400  1
  Li  Li6  1  0.82927800  0.67786200  0.32633300  1
  Mn  Mn7  1  0.08786600  0.59842100  0.87187100  1
  Mn  Mn8  1  0.64525600  0.47423100  0.61973800  1
  Mn  Mn9  1  0.38515000  0.90264400  0.11511100  1
  Mn  Mn10  1  0.14661700  0.97604700  0.61695000  1
  Mn  Mn11  1  0.84564000  0.01773000  0.36093800  1
  Mn  Mn12  1  0.59731300  0.08680900  0.87224100  1
  Mn  Mn13  1  0.34690200  0.53521400  0.37333400  1
  Mn  Mn14  1  0.90873800  0.37418400  0.11996300  1
  B  B15  1  0.59388200  0.75849400  0.86870600  1
  B  B16  1  0.85312500  0.35350900  0.37015300  1
  B  B17  1  0.11462500  0.26385900  0.88214900  1
  B  B18  1  0.64793400  0.14386800  0.62666200  1
  B  B19  1  0.36065400  0.86293600  0.37720100  1
  B  B20  1  0.89443100  0.72457800  0.12444600  1
  B  B21  1  0.14329000  0.64268300  0.62528500  1
  B  B22  1  0.39328500  0.24963200  0.12943700  1
  O  O23  1  0.35407200  0.79042500  0.90478200  1
  O  O24  1  0.05375000  0.52269600  0.65793700  1
  O  O25  1  0.01350600  0.24432700  0.39272500  1
  O  O26  1  0.67782800  0.60339900  0.83521300  1
  O  O27  1  0.61511100  0.37354900  0.40561700  1
  O  O28  1  0.25558700  0.39502000  0.89085000  1
  O  O29  1  0.27924200  0.13348500  0.15043000  1
  O  O30  1  0.50638700  0.27652900  0.64282300  1
  O  O31  1  0.19088600  0.10961000  0.83330200  1
  O  O32  1  0.43626800  0.97926500  0.33877300  1
  O  O33  1  0.87936700  0.28619500  0.92743300  1
  O  O34  1  0.11504800  0.86102700  0.40636300  1
  O  O35  1  0.87697300  0.13259700  0.58304600  1
  O  O36  1  0.12846500  0.70579400  0.08280600  1
  O  O37  1  0.56052300  0.02444400  0.66099300  1
  O  O38  1  0.78580200  0.87050400  0.16020800  1
  O  O39  1  0.00745100  0.77575300  0.63798900  1
  O  O40  1  0.52550500  0.74840800  0.39156300  1
  O  O41  1  0.74174600  0.87651000  0.86264100  1
  O  O42  1  0.77195800  0.59619100  0.13465100  1
  O  O43  1  0.37193000  0.62704000  0.57925700  1
  O  O44  1  0.29288800  0.40292200  0.16065100  1
  O  O45  1  0.93383000  0.45390000  0.31312400  1
  O  O46  1  0.60848700  0.22704400  0.07464400  1
