# generated using pymatgen
data_Li3Mn4(BO3)4
_symmetry_space_group_name_H-M   'P 1'
_cell_length_a   7.88181000
_cell_length_b   7.93364474
_cell_length_c   8.27488431
_cell_angle_alpha   81.54997914
_cell_angle_beta   80.58360096
_cell_angle_gamma   83.63712592
_symmetry_Int_Tables_number   1
_chemical_formula_structural   Li3Mn4(BO3)4
_chemical_formula_sum   'Li6 Mn8 B8 O24'
_cell_volume   502.92625013
_cell_formula_units_Z   2
loop_
 _symmetry_equiv_pos_site_id
 _symmetry_equiv_pos_as_xyz
  1  'x, y, z'
loop_
 _atom_site_type_symbol
 _atom_site_label
 _atom_site_symmetry_multiplicity
 _atom_site_fract_x
 _atom_site_fract_y
 _atom_site_fract_z
 _atom_site_occupancy
  Li  Li0  1  0.31187000  0.15016600  0.22023800  1
  Li  Li1  1  0.70508700  0.36589200  0.27130300  1
  Li  Li2  1  0.18695600  0.84438300  0.27415700  1
  Li  Li3  1  0.81304400  0.15561700  0.72584300  1
  Li  Li4  1  0.29491300  0.63410800  0.72869700  1
  Li  Li5  1  0.68813000  0.84983400  0.77976200  1
  Mn  Mn6  1  0.18074900  0.99657800  0.57619900  1
  Mn  Mn7  1  0.67706000  0.98771300  0.08462200  1
  Mn  Mn8  1  0.17444300  0.49356300  0.07916500  1
  Mn  Mn9  1  0.32078000  0.49078500  0.42751500  1
  Mn  Mn10  1  0.67922000  0.50921500  0.57248500  1
  Mn  Mn11  1  0.82555700  0.50643700  0.92083500  1
  Mn  Mn12  1  0.32294000  0.01228700  0.91537800  1
  Mn  Mn13  1  0.81925100  0.00342200  0.42380100  1
  B  B14  1  0.00425700  0.32614100  0.40557000  1
  B  B15  1  0.50144600  0.16757000  0.58904400  1
  B  B16  1  0.51087800  0.33734600  0.91220600  1
  B  B17  1  0.00355900  0.82843900  0.89385000  1
  B  B18  1  0.99644100  0.17156100  0.10615000  1
  B  B19  1  0.48912200  0.66265400  0.08779400  1
  B  B20  1  0.49855400  0.83243000  0.41095600  1
  B  B21  1  0.99574300  0.67385900  0.59443000  1
  O  O22  1  0.13139200  0.04774000  0.12112300  1
  O  O23  1  0.17029800  0.34167400  0.31335000  1
  O  O24  1  0.48174400  0.18281600  0.01360100  1
  O  O25  1  0.01788400  0.33080900  0.01266800  1
  O  O26  1  0.33649500  0.13581700  0.66880700  1
  O  O27  1  0.63833300  0.05006200  0.62559600  1
  O  O28  1  0.12566700  0.55068100  0.61342500  1
  O  O29  1  0.53058800  0.31644400  0.48082000  1
  O  O30  1  0.02282800  0.82973900  0.49049200  1
  O  O31  1  0.83098900  0.14698500  0.19182200  1
  O  O32  1  0.32172200  0.64393800  0.18152400  1
  O  O33  1  0.38155000  0.46484600  0.89248700  1
  O  O34  1  0.61845000  0.53515400  0.10751300  1
  O  O35  1  0.67827800  0.35606200  0.81847600  1
  O  O36  1  0.16901100  0.85301500  0.80817800  1
  O  O37  1  0.97717200  0.17026100  0.50950800  1
  O  O38  1  0.46941200  0.68355600  0.51918000  1
  O  O39  1  0.87433300  0.44931900  0.38657500  1
  O  O40  1  0.36166700  0.94993800  0.37440400  1
  O  O41  1  0.66350500  0.86418300  0.33119300  1
  O  O42  1  0.98211600  0.66919100  0.98733200  1
  O  O43  1  0.51825600  0.81718400  0.98639900  1
  O  O44  1  0.82970200  0.65832600  0.68665000  1
  O  O45  1  0.86860800  0.95226000  0.87887700  1
