# generated using pymatgen
data_Li4Mn3NbO8
_symmetry_space_group_name_H-M   'P 1'
_cell_length_a   6.21851928
_cell_length_b   6.21867498
_cell_length_c   10.47962905
_cell_angle_alpha   107.21580779
_cell_angle_beta   72.77984593
_cell_angle_gamma   119.97277528
_symmetry_Int_Tables_number   1
_chemical_formula_structural   Li4Mn3NbO8
_chemical_formula_sum   'Li8 Mn6 Nb2 O16'
_cell_volume   329.90989660
_cell_formula_units_Z   2
loop_
 _symmetry_equiv_pos_site_id
 _symmetry_equiv_pos_as_xyz
  1  'x, y, z'
loop_
 _atom_site_type_symbol
 _atom_site_label
 _atom_site_symmetry_multiplicity
 _atom_site_fract_x
 _atom_site_fract_y
 _atom_site_fract_z
 _atom_site_occupancy
  Li  Li0  1  0.25151200  0.74318200  0.24755200  1
  Li  Li1  1  0.75156500  0.24315000  0.74748100  1
  Li  Li2  1  0.75579500  0.75000800  0.74886600  1
  Li  Li3  1  0.25580700  0.25003200  0.24893700  1
  Li  Li4  1  0.24871700  0.24470500  0.74953600  1
  Li  Li5  1  0.74869700  0.74471400  0.24962300  1
  Li  Li6  1  0.75209800  0.24949400  0.25135700  1
  Li  Li7  1  0.25212800  0.74946200  0.75125800  1
  Mn  Mn8  1  0.49773800  0.99666600  0.49829600  1
  Mn  Mn9  1  0.99882900  0.49745600  0.49953400  1
  Mn  Mn10  1  0.99922800  0.99680900  0.49754800  1
  Mn  Mn11  1  0.99771200  0.49662900  0.99827100  1
  Mn  Mn12  1  0.49882200  0.99744300  0.99954100  1
  Mn  Mn13  1  0.49925200  0.49678700  0.99753000  1
  Nb  Nb14  1  0.49803600  0.49777700  0.50095400  1
  Nb  Nb15  1  0.99804000  0.99778900  0.00095900  1
  O  O16  1  0.36378100  0.63337900  0.89639100  1
  O  O17  1  0.86343300  0.13342800  0.39633700  1
  O  O18  1  0.13219100  0.86214100  0.60209600  1
  O  O19  1  0.63184700  0.36216600  0.10202600  1
  O  O20  1  0.84715700  0.61043000  0.38005700  1
  O  O21  1  0.34721900  0.11050700  0.88011600  1
  O  O22  1  0.38452100  0.14959700  0.37992500  1
  O  O23  1  0.88437600  0.64953300  0.87998200  1
  O  O24  1  0.88388500  0.11233800  0.87928800  1
  O  O25  1  0.38397200  0.61233900  0.37926400  1
  O  O26  1  0.64844100  0.88326700  0.11936500  1
  O  O27  1  0.14851500  0.38336500  0.61942900  1
  O  O28  1  0.11357600  0.34764700  0.11895700  1
  O  O29  1  0.61343800  0.84759100  0.61902100  1
  O  O30  1  0.61270100  0.38198500  0.61983800  1
  O  O31  1  0.11277800  0.88196400  0.11980900  1
