# generated using pymatgen
data_Li2FeCo3O8
_symmetry_space_group_name_H-M   'P 1'
_cell_length_a   5.77652880
_cell_length_b   5.77652880
_cell_length_c   9.41620247
_cell_angle_alpha   89.69988631
_cell_angle_beta   89.69988631
_cell_angle_gamma   119.79188778
_symmetry_Int_Tables_number   1
_chemical_formula_structural   Li2FeCo3O8
_chemical_formula_sum   'Li4 Fe2 Co6 O16'
_cell_volume   272.66133535
_cell_formula_units_Z   2
loop_
 _symmetry_equiv_pos_site_id
 _symmetry_equiv_pos_as_xyz
  1  'x, y, z'
loop_
 _atom_site_type_symbol
 _atom_site_label
 _atom_site_symmetry_multiplicity
 _atom_site_fract_x
 _atom_site_fract_y
 _atom_site_fract_z
 _atom_site_occupancy
  Li  Li0  1  0.66107100  0.32973300  0.10561900  1
  Li  Li1  1  0.00200000  0.00012600  0.00207800  1
  Li  Li2  1  0.00012600  0.00200000  0.50207800  1
  Li  Li3  1  0.32973300  0.66107100  0.60561900  1
  Fe  Fe4  1  0.67518700  0.33897600  0.51126800  1
  Fe  Fe5  1  0.33897600  0.67518700  0.01126800  1
  Co  Co6  1  0.83089900  0.66159800  0.78531800  1
  Co  Co7  1  0.33769700  0.16854000  0.78687900  1
  Co  Co8  1  0.83187100  0.16907900  0.78712600  1
  Co  Co9  1  0.16907900  0.83187100  0.28712600  1
  Co  Co10  1  0.66159800  0.83089900  0.28531800  1
  Co  Co11  1  0.16854000  0.33769700  0.28687900  1
  O  O12  1  0.85083500  0.67584100  0.39715900  1
  O  O13  1  0.50519500  0.46716300  0.66375100  1
  O  O14  1  0.65951900  0.31926900  0.89304800  1
  O  O15  1  0.00835500  0.01454400  0.69014300  1
  O  O16  1  0.01454400  0.00835500  0.19014300  1
  O  O17  1  0.32100500  0.15908900  0.39103300  1
  O  O18  1  0.96392400  0.46660500  0.66585200  1
  O  O19  1  0.52033400  0.03901300  0.67178700  1
  O  O20  1  0.17383000  0.84900000  0.89502000  1
  O  O21  1  0.84900000  0.17383000  0.39502000  1
  O  O22  1  0.46660500  0.96392400  0.16585200  1
  O  O23  1  0.03901300  0.52033400  0.17178700  1
  O  O24  1  0.31926900  0.65951900  0.39304800  1
  O  O25  1  0.67584100  0.85083500  0.89715900  1
  O  O26  1  0.46716300  0.50519500  0.16375100  1
  O  O27  1  0.15908900  0.32100500  0.89103300  1
