# generated using pymatgen
data_LiMn2OF3
_symmetry_space_group_name_H-M   'P 1'
_cell_length_a   6.32931277
_cell_length_b   6.35237111
_cell_length_c   8.84265800
_cell_angle_alpha   90.00135922
_cell_angle_beta   89.99651668
_cell_angle_gamma   90.51924451
_symmetry_Int_Tables_number   1
_chemical_formula_structural   LiMn2OF3
_chemical_formula_sum   'Li4 Mn8 O4 F12'
_cell_volume   355.51457740
_cell_formula_units_Z   4
loop_
 _symmetry_equiv_pos_site_id
 _symmetry_equiv_pos_as_xyz
  1  'x, y, z'
loop_
 _atom_site_type_symbol
 _atom_site_label
 _atom_site_symmetry_multiplicity
 _atom_site_fract_x
 _atom_site_fract_y
 _atom_site_fract_z
 _atom_site_occupancy
  Li  Li0  1  0.00059500  0.73896200  0.86172600  1
  Li  Li1  1  0.49989800  0.26223400  0.38825900  1
  Li  Li2  1  0.49951100  0.76085800  0.36196000  1
  Li  Li3  1  0.00020700  0.23762200  0.88853700  1
  Mn  Mn4  1  0.50102100  0.04020700  0.73377900  1
  Mn  Mn5  1  0.50082800  0.53994100  0.01506900  1
  Mn  Mn6  1  0.99908700  0.96040400  0.51609700  1
  Mn  Mn7  1  0.99873000  0.45983200  0.23319300  1
  Mn  Mn8  1  0.75005300  0.99914800  0.12553200  1
  Mn  Mn9  1  0.75003500  0.50023400  0.62493800  1
  Mn  Mn10  1  0.25057500  0.99980500  0.12544500  1
  Mn  Mn11  1  0.24947400  0.50016200  0.62464300  1
  O  O12  1  0.49976600  0.79809600  0.13820000  1
  O  O13  1  0.00034900  0.19991800  0.11219700  1
  O  O14  1  0.00012400  0.70155800  0.63809400  1
  O  O15  1  0.49956500  0.29961200  0.61214200  1
  F  F16  1  0.50117000  0.26007000  0.14228700  1
  F  F17  1  0.99960800  0.74040100  0.10731800  1
  F  F18  1  0.99905100  0.24036800  0.64254600  1
  F  F19  1  0.50046900  0.75995800  0.60739800  1
  F  F20  1  0.26384800  0.50964600  0.37047000  1
  F  F21  1  0.73525500  0.51182500  0.37019000  1
  F  F22  1  0.73464400  0.01163000  0.38016400  1
  F  F23  1  0.26462300  0.00997700  0.37966200  1
  F  F24  1  0.76477300  0.98817900  0.87038700  1
  F  F25  1  0.23597100  0.99048400  0.87086500  1
  F  F26  1  0.23507400  0.49045400  0.87909400  1
  F  F27  1  0.76569400  0.48841300  0.87981000  1
