# generated using pymatgen
data_Li4Ti3Mn3Cr2O16
_symmetry_space_group_name_H-M   'P 1'
_cell_length_a   5.89473778
_cell_length_b   5.89473778
_cell_length_c   9.58415781
_cell_angle_alpha   89.67405175
_cell_angle_beta   89.67405175
_cell_angle_gamma   60.96107266
_symmetry_Int_Tables_number   1
_chemical_formula_structural   Li4Ti3Mn3Cr2O16
_chemical_formula_sum   'Li4 Ti3 Mn3 Cr2 O16'
_cell_volume   291.15821361
_cell_formula_units_Z   1
loop_
 _symmetry_equiv_pos_site_id
 _symmetry_equiv_pos_as_xyz
  1  'x, y, z'
loop_
 _atom_site_type_symbol
 _atom_site_label
 _atom_site_symmetry_multiplicity
 _atom_site_fract_x
 _atom_site_fract_y
 _atom_site_fract_z
 _atom_site_occupancy
  Li  Li0  1  0.67135800  0.67135800  0.10972600  1
  Li  Li1  1  0.99901500  0.99901500  0.00477900  1
  Li  Li2  1  0.99172100  0.99172100  0.50319000  1
  Li  Li3  1  0.33060200  0.33060200  0.60649600  1
  Ti  Ti4  1  0.33777900  0.83176400  0.78553900  1
  Ti  Ti5  1  0.83176400  0.33777900  0.78553900  1
  Ti  Ti6  1  0.16708300  0.16708300  0.28828100  1
  Mn  Mn7  1  0.83093000  0.83093000  0.78816000  1
  Mn  Mn8  1  0.17189000  0.65854200  0.28639000  1
  Mn  Mn9  1  0.65854200  0.17189000  0.28639000  1
  Cr  Cr10  1  0.66458900  0.66458900  0.51360600  1
  Cr  Cr11  1  0.33946500  0.33946500  0.01748200  1
  O  O12  1  0.32172700  0.83843100  0.39642600  1
  O  O13  1  0.51708200  0.51708200  0.66476500  1
  O  O14  1  0.66948400  0.66948400  0.89370400  1
  O  O15  1  0.99638500  0.99638500  0.69080400  1
  O  O16  1  0.99759900  0.99759900  0.19175100  1
  O  O17  1  0.83843100  0.32172700  0.39642600  1
  O  O18  1  0.50804800  0.95625300  0.65480100  1
  O  O19  1  0.95625300  0.50804800  0.65480100  1
  O  O20  1  0.16625700  0.16625700  0.89318100  1
  O  O21  1  0.83126600  0.83126600  0.39819400  1
  O  O22  1  0.04486100  0.47843500  0.16326500  1
  O  O23  1  0.47843500  0.04486100  0.16326500  1
  O  O24  1  0.33187100  0.33187100  0.39438300  1
  O  O25  1  0.18165500  0.67258800  0.90148100  1
  O  O26  1  0.48463100  0.48463100  0.15816500  1
  O  O27  1  0.67258800  0.18165500  0.90148100  1
