# generated using pymatgen
data_Li3Mn4(BO3)4
_symmetry_space_group_name_H-M   'P 1'
_cell_length_a   5.28159100
_cell_length_b   9.12437617
_cell_length_c   10.37391868
_cell_angle_alpha   88.58431014
_cell_angle_beta   88.41374011
_cell_angle_gamma   89.61390073
_symmetry_Int_Tables_number   1
_chemical_formula_structural   Li3Mn4(BO3)4
_chemical_formula_sum   'Li6 Mn8 B8 O24'
_cell_volume   499.57853637
_cell_formula_units_Z   2
loop_
 _symmetry_equiv_pos_site_id
 _symmetry_equiv_pos_as_xyz
  1  'x, y, z'
loop_
 _atom_site_type_symbol
 _atom_site_label
 _atom_site_symmetry_multiplicity
 _atom_site_fract_x
 _atom_site_fract_y
 _atom_site_fract_z
 _atom_site_occupancy
  Li  Li0  1  0.05131600  0.08539600  0.32767000  1
  Li  Li1  1  0.10354500  0.06985500  0.83885700  1
  Li  Li2  1  0.41841700  0.42228900  0.60312100  1
  Li  Li3  1  0.56125300  0.58679300  0.34292600  1
  Li  Li4  1  0.59650600  0.57676600  0.82972100  1
  Li  Li5  1  0.91857500  0.91335200  0.09866700  1
  Mn  Mn6  1  0.05948200  0.74983100  0.37438700  1
  Mn  Mn7  1  0.07440500  0.40268700  0.86702500  1
  Mn  Mn8  1  0.41525900  0.09939100  0.11408700  1
  Mn  Mn9  1  0.40579600  0.77230100  0.61983800  1
  Mn  Mn10  1  0.57198000  0.25412700  0.36716100  1
  Mn  Mn11  1  0.60018800  0.91526400  0.86900200  1
  Mn  Mn12  1  0.92456300  0.57783400  0.12392400  1
  Mn  Mn13  1  0.92737000  0.22700200  0.61264000  1
  B  B14  1  0.08140800  0.41628500  0.38184900  1
  B  B15  1  0.09326800  0.74766800  0.86977700  1
  B  B16  1  0.41813200  0.76142900  0.13275900  1
  B  B17  1  0.43295400  0.07827300  0.62885000  1
  B  B18  1  0.56485900  0.92661000  0.37232400  1
  B  B19  1  0.57932700  0.25060000  0.86505000  1
  B  B20  1  0.90094000  0.24889300  0.11399100  1
  B  B21  1  0.92712000  0.57312400  0.63023900  1
  O  O22  1  0.02741400  0.11775900  0.12908600  1
  O  O23  1  0.07722300  0.68442300  0.57750200  1
  O  O24  1  0.02128500  0.37161600  0.05377900  1
  O  O25  1  0.05615300  0.44413000  0.67470800  1
  O  O26  1  0.15726600  0.76376700  0.16445700  1
  O  O27  1  0.17995300  0.06703300  0.65204500  1
  O  O28  1  0.33549900  0.43302000  0.40404800  1
  O  O29  1  0.34252500  0.74020500  0.81504100  1
  O  O30  1  0.41535400  0.04419100  0.33106700  1
  O  O31  1  0.44465400  0.12614600  0.90488600  1
  O  O32  1  0.43973900  0.80095300  0.42787000  1
  O  O33  1  0.46155400  0.38373200  0.85201000  1
  O  O34  1  0.56040700  0.64156400  0.16178600  1
  O  O35  1  0.54526000  0.20723900  0.58146800  1
  O  O36  1  0.53200900  0.88552100  0.07396800  1
  O  O37  1  0.58784100  0.95498700  0.65754300  1
  O  O38  1  0.65709500  0.26667200  0.16205200  1
  O  O39  1  0.66878400  0.58401300  0.63656600  1
  O  O40  1  0.82069900  0.92691700  0.35829200  1
  O  O41  1  0.83997100  0.23236600  0.83616000  1
  O  O42  1  0.93344100  0.53213100  0.33604300  1
  O  O43  1  0.96200400  0.61822900  0.90023800  1
  O  O44  1  0.96490100  0.28025000  0.40841600  1
  O  O45  1  0.98529100  0.88034700  0.89645500  1
