# generated using pymatgen
data_Li4Fe7(OF7)2
_symmetry_space_group_name_H-M   'P 1'
_cell_length_a   6.18790500
_cell_length_b   6.22051538
_cell_length_c   10.77646637
_cell_angle_alpha   91.03348126
_cell_angle_beta   105.74202947
_cell_angle_gamma   119.43502851
_symmetry_Int_Tables_number   1
_chemical_formula_structural   Li4Fe7(OF7)2
_chemical_formula_sum   'Li4 Fe7 O2 F14'
_cell_volume   341.99550697
_cell_formula_units_Z   1
loop_
 _symmetry_equiv_pos_site_id
 _symmetry_equiv_pos_as_xyz
  1  'x, y, z'
loop_
 _atom_site_type_symbol
 _atom_site_label
 _atom_site_symmetry_multiplicity
 _atom_site_fract_x
 _atom_site_fract_y
 _atom_site_fract_z
 _atom_site_occupancy
  Li  Li0  1  0.35696400  0.88858900  0.81302600  1
  Li  Li1  1  0.62121500  0.57672800  0.68001700  1
  Li  Li2  1  0.37878500  0.42327200  0.31998300  1
  Li  Li3  1  0.64303600  0.11141100  0.18697400  1
  Fe  Fe4  1  0.00000000  0.00000000  0.00000000  1
  Fe  Fe5  1  0.01444500  0.25354800  0.74941800  1
  Fe  Fe6  1  0.00000000  0.50000000  0.00000000  1
  Fe  Fe7  1  0.50000000  0.50000000  0.00000000  1
  Fe  Fe8  1  0.00000000  0.50000000  0.50000000  1
  Fe  Fe9  1  0.98555500  0.74645200  0.25058200  1
  Fe  Fe10  1  0.50000000  0.00000000  0.50000000  1
  O  O11  1  0.77199900  0.43641500  0.11210800  1
  O  O12  1  0.22800100  0.56358500  0.88789200  1
  F  F13  1  0.23887500  0.10415000  0.87551500  1
  F  F14  1  0.75312800  0.10558700  0.87968400  1
  F  F15  1  0.24064800  0.35623000  0.12625900  1
  F  F16  1  0.75935200  0.64377000  0.87374100  1
  F  F17  1  0.24687200  0.89441300  0.12031600  1
  F  F18  1  0.76112500  0.89585000  0.12448500  1
  F  F19  1  0.76001600  0.60287800  0.37951100  1
  F  F20  1  0.24912300  0.62751500  0.37740600  1
  F  F21  1  0.24441000  0.08863200  0.36666900  1
  F  F22  1  0.73015500  0.13893300  0.38123700  1
  F  F23  1  0.75559000  0.91136800  0.63333100  1
  F  F24  1  0.26984500  0.86106700  0.61876300  1
  F  F25  1  0.23998400  0.39712200  0.62048900  1
  F  F26  1  0.75087700  0.37248500  0.62259400  1
