# generated using pymatgen
data_LiCr(SiO3)2
_symmetry_space_group_name_H-M   'P 1'
_cell_length_a   7.01913400
_cell_length_b   7.33771339
_cell_length_c   7.40705972
_cell_angle_alpha   80.92589739
_cell_angle_beta   61.83800459
_cell_angle_gamma   77.29038225
_symmetry_Int_Tables_number   1
_chemical_formula_structural   LiCr(SiO3)2
_chemical_formula_sum   'Li3 Cr3 Si6 O18'
_cell_volume   327.44799770
_cell_formula_units_Z   3
loop_
 _symmetry_equiv_pos_site_id
 _symmetry_equiv_pos_as_xyz
  1  'x, y, z'
loop_
 _atom_site_type_symbol
 _atom_site_label
 _atom_site_symmetry_multiplicity
 _atom_site_fract_x
 _atom_site_fract_y
 _atom_site_fract_z
 _atom_site_occupancy
  Li  Li0  1  0.58944500  0.79691200  0.74421300  1
  Li  Li1  1  0.50000000  0.50000000  0.50000000  1
  Li  Li2  1  0.41055500  0.20308800  0.25578700  1
  Cr  Cr3  1  0.05284700  0.77162500  0.75000100  1
  Cr  Cr4  1  0.00000000  0.50000000  0.50000000  1
  Cr  Cr5  1  0.94715300  0.22837500  0.24999900  1
  Si  Si6  1  0.75615700  0.83877100  0.28347000  1
  Si  Si7  1  0.31372600  0.83517200  0.25354500  1
  Si  Si8  1  0.79592600  0.39423200  0.97500500  1
  Si  Si9  1  0.20407400  0.60576800  0.02499500  1
  Si  Si10  1  0.68627400  0.16482800  0.74645500  1
  Si  Si11  1  0.24384300  0.16122900  0.71653000  1
  O  O12  1  0.79685000  0.95092800  0.75813500  1
  O  O13  1  0.24998000  0.94772400  0.68659000  1
  O  O14  1  0.54888100  0.83642500  0.24208700  1
  O  O15  1  0.97487000  0.76334900  0.06347100  1
  O  O16  1  0.75720000  0.68902100  0.47004100  1
  O  O17  1  0.86096000  0.56563800  0.79796300  1
  O  O18  1  0.17385400  0.70442500  0.45734700  1
  O  O19  1  0.28952800  0.57122400  0.78826300  1
  O  O20  1  0.36813900  0.71820400  0.05271500  1
  O  O21  1  0.63186100  0.28179600  0.94728500  1
  O  O22  1  0.71047200  0.42877600  0.21173700  1
  O  O23  1  0.82614600  0.29557500  0.54265300  1
  O  O24  1  0.13904000  0.43436200  0.20203700  1
  O  O25  1  0.24280000  0.31097900  0.52995900  1
  O  O26  1  0.02513000  0.23665100  0.93652900  1
  O  O27  1  0.45111900  0.16357500  0.75791300  1
  O  O28  1  0.75002000  0.05227600  0.31341000  1
  O  O29  1  0.20315000  0.04907200  0.24186500  1
