# generated using pymatgen
data_Li2Fe3F8
_symmetry_space_group_name_H-M   'P 1'
_cell_length_a   9.40465200
_cell_length_b   6.79365600
_cell_length_c   11.29224229
_cell_angle_alpha   88.47068512
_cell_angle_beta   90.00000000
_cell_angle_gamma   90.00000000
_symmetry_Int_Tables_number   1
_chemical_formula_structural   Li2Fe3F8
_chemical_formula_sum   'Li8 Fe12 F32'
_cell_volume   721.22661910
_cell_formula_units_Z   4
loop_
 _symmetry_equiv_pos_site_id
 _symmetry_equiv_pos_as_xyz
  1  'x, y, z'
loop_
 _atom_site_type_symbol
 _atom_site_label
 _atom_site_symmetry_multiplicity
 _atom_site_fract_x
 _atom_site_fract_y
 _atom_site_fract_z
 _atom_site_occupancy
  Li  Li0  1  0.05252800  0.90343300  0.85428200  1
  Li  Li1  1  0.44747200  0.90343300  0.35428200  1
  Li  Li2  1  0.60580300  0.59260300  0.86272900  1
  Li  Li3  1  0.89419700  0.59260300  0.36272900  1
  Li  Li4  1  0.10580300  0.40739700  0.63727100  1
  Li  Li5  1  0.39419700  0.40739700  0.13727100  1
  Li  Li6  1  0.55252800  0.09656700  0.64571800  1
  Li  Li7  1  0.94747200  0.09656700  0.14571800  1
  Fe  Fe8  1  0.19097800  0.90254100  0.56132000  1
  Fe  Fe9  1  0.30902200  0.90254100  0.06132000  1
  Fe  Fe10  1  0.84130200  0.75168000  0.64275900  1
  Fe  Fe11  1  0.65869800  0.75168000  0.14275900  1
  Fe  Fe12  1  0.45212000  0.60953800  0.62316400  1
  Fe  Fe13  1  0.04788000  0.60953800  0.12316400  1
  Fe  Fe14  1  0.95212000  0.39046200  0.87683600  1
  Fe  Fe15  1  0.54788000  0.39046200  0.37683600  1
  Fe  Fe16  1  0.34130200  0.24832000  0.85724100  1
  Fe  Fe17  1  0.15869800  0.24832000  0.35724100  1
  Fe  Fe18  1  0.69097800  0.09745900  0.93868000  1
  Fe  Fe19  1  0.80902200  0.09745900  0.43868000  1
  F  F20  1  0.24462900  0.96730200  0.89425500  1
  F  F21  1  0.25537100  0.96730200  0.39425500  1
  F  F22  1  0.40227600  0.90647700  0.62285100  1
  F  F23  1  0.09772400  0.90647700  0.12285100  1
  F  F24  1  0.03927800  0.86427400  0.68616200  1
  F  F25  1  0.46072200  0.86427400  0.18616200  1
  F  F26  1  0.60556700  0.80815400  0.96668300  1
  F  F27  1  0.89443300  0.80815400  0.46668300  1
  F  F28  1  0.99498500  0.66410100  0.93223800  1
  F  F29  1  0.65052300  0.68010500  0.70471200  1
  F  F30  1  0.50501500  0.66410100  0.43223800  1
  F  F31  1  0.84947700  0.68010500  0.20471200  1
  F  F32  1  0.23251500  0.60163300  0.57899900  1
  F  F33  1  0.26748500  0.60163300  0.07899900  1
  F  F34  1  0.42183600  0.51401400  0.80528300  1
  F  F35  1  0.07816400  0.51401400  0.30528300  1
  F  F36  1  0.92183600  0.48598600  0.69471700  1
  F  F37  1  0.57816400  0.48598600  0.19471700  1
  F  F38  1  0.73251500  0.39836700  0.92100100  1
  F  F39  1  0.76748500  0.39836700  0.42100100  1
  F  F40  1  0.15052300  0.31989500  0.79528800  1
  F  F41  1  0.49498500  0.33589900  0.56776200  1
  F  F42  1  0.34947700  0.31989500  0.29528800  1
  F  F43  1  0.00501500  0.33589900  0.06776200  1
  F  F44  1  0.10556700  0.19184600  0.53331700  1
  F  F45  1  0.39443300  0.19184600  0.03331700  1
  F  F46  1  0.53927800  0.13572600  0.81383800  1
  F  F47  1  0.96072200  0.13572600  0.31383800  1
  F  F48  1  0.90227600  0.09352300  0.87714900  1
  F  F49  1  0.59772400  0.09352300  0.37714900  1
  F  F50  1  0.74462900  0.03269800  0.60574500  1
  F  F51  1  0.75537100  0.03269800  0.10574500  1
