# generated using pymatgen
data_LiTiVO5
_symmetry_space_group_name_H-M   'P 1'
_cell_length_a   6.66497270
_cell_length_b   6.66497270
_cell_length_c   4.60066500
_cell_angle_alpha   90.00000000
_cell_angle_beta   90.00000000
_cell_angle_gamma   91.66737989
_symmetry_Int_Tables_number   1
_chemical_formula_structural   LiTiVO5
_chemical_formula_sum   'Li2 Ti2 V2 O10'
_cell_volume   204.28356905
_cell_formula_units_Z   2
loop_
 _symmetry_equiv_pos_site_id
 _symmetry_equiv_pos_as_xyz
  1  'x, y, z'
loop_
 _atom_site_type_symbol
 _atom_site_label
 _atom_site_symmetry_multiplicity
 _atom_site_fract_x
 _atom_site_fract_y
 _atom_site_fract_z
 _atom_site_occupancy
  Li  Li0  1  0.50000000  0.00000000  0.00000000  1
  Li  Li1  1  0.00000000  0.50000000  0.00000000  1
  Ti  Ti2  1  0.25000000  0.25000000  0.50000000  1
  Ti  Ti3  1  0.75000000  0.75000000  0.50000000  1
  V  V4  1  0.75000000  0.25000000  0.62190000  1
  V  V5  1  0.25000000  0.75000000  0.37810000  1
  O  O6  1  0.25766800  0.02499400  0.27199400  1
  O  O7  1  0.75000000  0.25000000  0.26478400  1
  O  O8  1  0.47500600  0.24233200  0.72800600  1
  O  O9  1  0.02499400  0.25766800  0.72800600  1
  O  O10  1  0.24233200  0.47500600  0.27199400  1
  O  O11  1  0.75766800  0.52499400  0.72800600  1
  O  O12  1  0.97500600  0.74233200  0.27199400  1
  O  O13  1  0.52499400  0.75766800  0.27199400  1
  O  O14  1  0.25000000  0.75000000  0.73521600  1
  O  O15  1  0.74233200  0.97500600  0.72800600  1
