# generated using pymatgen
data_Li5MnO4
_symmetry_space_group_name_H-M   'P 1'
_cell_length_a   5.05062500
_cell_length_b   14.75842800
_cell_length_c   5.15114700
_cell_angle_alpha   89.99744750
_cell_angle_beta   90.00266202
_cell_angle_gamma   89.99931806
_symmetry_Int_Tables_number   1
_chemical_formula_structural   Li5MnO4
_chemical_formula_sum   'Li20 Mn4 O16'
_cell_volume   383.96281605
_cell_formula_units_Z   4
loop_
 _symmetry_equiv_pos_site_id
 _symmetry_equiv_pos_as_xyz
  1  'x, y, z'
loop_
 _atom_site_type_symbol
 _atom_site_label
 _atom_site_symmetry_multiplicity
 _atom_site_fract_x
 _atom_site_fract_y
 _atom_site_fract_z
 _atom_site_occupancy
  Li  Li0  1  0.27287300  0.49999500  0.66646500  1
  Li  Li1  1  0.27290800  0.99999100  0.66641400  1
  Li  Li2  1  0.77287600  0.24997900  0.33352600  1
  Li  Li3  1  0.77299000  0.74999800  0.33362600  1
  Li  Li4  1  0.05978800  0.16331100  0.92278700  1
  Li  Li5  1  0.06012600  0.66335500  0.92290500  1
  Li  Li6  1  0.05957400  0.33658800  0.92275500  1
  Li  Li7  1  0.05989700  0.83658400  0.92290400  1
  Li  Li8  1  0.55990700  0.08662900  0.07704400  1
  Li  Li9  1  0.55987400  0.58664100  0.07707200  1
  Li  Li10  1  0.55964100  0.41340700  0.07716300  1
  Li  Li11  1  0.55971300  0.91341200  0.07714900  1
  Li  Li12  1  0.22814800  0.34411900  0.41486900  1
  Li  Li13  1  0.22812100  0.84408700  0.41499200  1
  Li  Li14  1  0.22848800  0.15578100  0.41476100  1
  Li  Li15  1  0.22854300  0.65583800  0.41483400  1
  Li  Li16  1  0.72847200  0.09420400  0.58515200  1
  Li  Li17  1  0.72852900  0.59418700  0.58517000  1
  Li  Li18  1  0.72812800  0.40582400  0.58505900  1
  Li  Li19  1  0.72821200  0.90587200  0.58503900  1
  Mn  Mn20  1  0.01759100  0.50000900  0.15300300  1
  Mn  Mn21  1  0.51792800  0.75014200  0.84697200  1
  Mn  Mn22  1  0.01761600  0.99988800  0.15288500  1
  Mn  Mn23  1  0.51730900  0.25003700  0.84744600  1
  O  O24  1  0.36494700  0.00006600  0.29747200  1
  O  O25  1  0.36424600  0.50003700  0.29810100  1
  O  O26  1  0.86408600  0.24995300  0.70191400  1
  O  O27  1  0.86534500  0.74999400  0.70241700  1
  O  O28  1  0.37822900  0.25000200  0.19078300  1
  O  O29  1  0.37847300  0.75007700  0.19054200  1
  O  O30  1  0.87844400  0.99991800  0.80937000  1
  O  O31  1  0.87831800  0.49999400  0.80949200  1
  O  O32  1  0.39907100  0.12969700  0.75562100  1
  O  O33  1  0.39938200  0.62971700  0.75536000  1
  O  O34  1  0.39883500  0.37030100  0.75564400  1
  O  O35  1  0.39899400  0.87032800  0.75550400  1
  O  O36  1  0.89888700  0.37969100  0.24434500  1
  O  O37  1  0.89897100  0.87967800  0.24444800  1
  O  O38  1  0.89912600  0.12029500  0.24436200  1
  O  O39  1  0.89924600  0.62037300  0.24462800  1
