# generated using pymatgen
data_Li2MnV(PO4)2
_symmetry_space_group_name_H-M   'P 1'
_cell_length_a   4.78581572
_cell_length_b   10.55667696
_cell_length_c   6.14373304
_cell_angle_alpha   89.98757938
_cell_angle_beta   90.00138043
_cell_angle_gamma   90.09778655
_symmetry_Int_Tables_number   1
_chemical_formula_structural   Li2MnV(PO4)2
_chemical_formula_sum   'Li4 Mn2 V2 P4 O16'
_cell_volume   310.39512884
_cell_formula_units_Z   2
loop_
 _symmetry_equiv_pos_site_id
 _symmetry_equiv_pos_as_xyz
  1  'x, y, z'
loop_
 _atom_site_type_symbol
 _atom_site_label
 _atom_site_symmetry_multiplicity
 _atom_site_fract_x
 _atom_site_fract_y
 _atom_site_fract_z
 _atom_site_occupancy
  Li  Li0  1  0.00003800  0.99999100  0.99998300  1
  Li  Li1  1  0.00003900  0.99999200  0.49999600  1
  Li  Li2  1  0.49998100  0.49999500  0.99998800  1
  Li  Li3  1  0.49997300  0.49998900  0.49999500  1
  Mn  Mn4  1  0.02329800  0.72241900  0.74992500  1
  Mn  Mn5  1  0.97650200  0.27759700  0.25008200  1
  V  V6  1  0.47954500  0.22296700  0.74993900  1
  V  V7  1  0.52051700  0.77704200  0.25008700  1
  P  P8  1  0.41120300  0.08959200  0.24996800  1
  P  P9  1  0.58884700  0.91040600  0.75005200  1
  P  P10  1  0.91113400  0.40686400  0.75002700  1
  P  P11  1  0.08886700  0.59316200  0.24995100  1
  O  O12  1  0.71043900  0.04715700  0.74996700  1
  O  O13  1  0.28956600  0.95284500  0.25002900  1
  O  O14  1  0.73207900  0.09513000  0.25001100  1
  O  O15  1  0.26791300  0.90487800  0.74996100  1
  O  O16  1  0.23240200  0.40243200  0.74998100  1
  O  O17  1  0.76761300  0.59754900  0.25001300  1
  O  O18  1  0.20765200  0.45627000  0.25001600  1
  O  O19  1  0.79236300  0.54373700  0.74996400  1
  O  O20  1  0.27738100  0.15884900  0.04845100  1
  O  O21  1  0.27741300  0.15885500  0.45146800  1
  O  O22  1  0.72258700  0.84113000  0.54854700  1
  O  O23  1  0.72257900  0.84114000  0.95155600  1
  O  O24  1  0.77598400  0.33765000  0.54859800  1
  O  O25  1  0.77602700  0.33763500  0.95146100  1
  O  O26  1  0.22403700  0.66237200  0.04855700  1
  O  O27  1  0.22402400  0.66235600  0.45142700  1
