# generated using pymatgen
data_LiP2WO8
_symmetry_space_group_name_H-M   'P 1'
_cell_length_a   5.33193000
_cell_length_b   11.05963100
_cell_length_c   11.45147100
_cell_angle_alpha   90.00000000
_cell_angle_beta   90.00000000
_cell_angle_gamma   90.00000000
_symmetry_Int_Tables_number   1
_chemical_formula_structural   LiP2WO8
_chemical_formula_sum   'Li4 P8 W4 O32'
_cell_volume   675.28383540
_cell_formula_units_Z   4
loop_
 _symmetry_equiv_pos_site_id
 _symmetry_equiv_pos_as_xyz
  1  'x, y, z'
loop_
 _atom_site_type_symbol
 _atom_site_label
 _atom_site_symmetry_multiplicity
 _atom_site_fract_x
 _atom_site_fract_y
 _atom_site_fract_z
 _atom_site_occupancy
  Li  Li0  1  0.75635500  0.74881500  0.10976800  1
  Li  Li1  1  0.24364500  0.24881500  0.39023200  1
  Li  Li2  1  0.74364500  0.25118500  0.60976800  1
  Li  Li3  1  0.25635500  0.75118500  0.89023200  1
  P  P4  1  0.25444800  0.09549200  0.04024600  1
  P  P5  1  0.24988100  0.86223100  0.16005400  1
  P  P6  1  0.75011900  0.36223100  0.33994600  1
  P  P7  1  0.74555200  0.59549200  0.45975400  1
  P  P8  1  0.24555200  0.90450800  0.54024600  1
  P  P9  1  0.25011900  0.13776900  0.66005400  1
  P  P10  1  0.74988100  0.63776900  0.83994600  1
  P  P11  1  0.75444800  0.40450800  0.95975400  1
  W  W12  1  0.24940700  0.40319600  0.15313700  1
  W  W13  1  0.75059300  0.90319600  0.34686300  1
  W  W14  1  0.25059300  0.59680400  0.65313700  1
  W  W15  1  0.74940700  0.09680400  0.84686300  1
  O  O16  1  0.02309500  0.06478100  0.96767200  1
  O  O17  1  0.99551100  0.43862800  0.02400500  1
  O  O18  1  0.22773400  0.80492700  0.04243300  1
  O  O19  1  0.25563800  0.22278000  0.08806200  1
  O  O20  1  0.24512400  0.00844500  0.15311200  1
  O  O21  1  0.24247700  0.54754100  0.21444400  1
  O  O22  1  0.97956900  0.32883600  0.26379000  1
  O  O23  1  0.50329100  0.83128100  0.22000400  1
  O  O24  1  0.49670900  0.33128100  0.27999600  1
  O  O25  1  0.02043100  0.82883600  0.23621000  1
  O  O26  1  0.75752300  0.04754100  0.28555600  1
  O  O27  1  0.75487600  0.50844500  0.34688800  1
  O  O28  1  0.74436200  0.72278000  0.41193800  1
  O  O29  1  0.77226600  0.30492700  0.45756700  1
  O  O30  1  0.00448900  0.93862800  0.47599500  1
  O  O31  1  0.97690500  0.56478100  0.53232800  1
  O  O32  1  0.47690500  0.93521900  0.46767200  1
  O  O33  1  0.50448900  0.56137200  0.52400500  1
  O  O34  1  0.27226600  0.19507300  0.54243300  1
  O  O35  1  0.24436200  0.77722000  0.58806200  1
  O  O36  1  0.25487600  0.99155500  0.65311200  1
  O  O37  1  0.25752300  0.45245900  0.71444400  1
  O  O38  1  0.52043100  0.67116400  0.76379000  1
  O  O39  1  0.99670900  0.16871900  0.72000400  1
  O  O40  1  0.00329100  0.66871900  0.77999600  1
  O  O41  1  0.47956900  0.17116400  0.73621000  1
  O  O42  1  0.74247700  0.95245900  0.78555600  1
  O  O43  1  0.74512400  0.49155500  0.84688800  1
  O  O44  1  0.75563800  0.27722000  0.91193800  1
  O  O45  1  0.72773400  0.69507300  0.95756700  1
  O  O46  1  0.49551100  0.06137200  0.97599500  1
  O  O47  1  0.52309500  0.43521900  0.03232800  1
