# generated using pymatgen
data_Li4Ti11O24
_symmetry_space_group_name_H-M   'P 1'
_cell_length_a   10.30434594
_cell_length_b   10.30434594
_cell_length_c   8.45391795
_cell_angle_alpha   65.92968170
_cell_angle_beta   65.92968170
_cell_angle_gamma   33.75407050
_symmetry_Int_Tables_number   1
_chemical_formula_structural   Li4Ti11O24
_chemical_formula_sum   'Li4 Ti11 O24'
_cell_volume   451.18143682
_cell_formula_units_Z   1
loop_
 _symmetry_equiv_pos_site_id
 _symmetry_equiv_pos_as_xyz
  1  'x, y, z'
loop_
 _atom_site_type_symbol
 _atom_site_label
 _atom_site_symmetry_multiplicity
 _atom_site_fract_x
 _atom_site_fract_y
 _atom_site_fract_z
 _atom_site_occupancy
  Li  Li0  1  0.00214400  0.00214400  0.99938800  1
  Li  Li1  1  0.33427500  0.33427500  0.67125700  1
  Li  Li2  1  0.83116100  0.83116100  0.41570600  1
  Li  Li3  1  0.41669100  0.41669100  0.20827200  1
  Ti  Ti4  1  0.25351400  0.25351400  0.37113900  1
  Ti  Ti5  1  0.08495600  0.08495600  0.52714700  1
  Ti  Ti6  1  0.09565500  0.57683500  0.04605200  1
  Ti  Ti7  1  0.57683500  0.09565500  0.04605200  1
  Ti  Ti8  1  0.74695300  0.74695300  0.89245300  1
  Ti  Ti9  1  0.91847100  0.91847100  0.70764900  1
  Ti  Ti10  1  0.57826300  0.57826300  0.04391700  1
  Ti  Ti11  1  0.25594700  0.74046700  0.37141500  1
  Ti  Ti12  1  0.91361800  0.41815300  0.70833000  1
  Ti  Ti13  1  0.41815300  0.91361800  0.70833000  1
  Ti  Ti14  1  0.74046700  0.25594700  0.37141500  1
  O  O15  1  0.59336700  0.59336700  0.79530200  1
  O  O16  1  0.09314600  0.09314600  0.77283900  1
  O  O17  1  0.38245800  0.94913900  0.47853400  1
  O  O18  1  0.94913900  0.38245800  0.47853400  1
  O  O19  1  0.56015700  0.09385800  0.28041900  1
  O  O20  1  0.09385800  0.56015700  0.28041900  1
  O  O21  1  0.40279200  0.40279200  0.97307700  1
  O  O22  1  0.26004000  0.26004000  0.13221000  1
  O  O23  1  0.07304900  0.07304900  0.31951700  1
  O  O24  1  0.90929900  0.90929900  0.95347400  1
  O  O25  1  0.76061100  0.76061100  0.09541400  1
  O  O26  1  0.57232400  0.57232400  0.28547000  1
  O  O27  1  0.05388700  0.61361700  0.80329100  1
  O  O28  1  0.61361700  0.05388700  0.80329100  1
  O  O29  1  0.78425000  0.21429200  0.60972600  1
  O  O30  1  0.88554400  0.45027900  0.93803800  1
  O  O31  1  0.45027900  0.88554400  0.93803800  1
  O  O32  1  0.21429200  0.78425000  0.60972600  1
  O  O33  1  0.92370200  0.92370200  0.46168000  1
  O  O34  1  0.74048300  0.74048300  0.64242100  1
  O  O35  1  0.24247400  0.24247400  0.62134000  1
  O  O36  1  0.42839600  0.42839600  0.44844600  1
  O  O37  1  0.73970300  0.27267800  0.13679900  1
  O  O38  1  0.27267800  0.73970300  0.13679900  1
