# generated using pymatgen
data_Li6Mn3Sn(PO4)6
_symmetry_space_group_name_H-M   'P 1'
_cell_length_a   8.54765800
_cell_length_b   8.63730619
_cell_length_c   8.72215530
_cell_angle_alpha   61.49892352
_cell_angle_beta   61.99499940
_cell_angle_gamma   62.62247605
_symmetry_Int_Tables_number   1
_chemical_formula_structural   Li6Mn3Sn(PO4)6
_chemical_formula_sum   'Li6 Mn3 Sn1 P6 O24'
_cell_volume   476.01065407
_cell_formula_units_Z   1
loop_
 _symmetry_equiv_pos_site_id
 _symmetry_equiv_pos_as_xyz
  1  'x, y, z'
loop_
 _atom_site_type_symbol
 _atom_site_label
 _atom_site_symmetry_multiplicity
 _atom_site_fract_x
 _atom_site_fract_y
 _atom_site_fract_z
 _atom_site_occupancy
  Li  Li0  1  0.99705000  0.99432600  0.97505500  1
  Li  Li1  1  0.65125300  0.84690200  0.24942200  1
  Li  Li2  1  0.50248700  0.50152300  0.51305500  1
  Li  Li3  1  0.35034800  0.16022900  0.70961300  1
  Li  Li4  1  0.15910700  0.70717100  0.35578600  1
  Li  Li5  1  0.70974700  0.35625300  0.16003900  1
  Mn  Mn6  1  0.85724700  0.85689600  0.85643800  1
  Mn  Mn7  1  0.64307600  0.64144800  0.64527700  1
  Mn  Mn8  1  0.34556700  0.34887400  0.35051300  1
  Sn  Sn9  1  0.14653900  0.15231300  0.14397300  1
  P  P10  1  0.94373000  0.55883000  0.25056400  1
  P  P11  1  0.56336500  0.25835200  0.94366300  1
  P  P12  1  0.24884500  0.94160300  0.55979400  1
  P  P13  1  0.03978800  0.46168300  0.75330400  1
  P  P14  1  0.74941700  0.03594300  0.45784000  1
  P  P15  1  0.46345000  0.75637600  0.04573600  1
  O  O16  1  0.50185400  0.71363000  0.88088000  1
  O  O17  1  0.88324600  0.49292800  0.69283500  1
  O  O18  1  0.74136200  0.09235600  0.93676600  1
  O  O19  1  0.69671500  0.87907900  0.47087700  1
  O  O20  1  0.39514400  0.20135600  0.98114800  1
  O  O21  1  0.57313800  0.41615000  0.75508300  1
  O  O22  1  0.08385300  0.92149200  0.74189400  1
  O  O23  1  0.41141300  0.75933600  0.55963600  1
  O  O24  1  0.99802500  0.60820700  0.82642900  1
  O  O25  1  0.74824900  0.57497000  0.39460400  1
  O  O26  1  0.06442600  0.26053500  0.90957600  1
  O  O27  1  0.80703000  0.98507800  0.61919300  1
  O  O28  1  0.19364800  0.98764000  0.39159500  1
  O  O29  1  0.92717200  0.74961900  0.09431700  1
  O  O30  1  0.23172000  0.44436200  0.59721900  1
  O  O31  1  0.98507800  0.39526000  0.19100200  1
  O  O32  1  0.59337000  0.22445600  0.44079600  1
  O  O33  1  0.91006500  0.06513300  0.26470100  1
  O  O34  1  0.44088100  0.59699200  0.23365900  1
  O  O35  1  0.61852400  0.81921200  0.02410800  1
  O  O36  1  0.30428200  0.09685300  0.54048100  1
  O  O37  1  0.26736000  0.91375900  0.06925700  1
  O  O38  1  0.09693500  0.52934200  0.31477300  1
  O  O39  1  0.53249100  0.31653400  0.09910100  1
