# generated using pymatgen
data_LiVF6
_symmetry_space_group_name_H-M   'P 1'
_cell_length_a   5.37470400
_cell_length_b   5.04744700
_cell_length_c   15.21819549
_cell_angle_alpha   89.28483251
_cell_angle_beta   90.00000000
_cell_angle_gamma   90.00000000
_symmetry_Int_Tables_number   1
_chemical_formula_structural   LiVF6
_chemical_formula_sum   'Li4 V4 F24'
_cell_volume   412.81516678
_cell_formula_units_Z   4
loop_
 _symmetry_equiv_pos_site_id
 _symmetry_equiv_pos_as_xyz
  1  'x, y, z'
loop_
 _atom_site_type_symbol
 _atom_site_label
 _atom_site_symmetry_multiplicity
 _atom_site_fract_x
 _atom_site_fract_y
 _atom_site_fract_z
 _atom_site_occupancy
  Li  Li0  1  0.30165100  0.77522300  0.75244700  1
  Li  Li1  1  0.19834900  0.77522300  0.25244700  1
  Li  Li2  1  0.80165100  0.22477700  0.74755300  1
  Li  Li3  1  0.69834900  0.22477700  0.24755300  1
  V  V4  1  0.72171000  0.74238400  0.61514500  1
  V  V5  1  0.77829000  0.74238400  0.11514500  1
  V  V6  1  0.22171000  0.25761600  0.88485500  1
  V  V7  1  0.27829000  0.25761600  0.38485500  1
  F  F8  1  0.05418600  0.97063000  0.83531300  1
  F  F9  1  0.44581400  0.97063000  0.33531300  1
  F  F10  1  0.99887200  0.90798400  0.66205800  1
  F  F11  1  0.50112800  0.90798400  0.16205800  1
  F  F12  1  0.75586500  0.89006600  0.51125400  1
  F  F13  1  0.74413500  0.89006600  0.01125400  1
  F  F14  1  0.66721700  0.59029800  0.73016600  1
  F  F15  1  0.83278300  0.59029800  0.23016600  1
  F  F16  1  0.42843000  0.60392200  0.58900700  1
  F  F17  1  0.07157000  0.60392200  0.08900700  1
  F  F18  1  0.39785800  0.54419400  0.90686000  1
  F  F19  1  0.10214200  0.54419400  0.40686000  1
  F  F20  1  0.89785800  0.45580600  0.59314000  1
  F  F21  1  0.60214200  0.45580600  0.09314000  1
  F  F22  1  0.92843000  0.39607800  0.91099300  1
  F  F23  1  0.57157000  0.39607800  0.41099300  1
  F  F24  1  0.16721700  0.40970200  0.76983400  1
  F  F25  1  0.33278300  0.40970200  0.26983400  1
  F  F26  1  0.25586500  0.10993400  0.98874600  1
  F  F27  1  0.24413500  0.10993400  0.48874600  1
  F  F28  1  0.49887200  0.09201600  0.83794200  1
  F  F29  1  0.00112800  0.09201600  0.33794200  1
  F  F30  1  0.55418600  0.02937000  0.66468700  1
  F  F31  1  0.94581400  0.02937000  0.16468700  1
