# generated using pymatgen
data_Li12Nb14ZnO42
_symmetry_space_group_name_H-M   'P 1'
_cell_length_a   9.06256200
_cell_length_b   9.27627202
_cell_length_c   9.89635821
_cell_angle_alpha   103.61680732
_cell_angle_beta   98.78924599
_cell_angle_gamma   99.33799335
_symmetry_Int_Tables_number   1
_chemical_formula_structural   Li12Nb14ZnO42
_chemical_formula_sum   'Li12 Nb14 Zn1 O42'
_cell_volume   781.87154133
_cell_formula_units_Z   1
loop_
 _symmetry_equiv_pos_site_id
 _symmetry_equiv_pos_as_xyz
  1  'x, y, z'
loop_
 _atom_site_type_symbol
 _atom_site_label
 _atom_site_symmetry_multiplicity
 _atom_site_fract_x
 _atom_site_fract_y
 _atom_site_fract_z
 _atom_site_occupancy
  Li  Li0  1  0.38650100  0.83418000  0.49676100  1
  Li  Li1  1  0.03125100  0.90553600  0.28286900  1
  Li  Li2  1  0.67396700  0.97655600  0.06796800  1
  Li  Li3  1  0.10425700  0.69252300  0.92573100  1
  Li  Li4  1  0.81747000  0.54780200  0.35290300  1
  Li  Li5  1  0.53104400  0.40589300  0.78303300  1
  Li  Li6  1  0.45976800  0.62071900  0.13906500  1
  Li  Li7  1  0.88828700  0.33350300  0.99676200  1
  Li  Li8  1  0.17501900  0.47720600  0.56865500  1
  Li  Li9  1  0.60378300  0.19160800  0.42545300  1
  Li  Li10  1  0.31573100  0.04743900  0.85412900  1
  Li  Li11  1  0.24550900  0.26271800  0.21136500  1
  Nb  Nb12  1  0.35774300  0.92875000  0.21365800  1
  Nb  Nb13  1  0.71063400  0.85223000  0.42776600  1
  Nb  Nb14  1  0.42969900  0.71596200  0.85567400  1
  Nb  Nb15  1  0.06466800  0.77982900  0.64159300  1
  Nb  Nb16  1  0.78577700  0.64350500  0.07027700  1
  Nb  Nb17  1  0.50119600  0.50587800  0.50094300  1
  Nb  Nb18  1  0.21827700  0.35864800  0.93127100  1
  Nb  Nb19  1  0.85228300  0.43283700  0.71702700  1
  Nb  Nb20  1  0.14345500  0.57205800  0.28620700  1
  Nb  Nb21  1  0.29167100  0.14244700  0.57120700  1
  Nb  Nb22  1  0.64369800  0.06821300  0.78687500  1
  Nb  Nb23  1  0.57228500  0.28626000  0.14365200  1
  Nb  Nb24  1  0.92868000  0.21440000  0.35543100  1
  Nb  Nb25  1  0.00005800  0.99821100  0.99807200  1
  Zn  Zn26  1  0.96210900  0.12104900  0.64100200  1
  O  O27  1  0.12606400  0.99539300  0.65399700  1
  O  O28  1  0.75788300  0.99638800  0.64736100  1
  O  O29  1  0.88049300  0.99539700  0.40494700  1
  O  O30  1  0.59057300  0.85931900  0.83564200  1
  O  O31  1  0.25423000  0.98718700  0.39926400  1
  O  O32  1  0.97840900  0.84690100  0.83024200  1
  O  O33  1  0.26747000  0.81216600  0.81035800  1
  O  O34  1  0.55242500  0.95557100  0.38238600  1
  O  O35  1  0.87532100  0.74058700  0.51815800  1
  O  O36  1  0.58819800  0.59773700  0.95466800  1
  O  O37  1  0.15943400  0.88432900  0.09856100  1
  O  O38  1  0.55463900  0.71192100  0.50362600  1
  O  O39  1  0.84526500  0.85253100  0.08206700  1
  O  O40  1  0.27277600  0.56650100  0.93855800  1
  O  O41  1  0.89840000  0.55756600  0.93419300  1
  O  O42  1  0.18256500  0.70228400  0.50709900  1
  O  O43  1  0.46874700  0.84403300  0.07797300  1
  O  O44  1  0.02287800  0.56663600  0.68803900  1
  O  O45  1  0.30955500  0.70938000  0.25978900  1
  O  O46  1  0.68241300  0.70184900  0.25431800  1
  O  O47  1  0.39777600  0.55829400  0.68360200  1
  O  O48  1  0.68949800  0.51870300  0.66487800  1
  O  O49  1  0.98066200  0.66946900  0.23926400  1
  O  O50  1  0.30215500  0.45547700  0.38352900  1
  O  O51  1  0.01727000  0.30777600  0.81028300  1
  O  O52  1  0.70272400  0.27955900  0.79639700  1
  O  O53  1  0.98726600  0.42360100  0.36716800  1
  O  O54  1  0.61143900  0.41773000  0.36426000  1
  O  O55  1  0.32586000  0.27359100  0.79226900  1
  O  O56  1  0.45218600  0.27970400  0.54329200  1
  O  O57  1  0.73811400  0.42391500  0.11704300  1
  O  O58  1  0.16671700  0.13862500  0.97498300  1
  O  O59  1  0.53921600  0.13340000  0.97082600  1
  O  O60  1  0.82776500  0.27265700  0.54423700  1
  O  O61  1  0.11101900  0.41679700  0.11342300  1
  O  O62  1  0.83740100  0.09863400  0.95392700  1
  O  O63  1  0.40905300  0.38509300  0.09753800  1
  O  O64  1  0.12348200  0.24007600  0.52811000  1
  O  O65  1  0.73025000  0.16921100  0.23956000  1
  O  O66  1  0.44407700  0.02664100  0.66870800  1
  O  O67  1  0.41653800  0.13824600  0.22419000  1
  O  O68  1  0.04093400  0.13128300  0.22155800  1
