# generated using pymatgen
data_Li5Fe8(BO3)8
_symmetry_space_group_name_H-M   'P 1'
_cell_length_a   5.26757100
_cell_length_b   9.08061555
_cell_length_c   10.21422984
_cell_angle_alpha   89.99919508
_cell_angle_beta   88.65484704
_cell_angle_gamma   89.98004879
_symmetry_Int_Tables_number   1
_chemical_formula_structural   Li5Fe8(BO3)8
_chemical_formula_sum   'Li5 Fe8 B8 O24'
_cell_volume   488.44041044
_cell_formula_units_Z   1
loop_
 _symmetry_equiv_pos_site_id
 _symmetry_equiv_pos_as_xyz
  1  'x, y, z'
loop_
 _atom_site_type_symbol
 _atom_site_label
 _atom_site_symmetry_multiplicity
 _atom_site_fract_x
 _atom_site_fract_y
 _atom_site_fract_z
 _atom_site_occupancy
  Li  Li0  1  0.33883300  0.98541100  0.15569600  1
  Li  Li1  1  0.65637200  0.00233500  0.88014300  1
  Li  Li2  1  0.15788900  0.50533700  0.40346700  1
  Li  Li3  1  0.84466800  0.51557100  0.66264400  1
  Li  Li4  1  0.83724600  0.49451600  0.16459100  1
  Fe  Fe5  1  0.15925600  0.82704600  0.87502500  1
  Fe  Fe6  1  0.83392200  0.84603300  0.62904700  1
  Fe  Fe7  1  0.33489400  0.65763200  0.12740400  1
  Fe  Fe8  1  0.64690100  0.67925800  0.38139700  1
  Fe  Fe9  1  0.34772800  0.33256000  0.62984600  1
  Fe  Fe10  1  0.16120800  0.16316000  0.37999500  1
  Fe  Fe11  1  0.65752300  0.33634100  0.88066200  1
  Fe  Fe12  1  0.83890600  0.15663600  0.13191100  1
  B  B13  1  0.15063600  0.83235600  0.37467200  1
  B  B14  1  0.33246800  0.65873300  0.63226900  1
  B  B15  1  0.83027700  0.83028200  0.11839600  1
  B  B16  1  0.65802400  0.66986600  0.87789500  1
  B  B17  1  0.33543800  0.33023200  0.13114100  1
  B  B18  1  0.67280100  0.33292300  0.37222300  1
  B  B19  1  0.16491500  0.16270400  0.88210400  1
  B  B20  1  0.84085600  0.17494700  0.63857200  1
  O  O21  1  0.26427000  0.96532100  0.34759900  1
  O  O22  1  0.08969000  0.83132400  0.08224900  1
  O  O23  1  0.69068600  0.95768000  0.10804000  1
  O  O24  1  0.20344500  0.78159200  0.68442600  1
  O  O25  1  0.28063600  0.70230700  0.34027500  1
  O  O26  1  0.79327200  0.79979900  0.85206200  1
  O  O27  1  0.91296400  0.82349600  0.43117000  1
  O  O28  1  0.40905000  0.68289400  0.92309800  1
  O  O29  1  0.19510400  0.53277700  0.60532500  1
  O  O30  1  0.58966800  0.66489500  0.60302300  1
  O  O31  1  0.72056800  0.69961100  0.16294500  1
  O  O32  1  0.19488100  0.45560100  0.14297500  1
  O  O33  1  0.76839800  0.53546200  0.85933400  1
  O  O34  1  0.30642900  0.28490700  0.84430400  1
  O  O35  1  0.41630600  0.32115900  0.41081900  1
  O  O36  1  0.79023600  0.46820400  0.36603000  1
  O  O37  1  0.59012700  0.33508200  0.08311500  1
  O  O38  1  0.07467500  0.18557800  0.57035500  1
  O  O39  1  0.23192100  0.19442500  0.16991400  1
  O  O40  1  0.72834900  0.31049800  0.68046400  1
  O  O41  1  0.80735000  0.20645800  0.33555500  1
  O  O42  1  0.27853400  0.02662200  0.88667300  1
  O  O43  1  0.90739400  0.17888500  0.91779300  1
  O  O44  1  0.72285400  0.04839300  0.66931600  1
