# generated using pymatgen
data_Li9V21O40
_symmetry_space_group_name_H-M   'P 1'
_cell_length_a   10.44772131
_cell_length_b   10.44772131
_cell_length_c   10.44772131
_cell_angle_alpha   99.07533288
_cell_angle_beta   99.07533288
_cell_angle_gamma   133.19897795
_symmetry_Int_Tables_number   1
_chemical_formula_structural   Li9V21O40
_chemical_formula_sum   'Li9 V21 O40'
_cell_volume   762.96700463
_cell_formula_units_Z   1
loop_
 _symmetry_equiv_pos_site_id
 _symmetry_equiv_pos_as_xyz
  1  'x, y, z'
loop_
 _atom_site_type_symbol
 _atom_site_label
 _atom_site_symmetry_multiplicity
 _atom_site_fract_x
 _atom_site_fract_y
 _atom_site_fract_z
 _atom_site_occupancy
  Li  Li0  1  0.04901700  0.14931900  0.70118200  1
  Li  Li1  1  0.85068100  0.55186300  0.89969800  1
  Li  Li2  1  0.39992300  0.19827900  0.59971800  1
  Li  Li3  1  0.19979500  0.60007700  0.79835600  1
  Li  Li4  1  0.44813700  0.34783500  0.29881800  1
  Li  Li5  1  0.25000000  0.75000000  0.50000000  1
  Li  Li6  1  0.80172100  0.40143900  0.20164400  1
  Li  Li7  1  0.59856100  0.80020500  0.40028200  1
  Li  Li8  1  0.65216500  0.95098300  0.10030200  1
  V  V9  1  0.00000000  0.00000000  0.00000000  1
  V  V10  1  0.33212600  0.97562800  0.04908000  1
  V  V11  1  0.52132800  0.57052500  0.85066200  1
  V  V12  1  0.42947500  0.28013700  0.95080200  1
  V  V13  1  0.71695500  0.66787400  0.64350200  1
  V  V14  1  0.12190700  0.87030100  0.74699800  1
  V  V15  1  0.32933500  0.47867200  0.04919800  1
  V  V16  1  0.52383200  0.07817900  0.84905800  1
  V  V17  1  0.92654800  0.28304500  0.95092000  1
  V  V18  1  0.82244400  0.47634600  0.54748800  1
  V  V19  1  0.92182100  0.77087900  0.44565300  1
  V  V20  1  0.72504400  0.17755600  0.65390300  1
  V  V21  1  0.02437200  0.07345200  0.35649800  1
  V  V22  1  0.62509100  0.87809300  0.74839300  1
  V  V23  1  0.71986300  0.67066500  0.14933800  1
  V  V24  1  0.92885900  0.27495600  0.45251200  1
  V  V25  1  0.52365400  0.07114100  0.34609700  1
  V  V26  1  0.12969900  0.87669800  0.25160700  1
  V  V27  1  0.32522600  0.47616800  0.55434700  1
  V  V28  1  0.12330200  0.37490900  0.25300200  1
  V  V29  1  0.22912100  0.67477400  0.15094200  1
  O  O30  1  0.57508400  0.70952200  0.04770900  1
  O  O31  1  0.66181300  0.52737500  0.95229100  1
  O  O32  1  0.29047800  0.33818700  0.86556200  1
  O  O33  1  0.76566700  0.81594700  0.83625900  1
  O  O34  1  0.54989100  0.20045400  0.03997900  1
  O  O35  1  0.18405300  0.02031200  0.94972000  1
  O  O36  1  0.16047600  0.50991300  0.96002100  1
  O  O37  1  0.49008700  0.45010900  0.65056300  1
  O  O38  1  0.58231600  0.72619700  0.56812000  1
  O  O39  1  0.37175000  0.11778400  0.76438400  1
  O  O40  1  0.27380300  0.84192300  0.85611900  1
  O  O41  1  0.95817500  0.89238000  0.64345000  1
  O  O42  1  0.68527600  0.04182500  0.93420600  1
  O  O43  1  0.77814200  0.31221500  0.84450500  1
  O  O44  1  0.86475800  0.61979700  0.72651200  1
  O  O45  1  0.50078200  0.95389100  0.65760400  1
  O  O46  1  0.86175400  0.13524200  0.75503900  1
  O  O47  1  0.24893000  0.31472400  0.35655000  1
  O  O48  1  0.68778500  0.53229000  0.46592700  1
  O  O49  1  0.04610900  0.70371300  0.54689100  1
  O  O50  1  0.59590100  0.23018600  0.54203600  1
  O  O51  1  0.15807700  0.01419600  0.43188000  1
  O  O52  1  0.94613500  0.40409900  0.63428500  1
  O  O53  1  0.79954600  0.83952400  0.34943700  1
  O  O54  1  0.39263400  0.62825000  0.74603400  1
  O  O55  1  0.68815000  0.05386500  0.45796400  1
  O  O56  1  0.97968800  0.92940800  0.16374100  1
  O  O57  1  0.76981400  0.31185000  0.36571500  1
  O  O58  1  0.88221600  0.64660000  0.25396600  1
  O  O59  1  0.47262500  0.42491600  0.13443800  1
  O  O60  1  0.06636300  0.22185800  0.53407300  1
  O  O61  1  0.38020300  0.10671500  0.24496100  1
  O  O62  1  0.29628700  0.84317800  0.34239600  1
  O  O63  1  0.15682200  0.49921800  0.45310900  1
  O  O64  1  0.46771000  0.93363700  0.15549500  1
  O  O65  1  0.10762000  0.75107000  0.06579400  1
  O  O66  1  0.89328500  0.13824600  0.27348800  1
  O  O67  1  0.98580400  0.41768400  0.14388100  1
  O  O68  1  0.35340000  0.60736600  0.23561600  1
  O  O69  1  0.07059200  0.23433300  0.05028000  1
