# generated using pymatgen
data_LiMnVP2(HO5)2
_symmetry_space_group_name_H-M   'P 1'
_cell_length_a   7.44397993
_cell_length_b   11.32063412
_cell_length_c   6.79434597
_cell_angle_alpha   73.04739999
_cell_angle_beta   88.85579793
_cell_angle_gamma   81.35157869
_symmetry_Int_Tables_number   1
_chemical_formula_structural   LiMnVP2(HO5)2
_chemical_formula_sum   'Li3 Mn3 V3 P6 H6 O30'
_cell_volume   541.28347289
_cell_formula_units_Z   3
loop_
 _symmetry_equiv_pos_site_id
 _symmetry_equiv_pos_as_xyz
  1  'x, y, z'
loop_
 _atom_site_type_symbol
 _atom_site_label
 _atom_site_symmetry_multiplicity
 _atom_site_fract_x
 _atom_site_fract_y
 _atom_site_fract_z
 _atom_site_occupancy
  Li  Li0  1  0.69623100  0.15820600  0.74646900  1
  Li  Li1  1  0.64062700  0.50700300  0.91998500  1
  Li  Li2  1  0.30403100  0.84035400  0.25322900  1
  Mn  Mn3  1  0.66824200  0.33317500  0.33351000  1
  Mn  Mn4  1  0.32982700  0.66443500  0.67010500  1
  Mn  Mn5  1  0.00150700  0.99948800  0.99968100  1
  V  V6  1  0.66638800  0.83490200  0.83065500  1
  V  V7  1  0.33593000  0.16619500  0.17114500  1
  V  V8  1  0.00034000  0.50129800  0.49716400  1
  P  P9  1  0.92883100  0.30172500  0.94924100  1
  P  P10  1  0.74234500  0.03032000  0.38273300  1
  P  P11  1  0.40600700  0.36265000  0.71781100  1
  P  P12  1  0.59466900  0.63706600  0.28246500  1
  P  P13  1  0.25985400  0.96792400  0.61649100  1
  P  P14  1  0.07393800  0.69902100  0.04972400  1
  H  H15  1  0.33081700  0.01682800  0.95724300  1
  H  H16  1  0.99914800  0.33530800  0.31620300  1
  H  H17  1  0.66204400  0.68186500  0.62639600  1
  H  H18  1  0.33473800  0.33234600  0.34925100  1
  H  H19  1  0.00004100  0.66300900  0.68870100  1
  H  H20  1  0.67000100  0.98386000  0.04260700  1
  O  O21  1  0.92022000  0.19384200  0.86055900  1
  O  O22  1  0.40945200  0.23476900  0.88975800  1
  O  O23  1  0.92234600  0.42922100  0.77666200  1
  O  O24  1  0.90348800  0.72097900  0.90365000  1
  O  O25  1  0.73730700  0.13595700  0.47870100  1
  O  O26  1  0.91546400  0.01532300  0.26021100  1
  O  O27  1  0.41825300  0.46948500  0.80736000  1
  O  O28  1  0.58235400  0.33829600  0.59919900  1
  O  O29  1  0.91131300  0.36894600  0.40524200  1
  O  O30  1  0.57437200  0.05093700  0.23379200  1
  O  O31  1  0.26076200  0.09316500  0.44093600  1
  O  O32  1  0.74533900  0.97268300  0.92411900  1
  O  O33  1  0.24721400  0.68176900  0.92734200  1
  O  O34  1  0.58580700  0.69311400  0.74422800  1
  O  O35  1  0.23858400  0.38722800  0.56897400  1
  O  O36  1  0.75936200  0.61547300  0.43438900  1
  O  O37  1  0.42245800  0.29764400  0.26099500  1
  O  O38  1  0.75237400  0.32513800  0.06851400  1
  O  O39  1  0.25684200  0.02710700  0.07638900  1
  O  O40  1  0.73756600  0.90412000  0.55868800  1
  O  O41  1  0.42801000  0.94907000  0.76592400  1
  O  O42  1  0.08697700  0.62990100  0.59847100  1
  O  O43  1  0.41793600  0.65785500  0.40103100  1
  O  O44  1  0.59784100  0.53113800  0.18791300  1
  O  O45  1  0.08663800  0.98197500  0.74025300  1
  O  O46  1  0.26879400  0.86094500  0.52270800  1
  O  O47  1  0.09657000  0.27827100  0.09711200  1
  O  O48  1  0.06986700  0.57405500  0.22498400  1
  O  O49  1  0.58916400  0.76578800  0.10961500  1
  O  O50  1  0.07970800  0.80635700  0.14084100  1
