# generated using pymatgen
data_Li4Cu2Ni3Sb3O16
_symmetry_space_group_name_H-M   'P 1'
_cell_length_a   6.06375028
_cell_length_b   6.02916209
_cell_length_c   9.66925848
_cell_angle_alpha   90.01521478
_cell_angle_beta   92.12432092
_cell_angle_gamma   119.80982969
_symmetry_Int_Tables_number   1
_chemical_formula_structural   Li4Cu2Ni3Sb3O16
_chemical_formula_sum   'Li4 Cu2 Ni3 Sb3 O16'
_cell_volume   306.44433582
_cell_formula_units_Z   1
loop_
 _symmetry_equiv_pos_site_id
 _symmetry_equiv_pos_as_xyz
  1  'x, y, z'
loop_
 _atom_site_type_symbol
 _atom_site_label
 _atom_site_symmetry_multiplicity
 _atom_site_fract_x
 _atom_site_fract_y
 _atom_site_fract_z
 _atom_site_occupancy
  Li  Li0  1  0.34135900  0.67055500  0.88568000  1
  Li  Li1  1  0.94886400  0.97436900  0.98593800  1
  Li  Li2  1  0.97436100  0.98716900  0.50377900  1
  Li  Li3  1  0.65791000  0.32904700  0.40241100  1
  Cu  Cu4  1  0.35045900  0.67559300  0.49502500  1
  Cu  Cu5  1  0.70376300  0.35175600  0.97490200  1
  Ni  Ni6  1  0.65893600  0.82947500  0.21582800  1
  Ni  Ni7  1  0.83791800  0.66378300  0.71327000  1
  Ni  Ni8  1  0.83762400  0.17387200  0.71321100  1
  Sb  Sb9  1  0.16549800  0.82961100  0.21443500  1
  Sb  Sb10  1  0.16550600  0.33591600  0.21447900  1
  Sb  Sb11  1  0.34737100  0.17383500  0.71359300  1
  O  O12  1  0.17376100  0.84211000  0.59963600  1
  O  O13  1  0.02478800  0.51249400  0.33517200  1
  O  O14  1  0.32000900  0.65994200  0.10020800  1
  O  O15  1  0.00398700  0.00203800  0.31862000  1
  O  O16  1  0.01165100  0.00608300  0.80579300  1
  O  O17  1  0.17395800  0.33198800  0.59966600  1
  O  O18  1  0.47306300  0.96397600  0.34046500  1
  O  O19  1  0.47307400  0.50934700  0.34051300  1
  O  O20  1  0.30588700  0.15291300  0.10263500  1
  O  O21  1  0.67442000  0.83760400  0.60729900  1
  O  O22  1  0.52600100  0.48205600  0.84539000  1
  O  O23  1  0.52556800  0.04370300  0.84531200  1
  O  O24  1  0.66454400  0.33201300  0.60516800  1
  O  O25  1  0.84362600  0.67463600  0.09802400  1
  O  O26  1  0.97253100  0.48560400  0.83330300  1
  O  O27  1  0.84355900  0.16881000  0.09808400  1
