# generated using pymatgen
data_LiCr(PO3)5
_symmetry_space_group_name_H-M   'P 1'
_cell_length_a   13.61028900
_cell_length_b   8.99530200
_cell_length_c   10.26466181
_cell_angle_alpha   79.16085538
_cell_angle_beta   90.00000000
_cell_angle_gamma   90.00000000
_symmetry_Int_Tables_number   1
_chemical_formula_structural   LiCr(PO3)5
_chemical_formula_sum   'Li4 Cr4 P20 O60'
_cell_volume   1234.26820726
_cell_formula_units_Z   4
loop_
 _symmetry_equiv_pos_site_id
 _symmetry_equiv_pos_as_xyz
  1  'x, y, z'
loop_
 _atom_site_type_symbol
 _atom_site_label
 _atom_site_symmetry_multiplicity
 _atom_site_fract_x
 _atom_site_fract_y
 _atom_site_fract_z
 _atom_site_occupancy
  Li  Li0  1  0.38995700  0.91090100  0.77672200  1
  Li  Li1  1  0.61004300  0.08909900  0.22327800  1
  Li  Li2  1  0.88995700  0.08909900  0.72327800  1
  Li  Li3  1  0.11004300  0.91090100  0.27672200  1
  Cr  Cr4  1  0.00000000  0.50000000  0.00000000  1
  Cr  Cr5  1  0.50000000  0.50000000  0.50000000  1
  Cr  Cr6  1  0.00000000  0.50000000  0.50000000  1
  Cr  Cr7  1  0.50000000  0.50000000  0.00000000  1
  P  P8  1  0.85894800  0.51986700  0.25006100  1
  P  P9  1  0.25098700  0.99631500  0.52178800  1
  P  P10  1  0.14103400  0.47805900  0.25280700  1
  P  P11  1  0.74901300  0.00368500  0.47821200  1
  P  P12  1  0.14105200  0.48013300  0.74993900  1
  P  P13  1  0.35894800  0.48013300  0.24993900  1
  P  P14  1  0.08223000  0.18513800  0.42607400  1
  P  P15  1  0.24901300  0.99631500  0.02178800  1
  P  P16  1  0.58223000  0.81486200  0.07392600  1
  P  P17  1  0.57353200  0.80678500  0.58717800  1
  P  P18  1  0.92646800  0.80678500  0.08717800  1
  P  P19  1  0.35896600  0.47805900  0.75280700  1
  P  P20  1  0.42646800  0.19321500  0.41282200  1
  P  P21  1  0.64105200  0.51986700  0.75006100  1
  P  P22  1  0.91777000  0.81486200  0.57392600  1
  P  P23  1  0.07353200  0.19321500  0.91282200  1
  P  P24  1  0.85896600  0.52194100  0.74719300  1
  P  P25  1  0.64103400  0.52194100  0.24719300  1
  P  P26  1  0.75098700  0.00368500  0.97821200  1
  P  P27  1  0.41777000  0.18513800  0.92607400  1
  O  O28  1  0.74993400  0.46564500  0.72660600  1
  O  O29  1  0.37764400  0.50183200  0.60477800  1
  O  O30  1  0.02108900  0.29148200  0.99920300  1
  O  O31  1  0.12489500  0.50250700  0.60266300  1
  O  O32  1  0.48400800  0.28050100  0.99574100  1
  O  O33  1  0.87764400  0.49816800  0.89522200  1
  O  O34  1  0.76421000  0.11220100  0.84882600  1
  O  O35  1  0.98400800  0.71949900  0.50425900  1
  O  O36  1  0.07389500  0.56044300  0.83107100  1
  O  O37  1  0.35402300  0.30241600  0.81397200  1
  O  O38  1  0.16727300  0.12126700  0.53311100  1
  O  O39  1  0.52108900  0.70851800  0.50079700  1
  O  O40  1  0.00820900  0.10115300  0.84516500  1
  O  O41  1  0.62235600  0.49816800  0.39522200  1
  O  O42  1  0.42610500  0.56044300  0.33107100  1
  O  O43  1  0.64432100  0.69760800  0.69091500  1
  O  O44  1  0.92610500  0.43955700  0.16892900  1
  O  O45  1  0.34815200  0.10343500  0.51052500  1
  O  O46  1  0.85567900  0.69760800  0.19091500  1
  O  O47  1  0.75006600  0.46564500  0.22660600  1
  O  O48  1  0.95938300  0.93355400  0.63926900  1
  O  O49  1  0.57504200  0.43527700  0.16969900  1
  O  O50  1  0.12235600  0.50183200  0.10477800  1
  O  O51  1  0.92495800  0.43527700  0.66969900  1
  O  O52  1  0.76532100  0.07365300  0.59828300  1
  O  O53  1  0.84815200  0.89656500  0.98947500  1
  O  O54  1  0.97891100  0.70851800  0.00079700  1
  O  O55  1  0.42495800  0.56472300  0.83030100  1
  O  O56  1  0.64597700  0.69758400  0.18602800  1
  O  O57  1  0.23467900  0.92634700  0.40171700  1
  O  O58  1  0.35567900  0.30239200  0.30908500  1
  O  O59  1  0.45938300  0.06644600  0.86073100  1
  O  O60  1  0.04061700  0.06644600  0.36073100  1
  O  O61  1  0.01599200  0.28050100  0.49574100  1
  O  O62  1  0.65184800  0.89656500  0.48947500  1
  O  O63  1  0.26421000  0.88779900  0.65117400  1
  O  O64  1  0.87510500  0.49749300  0.39733700  1
  O  O65  1  0.83272700  0.87873300  0.46688900  1
  O  O66  1  0.50820900  0.89884700  0.65483500  1
  O  O67  1  0.54061700  0.93355400  0.13926900  1
  O  O68  1  0.62489500  0.49749300  0.89733700  1
  O  O69  1  0.25006600  0.53435500  0.27339400  1
  O  O70  1  0.07504200  0.56472300  0.33030100  1
  O  O71  1  0.33272700  0.12126700  0.03311100  1
  O  O72  1  0.49179100  0.10115300  0.34516500  1
  O  O73  1  0.24993400  0.53435500  0.77339400  1
  O  O74  1  0.51599200  0.71949900  0.00425900  1
  O  O75  1  0.73579000  0.11220100  0.34882600  1
  O  O76  1  0.26532100  0.92634700  0.90171700  1
  O  O77  1  0.66727300  0.87873300  0.96688900  1
  O  O78  1  0.15184800  0.10343500  0.01052500  1
  O  O79  1  0.47891100  0.29148200  0.49920300  1
  O  O80  1  0.73467900  0.07365300  0.09828300  1
  O  O81  1  0.85402300  0.69758400  0.68602800  1
  O  O82  1  0.23579000  0.88779900  0.15117400  1
  O  O83  1  0.14432100  0.30239200  0.80908500  1
  O  O84  1  0.14597700  0.30241600  0.31397200  1
  O  O85  1  0.37510500  0.50250700  0.10266300  1
  O  O86  1  0.57389500  0.43955700  0.66892900  1
  O  O87  1  0.99179100  0.89884700  0.15483500  1
