# generated using pymatgen
data_Li5V3P8O29
_symmetry_space_group_name_H-M   'P 1'
_cell_length_a   9.73095000
_cell_length_b   9.76547344
_cell_length_c   14.13227812
_cell_angle_alpha   90.76021393
_cell_angle_beta   89.89482460
_cell_angle_gamma   119.60522173
_symmetry_Int_Tables_number   1
_chemical_formula_structural   Li5V3P8O29
_chemical_formula_sum   'Li10 V6 P16 O58'
_cell_volume   1167.51013589
_cell_formula_units_Z   2
loop_
 _symmetry_equiv_pos_site_id
 _symmetry_equiv_pos_as_xyz
  1  'x, y, z'
loop_
 _atom_site_type_symbol
 _atom_site_label
 _atom_site_symmetry_multiplicity
 _atom_site_fract_x
 _atom_site_fract_y
 _atom_site_fract_z
 _atom_site_occupancy
  Li  Li0  1  0.09834800  0.33523400  0.06278600  1
  Li  Li1  1  0.24402600  0.34401600  0.56063700  1
  Li  Li2  1  0.09962300  0.76988400  0.55746600  1
  Li  Li3  1  0.23886200  0.90199100  0.05853800  1
  Li  Li4  1  0.66234100  0.76354900  0.05689300  1
  Li  Li5  1  0.66699900  0.90804000  0.56123700  1
  Li  Li6  1  0.76646500  0.67257200  0.43867800  1
  Li  Li7  1  0.90400600  0.66839900  0.93892100  1
  Li  Li8  1  0.02458800  0.04685000  0.99520300  1
  Li  Li9  1  0.03827500  0.04845400  0.49689700  1
  V  V10  1  0.43570100  0.00094400  0.25324000  1
  V  V11  1  0.56202500  0.00291700  0.75318900  1
  V  V12  1  0.43506600  0.43177300  0.75230800  1
  V  V13  1  0.56186900  0.56297900  0.24825600  1
  V  V14  1  0.99837900  0.43070900  0.24951600  1
  V  V15  1  0.00194400  0.56309200  0.74492000  1
  P  P16  1  0.08781000  0.31355800  0.84468900  1
  P  P17  1  0.22796500  0.31437300  0.34388400  1
  P  P18  1  0.08718500  0.77614000  0.33970600  1
  P  P19  1  0.33239200  0.66822500  0.13042000  1
  P  P20  1  0.33883900  0.66747200  0.63118800  1
  P  P21  1  0.22216300  0.91259900  0.84385000  1
  P  P22  1  0.30104500  0.08204700  0.66138700  1
  P  P23  1  0.68785900  0.77625000  0.84000500  1
  P  P24  1  0.30444500  0.21729100  0.16152700  1
  P  P25  1  0.69005100  0.91471000  0.34573000  1
  P  P26  1  0.77789900  0.07999200  0.16112800  1
  P  P27  1  0.66950800  0.33571500  0.36675800  1
  P  P28  1  0.66968600  0.33839500  0.86814000  1
  P  P29  1  0.91592300  0.21663900  0.66155500  1
  P  P30  1  0.77131000  0.68343400  0.65647500  1
  P  P31  1  0.91149000  0.68367800  0.15773200  1
  O  O32  1  0.01532700  0.21042900  0.58245300  1
  O  O33  1  0.08922400  0.34575500  0.32872700  1
  O  O34  1  0.19389300  0.20059200  0.08306300  1
  O  O35  1  0.25933900  0.34247800  0.82900800  1
  O  O36  1  0.08592300  0.46745200  0.83180700  1
  O  O37  1  0.18737000  0.51258500  0.16507700  1
  O  O38  1  0.08741800  0.62131900  0.32918900  1
  O  O39  1  0.99792600  0.76777200  0.06939900  1
  O  O40  1  0.07839600  0.74236200  0.83071400  1
  O  O41  1  0.32957800  0.51428800  0.67416200  1
  O  O42  1  0.38496800  0.46923200  0.32978200  1
  O  O43  1  0.19084800  0.67718900  0.66739700  1
  O  O44  1  0.33663200  0.68333400  0.02505500  1
  O  O45  1  0.34090600  0.65844900  0.52557300  1
  O  O46  1  0.32297600  0.81173500  0.17767900  1
  O  O47  1  0.53075500  0.61687200  0.82545800  1
  O  O48  1  0.48733300  0.67645800  0.16968400  1
  O  O49  1  0.25704100  0.91943100  0.33420200  1
  O  O50  1  0.20652200  0.01426500  0.76003700  1
  O  O51  1  0.19040300  0.99305500  0.58110100  1
  O  O52  1  0.20643300  0.97894900  0.93688000  1
  O  O53  1  0.37604700  0.90717600  0.83015800  1
  O  O54  1  0.49058000  0.81366900  0.67247700  1
  O  O55  1  0.33923500  0.07743400  0.15945700  1
  O  O56  1  0.53094100  0.91371800  0.32863600  1
  O  O57  1  0.66347900  0.74494700  0.33661000  1
  O  O58  1  0.21205200  0.19395400  0.26090200  1
  O  O59  1  0.21527500  0.23714600  0.43681200  1
  O  O60  1  0.76533600  0.76697600  0.56898100  1
  O  O61  1  0.34000100  0.25759900  0.66025700  1
  O  O62  1  0.45335300  0.07272200  0.66703500  1
  O  O63  1  0.65714200  0.91353800  0.83865500  1
  O  O64  1  0.51853900  0.18752400  0.31798400  1
  O  O65  1  0.61607100  0.07390400  0.17209300  1
  O  O66  1  0.78990700  0.98610000  0.08021500  1
  O  O67  1  0.76863300  0.98724600  0.43804600  1
  O  O68  1  0.80316100  0.01079100  0.25975300  1
  O  O69  1  0.74460300  0.08272700  0.65840400  1
  O  O70  1  0.51880400  0.33309200  0.81917200  1
  O  O71  1  0.45804500  0.37518900  0.16863100  1
  O  O72  1  0.66804600  0.18995300  0.82215000  1
  O  O73  1  0.66003600  0.34114600  0.97261700  1
  O  O74  1  0.66025100  0.33218300  0.47160500  1
  O  O75  1  0.80980700  0.32675700  0.32253400  1
  O  O76  1  0.61692000  0.52693300  0.67236800  1
  O  O77  1  0.67429000  0.48779400  0.32656500  1
  O  O78  1  0.91516500  0.25190100  0.15824900  1
  O  O79  1  0.98584600  0.19428800  0.76068600  1
  O  O80  1  0.02689000  0.23312700  0.93682200  1
  O  O81  1  0.92136000  0.37889000  0.67140700  1
  O  O82  1  0.81439600  0.48823600  0.82838200  1
  O  O83  1  0.91177400  0.52834800  0.17221500  1
  O  O84  1  0.74052100  0.65633900  0.15776600  1
  O  O85  1  0.77299000  0.77180500  0.92828900  1
  O  O86  1  0.79637800  0.79276000  0.74879400  1
  O  O87  1  0.91603000  0.65803500  0.65404700  1
  O  O88  1  0.00501700  0.78728000  0.42843500  1
  O  O89  1  0.99618700  0.79543100  0.24906700  1
