# generated using pymatgen
data_LiV8F33
_symmetry_space_group_name_H-M   'P 1'
_cell_length_a   8.88540126
_cell_length_b   8.88540126
_cell_length_c   18.44490700
_cell_angle_alpha   90.00000000
_cell_angle_beta   90.00000000
_cell_angle_gamma   119.99999449
_symmetry_Int_Tables_number   1
_chemical_formula_structural   LiV8F33
_chemical_formula_sum   'Li2 V16 F66'
_cell_volume   1261.13394611
_cell_formula_units_Z   2
loop_
 _symmetry_equiv_pos_site_id
 _symmetry_equiv_pos_as_xyz
  1  'x, y, z'
loop_
 _atom_site_type_symbol
 _atom_site_label
 _atom_site_symmetry_multiplicity
 _atom_site_fract_x
 _atom_site_fract_y
 _atom_site_fract_z
 _atom_site_occupancy
  Li  Li0  1  0.33333300  0.66666700  0.13400700  1
  Li  Li1  1  0.66666700  0.33333300  0.63400700  1
  V  V2  1  0.00552500  0.67330800  0.24652500  1
  V  V3  1  0.00364000  0.33862900  0.87950200  1
  V  V4  1  0.33498900  0.99636000  0.87950200  1
  V  V5  1  0.00000000  0.00000000  0.00633200  1
  V  V6  1  0.00000000  0.00000000  0.50633200  1
  V  V7  1  0.33333300  0.66666700  0.61979600  1
  V  V8  1  0.32669200  0.33221700  0.24652500  1
  V  V9  1  0.33221700  0.32669200  0.74652500  1
  V  V10  1  0.66778300  0.99447500  0.24652500  1
  V  V11  1  0.66137100  0.66501100  0.87950200  1
  V  V12  1  0.66501100  0.66137100  0.37950200  1
  V  V13  1  0.33862900  0.00364000  0.37950200  1
  V  V14  1  0.66666700  0.33333300  0.11979600  1
  V  V15  1  0.99447500  0.66778300  0.74652500  1
  V  V16  1  0.67330800  0.00552500  0.74652500  1
  V  V17  1  0.99636000  0.33498900  0.37950200  1
  F  F18  1  0.06917900  0.86527600  0.05064500  1
  F  F19  1  0.06958400  0.86485100  0.19860600  1
  F  F20  1  0.13157500  0.92907400  0.43317800  1
  F  F21  1  0.14204500  0.87021600  0.81075000  1
  F  F22  1  0.20293800  0.79847700  0.31161800  1
  F  F23  1  0.06419900  0.53972200  0.81072800  1
  F  F24  1  0.12679200  0.60349500  0.18731100  1
  F  F25  1  0.20079800  0.73376000  0.69240700  1
  F  F26  1  0.25137900  0.79670900  0.92784200  1
  F  F27  1  0.13147600  0.52668300  0.42648200  1
  F  F28  1  0.13255500  0.52975200  0.57620900  1
  F  F29  1  0.39520700  0.86852400  0.42648200  1
  F  F30  1  0.07092600  0.20250000  0.43317800  1
  F  F31  1  0.39719800  0.86744500  0.57620900  1
  F  F32  1  0.20329100  0.45467000  0.92784200  1
  F  F33  1  0.12978400  0.27182900  0.81075000  1
  F  F34  1  0.47552400  0.93580100  0.81072800  1
  F  F35  1  0.20152300  0.40446100  0.31161800  1
  F  F36  1  0.47670300  0.87320800  0.18731100  1
  F  F37  1  0.13472400  0.20390400  0.05064500  1
  F  F38  1  0.13514900  0.20473300  0.19860600  1
  F  F39  1  0.26624000  0.46703800  0.69240700  1
  F  F40  1  0.53296200  0.79920200  0.69240700  1
  F  F41  1  0.20390400  0.13472400  0.55064500  1
  F  F42  1  0.20473300  0.13514900  0.69860600  1
  F  F43  1  0.39650500  0.52329700  0.18731100  1
  F  F44  1  0.20250000  0.07092600  0.93317800  1
  F  F45  1  0.47024800  0.60280200  0.57620900  1
  F  F46  1  0.54533000  0.74862100  0.92784200  1
  F  F47  1  0.47331700  0.60479300  0.42648200  1
  F  F48  1  0.46027800  0.52447600  0.81072800  1
  F  F49  1  0.59553900  0.79706200  0.31161800  1
  F  F50  1  0.27182900  0.12978400  0.31075000  1
  F  F51  1  0.40446100  0.20152300  0.81161800  1
  F  F52  1  0.72817100  0.85795500  0.81075000  1
  F  F53  1  0.52447600  0.46027800  0.31072800  1
  F  F54  1  0.79526700  0.93041600  0.19860600  1
  F  F55  1  0.52329700  0.39650500  0.68731100  1
  F  F56  1  0.79609600  0.93082100  0.05064500  1
  F  F57  1  0.46703800  0.26624000  0.19240700  1
  F  F58  1  0.45467000  0.20329100  0.42784200  1
  F  F59  1  0.60479300  0.47331700  0.92648200  1
  F  F60  1  0.60280200  0.47024800  0.07620900  1
  F  F61  1  0.79750000  0.86842500  0.43317800  1
  F  F62  1  0.52668300  0.13147600  0.92648200  1
  F  F63  1  0.86842500  0.79750000  0.93317800  1
  F  F64  1  0.52975200  0.13255500  0.07620900  1
  F  F65  1  0.74862100  0.54533000  0.42784200  1
  F  F66  1  0.85795500  0.72817100  0.31075000  1
  F  F67  1  0.53972200  0.06419900  0.31072800  1
  F  F68  1  0.79706200  0.59553900  0.81161800  1
  F  F69  1  0.60349500  0.12679200  0.68731100  1
  F  F70  1  0.93082100  0.79609600  0.55064500  1
  F  F71  1  0.93041600  0.79526700  0.69860600  1
  F  F72  1  0.79920200  0.53296200  0.19240700  1
  F  F73  1  0.73376000  0.20079800  0.19240700  1
  F  F74  1  0.87320800  0.47670300  0.68731100  1
  F  F75  1  0.86744500  0.39719800  0.07620900  1
  F  F76  1  0.79670900  0.25137900  0.42784200  1
  F  F77  1  0.86852400  0.39520700  0.92648200  1
  F  F78  1  0.93580100  0.47552400  0.31072800  1
  F  F79  1  0.79847700  0.20293800  0.81161800  1
  F  F80  1  0.87021600  0.14204500  0.31075000  1
  F  F81  1  0.86485100  0.06958400  0.69860600  1
  F  F82  1  0.86527600  0.06917900  0.55064500  1
  F  F83  1  0.92907400  0.13157500  0.93317800  1
