# generated using pymatgen
data_Li3V3P8O29
_symmetry_space_group_name_H-M   'P 1'
_cell_length_a   9.73239300
_cell_length_b   9.76599027
_cell_length_c   14.37332939
_cell_angle_alpha   90.70755737
_cell_angle_beta   89.68670657
_cell_angle_gamma   119.85956181
_symmetry_Int_Tables_number   1
_chemical_formula_structural   Li3V3P8O29
_chemical_formula_sum   'Li6 V6 P16 O58'
_cell_volume   1184.68676942
_cell_formula_units_Z   2
loop_
 _symmetry_equiv_pos_site_id
 _symmetry_equiv_pos_as_xyz
  1  'x, y, z'
loop_
 _atom_site_type_symbol
 _atom_site_label
 _atom_site_symmetry_multiplicity
 _atom_site_fract_x
 _atom_site_fract_y
 _atom_site_fract_z
 _atom_site_occupancy
  Li  Li0  1  0.70831100  0.78371000  0.04890900  1
  Li  Li1  1  0.08172500  0.30818100  0.06251000  1
  Li  Li2  1  0.76927400  0.67339100  0.44774800  1
  Li  Li3  1  0.23073100  0.32837900  0.55634100  1
  Li  Li4  1  0.30780000  0.21910200  0.94800300  1
  Li  Li5  1  0.00019200  0.00234000  0.50812500  1
  V  V6  1  0.56810600  0.56832100  0.24993400  1
  V  V7  1  0.43455000  0.43502200  0.74812600  1
  V  V8  1  0.00611500  0.56886200  0.75226400  1
  V  V9  1  0.99141000  0.43568000  0.25210100  1
  V  V10  1  0.43666800  0.99937600  0.25549600  1
  V  V11  1  0.56176400  0.99840500  0.74233500  1
  P  P12  1  0.22742700  0.91723400  0.83807900  1
  P  P13  1  0.08183000  0.78002700  0.33669700  1
  P  P14  1  0.70048100  0.92006100  0.34515400  1
  P  P15  1  0.33347300  0.66496300  0.13432800  1
  P  P16  1  0.33062400  0.66090600  0.63199800  1
  P  P17  1  0.67964900  0.77623200  0.83608400  1
  P  P18  1  0.77834600  0.68534000  0.66081500  1
  P  P19  1  0.08958400  0.31808900  0.84627800  1
  P  P20  1  0.91565600  0.68788700  0.15302500  1
  P  P21  1  0.22463000  0.31812300  0.34004100  1
  P  P22  1  0.32022700  0.22513200  0.16421000  1
  P  P23  1  0.66431800  0.33719800  0.36760300  1
  P  P24  1  0.66499100  0.33189400  0.86405000  1
  P  P25  1  0.29850800  0.08079500  0.65496500  1
  P  P26  1  0.91816400  0.22139600  0.66546100  1
  P  P27  1  0.77214600  0.08346000  0.16183300  1
  O  O28  1  0.19560300  0.01097600  0.57239700  1
  O  O29  1  0.25743200  0.91276600  0.33388200  1
  O  O30  1  0.99217200  0.76088900  0.06477600  1
  O  O31  1  0.08709400  0.74446900  0.83313500  1
  O  O32  1  0.38085000  0.91009200  0.81774900  1
  O  O33  1  0.34254200  0.81353500  0.18377800  1
  O  O34  1  0.54357300  0.92601800  0.33406500  1
  O  O35  1  0.76634000  0.99297700  0.07725500  1
  O  O36  1  0.65530300  0.91985800  0.82693400  1
  O  O37  1  0.18812500  0.66836900  0.67827800  1
  O  O38  1  0.07837400  0.61819800  0.32641300  1
  O  O39  1  0.48181500  0.80814200  0.67284800  1
  O  O40  1  0.34999200  0.66794100  0.03174700  1
  O  O41  1  0.32490400  0.64498900  0.52906500  1
  O  O42  1  0.48169300  0.66046400  0.17903500  1
  O  O43  1  0.09903900  0.47789100  0.82486600  1
  O  O44  1  0.18103400  0.51711500  0.17146300  1
  O  O45  1  0.65904500  0.74257800  0.33469300  1
  O  O46  1  0.79397300  0.79426100  0.74940800  1
  O  O47  1  0.78842600  0.76536200  0.57140800  1
  O  O48  1  0.74716400  0.76388600  0.92524200  1
  O  O49  1  0.51887900  0.62224900  0.81474100  1
  O  O50  1  0.32331700  0.50611800  0.67337400  1
  O  O51  1  0.74274300  0.66128800  0.16318800  1
  O  O52  1  0.38353600  0.47357200  0.32526300  1
  O  O53  1  0.08506300  0.34994000  0.32617700  1
  O  O54  1  0.00560500  0.79917100  0.24238900  1
  O  O55  1  0.99249000  0.79115900  0.41784900  1
  O  O56  1  0.00893500  0.20127400  0.58757000  1
  O  O57  1  0.91703900  0.65237900  0.67141100  1
  O  O58  1  0.61873300  0.52834300  0.67386400  1
  O  O59  1  0.25877700  0.33741600  0.83654400  1
  O  O60  1  0.67451400  0.49187900  0.32616900  1
  O  O61  1  0.48119100  0.37867800  0.18207800  1
  O  O62  1  0.24471800  0.23825800  0.07670000  1
  O  O63  1  0.21300300  0.24021900  0.43010600  1
  O  O64  1  0.20809900  0.20615200  0.25217400  1
  O  O65  1  0.34367000  0.25955000  0.66418900  1
  O  O66  1  0.81731700  0.47395300  0.82168000  1
  O  O67  1  0.90590500  0.52667900  0.17700300  1
  O  O68  1  0.51762300  0.33981600  0.82228700  1
  O  O69  1  0.65413200  0.32783600  0.96687200  1
  O  O70  1  0.67252100  0.35036600  0.47042200  1
  O  O71  1  0.51550100  0.19018600  0.32541900  1
  O  O72  1  0.92710700  0.38360400  0.67233500  1
  O  O73  1  0.80992100  0.33052200  0.32141700  1
  O  O74  1  0.34364000  0.08089200  0.16931800  1
  O  O75  1  0.20100200  0.00102900  0.74886300  1
  O  O76  1  0.23343800  0.00607200  0.92339500  1
  O  O77  1  0.45339300  0.07180100  0.66326300  1
  O  O78  1  0.65402600  0.18305600  0.81458500  1
  O  O79  1  0.61825600  0.09020500  0.18144300  1
  O  O80  1  0.91470800  0.25567200  0.16256000  1
  O  O81  1  0.02063300  0.25260900  0.93844400  1
  O  O82  1  0.98742500  0.19933300  0.76357300  1
  O  O83  1  0.74189100  0.08825800  0.66522900  1
  O  O84  1  0.79960200  0.99038900  0.42882700  1
  O  O85  1  0.79958500  0.00339100  0.25222800  1
