# generated using pymatgen
data_Li4Mn3SnO8
_symmetry_space_group_name_H-M   'P 1'
_cell_length_a   6.14368950
_cell_length_b   6.14510117
_cell_length_c   10.39279820
_cell_angle_alpha   105.30633164
_cell_angle_beta   74.68018829
_cell_angle_gamma   119.03227783
_symmetry_Int_Tables_number   1
_chemical_formula_structural   Li4Mn3SnO8
_chemical_formula_sum   'Li8 Mn6 Sn2 O16'
_cell_volume   326.55707281
_cell_formula_units_Z   2
loop_
 _symmetry_equiv_pos_site_id
 _symmetry_equiv_pos_as_xyz
  1  'x, y, z'
loop_
 _atom_site_type_symbol
 _atom_site_label
 _atom_site_symmetry_multiplicity
 _atom_site_fract_x
 _atom_site_fract_y
 _atom_site_fract_z
 _atom_site_occupancy
  Li  Li0  1  0.25006400  0.74999200  0.25002400  1
  Li  Li1  1  0.75006200  0.24999100  0.74997400  1
  Li  Li2  1  0.74997700  0.24997400  0.25005700  1
  Li  Li3  1  0.24999400  0.74996100  0.74998500  1
  Li  Li4  1  0.75017700  0.75006300  0.74995400  1
  Li  Li5  1  0.25018500  0.25010000  0.24996700  1
  Li  Li6  1  0.24993600  0.24976600  0.74997100  1
  Li  Li7  1  0.74989300  0.74976000  0.24999100  1
  Mn  Mn8  1  0.00012800  0.00009200  0.49976300  1
  Mn  Mn9  1  0.99998300  0.50000600  0.00000000  1
  Mn  Mn10  1  0.49990600  0.99995000  0.99997600  1
  Mn  Mn11  1  0.50013900  0.50017800  0.99979400  1
  Mn  Mn12  1  0.49999500  0.99995200  0.50000300  1
  Mn  Mn13  1  0.00001700  0.50000800  0.49999300  1
  Sn  Sn14  1  0.50001700  0.49996000  0.50005900  1
  Sn  Sn15  1  0.99998800  0.00001700  0.00006500  1
  O  O16  1  0.34818900  0.65188100  0.89844600  1
  O  O17  1  0.84820400  0.15189400  0.39847100  1
  O  O18  1  0.15166900  0.84820600  0.60158800  1
  O  O19  1  0.65167200  0.34817700  0.10156900  1
  O  O20  1  0.88967900  0.11056200  0.86650000  1
  O  O21  1  0.38964800  0.61060600  0.36653500  1
  O  O22  1  0.61030100  0.38938500  0.63357500  1
  O  O23  1  0.11027100  0.88941300  0.13359900  1
  O  O24  1  0.86899900  0.61294800  0.38667500  1
  O  O25  1  0.36898800  0.11291800  0.88666500  1
  O  O26  1  0.38693300  0.13108600  0.38673000  1
  O  O27  1  0.88695400  0.63109300  0.88672300  1
  O  O28  1  0.63092500  0.88708800  0.11336900  1
  O  O29  1  0.13093900  0.38708300  0.61337600  1
  O  O30  1  0.11307900  0.36895400  0.11330200  1
  O  O31  1  0.61308600  0.86894000  0.61330900  1
