# generated using pymatgen
data_Li5Mn6(BO3)6
_symmetry_space_group_name_H-M   'P 1'
_cell_length_a   6.34747500
_cell_length_b   8.34151705
_cell_length_c   8.78478754
_cell_angle_alpha   118.18746171
_cell_angle_beta   111.01617179
_cell_angle_gamma   90.00602389
_symmetry_Int_Tables_number   1
_chemical_formula_structural   Li5Mn6(BO3)6
_chemical_formula_sum   'Li5 Mn6 B6 O18'
_cell_volume   374.49022486
_cell_formula_units_Z   1
loop_
 _symmetry_equiv_pos_site_id
 _symmetry_equiv_pos_as_xyz
  1  'x, y, z'
loop_
 _atom_site_type_symbol
 _atom_site_label
 _atom_site_symmetry_multiplicity
 _atom_site_fract_x
 _atom_site_fract_y
 _atom_site_fract_z
 _atom_site_occupancy
  Li  Li0  1  0.61111700  0.01117900  0.71482200  1
  Li  Li1  1  0.10029700  0.01791100  0.71408800  1
  Li  Li2  1  0.90799400  0.28405400  0.30473900  1
  Li  Li3  1  0.39640600  0.28647600  0.30257800  1
  Li  Li4  1  0.74804000  0.70687200  0.98191700  1
  Mn  Mn5  1  0.31675300  0.64081400  0.64567700  1
  Mn  Mn6  1  0.81965100  0.63737200  0.63775600  1
  Mn  Mn7  1  0.01078100  0.39401700  0.01627000  1
  Mn  Mn8  1  0.50285700  0.36887800  0.00932100  1
  Mn  Mn9  1  0.17977800  0.98111200  0.34661700  1
  Mn  Mn10  1  0.66457000  0.97591500  0.33504200  1
  B  B11  1  0.99624700  0.01465300  0.00266300  1
  B  B12  1  0.50466500  0.00857200  0.00062300  1
  B  B13  1  0.06929800  0.31795300  0.65895100  1
  B  B14  1  0.58980300  0.32727300  0.66547700  1
  B  B15  1  0.41360900  0.66745500  0.33859600  1
  B  B16  1  0.92416100  0.66403800  0.33200200  1
  O  O17  1  0.94560500  0.10244900  0.89529500  1
  O  O18  1  0.43723300  0.08169700  0.88016400  1
  O  O19  1  0.53258600  0.13714200  0.55923800  1
  O  O20  1  0.01674200  0.12774300  0.54178600  1
  O  O21  1  0.16006900  0.38973800  0.85487600  1
  O  O22  1  0.69871100  0.41735700  0.86532700  1
  O  O23  1  0.10173800  0.12336500  0.19991300  1
  O  O24  1  0.59872000  0.13072600  0.19689100  1
  O  O25  1  0.04124600  0.43675000  0.58783900  1
  O  O26  1  0.54119100  0.43870700  0.58628200  1
  O  O27  1  0.94034100  0.82515200  0.91801200  1
  O  O28  1  0.48382900  0.82087700  0.93030900  1
  O  O29  1  0.88030600  0.46762300  0.21347400  1
  O  O30  1  0.34012800  0.47093900  0.21511900  1
  O  O31  1  0.51326700  0.73700000  0.53135300  1
  O  O32  1  0.00921100  0.73931200  0.52517600  1
  O  O33  1  0.38171900  0.77834000  0.26095300  1
  O  O34  1  0.87949300  0.77048500  0.24718200  1
