# generated using pymatgen
data_Li5Fe(SiO4)2
_symmetry_space_group_name_H-M   'P 1'
_cell_length_a   9.81325100
_cell_length_b   9.84877800
_cell_length_c   14.22353800
_cell_angle_alpha   90.00000000
_cell_angle_beta   90.00000000
_cell_angle_gamma   90.00000000
_symmetry_Int_Tables_number   1
_chemical_formula_structural   Li5Fe(SiO4)2
_chemical_formula_sum   'Li40 Fe8 Si16 O64'
_cell_volume   1374.68404703
_cell_formula_units_Z   8
loop_
 _symmetry_equiv_pos_site_id
 _symmetry_equiv_pos_as_xyz
  1  'x, y, z'
loop_
 _atom_site_type_symbol
 _atom_site_label
 _atom_site_symmetry_multiplicity
 _atom_site_fract_x
 _atom_site_fract_y
 _atom_site_fract_z
 _atom_site_occupancy
  Li  Li0  1  0.72370600  0.02461800  0.50698500  1
  Li  Li1  1  0.72370600  0.02461800  0.99301500  1
  Li  Li2  1  0.52233500  0.00482400  0.10946000  1
  Li  Li3  1  0.52233500  0.00482400  0.39054000  1
  Li  Li4  1  0.98087800  0.25746900  0.75000000  1
  Li  Li5  1  0.55918100  0.18921900  0.75000000  1
  Li  Li6  1  0.25150200  0.21790100  0.63508400  1
  Li  Li7  1  0.25150200  0.21790100  0.86491600  1
  Li  Li8  1  0.74707100  0.22882500  0.62007400  1
  Li  Li9  1  0.74707100  0.22882500  0.87992600  1
  Li  Li10  1  0.24707100  0.27117500  0.12007400  1
  Li  Li11  1  0.24707100  0.27117500  0.37992600  1
  Li  Li12  1  0.75150200  0.28209900  0.36491600  1
  Li  Li13  1  0.75150200  0.28209900  0.13508400  1
  Li  Li14  1  0.05918100  0.31078100  0.25000000  1
  Li  Li15  1  0.48087800  0.24253100  0.25000000  1
  Li  Li16  1  0.02233500  0.49517600  0.60946000  1
  Li  Li17  1  0.02233500  0.49517600  0.89054000  1
  Li  Li18  1  0.22370600  0.47538200  0.00698500  1
  Li  Li19  1  0.22370600  0.47538200  0.49301500  1
  Li  Li20  1  0.77629400  0.52461800  0.50698500  1
  Li  Li21  1  0.77629400  0.52461800  0.99301500  1
  Li  Li22  1  0.97766500  0.50482400  0.10946000  1
  Li  Li23  1  0.97766500  0.50482400  0.39054000  1
  Li  Li24  1  0.51912200  0.75746900  0.75000000  1
  Li  Li25  1  0.94081900  0.68921900  0.75000000  1
  Li  Li26  1  0.24849800  0.71790100  0.63508400  1
  Li  Li27  1  0.24849800  0.71790100  0.86491600  1
  Li  Li28  1  0.75292900  0.72882500  0.87992600  1
  Li  Li29  1  0.75292900  0.72882500  0.62007400  1
  Li  Li30  1  0.25292900  0.77117500  0.12007400  1
  Li  Li31  1  0.25292900  0.77117500  0.37992600  1
  Li  Li32  1  0.74849800  0.78209900  0.13508400  1
  Li  Li33  1  0.74849800  0.78209900  0.36491600  1
  Li  Li34  1  0.44081900  0.81078100  0.25000000  1
  Li  Li35  1  0.01912200  0.74253100  0.25000000  1
  Li  Li36  1  0.47766500  0.99517600  0.89054000  1
  Li  Li37  1  0.47766500  0.99517600  0.60946000  1
  Li  Li38  1  0.27629400  0.97538200  0.00698500  1
  Li  Li39  1  0.27629400  0.97538200  0.49301500  1
  Fe  Fe40  1  0.00728800  0.00659200  0.13058800  1
  Fe  Fe41  1  0.00728800  0.00659200  0.36941200  1
  Fe  Fe42  1  0.50728800  0.49340800  0.63058800  1
  Fe  Fe43  1  0.50728800  0.49340800  0.86941200  1
  Fe  Fe44  1  0.49271200  0.50659200  0.13058800  1
  Fe  Fe45  1  0.49271200  0.50659200  0.36941200  1
  Fe  Fe46  1  0.99271200  0.99340800  0.63058800  1
  Fe  Fe47  1  0.99271200  0.99340800  0.86941200  1
  Si  Si48  1  0.72335500  0.01642800  0.25000000  1
  Si  Si49  1  0.27533300  0.02176900  0.25000000  1
  Si  Si50  1  0.99782900  0.25918000  0.00581400  1
  Si  Si51  1  0.99782900  0.25918000  0.49418600  1
  Si  Si52  1  0.49782900  0.24082000  0.50581400  1
  Si  Si53  1  0.49782900  0.24082000  0.99418600  1
  Si  Si54  1  0.77533300  0.47823100  0.75000000  1
  Si  Si55  1  0.22335500  0.48357200  0.75000000  1
  Si  Si56  1  0.77664500  0.51642800  0.25000000  1
  Si  Si57  1  0.22466700  0.52176900  0.25000000  1
  Si  Si58  1  0.50217100  0.75918000  0.00581400  1
  Si  Si59  1  0.50217100  0.75918000  0.49418600  1
  Si  Si60  1  0.00217100  0.74082000  0.99418600  1
  Si  Si61  1  0.00217100  0.74082000  0.50581400  1
  Si  Si62  1  0.72466700  0.97823100  0.75000000  1
  Si  Si63  1  0.27664500  0.98357200  0.75000000  1
  O  O64  1  0.10246600  0.97702100  0.25000000  1
  O  O65  1  0.17662600  0.01193400  0.65547500  1
  O  O66  1  0.17662600  0.01193400  0.84452500  1
  O  O67  1  0.66534500  0.04690400  0.84606900  1
  O  O68  1  0.66534500  0.04690400  0.65393100  1
  O  O69  1  0.38703800  0.10641600  0.75000000  1
  O  O70  1  0.91904100  0.13223900  0.55325400  1
  O  O71  1  0.91904100  0.13223900  0.94674600  1
  O  O72  1  0.38144400  0.13060700  0.53134600  1
  O  O73  1  0.38144400  0.13060700  0.96865400  1
  O  O74  1  0.66091900  0.16790900  0.25000000  1
  O  O75  1  0.62410000  0.17583700  0.05073800  1
  O  O76  1  0.62410000  0.17583700  0.44926200  1
  O  O77  1  0.29138500  0.18737700  0.25000000  1
  O  O78  1  0.05951300  0.18512900  0.10374200  1
  O  O79  1  0.05951300  0.18512900  0.39625800  1
  O  O80  1  0.55951300  0.31487100  0.60374200  1
  O  O81  1  0.55951300  0.31487100  0.89625800  1
  O  O82  1  0.79138500  0.31262300  0.75000000  1
  O  O83  1  0.12410000  0.32416300  0.55073800  1
  O  O84  1  0.12410000  0.32416300  0.94926200  1
  O  O85  1  0.16091900  0.33209100  0.75000000  1
  O  O86  1  0.88144400  0.36939300  0.03134600  1
  O  O87  1  0.88144400  0.36939300  0.46865400  1
  O  O88  1  0.41904100  0.36776100  0.05325400  1
  O  O89  1  0.41904100  0.36776100  0.44674600  1
  O  O90  1  0.88703800  0.39358400  0.25000000  1
  O  O91  1  0.16534500  0.45309600  0.34606900  1
  O  O92  1  0.16534500  0.45309600  0.15393100  1
  O  O93  1  0.67662600  0.48806600  0.34452500  1
  O  O94  1  0.67662600  0.48806600  0.15547500  1
  O  O95  1  0.60246600  0.52297900  0.75000000  1
  O  O96  1  0.39753400  0.47702100  0.25000000  1
  O  O97  1  0.32337400  0.51193400  0.65547500  1
  O  O98  1  0.32337400  0.51193400  0.84452500  1
  O  O99  1  0.83465500  0.54690400  0.65393100  1
  O  O100  1  0.83465500  0.54690400  0.84606900  1
  O  O101  1  0.11296200  0.60641600  0.75000000  1
  O  O102  1  0.58095900  0.63223900  0.94674600  1
  O  O103  1  0.58095900  0.63223900  0.55325400  1
  O  O104  1  0.11855600  0.63060700  0.96865400  1
  O  O105  1  0.11855600  0.63060700  0.53134600  1
  O  O106  1  0.83908100  0.66790900  0.25000000  1
  O  O107  1  0.87590000  0.67583700  0.05073800  1
  O  O108  1  0.87590000  0.67583700  0.44926200  1
  O  O109  1  0.20861500  0.68737700  0.25000000  1
  O  O110  1  0.44048700  0.68512900  0.10374200  1
  O  O111  1  0.44048700  0.68512900  0.39625800  1
  O  O112  1  0.94048700  0.81487100  0.89625800  1
  O  O113  1  0.94048700  0.81487100  0.60374200  1
  O  O114  1  0.70861500  0.81262300  0.75000000  1
  O  O115  1  0.37590000  0.82416300  0.55073800  1
  O  O116  1  0.37590000  0.82416300  0.94926200  1
  O  O117  1  0.33908100  0.83209100  0.75000000  1
  O  O118  1  0.61855600  0.86939300  0.03134600  1
  O  O119  1  0.61855600  0.86939300  0.46865400  1
  O  O120  1  0.08095900  0.86776100  0.05325400  1
  O  O121  1  0.08095900  0.86776100  0.44674600  1
  O  O122  1  0.61296200  0.89358400  0.25000000  1
  O  O123  1  0.33465500  0.95309600  0.15393100  1
  O  O124  1  0.33465500  0.95309600  0.34606900  1
  O  O125  1  0.82337400  0.98806600  0.15547500  1
  O  O126  1  0.82337400  0.98806600  0.34452500  1
  O  O127  1  0.89753400  0.02297900  0.75000000  1
