# generated using pymatgen
data_Li4V3Cr3(TeO8)2
_symmetry_space_group_name_H-M   'P 1'
_cell_length_a   5.98506900
_cell_length_b   5.98429314
_cell_length_c   9.99324009
_cell_angle_alpha   89.95469979
_cell_angle_beta   90.28131877
_cell_angle_gamma   119.06870484
_symmetry_Int_Tables_number   1
_chemical_formula_structural   Li4V3Cr3(TeO8)2
_chemical_formula_sum   'Li4 V3 Cr3 Te2 O16'
_cell_volume   312.83300451
_cell_formula_units_Z   1
loop_
 _symmetry_equiv_pos_site_id
 _symmetry_equiv_pos_as_xyz
  1  'x, y, z'
loop_
 _atom_site_type_symbol
 _atom_site_label
 _atom_site_symmetry_multiplicity
 _atom_site_fract_x
 _atom_site_fract_y
 _atom_site_fract_z
 _atom_site_occupancy
  Li  Li0  1  0.33576100  0.67114300  0.90209300  1
  Li  Li1  1  0.99564500  0.99543700  0.99212100  1
  Li  Li2  1  0.99664800  0.99215300  0.49211300  1
  Li  Li3  1  0.67294500  0.33842600  0.39956800  1
  V  V4  1  0.65675000  0.83006800  0.21901300  1
  V  V5  1  0.82843900  0.65605700  0.71884900  1
  V  V6  1  0.82992000  0.16885600  0.71549600  1
  Cr  Cr7  1  0.16913000  0.83190200  0.21526900  1
  Cr  Cr8  1  0.17000300  0.33828800  0.21502800  1
  Cr  Cr9  1  0.33702100  0.16844100  0.71468100  1
  Te  Te10  1  0.32330200  0.65476700  0.49457200  1
  Te  Te11  1  0.65414000  0.32361600  0.99571400  1
  O  O12  1  0.15514500  0.83200800  0.60117400  1
  O  O13  1  0.03843300  0.52057600  0.33936500  1
  O  O14  1  0.33696000  0.66419900  0.11049400  1
  O  O15  1  0.99945700  0.00303200  0.30973200  1
  O  O16  1  0.00226900  0.99933900  0.80900500  1
  O  O17  1  0.15219800  0.31500400  0.59509000  1
  O  O18  1  0.50278000  0.97739700  0.32457100  1
  O  O19  1  0.49070400  0.51597300  0.32789700  1
  O  O20  1  0.31358000  0.15188900  0.09735300  1
  O  O21  1  0.69615700  0.83307900  0.60594100  1
  O  O22  1  0.51267100  0.48978300  0.82559500  1
  O  O23  1  0.52002400  0.03656200  0.84007000  1
  O  O24  1  0.66318200  0.33504100  0.60945300  1
  O  O25  1  0.83844600  0.69606800  0.10849500  1
  O  O26  1  0.97328200  0.50441900  0.83009400  1
  O  O27  1  0.83500800  0.15677800  0.09899200  1
