# generated using pymatgen
data_LiSnPO4
_symmetry_space_group_name_H-M   'P 1'
_cell_length_a   5.42447100
_cell_length_b   7.89758600
_cell_length_c   10.19983100
_cell_angle_alpha   90.00000000
_cell_angle_beta   90.00000000
_cell_angle_gamma   90.00000000
_symmetry_Int_Tables_number   1
_chemical_formula_structural   LiSnPO4
_chemical_formula_sum   'Li4 Sn4 P4 O16'
_cell_volume   436.96306752
_cell_formula_units_Z   4
loop_
 _symmetry_equiv_pos_site_id
 _symmetry_equiv_pos_as_xyz
  1  'x, y, z'
loop_
 _atom_site_type_symbol
 _atom_site_label
 _atom_site_symmetry_multiplicity
 _atom_site_fract_x
 _atom_site_fract_y
 _atom_site_fract_z
 _atom_site_occupancy
  Li  Li0  1  0.03707900  0.16967100  0.28838300  1
  Li  Li1  1  0.53707900  0.33032900  0.78838300  1
  Li  Li2  1  0.03707900  0.66967100  0.21161700  1
  Li  Li3  1  0.53707900  0.83032900  0.71161700  1
  Sn  Sn4  1  0.53348200  0.26145800  0.09125500  1
  Sn  Sn5  1  0.03348200  0.23854200  0.59125500  1
  Sn  Sn6  1  0.53348200  0.76145800  0.40874500  1
  Sn  Sn7  1  0.03348200  0.73854200  0.90874500  1
  P  P8  1  0.03261100  0.18428200  0.95528100  1
  P  P9  1  0.53261100  0.31571800  0.45528100  1
  P  P10  1  0.03261100  0.68428200  0.54471900  1
  P  P11  1  0.53261100  0.81571800  0.04471900  1
  O  O12  1  0.01991200  0.00654300  0.89254100  1
  O  O13  1  0.03111800  0.18201900  0.10703400  1
  O  O14  1  0.27761500  0.27208600  0.91061700  1
  O  O15  1  0.29988200  0.21325500  0.41122700  1
  O  O16  1  0.79988200  0.28674500  0.91122700  1
  O  O17  1  0.77761500  0.22791400  0.41061700  1
  O  O18  1  0.53111800  0.31798100  0.60703400  1
  O  O19  1  0.51991200  0.49345700  0.39254100  1
  O  O20  1  0.01991200  0.50654300  0.60745900  1
  O  O21  1  0.03111800  0.68201900  0.39296600  1
  O  O22  1  0.27761500  0.77208600  0.58938300  1
  O  O23  1  0.29988200  0.71325500  0.08877300  1
  O  O24  1  0.79988200  0.78674500  0.58877300  1
  O  O25  1  0.77761500  0.72791400  0.08938300  1
  O  O26  1  0.53111800  0.81798100  0.89296600  1
  O  O27  1  0.51991200  0.99345700  0.10745900  1
