# generated using pymatgen
data_Li2Ni(PO3)4
_symmetry_space_group_name_H-M   'P 1'
_cell_length_a   12.47842500
_cell_length_b   7.66286600
_cell_length_c   11.60062774
_cell_angle_alpha   62.99716066
_cell_angle_beta   90.00000000
_cell_angle_gamma   90.00000000
_symmetry_Int_Tables_number   1
_chemical_formula_structural   Li2Ni(PO3)4
_chemical_formula_sum   'Li8 Ni4 P16 O48'
_cell_volume   988.33098808
_cell_formula_units_Z   4
loop_
 _symmetry_equiv_pos_site_id
 _symmetry_equiv_pos_as_xyz
  1  'x, y, z'
loop_
 _atom_site_type_symbol
 _atom_site_label
 _atom_site_symmetry_multiplicity
 _atom_site_fract_x
 _atom_site_fract_y
 _atom_site_fract_z
 _atom_site_occupancy
  Li  Li0  1  0.06015700  0.53630800  0.59771900  1
  Li  Li1  1  0.70156600  0.96894600  0.14206900  1
  Li  Li2  1  0.56015700  0.46369200  0.90228100  1
  Li  Li3  1  0.20156600  0.03105400  0.35793100  1
  Li  Li4  1  0.79843400  0.96894600  0.64206900  1
  Li  Li5  1  0.43984300  0.53630800  0.09771900  1
  Li  Li6  1  0.29843400  0.03105400  0.85793100  1
  Li  Li7  1  0.93984300  0.46369200  0.40228100  1
  Ni  Ni8  1  0.15227400  0.25865500  0.98792100  1
  Ni  Ni9  1  0.65227400  0.74134500  0.51207900  1
  Ni  Ni10  1  0.34772600  0.25865500  0.48792100  1
  Ni  Ni11  1  0.84772600  0.74134500  0.01207900  1
  P  P12  1  0.82145900  0.38661900  0.69191000  1
  P  P13  1  0.42002000  0.55880400  0.59709100  1
  P  P14  1  0.33378300  0.91879300  0.14632700  1
  P  P15  1  0.92002000  0.44119600  0.90290900  1
  P  P16  1  0.93728900  0.06649200  0.13648500  1
  P  P17  1  0.32145900  0.61338100  0.80809000  1
  P  P18  1  0.43728900  0.93350800  0.36351500  1
  P  P19  1  0.83378300  0.08120700  0.35367300  1
  P  P20  1  0.16621700  0.91879300  0.64632700  1
  P  P21  1  0.56271100  0.06649200  0.63648500  1
  P  P22  1  0.67854100  0.38661900  0.19191000  1
  P  P23  1  0.06271100  0.93350800  0.86351500  1
  P  P24  1  0.07998000  0.55880400  0.09709100  1
  P  P25  1  0.66621700  0.08120700  0.85367300  1
  P  P26  1  0.57998000  0.44119600  0.40290900  1
  P  P27  1  0.17854100  0.61338100  0.30809000  1
  O  O28  1  0.63748500  0.19679300  0.92480500  1
  O  O29  1  0.36487700  0.37070000  0.62181600  1
  O  O30  1  0.91539000  0.39079200  0.60835100  1
  O  O31  1  0.85768500  0.33258900  0.83505200  1
  O  O32  1  0.24714900  0.81388400  0.26720900  1
  O  O33  1  0.85200100  0.92614600  0.13741000  1
  O  O34  1  0.53613800  0.55976900  0.63018600  1
  O  O35  1  0.75109400  0.56193700  0.64856200  1
  O  O36  1  0.25109400  0.43806300  0.85143800  1
  O  O37  1  0.03613800  0.44023100  0.86981400  1
  O  O38  1  0.39554500  0.71289300  0.45096200  1
  O  O39  1  0.35768500  0.66741100  0.66494800  1
  O  O40  1  0.05044500  0.04329700  0.10485600  1
  O  O41  1  0.43850500  0.92965500  0.22478800  1
  O  O42  1  0.79267700  0.87709600  0.43153800  1
  O  O43  1  0.29267700  0.12290400  0.06846200  1
  O  O44  1  0.93850500  0.07034500  0.27521200  1
  O  O45  1  0.41539000  0.60920800  0.89164900  1
  O  O46  1  0.86487700  0.62930000  0.87818400  1
  O  O47  1  0.55044500  0.95670300  0.39514400  1
  O  O48  1  0.13748500  0.80320700  0.57519500  1
  O  O49  1  0.89554500  0.28710700  0.04903800  1
  O  O50  1  0.25285100  0.81388400  0.76720900  1
  O  O51  1  0.64799900  0.92614600  0.63741000  1
  O  O52  1  0.35200100  0.07385400  0.36259000  1
  O  O53  1  0.74714900  0.18611600  0.23279100  1
  O  O54  1  0.10445500  0.71289300  0.95096200  1
  O  O55  1  0.86251500  0.19679300  0.42480500  1
  O  O56  1  0.44955500  0.04329700  0.60485600  1
  O  O57  1  0.13512300  0.37070000  0.12181600  1
  O  O58  1  0.58461000  0.39079200  0.10835100  1
  O  O59  1  0.06149500  0.92965500  0.72478800  1
  O  O60  1  0.70732300  0.87709600  0.93153800  1
  O  O61  1  0.20732300  0.12290400  0.56846200  1
  O  O62  1  0.56149500  0.07034500  0.77521200  1
  O  O63  1  0.94955500  0.95670300  0.89514400  1
  O  O64  1  0.64231500  0.33258900  0.33505200  1
  O  O65  1  0.60445500  0.28710700  0.54903800  1
  O  O66  1  0.96386200  0.55976900  0.13018600  1
  O  O67  1  0.74890600  0.56193700  0.14856200  1
  O  O68  1  0.24890600  0.43806300  0.35143800  1
  O  O69  1  0.46386200  0.44023100  0.36981400  1
  O  O70  1  0.14799900  0.07385400  0.86259000  1
  O  O71  1  0.75285100  0.18611600  0.73279100  1
  O  O72  1  0.14231500  0.66741100  0.16494800  1
  O  O73  1  0.08461000  0.60920800  0.39164900  1
  O  O74  1  0.63512300  0.62930000  0.37818400  1
  O  O75  1  0.36251500  0.80320700  0.07519500  1
