# generated using pymatgen
data_Li2Cr(Si2O5)3
_symmetry_space_group_name_H-M   'P 1'
_cell_length_a   9.73023624
_cell_length_b   9.73023624
_cell_length_c   9.73023624
_cell_angle_alpha   132.81230735
_cell_angle_beta   118.58079947
_cell_angle_gamma   80.90937473
_symmetry_Int_Tables_number   1
_chemical_formula_structural   Li2Cr(Si2O5)3
_chemical_formula_sum   'Li4 Cr2 Si12 O30'
_cell_volume   573.13319652
_cell_formula_units_Z   2
loop_
 _symmetry_equiv_pos_site_id
 _symmetry_equiv_pos_as_xyz
  1  'x, y, z'
loop_
 _atom_site_type_symbol
 _atom_site_label
 _atom_site_symmetry_multiplicity
 _atom_site_fract_x
 _atom_site_fract_y
 _atom_site_fract_z
 _atom_site_occupancy
  Li  Li0  1  0.24414800  0.24414800  0.50000000  1
  Li  Li1  1  0.24414800  0.74414800  0.00000000  1
  Li  Li2  1  0.75585200  0.75585200  0.50000000  1
  Li  Li3  1  0.75585200  0.25585200  0.00000000  1
  Cr  Cr4  1  0.50000000  0.00000000  0.50000000  1
  Cr  Cr5  1  0.00000000  0.50000000  0.50000000  1
  Si  Si6  1  0.87854500  0.65183500  0.22671100  1
  Si  Si7  1  0.07487600  0.84816500  0.22671100  1
  Si  Si8  1  0.38991100  0.54515000  0.22975000  1
  Si  Si9  1  0.38991100  0.16016200  0.84476200  1
  Si  Si10  1  0.18460000  0.95485000  0.84476200  1
  Si  Si11  1  0.18460000  0.33983800  0.22975000  1
  Si  Si12  1  0.61008900  0.83983800  0.15523800  1
  Si  Si13  1  0.61008900  0.45485000  0.77025000  1
  Si  Si14  1  0.81540000  0.04515000  0.15523800  1
  Si  Si15  1  0.81540000  0.66016200  0.77025000  1
  Si  Si16  1  0.12145500  0.34816500  0.77328900  1
  Si  Si17  1  0.92512400  0.15183500  0.77328900  1
  O  O18  1  0.95055700  0.25000000  0.70055700  1
  O  O19  1  0.73850000  0.06771100  0.67078900  1
  O  O20  1  0.10307800  0.43228900  0.67078900  1
  O  O21  1  0.76811400  0.81075400  0.29277600  1
  O  O22  1  0.76811400  0.47533800  0.95736000  1
  O  O23  1  0.47397200  0.37051100  0.10346100  1
  O  O24  1  0.98202200  0.68924600  0.95736000  1
  O  O25  1  0.98202200  0.02466200  0.29277600  1
  O  O26  1  0.23295000  0.12948900  0.10346100  1
  O  O27  1  0.15744600  0.39270100  0.40808200  1
  O  O28  1  0.15744600  0.74936400  0.76474500  1
  O  O29  1  0.51538100  0.75063600  0.40808200  1
  O  O30  1  0.51538100  0.10729900  0.76474500  1
  O  O31  1  0.32588800  0.99083600  0.81672300  1
  O  O32  1  0.32588800  0.50916400  0.33505200  1
  O  O33  1  0.67411200  0.00916400  0.18327700  1
  O  O34  1  0.67411200  0.49083600  0.66494800  1
  O  O35  1  0.84255400  0.25063600  0.23525500  1
  O  O36  1  0.84255400  0.60729900  0.59191800  1
  O  O37  1  0.48461900  0.24936400  0.59191800  1
  O  O38  1  0.48461900  0.89270100  0.23525500  1
  O  O39  1  0.52602800  0.62948900  0.89653900  1
  O  O40  1  0.23188600  0.52466200  0.04264000  1
  O  O41  1  0.23188600  0.18924600  0.70722400  1
  O  O42  1  0.76705000  0.87051100  0.89653900  1
  O  O43  1  0.01797800  0.31075400  0.04264000  1
  O  O44  1  0.01797800  0.97533800  0.70722400  1
  O  O45  1  0.26150000  0.93228900  0.32921100  1
  O  O46  1  0.89692200  0.56771100  0.32921100  1
  O  O47  1  0.04944300  0.75000000  0.29944300  1
