# generated using pymatgen
data_Li5Cr2Cu3O10
_symmetry_space_group_name_H-M   'P 1'
_cell_length_a   5.05218613
_cell_length_b   10.71126008
_cell_length_c   7.62333027
_cell_angle_alpha   110.37154552
_cell_angle_beta   102.62495300
_cell_angle_gamma   78.65769116
_symmetry_Int_Tables_number   1
_chemical_formula_structural   Li5Cr2Cu3O10
_chemical_formula_sum   'Li10 Cr4 Cu6 O20'
_cell_volume   374.09270346
_cell_formula_units_Z   2
loop_
 _symmetry_equiv_pos_site_id
 _symmetry_equiv_pos_as_xyz
  1  'x, y, z'
loop_
 _atom_site_type_symbol
 _atom_site_label
 _atom_site_symmetry_multiplicity
 _atom_site_fract_x
 _atom_site_fract_y
 _atom_site_fract_z
 _atom_site_occupancy
  Li  Li0  1  0.25030500  0.24976200  0.50008600  1
  Li  Li1  1  0.74975500  0.75022400  0.49988300  1
  Li  Li2  1  0.75422100  0.44853300  0.38986900  1
  Li  Li3  1  0.25485400  0.94806300  0.39003100  1
  Li  Li4  1  0.74516800  0.05194100  0.60980100  1
  Li  Li5  1  0.24579400  0.55151400  0.61017200  1
  Li  Li6  1  0.25411600  0.14872400  0.79641700  1
  Li  Li7  1  0.75385800  0.64827800  0.79659300  1
  Li  Li8  1  0.24621700  0.35174300  0.20344500  1
  Li  Li9  1  0.74577800  0.85128000  0.20354900  1
  Cr  Cr10  1  0.77207600  0.33678200  0.69332900  1
  Cr  Cr11  1  0.27149100  0.83640500  0.69363500  1
  Cr  Cr12  1  0.72862300  0.16360200  0.30634400  1
  Cr  Cr13  1  0.22782700  0.66314800  0.30662800  1
  Cu  Cu14  1  0.24975700  0.74993400  0.00006200  1
  Cu  Cu15  1  0.75369200  0.94664200  0.90234700  1
  Cu  Cu16  1  0.74563100  0.55412500  0.09818500  1
  Cu  Cu17  1  0.75021400  0.25005800  0.99994000  1
  Cu  Cu18  1  0.25437700  0.44584700  0.90190600  1
  Cu  Cu19  1  0.24629700  0.05338700  0.09762700  1
  O  O20  1  0.04949800  0.01052500  0.83788700  1
  O  O21  1  0.54938100  0.51010600  0.83666200  1
  O  O22  1  0.45040300  0.48983000  0.16335300  1
  O  O23  1  0.95017700  0.98946200  0.16198500  1
  O  O24  1  0.01579000  0.33400700  0.93480700  1
  O  O25  1  0.51512400  0.83546800  0.93557600  1
  O  O26  1  0.48492800  0.16468400  0.06444400  1
  O  O27  1  0.98428900  0.66590600  0.06512700  1
  O  O28  1  0.96426100  0.16931900  0.55134800  1
  O  O29  1  0.46467000  0.66981500  0.55195100  1
  O  O30  1  0.53544200  0.33017400  0.44807200  1
  O  O31  1  0.03577600  0.83067500  0.44863200  1
  O  O32  1  0.95029300  0.26103500  0.24380200  1
  O  O33  1  0.45090900  0.76034200  0.24346000  1
  O  O34  1  0.54896700  0.23968400  0.75648400  1
  O  O35  1  0.04982600  0.73895300  0.75623300  1
  O  O36  1  0.00973200  0.44156700  0.66677300  1
  O  O37  1  0.51169200  0.94125900  0.66743900  1
  O  O38  1  0.48836300  0.05877700  0.33265300  1
  O  O39  1  0.99042900  0.55841900  0.33346100  1
