# generated using pymatgen
data_Li5La3Nb2O12
_symmetry_space_group_name_H-M   'P 1'
_cell_length_a   11.12537800
_cell_length_b   11.14377133
_cell_length_c   11.16219310
_cell_angle_alpha   109.44411605
_cell_angle_beta   109.69358096
_cell_angle_gamma   109.07781051
_symmetry_Int_Tables_number   1
_chemical_formula_structural   Li5La3Nb2O12
_chemical_formula_sum   'Li20 La12 Nb8 O48'
_cell_volume   1067.88041642
_cell_formula_units_Z   4
loop_
 _symmetry_equiv_pos_site_id
 _symmetry_equiv_pos_as_xyz
  1  'x, y, z'
loop_
 _atom_site_type_symbol
 _atom_site_label
 _atom_site_symmetry_multiplicity
 _atom_site_fract_x
 _atom_site_fract_y
 _atom_site_fract_z
 _atom_site_occupancy
  Li  Li0  1  0.75063200  0.93226200  0.04224500  1
  Li  Li1  1  0.43253100  0.68407400  0.88716400  1
  Li  Li2  1  0.04549700  0.10850000  0.29655900  1
  Li  Li3  1  0.53686600  0.74842200  0.42795900  1
  Li  Li4  1  0.70416700  0.81917400  0.74986300  1
  Li  Li5  1  0.38716500  0.44377600  0.19242300  1
  Li  Li6  1  0.31949500  0.60893100  0.07105700  1
  Li  Li7  1  0.06920100  0.45072500  0.75144200  1
  Li  Li8  1  0.17939400  0.75465400  0.78841900  1
  Li  Li9  1  0.88932600  0.20642100  0.45520600  1
  Li  Li10  1  0.25080300  0.69747600  0.30855900  1
  Li  Li11  1  0.79702000  0.04801600  0.61665300  1
  Li  Li12  1  0.21487800  0.97055200  0.38855200  1
  Li  Li13  1  0.74391500  0.29466100  0.68507300  1
  Li  Li14  1  0.11412300  0.80620200  0.55482700  1
  Li  Li15  1  0.91373000  0.52744400  0.24169000  1
  Li  Li16  1  0.61297200  0.56133300  0.81613100  1
  Li  Li17  1  0.29354000  0.18031400  0.25075900  1
  Li  Li18  1  0.97405400  0.89031500  0.71584900  1
  Li  Li19  1  0.58149700  0.32586700  0.11367500  1
  La  La20  1  0.25658200  0.37144000  0.62315800  1
  La  La21  1  0.62829500  0.88002400  0.24907200  1
  La  La22  1  0.13014100  0.24565100  0.87878800  1
  La  La23  1  0.38047500  0.75323700  0.62953400  1
  La  La24  1  0.11826300  0.37312400  0.24871900  1
  La  La25  1  0.24923300  0.86738200  0.11482500  1
  La  La26  1  0.87007100  0.61995800  0.74923800  1
  La  La27  1  0.61973700  0.24801800  0.36809500  1
  La  La28  1  0.74858500  0.13809100  0.89160200  1
  La  La29  1  0.87985300  0.74643700  0.12948700  1
  La  La30  1  0.75024500  0.63502800  0.38520700  1
  La  La31  1  0.38398900  0.13353400  0.75555200  1
  Nb  Nb32  1  0.50570200  0.50242100  0.00276100  1
  Nb  Nb33  1  0.99971900  0.00122900  0.49992400  1
  Nb  Nb34  1  0.49788400  0.49445500  0.49935500  1
  Nb  Nb35  1  0.00495600  0.00054100  0.99966600  1
  Nb  Nb36  1  0.99676600  0.49792600  0.99604400  1
  Nb  Nb37  1  0.49875700  0.00349200  0.50070100  1
  Nb  Nb38  1  0.99843000  0.49586900  0.49658300  1
  Nb  Nb39  1  0.49685700  0.00279200  0.00301900  1
  O  O40  1  0.88472700  0.97294200  0.29593800  1
  O  O41  1  0.47623800  0.58840600  0.67698200  1
  O  O42  1  0.29617000  0.32569200  0.40953400  1
  O  O43  1  0.61886300  0.69943800  0.01972300  1
  O  O44  1  0.79690600  0.88974300  0.47421700  1
  O  O45  1  0.51765200  0.62036200  0.19897800  1
  O  O46  1  0.30368200  0.48254600  0.88704500  1
  O  O47  1  0.40772000  0.82004600  0.02069500  1
  O  O48  1  0.19816300  0.58304100  0.67808100  1
  O  O49  1  0.02925500  0.32546300  0.41568000  1
  O  O50  1  0.59491600  0.91560700  0.61463600  1
  O  O51  1  0.17450000  0.20217200  0.08794600  1
  O  O52  1  0.02284100  0.19940700  0.61742800  1
  O  O53  1  0.38316700  0.58552100  0.40849300  1
  O  O54  1  0.42249500  0.82002900  0.30423200  1
  O  O55  1  0.58960500  0.91330100  0.88693900  1
  O  O56  1  0.17794000  0.47474000  0.09062600  1
  O  O57  1  0.90996800  0.01989000  0.82233100  1
  O  O58  1  0.08976000  0.60951700  0.90984900  1
  O  O59  1  0.66942400  0.08062000  0.19987000  1
  O  O60  1  0.88454700  0.39972400  0.57875800  1
  O  O61  1  0.91342200  0.29898200  0.82415600  1
  O  O62  1  0.32072300  0.90666500  0.51752800  1
  O  O63  1  0.92108800  0.11043600  0.09615900  1
  O  O64  1  0.07342900  0.87267500  0.90016500  1
  O  O65  1  0.67834300  0.10063400  0.48340900  1
  O  O66  1  0.08989700  0.70077800  0.17416300  1
  O  O67  1  0.11047200  0.59247100  0.41524400  1
  O  O68  1  0.32627800  0.90780600  0.79175500  1
  O  O69  1  0.91634600  0.38959000  0.08755300  1
  O  O70  1  0.10180000  0.98163200  0.17929900  1
  O  O71  1  0.82947500  0.53163700  0.91159000  1
  O  O72  1  0.41313000  0.08573300  0.11612400  1
  O  O73  1  0.58487200  0.16900200  0.69970400  1
  O  O74  1  0.61720100  0.41526100  0.58610700  1
  O  O75  1  0.82257000  0.80572000  0.92206500  1
  O  O76  1  0.39965700  0.07032400  0.37324000  1
  O  O77  1  0.97316700  0.79910400  0.38831200  1
  O  O78  1  0.98443500  0.68075100  0.60234400  1
  O  O79  1  0.80229800  0.42904300  0.33030200  1
  O  O80  1  0.57930200  0.17145100  0.97165800  1
  O  O81  1  0.70212600  0.53065700  0.12984100  1
  O  O82  1  0.47531000  0.38933200  0.80525500  1
  O  O83  1  0.19086900  0.11307500  0.51560500  1
  O  O84  1  0.39259500  0.31209100  0.98691700  1
  O  O85  1  0.69774800  0.67676400  0.58758100  1
  O  O86  1  0.52212200  0.41172600  0.32318800  1
  O  O87  1  0.11604300  0.02008600  0.69292200  1
