# generated using pymatgen
data_Li2MnF4
_symmetry_space_group_name_H-M   'P 1'
_cell_length_a   9.74078583
_cell_length_b   9.74078583
_cell_length_c   9.74078539
_cell_angle_alpha   101.03763053
_cell_angle_beta   101.03763053
_cell_angle_gamma   128.10413014
_symmetry_Int_Tables_number   1
_chemical_formula_structural   Li2MnF4
_chemical_formula_sum   'Li16 Mn8 F32'
_cell_volume   653.95634193
_cell_formula_units_Z   8
loop_
 _symmetry_equiv_pos_site_id
 _symmetry_equiv_pos_as_xyz
  1  'x, y, z'
loop_
 _atom_site_type_symbol
 _atom_site_label
 _atom_site_symmetry_multiplicity
 _atom_site_fract_x
 _atom_site_fract_y
 _atom_site_fract_z
 _atom_site_occupancy
  Li  Li0  1  0.76794100  0.37500000  0.89294100  1
  Li  Li1  1  0.13063100  0.86936900  0.00000000  1
  Li  Li2  1  0.38063100  0.88063100  0.76126300  1
  Li  Li3  1  0.12500000  0.51794100  0.89294100  1
  Li  Li4  1  0.62500000  0.23205900  0.10705900  1
  Li  Li5  1  0.86936900  0.13063100  0.00000000  1
  Li  Li6  1  0.11936900  0.61936900  0.23873700  1
  Li  Li7  1  0.48205900  0.87500000  0.10705900  1
  Li  Li8  1  0.76794100  0.87500000  0.39294100  1
  Li  Li9  1  0.13063100  0.13063100  0.26126300  1
  Li  Li10  1  0.38063100  0.61936900  0.50000000  1
  Li  Li11  1  0.62500000  0.51794100  0.39294100  1
  Li  Li12  1  0.12500000  0.23205900  0.60705900  1
  Li  Li13  1  0.86936900  0.86936900  0.73873700  1
  Li  Li14  1  0.11936900  0.88063100  0.50000000  1
  Li  Li15  1  0.48205900  0.37500000  0.60705900  1
  Mn  Mn16  1  0.51454500  0.65030100  0.86424500  1
  Mn  Mn17  1  0.46394400  0.09969900  0.36424500  1
  Mn  Mn18  1  0.34969900  0.48545500  0.13575500  1
  Mn  Mn19  1  0.90030100  0.53605600  0.63575500  1
  Mn  Mn20  1  0.34969900  0.21394400  0.86424500  1
  Mn  Mn21  1  0.90030100  0.26454500  0.36424500  1
  Mn  Mn22  1  0.78605600  0.65030100  0.13575500  1
  Mn  Mn23  1  0.73545500  0.09969900  0.63575500  1
  F  F24  1  0.51744400  0.14521700  0.88434200  1
  F  F25  1  0.98912500  0.60478300  0.87222700  1
  F  F26  1  0.85478300  0.48255600  0.11565800  1
  F  F27  1  0.88310200  0.26744400  0.87222700  1
  F  F28  1  0.39521700  0.01087500  0.12777300  1
  F  F29  1  0.36689800  0.73912500  0.88434200  1
  F  F30  1  0.75477300  0.88797500  0.86679800  1
  F  F31  1  0.22882300  0.86202500  0.36679800  1
  F  F32  1  0.73255600  0.11689800  0.12777300  1
  F  F33  1  0.26087500  0.63310200  0.11565800  1
  F  F34  1  0.74396200  0.36273500  0.38122700  1
  F  F35  1  0.26849200  0.38726500  0.88122700  1
  F  F36  1  0.11202500  0.97882300  0.86679800  1
  F  F37  1  0.61273500  0.49396200  0.88122700  1
  F  F38  1  0.61273500  0.73150800  0.11877300  1
  F  F39  1  0.63726500  0.25603800  0.61877300  1
  F  F40  1  0.11202500  0.24522700  0.13320200  1
  F  F41  1  0.63726500  0.01849200  0.38122700  1
  F  F42  1  0.13797500  0.77117700  0.63320200  1
  F  F43  1  0.13797500  0.50477300  0.36679800  1
  F  F44  1  0.50603800  0.38726500  0.11877300  1
  F  F45  1  0.98150800  0.36273500  0.61877300  1
  F  F46  1  0.51744400  0.63310200  0.37222700  1
  F  F47  1  0.98912500  0.11689800  0.38434200  1
  F  F48  1  0.02117700  0.88797500  0.13320200  1
  F  F49  1  0.49522700  0.86202500  0.63320200  1
  F  F50  1  0.85478300  0.73912500  0.37222700  1
  F  F51  1  0.88310200  0.01087500  0.61565800  1
  F  F52  1  0.36689800  0.48255600  0.62777300  1
  F  F53  1  0.39521700  0.26744400  0.38434200  1
  F  F54  1  0.26087500  0.14521700  0.62777300  1
  F  F55  1  0.73255600  0.60478300  0.61565800  1
