# generated using pymatgen
data_LiNiPO4
_symmetry_space_group_name_H-M   'P 1'
_cell_length_a   5.06015300
_cell_length_b   13.29775000
_cell_length_c   17.57513737
_cell_angle_alpha   89.73123093
_cell_angle_beta   90.00000000
_cell_angle_gamma   90.00000000
_symmetry_Int_Tables_number   1
_chemical_formula_structural   LiNiPO4
_chemical_formula_sum   'Li16 Ni16 P16 O64'
_cell_volume   1182.59424778
_cell_formula_units_Z   16
loop_
 _symmetry_equiv_pos_site_id
 _symmetry_equiv_pos_as_xyz
  1  'x, y, z'
loop_
 _atom_site_type_symbol
 _atom_site_label
 _atom_site_symmetry_multiplicity
 _atom_site_fract_x
 _atom_site_fract_y
 _atom_site_fract_z
 _atom_site_occupancy
  Li  Li0  1  0.76622300  0.13023000  0.06135100  1
  Li  Li1  1  0.22829700  0.16204600  0.28161800  1
  Li  Li2  1  0.82368000  0.26047800  0.36710400  1
  Li  Li3  1  0.74814000  0.26175000  0.87509700  1
  Li  Li4  1  0.24814000  0.23825000  0.62490300  1
  Li  Li5  1  0.32368000  0.23952200  0.13289600  1
  Li  Li6  1  0.72829700  0.33795400  0.21838200  1
  Li  Li7  1  0.26622300  0.36977000  0.43864900  1
  Li  Li8  1  0.73377700  0.63023000  0.56135100  1
  Li  Li9  1  0.27170300  0.66204600  0.78161800  1
  Li  Li10  1  0.67632000  0.76047800  0.86710400  1
  Li  Li11  1  0.75186000  0.76175000  0.37509700  1
  Li  Li12  1  0.25186000  0.73825000  0.12490300  1
  Li  Li13  1  0.17632000  0.73952200  0.63289600  1
  Li  Li14  1  0.77170300  0.83795400  0.71838200  1
  Li  Li15  1  0.23377700  0.86977000  0.93864900  1
  Ni  Ni16  1  0.75145200  0.00359100  0.87446100  1
  Ni  Ni17  1  0.23907200  0.00870300  0.62293100  1
  Ni  Ni18  1  0.25645000  0.10850800  0.80860300  1
  Ni  Ni19  1  0.70058200  0.10961500  0.54407900  1
  Ni  Ni20  1  0.20058200  0.39038500  0.95592100  1
  Ni  Ni21  1  0.75645000  0.39149200  0.69139700  1
  Ni  Ni22  1  0.73907200  0.49129700  0.87706900  1
  Ni  Ni23  1  0.25145200  0.49640900  0.62553900  1
  Ni  Ni24  1  0.74854800  0.50359100  0.37446100  1
  Ni  Ni25  1  0.26092800  0.50870300  0.12293100  1
  Ni  Ni26  1  0.24355000  0.60850800  0.30860300  1
  Ni  Ni27  1  0.79941800  0.60961500  0.04407900  1
  Ni  Ni28  1  0.29941800  0.89038500  0.45592100  1
  Ni  Ni29  1  0.74355000  0.89149200  0.19139700  1
  Ni  Ni30  1  0.76092800  0.99129700  0.37706900  1
  Ni  Ni31  1  0.24854800  0.99640900  0.12553900  1
  P  P32  1  0.76444600  0.11572500  0.21727400  1
  P  P33  1  0.22249400  0.12348500  0.46093600  1
  P  P34  1  0.30554300  0.13325200  0.96293200  1
  P  P35  1  0.73955600  0.13408800  0.70853900  1
  P  P36  1  0.23955600  0.36591200  0.79146100  1
  P  P37  1  0.80554300  0.36674800  0.53706800  1
  P  P38  1  0.72249400  0.37651500  0.03906400  1
  P  P39  1  0.26444600  0.38427500  0.28272600  1
  P  P40  1  0.73555400  0.61572500  0.71727400  1
  P  P41  1  0.27750600  0.62348500  0.96093600  1
  P  P42  1  0.19445700  0.63325200  0.46293200  1
  P  P43  1  0.76044400  0.63408800  0.20853900  1
  P  P44  1  0.26044400  0.86591200  0.29146100  1
  P  P45  1  0.69445700  0.86674800  0.03706800  1
  P  P46  1  0.77750600  0.87651500  0.53906400  1
  P  P47  1  0.23555400  0.88427500  0.78272600  1
  O  O48  1  0.60179200  0.02855300  0.18268200  1
  O  O49  1  0.40292000  0.04317200  0.42374500  1
  O  O50  1  0.09466000  0.06507800  0.92497100  1
  O  O51  1  0.93495700  0.08283100  0.45736500  1
  O  O52  1  0.38938200  0.09188800  0.04203000  1
  O  O53  1  0.85771700  0.09821300  0.30032200  1
  O  O54  1  0.86935200  0.08737800  0.78071900  1
  O  O55  1  0.44833800  0.09711400  0.70014300  1
  O  O56  1  0.90931000  0.09961400  0.63969200  1
  O  O57  1  0.01863800  0.12823500  0.16709600  1
  O  O58  1  0.30166900  0.12901900  0.54769000  1
  O  O59  1  0.55077700  0.13332000  0.90688800  1
  O  O60  1  0.57293300  0.20561800  0.21712400  1
  O  O61  1  0.24201800  0.22528000  0.42309500  1
  O  O62  1  0.20719300  0.24068200  0.97146300  1
  O  O63  1  0.73307900  0.24750500  0.71098900  1
  O  O64  1  0.23307900  0.25249500  0.78901100  1
  O  O65  1  0.70719300  0.25931800  0.52853700  1
  O  O66  1  0.74201800  0.27472000  0.07690500  1
  O  O67  1  0.07293300  0.29438200  0.28287600  1
  O  O68  1  0.05077700  0.36668000  0.59311200  1
  O  O69  1  0.80166900  0.37098100  0.95231000  1
  O  O70  1  0.51863800  0.37176500  0.33290400  1
  O  O71  1  0.40931000  0.40038600  0.86030800  1
  O  O72  1  0.94833800  0.40288600  0.79985700  1
  O  O73  1  0.35771700  0.40178700  0.19967800  1
  O  O74  1  0.36935200  0.41262200  0.71928100  1
  O  O75  1  0.88938200  0.40811200  0.45797000  1
  O  O76  1  0.43495700  0.41716900  0.04263500  1
  O  O77  1  0.59466000  0.43492200  0.57502900  1
  O  O78  1  0.90292000  0.45682800  0.07625500  1
  O  O79  1  0.10179200  0.47144700  0.31731800  1
  O  O80  1  0.89820800  0.52855300  0.68268200  1
  O  O81  1  0.09708000  0.54317200  0.92374500  1
  O  O82  1  0.40534000  0.56507800  0.42497100  1
  O  O83  1  0.56504300  0.58283100  0.95736500  1
  O  O84  1  0.11061800  0.59188800  0.54203000  1
  O  O85  1  0.63064800  0.58737800  0.28071900  1
  O  O86  1  0.64228300  0.59821300  0.80032200  1
  O  O87  1  0.05166200  0.59711400  0.20014300  1
  O  O88  1  0.59069000  0.59961400  0.13969200  1
  O  O89  1  0.48136200  0.62823500  0.66709600  1
  O  O90  1  0.19833100  0.62901900  0.04769000  1
  O  O91  1  0.94922300  0.63332000  0.40688800  1
  O  O92  1  0.92706700  0.70561800  0.71712400  1
  O  O93  1  0.25798200  0.72528000  0.92309500  1
  O  O94  1  0.29280700  0.74068200  0.47146300  1
  O  O95  1  0.76692100  0.74750500  0.21098900  1
  O  O96  1  0.26692100  0.75249500  0.28901100  1
  O  O97  1  0.79280700  0.75931800  0.02853700  1
  O  O98  1  0.75798200  0.77472000  0.57690500  1
  O  O99  1  0.42706700  0.79438200  0.78287600  1
  O  O100  1  0.44922300  0.86668000  0.09311200  1
  O  O101  1  0.69833100  0.87098100  0.45231000  1
  O  O102  1  0.98136200  0.87176500  0.83290400  1
  O  O103  1  0.09069000  0.90038600  0.36030800  1
  O  O104  1  0.55166200  0.90288600  0.29985700  1
  O  O105  1  0.13064800  0.91262200  0.21928100  1
  O  O106  1  0.14228300  0.90178700  0.69967800  1
  O  O107  1  0.61061800  0.90811200  0.95797000  1
  O  O108  1  0.06504300  0.91716900  0.54263500  1
  O  O109  1  0.90534000  0.93492200  0.07502900  1
  O  O110  1  0.59708000  0.95682800  0.57625500  1
  O  O111  1  0.39820800  0.97144700  0.81731800  1
