# generated using pymatgen
data_Li4Ti3Mn3(FeO8)2
_symmetry_space_group_name_H-M   'P 1'
_cell_length_a   5.88702800
_cell_length_b   5.93935415
_cell_length_c   9.59183375
_cell_angle_alpha   90.43019195
_cell_angle_beta   90.10129683
_cell_angle_gamma   119.08997511
_symmetry_Int_Tables_number   1
_chemical_formula_structural   Li4Ti3Mn3(FeO8)2
_chemical_formula_sum   'Li4 Ti3 Mn3 Fe2 O16'
_cell_volume   293.06023662
_cell_formula_units_Z   1
loop_
 _symmetry_equiv_pos_site_id
 _symmetry_equiv_pos_as_xyz
  1  'x, y, z'
loop_
 _atom_site_type_symbol
 _atom_site_label
 _atom_site_symmetry_multiplicity
 _atom_site_fract_x
 _atom_site_fract_y
 _atom_site_fract_z
 _atom_site_occupancy
  Li  Li0  1  0.32647700  0.66772000  0.89025100  1
  Li  Li1  1  0.00196600  0.00238100  0.99544700  1
  Li  Li2  1  0.00585600  0.99497000  0.49671900  1
  Li  Li3  1  0.66731100  0.32888900  0.39528600  1
  Ti  Ti4  1  0.16871500  0.33986400  0.21632800  1
  Ti  Ti5  1  0.65925700  0.83257200  0.21566900  1
  Ti  Ti6  1  0.83190400  0.17190000  0.71406600  1
  Mn  Mn7  1  0.16697300  0.82913900  0.21215100  1
  Mn  Mn8  1  0.34100300  0.16894500  0.71379200  1
  Mn  Mn9  1  0.82707100  0.66006400  0.71559600  1
  Fe  Fe10  1  0.33583600  0.66929100  0.49259900  1
  Fe  Fe11  1  0.65797500  0.33830700  0.98966900  1
  O  O12  1  0.16462400  0.32330200  0.60203200  1
  O  O13  1  0.48776300  0.51952400  0.33178500  1
  O  O14  1  0.32779700  0.66864800  0.10606000  1
  O  O15  1  0.00484200  0.99696200  0.30877000  1
  O  O16  1  0.01667600  0.02018000  0.81027300  1
  O  O17  1  0.67974600  0.83481000  0.60353200  1
  O  O18  1  0.04081100  0.50216800  0.34558700  1
  O  O19  1  0.49318000  0.95837800  0.34104600  1
  O  O20  1  0.83203500  0.16498100  0.10458200  1
  O  O21  1  0.17949200  0.84921800  0.60155100  1
  O  O22  1  0.52088900  0.03924900  0.83583700  1
  O  O23  1  0.95610100  0.48122000  0.83508200  1
  O  O24  1  0.65461600  0.30981300  0.60301200  1
  O  O25  1  0.32678900  0.18348000  0.09835800  1
  O  O26  1  0.50094500  0.46710100  0.83672200  1
  O  O27  1  0.82304900  0.67662000  0.09603700  1
