# generated using pymatgen
data_Li2Sn(H5O4)2
_symmetry_space_group_name_H-M   'P 1'
_cell_length_a   7.07090400
_cell_length_b   5.06337600
_cell_length_c   10.65059035
_cell_angle_alpha   70.80389595
_cell_angle_beta   90.00000000
_cell_angle_gamma   90.00000000
_symmetry_Int_Tables_number   1
_chemical_formula_structural   Li2Sn(H5O4)2
_chemical_formula_sum   'Li4 Sn2 H20 O16'
_cell_volume   360.11747383
_cell_formula_units_Z   2
loop_
 _symmetry_equiv_pos_site_id
 _symmetry_equiv_pos_as_xyz
  1  'x, y, z'
loop_
 _atom_site_type_symbol
 _atom_site_label
 _atom_site_symmetry_multiplicity
 _atom_site_fract_x
 _atom_site_fract_y
 _atom_site_fract_z
 _atom_site_occupancy
  Li  Li0  1  0.77449500  0.37923500  0.67735100  1
  Li  Li1  1  0.72550500  0.37923500  0.17735100  1
  Li  Li2  1  0.22550500  0.62076500  0.32264900  1
  Li  Li3  1  0.27449500  0.62076500  0.82264900  1
  Sn  Sn4  1  0.50000000  0.00000000  0.50000000  1
  Sn  Sn5  1  0.00000000  0.00000000  0.00000000  1
  H  H6  1  0.82630600  0.89976800  0.60247200  1
  H  H7  1  0.67369400  0.89976800  0.10247200  1
  H  H8  1  0.17369400  0.10023200  0.39752800  1
  H  H9  1  0.32630600  0.10023200  0.89752800  1
  H  H10  1  0.44879000  0.34319200  0.63775100  1
  H  H11  1  0.05121000  0.34319200  0.13775100  1
  H  H12  1  0.55121000  0.65680800  0.36224900  1
  H  H13  1  0.94879000  0.65680800  0.86224900  1
  H  H14  1  0.21727800  0.67183200  0.58533900  1
  H  H15  1  0.28272200  0.67183200  0.08533900  1
  H  H16  1  0.78272200  0.32816800  0.41466100  1
  H  H17  1  0.71727800  0.32816800  0.91466100  1
  H  H18  1  0.02467100  0.05448200  0.70645800  1
  H  H19  1  0.47532900  0.05448200  0.20645800  1
  H  H20  1  0.97532900  0.94551800  0.29354200  1
  H  H21  1  0.52467100  0.94551800  0.79354200  1
  H  H22  1  0.09458400  0.22223200  0.55409900  1
  H  H23  1  0.40541600  0.22223200  0.05409900  1
  H  H24  1  0.90541600  0.77776800  0.44590100  1
  H  H25  1  0.59458400  0.77776800  0.94590100  1
  O  O26  1  0.74796700  0.77319700  0.57084100  1
  O  O27  1  0.75203300  0.77319700  0.07084100  1
  O  O28  1  0.25203300  0.22680300  0.42915900  1
  O  O29  1  0.24796700  0.22680300  0.92915900  1
  O  O30  1  0.53900500  0.18679100  0.64670200  1
  O  O31  1  0.96099500  0.18679100  0.14670200  1
  O  O32  1  0.46099500  0.81320900  0.35329800  1
  O  O33  1  0.03900500  0.81320900  0.85329800  1
  O  O34  1  0.33566400  0.67711300  0.63243400  1
  O  O35  1  0.16433600  0.67711300  0.13243400  1
  O  O36  1  0.66433600  0.32288700  0.36756600  1
  O  O37  1  0.83566400  0.32288700  0.86756600  1
  O  O38  1  0.98865700  0.20172500  0.61936200  1
  O  O39  1  0.51134300  0.20172500  0.11936200  1
  O  O40  1  0.01134300  0.79827500  0.38063800  1
  O  O41  1  0.48865700  0.79827500  0.88063800  1
