# generated using pymatgen
data_Li5CuP3O11
_symmetry_space_group_name_H-M   'P 1'
_cell_length_a   5.39043700
_cell_length_b   8.26558540
_cell_length_c   9.59864665
_cell_angle_alpha   96.24415570
_cell_angle_beta   90.69791856
_cell_angle_gamma   95.07948818
_symmetry_Int_Tables_number   1
_chemical_formula_structural   Li5CuP3O11
_chemical_formula_sum   'Li10 Cu2 P6 O22'
_cell_volume   423.35934608
_cell_formula_units_Z   2
loop_
 _symmetry_equiv_pos_site_id
 _symmetry_equiv_pos_as_xyz
  1  'x, y, z'
loop_
 _atom_site_type_symbol
 _atom_site_label
 _atom_site_symmetry_multiplicity
 _atom_site_fract_x
 _atom_site_fract_y
 _atom_site_fract_z
 _atom_site_occupancy
  Li  Li0  1  0.23614500  0.66901000  0.33646500  1
  Li  Li1  1  0.26263200  0.35088600  0.82373500  1
  Li  Li2  1  0.30504400  0.61827100  0.68836300  1
  Li  Li3  1  0.18948800  0.37319400  0.14972500  1
  Li  Li4  1  0.49975100  0.00495900  0.84866200  1
  Li  Li5  1  0.50024900  0.99504100  0.15133800  1
  Li  Li6  1  0.81051200  0.62680600  0.85027500  1
  Li  Li7  1  0.69495600  0.38172900  0.31163700  1
  Li  Li8  1  0.73736800  0.64911400  0.17626500  1
  Li  Li9  1  0.76385500  0.33099000  0.66353500  1
  Cu  Cu10  1  0.00000000  0.00000000  0.00000000  1
  Cu  Cu11  1  0.50000000  0.00000000  0.50000000  1
  P  P12  1  0.03452200  0.03409700  0.30464100  1
  P  P13  1  0.24810300  0.69677400  0.01272500  1
  P  P14  1  0.26522500  0.32277000  0.47514000  1
  P  P15  1  0.73477500  0.67723000  0.52486000  1
  P  P16  1  0.75189700  0.30322600  0.98727500  1
  P  P17  1  0.96547800  0.96590300  0.69535900  1
  O  O18  1  0.00091000  0.77247200  0.06661400  1
  O  O19  1  0.03658900  0.18452700  0.42881800  1
  O  O20  1  0.11672700  0.12015200  0.17468900  1
  O  O21  1  0.17807000  0.58181700  0.87615700  1
  O  O22  1  0.18004900  0.39944800  0.61548900  1
  O  O23  1  0.23105200  0.04284800  0.70535700  1
  O  O24  1  0.24273600  0.92814100  0.34185300  1
  O  O25  1  0.29696000  0.43295900  0.35731900  1
  O  O26  1  0.35327500  0.60617600  0.13075700  1
  O  O27  1  0.43613600  0.83824900  0.98012800  1
  O  O28  1  0.49072400  0.76423200  0.51821800  1
  O  O29  1  0.50927600  0.23576800  0.48178200  1
  O  O30  1  0.56386400  0.16175100  0.01987200  1
  O  O31  1  0.64672500  0.39382400  0.86924300  1
  O  O32  1  0.70304000  0.56704100  0.64268100  1
  O  O33  1  0.75726400  0.07185900  0.65814700  1
  O  O34  1  0.76894800  0.95715200  0.29464300  1
  O  O35  1  0.81995100  0.60055200  0.38451100  1
  O  O36  1  0.82193000  0.41818300  0.12384300  1
  O  O37  1  0.88327300  0.87984800  0.82531100  1
  O  O38  1  0.96341100  0.81547300  0.57118200  1
  O  O39  1  0.99909000  0.22752800  0.93338600  1
