# generated using pymatgen
data_Li3Mn4(BO3)4
_symmetry_space_group_name_H-M   'P 1'
_cell_length_a   9.09877900
_cell_length_b   9.12448579
_cell_length_c   11.60714173
_cell_angle_alpha   66.95304665
_cell_angle_beta   68.42102164
_cell_angle_gamma   60.29080125
_symmetry_Int_Tables_number   1
_chemical_formula_structural   Li3Mn4(BO3)4
_chemical_formula_sum   'Li9 Mn12 B12 O36'
_cell_volume   751.74846160
_cell_formula_units_Z   3
loop_
 _symmetry_equiv_pos_site_id
 _symmetry_equiv_pos_as_xyz
  1  'x, y, z'
loop_
 _atom_site_type_symbol
 _atom_site_label
 _atom_site_symmetry_multiplicity
 _atom_site_fract_x
 _atom_site_fract_y
 _atom_site_fract_z
 _atom_site_occupancy
  Li  Li0  1  0.22735100  0.03009100  0.66152600  1
  Li  Li1  1  0.38892000  0.25322400  0.15636600  1
  Li  Li2  1  0.03650900  0.90332700  0.17110100  1
  Li  Li3  1  0.26083100  0.41571900  0.91419300  1
  Li  Li4  1  0.43257800  0.57623000  0.40866200  1
  Li  Li5  1  0.55233900  0.38832700  0.67750100  1
  Li  Li6  1  0.72403200  0.56575800  0.16039000  1
  Li  Li7  1  0.74485300  0.92265000  0.40732400  1
  Li  Li8  1  0.86901300  0.71137400  0.67183800  1
  Mn  Mn9  1  0.07455000  0.23385100  0.13216700  1
  Mn  Mn10  1  0.26087800  0.07068400  0.88561100  1
  Mn  Mn11  1  0.09963000  0.58861600  0.38372300  1
  Mn  Mn12  1  0.55754000  0.09474700  0.62897900  1
  Mn  Mn13  1  0.39472100  0.58702500  0.12695300  1
  Mn  Mn14  1  0.79057300  0.26246900  0.38365300  1
  Mn  Mn15  1  0.22192200  0.72064500  0.63026500  1
  Mn  Mn16  1  0.62147400  0.44570200  0.88142200  1
  Mn  Mn17  1  0.39844000  0.94826900  0.38280600  1
  Mn  Mn18  1  0.90886600  0.38290300  0.62798300  1
  Mn  Mn19  1  0.70823000  0.91236200  0.13055700  1
  Mn  Mn20  1  0.91555600  0.76339900  0.88208000  1
  B  B21  1  0.06560900  0.57958100  0.12606800  1
  B  B22  1  0.44679500  0.27222800  0.37302700  1
  B  B23  1  0.24422000  0.39020500  0.62127900  1
  B  B24  1  0.73918300  0.23854900  0.12686300  1
  B  B25  1  0.58665400  0.10735800  0.87668100  1
  B  B26  1  0.09682600  0.92497100  0.37472400  1
  B  B27  1  0.90540900  0.05831800  0.63093500  1
  B  B28  1  0.39684900  0.90630800  0.12735400  1
  B  B29  1  0.26366900  0.74169500  0.86794900  1
  B  B30  1  0.75126200  0.62037400  0.37106700  1
  B  B31  1  0.56565300  0.73973000  0.62996700  1
  B  B32  1  0.94411600  0.41498700  0.87284500  1
  O  O33  1  0.05149300  0.10363700  0.33762300  1
  O  O34  1  0.01090900  0.13000900  0.61915800  1
  O  O35  1  0.16747500  0.41471700  0.10671100  1
  O  O36  1  0.39103300  0.18781900  0.33742400  1
  O  O37  1  0.12296200  0.65573400  0.17369200  1
  O  O38  1  0.29934300  0.20791100  0.65360100  1
  O  O39  1  0.59047900  0.34963200  0.07301600  1
  O  O40  1  0.08044300  0.49753700  0.59438700  1
  O  O41  1  0.80905000  0.06340600  0.14069700  1
  O  O42  1  0.58757100  0.17668200  0.43743900  1
  O  O43  1  0.09883600  0.31910400  0.91537200  1
  O  O44  1  0.37584900  0.45434100  0.34046700  1
  O  O45  1  0.52705600  0.04391400  0.81685600  1
  O  O46  1  0.99795000  0.85699300  0.36485700  1
  O  O47  1  0.35343900  0.46024000  0.61226400  1
  O  O48  1  0.80303000  0.31581400  0.16871800  1
  O  O49  1  0.23693600  0.98621500  0.09194000  1
  O  O50  1  0.74137700  0.17306800  0.59875600  1
  O  O51  1  0.50212500  0.73634900  0.13079300  1
  O  O52  1  0.51979000  0.28168600  0.86612800  1
  O  O53  1  0.25013400  0.81318500  0.41986500  1
  O  O54  1  0.71587700  0.98149300  0.94454900  1
  O  O55  1  0.19200600  0.66253200  0.83519100  1
  O  O56  1  0.67858700  0.53026800  0.35549500  1
  O  O57  1  0.44450100  0.00872500  0.15953600  1
  O  O58  1  0.62953100  0.55603800  0.69008000  1
  O  O59  1  0.90146500  0.67487900  0.09438900  1
  O  O60  1  0.41259400  0.81898500  0.58673800  1
  O  O61  1  0.19950700  0.91705700  0.84388200  1
  O  O62  1  0.88130700  0.53913600  0.43629000  1
  O  O63  1  0.40404800  0.63458900  0.92777900  1
  O  O64  1  0.68591600  0.80578300  0.32102500  1
  O  O65  1  0.87501500  0.32780600  0.84335100  1
  O  O66  1  0.65561700  0.83418100  0.61074800  1
  O  O67  1  0.85483800  0.59076800  0.85748900  1
  O  O68  1  0.94916500  0.87953300  0.67081300  1
