# generated using pymatgen
data_Li3V4(OF3)3
_symmetry_space_group_name_H-M   'P 1'
_cell_length_a   5.23505238
_cell_length_b   5.51482154
_cell_length_c   8.93586898
_cell_angle_alpha   74.81489501
_cell_angle_beta   89.62368171
_cell_angle_gamma   62.45816466
_symmetry_Int_Tables_number   1
_chemical_formula_structural   Li3V4(OF3)3
_chemical_formula_sum   'Li3 V4 O3 F9'
_cell_volume   218.77202244
_cell_formula_units_Z   1
loop_
 _symmetry_equiv_pos_site_id
 _symmetry_equiv_pos_as_xyz
  1  'x, y, z'
loop_
 _atom_site_type_symbol
 _atom_site_label
 _atom_site_symmetry_multiplicity
 _atom_site_fract_x
 _atom_site_fract_y
 _atom_site_fract_z
 _atom_site_occupancy
  Li  Li0  1  0.08588898  0.86855160  0.34841312  1
  Li  Li1  1  0.80146532  0.38080570  0.59654126  1
  Li  Li2  1  0.58653388  0.84713820  0.85791869  1
  V  V3  1  0.99283010  0.02710825  0.00688604  1
  V  V4  1  0.26639752  0.51985758  0.74666624  1
  V  V5  1  0.49985985  0.97081046  0.49750190  1
  V  V6  1  0.74495232  0.50451790  0.24646558  1
  O  O7  1  0.45783794  0.73769951  0.69243201  1
  O  O8  1  0.50686891  0.73425240  0.37943859  1
  O  O9  1  0.95301768  0.25800921  0.12753995  1
  F  F10  1  0.05306693  0.22812790  0.44488885  1
  F  F11  1  0.06012876  0.26468805  0.80181250  1
  F  F12  1  0.99240617  0.76466788  0.87166641  1
  F  F13  1  0.52151185  0.22852015  0.63406036  1
  F  F14  1  0.56016430  0.21996894  0.93032191  1
  F  F15  1  0.56762488  0.24453847  0.32731352  1
  F  F16  1  0.42970473  0.77257460  0.04968127  1
  F  F17  1  0.95687458  0.72795060  0.55262082  1
  F  F18  1  0.95173729  0.74346860  0.19380197  1
