# generated using pymatgen
data_Li3MnV(PO4)3
_symmetry_space_group_name_H-M   'P 1'
_cell_length_a   8.65192489
_cell_length_b   8.65192489
_cell_length_c   6.33491501
_cell_angle_alpha   74.10233169
_cell_angle_beta   74.10233169
_cell_angle_gamma   95.19333876
_symmetry_Int_Tables_number   1
_chemical_formula_structural   Li3MnV(PO4)3
_chemical_formula_sum   'Li6 Mn2 V2 P6 O24'
_cell_volume   431.54205073
_cell_formula_units_Z   2
loop_
 _symmetry_equiv_pos_site_id
 _symmetry_equiv_pos_as_xyz
  1  'x, y, z'
loop_
 _atom_site_type_symbol
 _atom_site_label
 _atom_site_symmetry_multiplicity
 _atom_site_fract_x
 _atom_site_fract_y
 _atom_site_fract_z
 _atom_site_occupancy
  Li  Li0  1  0.99831000  0.00169000  0.50000000  1
  Li  Li1  1  0.71066800  0.28933200  0.00000000  1
  Li  Li2  1  0.50052500  0.50201800  0.24702000  1
  Li  Li3  1  0.49798200  0.49947500  0.75298000  1
  Li  Li4  1  0.28896100  0.71103900  0.50000000  1
  Li  Li5  1  0.00391500  0.99608500  0.00000000  1
  Mn  Mn6  1  0.62530500  0.94229300  0.88006100  1
  Mn  Mn7  1  0.05770700  0.37469500  0.11993900  1
  V  V8  1  0.94300600  0.62229200  0.39158600  1
  V  V9  1  0.37770800  0.05699400  0.60841400  1
  P  P10  1  0.71299700  0.28700300  0.50000000  1
  P  P11  1  0.86564500  0.66531600  0.88609700  1
  P  P12  1  0.66082700  0.86140900  0.38554600  1
  P  P13  1  0.33468400  0.13435500  0.11390300  1
  P  P14  1  0.13859100  0.33917300  0.61445400  1
  P  P15  1  0.28611300  0.71388700  0.00000000  1
  O  O16  1  0.98963800  0.65565600  0.66099900  1
  O  O17  1  0.94763600  0.60990900  0.07976400  1
  O  O18  1  0.73688600  0.17194800  0.72189100  1
  O  O19  1  0.82805200  0.26311400  0.27810900  1
  O  O20  1  0.84257400  0.84195700  0.36210600  1
  O  O21  1  0.73656800  0.46101800  0.52277400  1
  O  O22  1  0.85453200  0.85033000  0.84396400  1
  O  O23  1  0.70433500  0.54869600  0.95476500  1
  O  O24  1  0.59927100  0.95229300  0.57291300  1
  O  O25  1  0.66353700  0.98502400  0.15312000  1
  O  O26  1  0.53898200  0.26343200  0.47722600  1
  O  O27  1  0.54260900  0.70154500  0.45741400  1
  O  O28  1  0.45130400  0.29566500  0.04523500  1
  O  O29  1  0.46302200  0.73851900  0.01742400  1
  O  O30  1  0.34434400  0.01036200  0.33900100  1
  O  O31  1  0.39009100  0.05236400  0.92023600  1
  O  O32  1  0.29845500  0.45739100  0.54258600  1
  O  O33  1  0.15804300  0.15742600  0.63789400  1
  O  O34  1  0.26148100  0.53697800  0.98257600  1
  O  O35  1  0.14967000  0.14546800  0.15603600  1
  O  O36  1  0.17401800  0.74067400  0.21911900  1
  O  O37  1  0.25932600  0.82598200  0.78088100  1
  O  O38  1  0.04770700  0.40072900  0.42708700  1
  O  O39  1  0.01497600  0.33646300  0.84688000  1
