# generated using pymatgen
data_Li2FeF4
_symmetry_space_group_name_H-M   'P 1'
_cell_length_a   7.12972700
_cell_length_b   10.05541900
_cell_length_c   10.21522415
_cell_angle_alpha   62.18278409
_cell_angle_beta   90.00000000
_cell_angle_gamma   90.00000000
_symmetry_Int_Tables_number   1
_chemical_formula_structural   Li2FeF4
_chemical_formula_sum   'Li16 Fe8 F32'
_cell_volume   647.72363032
_cell_formula_units_Z   8
loop_
 _symmetry_equiv_pos_site_id
 _symmetry_equiv_pos_as_xyz
  1  'x, y, z'
loop_
 _atom_site_type_symbol
 _atom_site_label
 _atom_site_symmetry_multiplicity
 _atom_site_fract_x
 _atom_site_fract_y
 _atom_site_fract_z
 _atom_site_occupancy
  Li  Li0  1  0.99307300  0.92617600  0.65648100  1
  Li  Li1  1  0.62693200  0.56920400  0.87417200  1
  Li  Li2  1  0.58990700  0.92951300  0.64447200  1
  Li  Li3  1  0.02236000  0.57375600  0.84557700  1
  Li  Li4  1  0.50692700  0.42617600  0.65648100  1
  Li  Li5  1  0.87306800  0.06920400  0.87417200  1
  Li  Li6  1  0.91009300  0.42951300  0.64447200  1
  Li  Li7  1  0.47764000  0.07375600  0.84557700  1
  Li  Li8  1  0.52236000  0.92624400  0.15442300  1
  Li  Li9  1  0.08990700  0.57048700  0.35552800  1
  Li  Li10  1  0.12693200  0.93079600  0.12582800  1
  Li  Li11  1  0.49307300  0.57382400  0.34351900  1
  Li  Li12  1  0.97764000  0.42624400  0.15442300  1
  Li  Li13  1  0.41009300  0.07048700  0.35552800  1
  Li  Li14  1  0.37306800  0.43079600  0.12582800  1
  Li  Li15  1  0.00692700  0.07382400  0.34351900  1
  Fe  Fe16  1  0.28808900  0.76044300  0.97915700  1
  Fe  Fe17  1  0.21191100  0.26044300  0.97915700  1
  Fe  Fe18  1  0.21250700  0.74736800  0.51684700  1
  Fe  Fe19  1  0.71250700  0.75263200  0.48315300  1
  Fe  Fe20  1  0.28749300  0.24736800  0.51684700  1
  Fe  Fe21  1  0.78749300  0.25263200  0.48315300  1
  Fe  Fe22  1  0.78808900  0.73955700  0.02084300  1
  Fe  Fe23  1  0.71191100  0.23955700  0.02084300  1
  F  F24  1  0.03340200  0.88048800  0.96323300  1
  F  F25  1  0.16444300  0.56101500  0.01256300  1
  F  F26  1  0.40462900  0.91627200  0.79731800  1
  F  F27  1  0.77835300  0.75740600  0.81497500  1
  F  F28  1  0.46659800  0.38048800  0.96323300  1
  F  F29  1  0.33555700  0.06101500  0.01256300  1
  F  F30  1  0.13670900  0.74685700  0.70033900  1
  F  F31  1  0.09537100  0.41627200  0.79731800  1
  F  F32  1  0.83447500  0.92382000  0.50487000  1
  F  F33  1  0.72164700  0.25740600  0.81497500  1
  F  F34  1  0.65168800  0.57446800  0.68604700  1
  F  F35  1  0.46568000  0.85958600  0.50815600  1
  F  F36  1  0.96568000  0.64041400  0.49184400  1
  F  F37  1  0.36329100  0.24685700  0.70033900  1
  F  F38  1  0.15168800  0.92553200  0.31395300  1
  F  F39  1  0.33447500  0.57618000  0.49513000  1
  F  F40  1  0.66552500  0.42382000  0.50487000  1
  F  F41  1  0.84831200  0.07446800  0.68604700  1
  F  F42  1  0.63670900  0.75314300  0.29966100  1
  F  F43  1  0.03432000  0.35958600  0.50815600  1
  F  F44  1  0.53432000  0.14041400  0.49184400  1
  F  F45  1  0.34831200  0.42553200  0.31395300  1
  F  F46  1  0.27835300  0.74259400  0.18502500  1
  F  F47  1  0.16552500  0.07618000  0.49513000  1
  F  F48  1  0.90462900  0.58372800  0.20268200  1
  F  F49  1  0.86329100  0.25314300  0.29966100  1
  F  F50  1  0.66444300  0.93898500  0.98743700  1
  F  F51  1  0.53340200  0.61951200  0.03676700  1
  F  F52  1  0.22164700  0.24259400  0.18502500  1
  F  F53  1  0.59537100  0.08372800  0.20268200  1
  F  F54  1  0.83555700  0.43898500  0.98743700  1
  F  F55  1  0.96659800  0.11951200  0.03676700  1
