# generated using pymatgen
data_Li6Ag3F10
_symmetry_space_group_name_H-M   'P 1'
_cell_length_a   5.56233900
_cell_length_b   9.20392100
_cell_length_c   19.81348300
_cell_angle_alpha   90.00000000
_cell_angle_beta   90.00000000
_cell_angle_gamma   90.00000000
_symmetry_Int_Tables_number   1
_chemical_formula_structural   Li6Ag3F10
_chemical_formula_sum   'Li24 Ag12 F40'
_cell_volume   1014.35777550
_cell_formula_units_Z   4
loop_
 _symmetry_equiv_pos_site_id
 _symmetry_equiv_pos_as_xyz
  1  'x, y, z'
loop_
 _atom_site_type_symbol
 _atom_site_label
 _atom_site_symmetry_multiplicity
 _atom_site_fract_x
 _atom_site_fract_y
 _atom_site_fract_z
 _atom_site_occupancy
  Li  Li0  1  0.23613000  0.72354000  0.01749400  1
  Li  Li1  1  0.37663000  0.98713900  0.04472800  1
  Li  Li2  1  0.82753300  0.54460000  0.10536100  1
  Li  Li3  1  0.36801300  0.73030800  0.14707200  1
  Li  Li4  1  0.75544500  0.27313800  0.20230000  1
  Li  Li5  1  0.18748000  0.42028700  0.23407400  1
  Li  Li6  1  0.68748000  0.92028700  0.26592600  1
  Li  Li7  1  0.25544500  0.77313800  0.29770000  1
  Li  Li8  1  0.86801300  0.23030800  0.35292800  1
  Li  Li9  1  0.32753300  0.04460000  0.39463900  1
  Li  Li10  1  0.87663000  0.48713900  0.45527200  1
  Li  Li11  1  0.73613000  0.22354000  0.48250600  1
  Li  Li12  1  0.23613000  0.77646000  0.51749400  1
  Li  Li13  1  0.37663000  0.51286100  0.54472800  1
  Li  Li14  1  0.82753300  0.95540000  0.60536100  1
  Li  Li15  1  0.36801300  0.76969200  0.64707200  1
  Li  Li16  1  0.75544500  0.22686200  0.70230000  1
  Li  Li17  1  0.18748000  0.07971300  0.73407400  1
  Li  Li18  1  0.68748000  0.57971300  0.76592600  1
  Li  Li19  1  0.25544500  0.72686200  0.79770000  1
  Li  Li20  1  0.86801300  0.26969200  0.85292800  1
  Li  Li21  1  0.32753300  0.45540000  0.89463900  1
  Li  Li22  1  0.87663000  0.01286100  0.95527200  1
  Li  Li23  1  0.73613000  0.27646000  0.98250600  1
  Ag  Ag24  1  0.32094500  0.40067800  0.07959800  1
  Ag  Ag25  1  0.85513400  0.92457900  0.10337500  1
  Ag  Ag26  1  0.19932800  0.08266900  0.22586400  1
  Ag  Ag27  1  0.69932800  0.58266900  0.27413600  1
  Ag  Ag28  1  0.35513400  0.42457900  0.39662500  1
  Ag  Ag29  1  0.82094500  0.90067800  0.42040200  1
  Ag  Ag30  1  0.32094500  0.09932200  0.57959800  1
  Ag  Ag31  1  0.85513400  0.57542100  0.60337500  1
  Ag  Ag32  1  0.19932800  0.41733100  0.72586400  1
  Ag  Ag33  1  0.69932800  0.91733100  0.77413600  1
  Ag  Ag34  1  0.35513400  0.07542100  0.89662500  1
  Ag  Ag35  1  0.82094500  0.59932200  0.92040200  1
  F  F36  1  0.64083700  0.09233600  0.01508400  1
  F  F37  1  0.67321300  0.44728800  0.03089800  1
  F  F38  1  0.51737200  0.80098900  0.06603600  1
  F  F39  1  0.06776300  0.69340900  0.10116200  1
  F  F40  1  0.19957200  0.06570700  0.11535200  1
  F  F41  1  0.00608500  0.39077600  0.14807900  1
  F  F42  1  0.57041400  0.56673000  0.16810000  1
  F  F43  1  0.78993400  0.06604800  0.20381000  1
  F  F44  1  0.41088000  0.85127600  0.22014700  1
  F  F45  1  0.43026700  0.28309300  0.22671300  1
  F  F46  1  0.93026700  0.78309300  0.27328700  1
  F  F47  1  0.91088000  0.35127600  0.27985300  1
  F  F48  1  0.28993400  0.56604800  0.29619000  1
  F  F49  1  0.07041400  0.06673000  0.33190000  1
  F  F50  1  0.50608500  0.89077600  0.35192100  1
  F  F51  1  0.69957200  0.56570700  0.38464800  1
  F  F52  1  0.56776300  0.19340900  0.39883800  1
  F  F53  1  0.01737200  0.30098900  0.43396400  1
  F  F54  1  0.17321300  0.94728800  0.46910200  1
  F  F55  1  0.14083700  0.59233600  0.48491600  1
  F  F56  1  0.64083700  0.40766400  0.51508400  1
  F  F57  1  0.67321300  0.05271200  0.53089800  1
  F  F58  1  0.51737200  0.69901100  0.56603600  1
  F  F59  1  0.06776300  0.80659100  0.60116200  1
  F  F60  1  0.19957200  0.43429300  0.61535200  1
  F  F61  1  0.00608500  0.10922400  0.64807900  1
  F  F62  1  0.57041400  0.93327000  0.66810000  1
  F  F63  1  0.78993400  0.43395200  0.70381000  1
  F  F64  1  0.41088000  0.64872400  0.72014700  1
  F  F65  1  0.43026700  0.21690700  0.72671300  1
  F  F66  1  0.93026700  0.71690700  0.77328700  1
  F  F67  1  0.91088000  0.14872400  0.77985300  1
  F  F68  1  0.28993400  0.93395200  0.79619000  1
  F  F69  1  0.07041400  0.43327000  0.83190000  1
  F  F70  1  0.50608500  0.60922400  0.85192100  1
  F  F71  1  0.69957200  0.93429300  0.88464800  1
  F  F72  1  0.56776300  0.30659100  0.89883800  1
  F  F73  1  0.01737200  0.19901100  0.93396400  1
  F  F74  1  0.17321300  0.55271200  0.96910200  1
  F  F75  1  0.14083700  0.90766400  0.98491600  1
