# generated using pymatgen
data_Li2U(WO5)2
_symmetry_space_group_name_H-M   'P 1'
_cell_length_a   7.62906400
_cell_length_b   7.87309003
_cell_length_c   13.00271762
_cell_angle_alpha   89.94487334
_cell_angle_beta   89.78921716
_cell_angle_gamma   89.51502697
_symmetry_Int_Tables_number   1
_chemical_formula_structural   Li2U(WO5)2
_chemical_formula_sum   'Li8 U4 W8 O40'
_cell_volume   780.96563229
_cell_formula_units_Z   4
loop_
 _symmetry_equiv_pos_site_id
 _symmetry_equiv_pos_as_xyz
  1  'x, y, z'
loop_
 _atom_site_type_symbol
 _atom_site_label
 _atom_site_symmetry_multiplicity
 _atom_site_fract_x
 _atom_site_fract_y
 _atom_site_fract_z
 _atom_site_occupancy
  Li  Li0  1  0.28230500  0.97274700  0.50407300  1
  Li  Li1  1  0.97686700  0.83756000  0.50363400  1
  Li  Li2  1  0.50117200  0.68880000  0.99490300  1
  Li  Li3  1  0.74902300  0.50014700  0.98903700  1
  Li  Li4  1  0.25076300  0.49985500  0.01277100  1
  Li  Li5  1  0.99801100  0.31297500  0.99424000  1
  Li  Li6  1  0.98904900  0.17151700  0.49576200  1
  Li  Li7  1  0.53791900  0.15558600  0.50745100  1
  U  U8  1  0.74884300  0.00029000  0.01868700  1
  U  U9  1  0.25028400  0.00030800  0.98060900  1
  U  U10  1  0.74513400  0.50658400  0.51966800  1
  U  U11  1  0.24800200  0.49961400  0.48072900  1
  W  W12  1  0.50127000  0.97915700  0.74396600  1
  W  W13  1  0.00004900  0.97562200  0.25440500  1
  W  W14  1  0.49861900  0.52445000  0.24244800  1
  W  W15  1  0.99887400  0.52114800  0.75670400  1
  W  W16  1  0.50030600  0.47992300  0.75797300  1
  W  W17  1  0.99952400  0.47560700  0.24245900  1
  W  W18  1  0.49930100  0.02437100  0.25570700  1
  W  W19  1  0.00178500  0.02083700  0.74286300  1
  O  O20  1  0.74925100  0.99982000  0.21411800  1
  O  O21  1  0.75175800  0.99958200  0.73037500  1
  O  O22  1  0.24895500  0.99812200  0.25803300  1
  O  O23  1  0.25013500  0.99999500  0.78995900  1
  O  O24  1  0.97037300  0.99572100  0.39268800  1
  O  O25  1  0.53060600  0.99216800  0.90109000  1
  O  O26  1  0.02603600  0.00045100  0.09677500  1
  O  O27  1  0.44681500  0.01156200  0.61029900  1
  O  O28  1  0.99904500  0.75562600  0.75198300  1
  O  O29  1  0.50299900  0.75851700  0.25331500  1
  O  O30  1  0.73986900  0.76301200  0.02057400  1
  O  O31  1  0.26067500  0.76338200  0.97793400  1
  O  O32  1  0.99944500  0.74104700  0.24835600  1
  O  O33  1  0.49821300  0.74583200  0.74522900  1
  O  O34  1  0.22740800  0.73585400  0.47917400  1
  O  O35  1  0.75219400  0.73897100  0.52266800  1
  O  O36  1  0.52570000  0.50053900  0.40182300  1
  O  O37  1  0.94936600  0.48972000  0.89196300  1
  O  O38  1  0.02989900  0.50165300  0.59944500  1
  O  O39  1  0.45162300  0.52205100  0.10587500  1
  O  O40  1  0.74925900  0.50217800  0.71105200  1
  O  O41  1  0.74940000  0.50009900  0.23100500  1
  O  O42  1  0.24914200  0.49989000  0.77050700  1
  O  O43  1  0.24863300  0.50034900  0.28726300  1
  O  O44  1  0.54809200  0.51295500  0.89304400  1
  O  O45  1  0.04695400  0.48060800  0.10577300  1
  O  O46  1  0.46719100  0.49382500  0.59960400  1
  O  O47  1  0.96922600  0.49371700  0.40210800  1
  O  O48  1  0.75394300  0.26904600  0.52237800  1
  O  O49  1  0.00074900  0.25448300  0.74609500  1
  O  O50  1  0.49862300  0.25960400  0.24475000  1
  O  O51  1  0.24916700  0.26111600  0.48035000  1
  O  O52  1  0.75967200  0.23756000  0.02039500  1
  O  O53  1  0.23813200  0.23737000  0.97782600  1
  O  O54  1  0.99766300  0.24161700  0.25234000  1
  O  O55  1  0.50492600  0.24637500  0.75652700  1
  O  O56  1  0.96973600  0.00773200  0.90022000  1
  O  O57  1  0.05442600  0.00183800  0.60535300  1
  O  O58  1  0.47268200  0.99969100  0.09562800  1
  O  O59  1  0.52126900  0.01433100  0.39304400  1
