# generated using pymatgen
data_LiCr(PO3)4
_symmetry_space_group_name_H-M   'P 1'
_cell_length_a   8.68468200
_cell_length_b   6.86935900
_cell_length_c   7.29904403
_cell_angle_alpha   83.85455860
_cell_angle_beta   90.00000000
_cell_angle_gamma   90.00000000
_symmetry_Int_Tables_number   1
_chemical_formula_structural   LiCr(PO3)4
_chemical_formula_sum   'Li2 Cr2 P8 O24'
_cell_volume   432.94545238
_cell_formula_units_Z   2
loop_
 _symmetry_equiv_pos_site_id
 _symmetry_equiv_pos_as_xyz
  1  'x, y, z'
loop_
 _atom_site_type_symbol
 _atom_site_label
 _atom_site_symmetry_multiplicity
 _atom_site_fract_x
 _atom_site_fract_y
 _atom_site_fract_z
 _atom_site_occupancy
  Li  Li0  1  0.29776200  0.67337300  0.69351700  1
  Li  Li1  1  0.79776200  0.32662700  0.30648300  1
  Cr  Cr2  1  0.93113100  0.75828300  0.24039100  1
  Cr  Cr3  1  0.43113100  0.24171700  0.75960900  1
  P  P4  1  0.36691900  0.01929400  0.41072800  1
  P  P5  1  0.58316800  0.92054100  0.08893200  1
  P  P6  1  0.72966600  0.59128100  0.60211100  1
  P  P7  1  0.39471100  0.56234700  0.05736800  1
  P  P8  1  0.89471100  0.43765300  0.94263200  1
  P  P9  1  0.22966600  0.40871900  0.39788900  1
  P  P10  1  0.08316800  0.07945900  0.91106800  1
  P  P11  1  0.86691900  0.98070600  0.58927200  1
  O  O12  1  0.95841700  0.99767300  0.77761300  1
  O  O13  1  0.56020500  0.03067300  0.90212700  1
  O  O14  1  0.97559600  0.88976200  0.46098400  1
  O  O15  1  0.74152500  0.92297500  0.17325600  1
  O  O16  1  0.73556900  0.81540800  0.64951200  1
  O  O17  1  0.29293400  0.83034400  0.47258200  1
  O  O18  1  0.54816200  0.69135700  0.07908300  1
  O  O19  1  0.27374700  0.67881000  0.95300300  1
  O  O20  1  0.77802300  0.58466500  0.40166000  1
  O  O21  1  0.86480100  0.48958200  0.72532300  1
  O  O22  1  0.93789000  0.62913700  0.01163200  1
  O  O23  1  0.57648400  0.50459000  0.65731900  1
  O  O24  1  0.07648400  0.49541000  0.34268100  1
  O  O25  1  0.43789000  0.37086300  0.98836800  1
  O  O26  1  0.36480100  0.51041800  0.27467700  1
  O  O27  1  0.27802300  0.41533500  0.59834000  1
  O  O28  1  0.77374700  0.32119000  0.04699700  1
  O  O29  1  0.04816200  0.30864300  0.92091700  1
  O  O30  1  0.79293400  0.16965600  0.52741800  1
  O  O31  1  0.23556900  0.18459200  0.35048800  1
  O  O32  1  0.24152500  0.07702500  0.82674400  1
  O  O33  1  0.47559600  0.11023800  0.53901600  1
  O  O34  1  0.06020500  0.96932700  0.09787300  1
  O  O35  1  0.45841700  0.00232700  0.22238700  1
