# generated using pymatgen
data_Li2Fe2Si3O10
_symmetry_space_group_name_H-M   'P 1'
_cell_length_a   5.42851700
_cell_length_b   5.46281500
_cell_length_c   16.93056804
_cell_angle_alpha   93.90952973
_cell_angle_beta   90.82880671
_cell_angle_gamma   119.48513289
_symmetry_Int_Tables_number   1
_chemical_formula_structural   Li2Fe2Si3O10
_chemical_formula_sum   'Li4 Fe4 Si6 O20'
_cell_volume   435.36441059
_cell_formula_units_Z   2
loop_
 _symmetry_equiv_pos_site_id
 _symmetry_equiv_pos_as_xyz
  1  'x, y, z'
loop_
 _atom_site_type_symbol
 _atom_site_label
 _atom_site_symmetry_multiplicity
 _atom_site_fract_x
 _atom_site_fract_y
 _atom_site_fract_z
 _atom_site_occupancy
  Li  Li0  1  0.56788700  0.38480700  0.23288900  1
  Li  Li1  1  0.43218100  0.60787000  0.74953500  1
  Li  Li2  1  0.34646300  0.50787100  0.45151400  1
  Li  Li3  1  0.15634000  0.49533300  0.95227100  1
  Fe  Fe4  1  0.99290100  0.81745400  0.42136800  1
  Fe  Fe5  1  0.82160500  0.80967500  0.91917900  1
  Fe  Fe6  1  0.00092300  0.19931300  0.58691100  1
  Fe  Fe7  1  0.18628000  0.18385800  0.08898400  1
  Si  Si8  1  0.86311800  0.99646000  0.25151200  1
  Si  Si9  1  0.53395400  0.83879700  0.09855300  1
  Si  Si10  1  0.31588600  0.85334100  0.59699300  1
  Si  Si11  1  0.66602600  0.15430800  0.39840300  1
  Si  Si12  1  0.48198600  0.14799400  0.90194200  1
  Si  Si13  1  0.13558400  0.99923400  0.74997400  1
  O  O14  1  0.81047100  0.90757900  0.04453000  1
  O  O15  1  0.91045800  0.79746700  0.30881900  1
  O  O16  1  0.61199700  0.76656200  0.18567700  1
  O  O17  1  0.86091600  0.81510300  0.80193600  1
  O  O18  1  0.37043200  0.86660800  0.41297600  1
  O  O19  1  0.66374300  0.44420500  0.42801300  1
  O  O20  1  0.93938300  0.14918700  0.44169900  1
  O  O21  1  0.48424300  0.84832400  0.90677900  1
  O  O22  1  0.25884900  0.54848300  0.06190400  1
  O  O23  1  0.72478800  0.17197700  0.30078700  1
  O  O24  1  0.77532600  0.43729000  0.93209500  1
  O  O25  1  0.22667500  0.80175800  0.69207800  1
  O  O26  1  0.29546500  0.55856800  0.56240700  1
  O  O27  1  0.07778500  0.90142300  0.54897600  1
  O  O28  1  0.49077000  0.11384700  0.10758000  1
  O  O29  1  0.62856100  0.12011600  0.59276200  1
  O  O30  1  0.13405000  0.20510600  0.20305500  1
  O  O31  1  0.41989900  0.19209200  0.81031500  1
  O  O32  1  0.11389600  0.22690100  0.69861500  1
  O  O33  1  0.20659300  0.12457100  0.94939100  1
