# generated using pymatgen
data_Li2MnVP2(O4F)2
_symmetry_space_group_name_H-M   'P 1'
_cell_length_a   5.22968700
_cell_length_b   10.41699179
_cell_length_c   10.51744580
_cell_angle_alpha   78.63235367
_cell_angle_beta   83.05581143
_cell_angle_gamma   80.10877707
_symmetry_Int_Tables_number   1
_chemical_formula_structural   Li2MnVP2(O4F)2
_chemical_formula_sum   'Li6 Mn3 V3 P6 O24 F6'
_cell_volume   551.12350458
_cell_formula_units_Z   3
loop_
 _symmetry_equiv_pos_site_id
 _symmetry_equiv_pos_as_xyz
  1  'x, y, z'
loop_
 _atom_site_type_symbol
 _atom_site_label
 _atom_site_symmetry_multiplicity
 _atom_site_fract_x
 _atom_site_fract_y
 _atom_site_fract_z
 _atom_site_occupancy
  Li  Li0  1  0.99579000  0.91961900  0.73109200  1
  Li  Li1  1  0.66867400  0.41377600  0.60128500  1
  Li  Li2  1  0.33478100  0.74603600  0.93446100  1
  Li  Li3  1  0.66653100  0.25321900  0.06544900  1
  Li  Li4  1  0.33262700  0.58771200  0.39790800  1
  Li  Li5  1  0.00311500  0.07990200  0.26896300  1
  Mn  Mn6  1  0.50184100  0.99983600  0.49917400  1
  Mn  Mn7  1  0.66861000  0.33335500  0.33268600  1
  Mn  Mn8  1  0.16643500  0.33336100  0.83349800  1
  V  V9  1  0.99694000  0.99895100  0.00142300  1
  V  V10  1  0.83175300  0.66754000  0.16715000  1
  V  V11  1  0.33337600  0.66684700  0.66623300  1
  P  P12  1  0.81620200  0.62747700  0.86561200  1
  P  P13  1  0.85050900  0.70556200  0.46780700  1
  P  P14  1  0.48103000  0.96193500  0.20031000  1
  P  P15  1  0.51419000  0.03865600  0.80058600  1
  P  P16  1  0.14985600  0.29379300  0.53123300  1
  P  P17  1  0.18716900  0.37277400  0.13452600  1
  O  O18  1  0.74096700  0.97489400  0.88659600  1
  O  O19  1  0.97439500  0.67773400  0.33205600  1
  O  O20  1  0.88545300  0.47732600  0.86676900  1
  O  O21  1  0.78096800  0.85488200  0.46770800  1
  O  O22  1  0.92173400  0.35924200  0.44471300  1
  O  O23  1  0.94472900  0.29913700  0.18307600  1
  O  O24  1  0.59155700  0.69140400  0.77866800  1
  O  O25  1  0.61013100  0.63180500  0.51458200  1
  O  O26  1  0.69291300  0.65657800  0.00091100  1
  O  O27  1  0.54761500  0.81357900  0.20043700  1
  O  O28  1  0.63598900  0.00730200  0.66509700  1
  O  O29  1  0.27466800  0.96484400  0.84998600  1
  O  O30  1  0.72141100  0.03541800  0.15142000  1
  O  O31  1  0.36057400  0.99277800  0.33623000  1
  O  O32  1  0.44649400  0.18850900  0.79963900  1
  O  O33  1  0.30609300  0.33984600  0.99921300  1
  O  O34  1  0.39081500  0.36841200  0.48180500  1
  O  O35  1  0.41434800  0.30739800  0.22152100  1
  O  O36  1  0.05726800  0.70053100  0.81879400  1
  O  O37  1  0.07538300  0.64123200  0.55464700  1
  O  O38  1  0.21936800  0.14489400  0.53322400  1
  O  O39  1  0.11972000  0.52103100  0.13298100  1
  O  O40  1  0.02971500  0.32638500  0.66656700  1
  O  O41  1  0.25473100  0.02548300  0.11407000  1
  F  F42  1  0.92619300  0.19384000  0.94001300  1
  F  F43  1  0.74841200  0.13138900  0.39575900  1
  F  F44  1  0.59602100  0.54004500  0.26753400  1
  F  F45  1  0.40796700  0.47133800  0.72662200  1
  F  F46  1  0.25850600  0.86173500  0.60682900  1
  F  F47  1  0.06643700  0.80066500  0.06313500  1
