# generated using pymatgen
data_Li4Nb3Co3(SnO8)2
_symmetry_space_group_name_H-M   'P 1'
_cell_length_a   6.09637708
_cell_length_b   6.09637708
_cell_length_c   10.03239592
_cell_angle_alpha   89.55845195
_cell_angle_beta   89.55845195
_cell_angle_gamma   60.42454959
_symmetry_Int_Tables_number   1
_chemical_formula_structural   Li4Nb3Co3(SnO8)2
_chemical_formula_sum   'Li4 Nb3 Co3 Sn2 O16'
_cell_volume   324.26774240
_cell_formula_units_Z   1
loop_
 _symmetry_equiv_pos_site_id
 _symmetry_equiv_pos_as_xyz
  1  'x, y, z'
loop_
 _atom_site_type_symbol
 _atom_site_label
 _atom_site_symmetry_multiplicity
 _atom_site_fract_x
 _atom_site_fract_y
 _atom_site_fract_z
 _atom_site_occupancy
  Li  Li0  1  0.33197100  0.33197100  0.09444100  1
  Li  Li1  1  0.99997000  0.99997000  0.00280100  1
  Li  Li2  1  0.97852000  0.97852000  0.51486100  1
  Li  Li3  1  0.66460300  0.66460300  0.61481200  1
  Nb  Nb4  1  0.17399400  0.17399400  0.77918000  1
  Nb  Nb5  1  0.83843700  0.34654000  0.28735500  1
  Nb  Nb6  1  0.34654000  0.83843700  0.28735500  1
  Co  Co7  1  0.65565600  0.17354300  0.78868200  1
  Co  Co8  1  0.17354300  0.65565600  0.78868200  1
  Co  Co9  1  0.80922100  0.80922100  0.28875300  1
  Sn  Sn10  1  0.35180200  0.35180200  0.51730500  1
  Sn  Sn11  1  0.67740800  0.67740800  0.99405100  1
  O  O12  1  0.67903900  0.17138400  0.39845000  1
  O  O13  1  0.48540100  0.48540100  0.66249200  1
  O  O14  1  0.32177000  0.32177000  0.90065500  1
  O  O15  1  0.00610600  0.00610600  0.69540400  1
  O  O16  1  0.00656400  0.00656400  0.19472800  1
  O  O17  1  0.17138400  0.67903900  0.39845000  1
  O  O18  1  0.46920800  0.03561300  0.64952600  1
  O  O19  1  0.03561300  0.46920800  0.64952600  1
  O  O20  1  0.84569200  0.84569200  0.90372000  1
  O  O21  1  0.17388500  0.17388500  0.39354100  1
  O  O22  1  0.95938900  0.50360800  0.15172000  1
  O  O23  1  0.50360800  0.95938900  0.15172000  1
  O  O24  1  0.64709600  0.64709600  0.41049600  1
  O  O25  1  0.84647200  0.33298700  0.90076900  1
  O  O26  1  0.51748500  0.51748500  0.17194400  1
  O  O27  1  0.33298700  0.84647200  0.90076900  1
