# generated using pymatgen
data_Li3FeF6
_symmetry_space_group_name_H-M   'P 1'
_cell_length_a   6.04126360
_cell_length_b   6.04126360
_cell_length_c   6.04126391
_cell_angle_alpha   91.23840368
_cell_angle_beta   91.23840368
_cell_angle_gamma   91.23840054
_symmetry_Int_Tables_number   1
_chemical_formula_structural   Li3FeF6
_chemical_formula_sum   'Li6 Fe2 F12'
_cell_volume   220.33043221
_cell_formula_units_Z   2
loop_
 _symmetry_equiv_pos_site_id
 _symmetry_equiv_pos_as_xyz
  1  'x, y, z'
loop_
 _atom_site_type_symbol
 _atom_site_label
 _atom_site_symmetry_multiplicity
 _atom_site_fract_x
 _atom_site_fract_y
 _atom_site_fract_z
 _atom_site_occupancy
  Li  Li0  1  0.75147800  0.93863000  0.44679800  1
  Li  Li1  1  0.06137000  0.55320200  0.24852200  1
  Li  Li2  1  0.55320200  0.24852200  0.06137000  1
  Li  Li3  1  0.44679800  0.75147800  0.93863000  1
  Li  Li4  1  0.93863000  0.44679800  0.75147800  1
  Li  Li5  1  0.24852200  0.06137000  0.55320200  1
  Fe  Fe6  1  0.00000000  0.00000000  0.00000000  1
  Fe  Fe7  1  0.50000000  0.50000000  0.50000000  1
  F  F8  1  0.69504800  0.92139700  0.07246300  1
  F  F9  1  0.07860300  0.92753700  0.30495200  1
  F  F10  1  0.40138100  0.54858600  0.19484200  1
  F  F11  1  0.92753700  0.30495200  0.07860300  1
  F  F12  1  0.45141400  0.80515800  0.59861900  1
  F  F13  1  0.80515800  0.59861900  0.45141400  1
  F  F14  1  0.19484200  0.40138100  0.54858600  1
  F  F15  1  0.54858600  0.19484200  0.40138100  1
  F  F16  1  0.07246300  0.69504800  0.92139700  1
  F  F17  1  0.59861900  0.45141400  0.80515800  1
  F  F18  1  0.92139700  0.07246300  0.69504800  1
  F  F19  1  0.30495200  0.07860300  0.92753700  1
