# generated using pymatgen
data_Li5(FeO2)4
_symmetry_space_group_name_H-M   'P 1'
_cell_length_a   6.07466907
_cell_length_b   6.07466907
_cell_length_c   6.07466930
_cell_angle_alpha   59.88326844
_cell_angle_beta   59.88326844
_cell_angle_gamma   59.88327071
_symmetry_Int_Tables_number   1
_chemical_formula_structural   Li5(FeO2)4
_chemical_formula_sum   'Li5 Fe4 O8'
_cell_volume   158.08880925
_cell_formula_units_Z   1
loop_
 _symmetry_equiv_pos_site_id
 _symmetry_equiv_pos_as_xyz
  1  'x, y, z'
loop_
 _atom_site_type_symbol
 _atom_site_label
 _atom_site_symmetry_multiplicity
 _atom_site_fract_x
 _atom_site_fract_y
 _atom_site_fract_z
 _atom_site_occupancy
  Li  Li0  1  0.96549900  0.55338400  0.96549900  1
  Li  Li1  1  0.55338400  0.96549900  0.96549900  1
  Li  Li2  1  0.12469400  0.12469400  0.12469400  1
  Li  Li3  1  0.96549900  0.96549900  0.55338400  1
  Li  Li4  1  0.49141800  0.49141800  0.49141800  1
  Fe  Fe5  1  0.97769400  0.97769400  0.97769400  1
  Fe  Fe6  1  0.49033500  0.49033500  0.99062100  1
  Fe  Fe7  1  0.49033500  0.99062100  0.49033500  1
  Fe  Fe8  1  0.99062100  0.49033500  0.49033500  1
  O  O9  1  0.24831700  0.24831700  0.24831700  1
  O  O10  1  0.73008800  0.23372200  0.23372200  1
  O  O11  1  0.23372200  0.73008800  0.23372200  1
  O  O12  1  0.23372200  0.23372200  0.73008800  1
  O  O13  1  0.73726000  0.73726000  0.25955000  1
  O  O14  1  0.73726000  0.25955000  0.73726000  1
  O  O15  1  0.25955000  0.73726000  0.73726000  1
  O  O16  1  0.73429400  0.73429400  0.73429400  1
