# generated using pymatgen
data_Li8Mn3V(PO4)6
_symmetry_space_group_name_H-M   'P 1'
_cell_length_a   8.39469100
_cell_length_b   8.50505379
_cell_length_c   9.26895067
_cell_angle_alpha   91.53629079
_cell_angle_beta   116.39693907
_cell_angle_gamma   119.03919805
_symmetry_Int_Tables_number   1
_chemical_formula_structural   Li8Mn3V(PO4)6
_chemical_formula_sum   'Li8 Mn3 V1 P6 O24'
_cell_volume   492.76072340
_cell_formula_units_Z   1
loop_
 _symmetry_equiv_pos_site_id
 _symmetry_equiv_pos_as_xyz
  1  'x, y, z'
loop_
 _atom_site_type_symbol
 _atom_site_label
 _atom_site_symmetry_multiplicity
 _atom_site_fract_x
 _atom_site_fract_y
 _atom_site_fract_z
 _atom_site_occupancy
  Li  Li0  1  0.19660900  0.27084300  0.86442200  1
  Li  Li1  1  0.62671200  0.93901300  0.90047600  1
  Li  Li2  1  0.93078200  0.65775900  0.85000000  1
  Li  Li3  1  0.32158000  0.79847700  0.58815600  1
  Li  Li4  1  0.67127800  0.21351600  0.40931900  1
  Li  Li5  1  0.06671000  0.33436100  0.14599900  1
  Li  Li6  1  0.37120600  0.06314400  0.10046500  1
  Li  Li7  1  0.80904000  0.73371100  0.13605000  1
  Mn  Mn8  1  0.31283700  0.64912400  0.96817600  1
  Mn  Mn9  1  0.28935000  0.15044500  0.43780200  1
  Mn  Mn10  1  0.68817600  0.35074400  0.03377800  1
  V  V11  1  0.70782600  0.85079700  0.55930600  1
  P  P12  1  0.20298400  0.94786200  0.74608800  1
  P  P13  1  0.50010500  0.55385000  0.75309300  1
  P  P14  1  0.80391800  0.24556600  0.75888200  1
  P  P15  1  0.20410900  0.74733300  0.24205700  1
  P  P16  1  0.50786100  0.45890700  0.25052600  1
  P  P17  1  0.78447100  0.04429700  0.25139800  1
  O  O18  1  0.33863300  0.13914500  0.89031100  1
  O  O19  1  0.34064700  0.51245700  0.81601800  1
  O  O20  1  0.30601200  0.83160800  0.80756700  1
  O  O21  1  0.70373600  0.57368400  0.89922200  1
  O  O22  1  0.75174900  0.19892600  0.90031100  1
  O  O23  1  0.57168200  0.75138300  0.71917000  1
  O  O24  1  0.20053100  0.96920600  0.58224700  1
  O  O25  1  0.38233900  0.39523900  0.59455900  1
  O  O26  1  0.98418100  0.45992100  0.81874100  1
  O  O27  1  0.88348100  0.11964800  0.73470100  1
  O  O28  1  0.61242200  0.20231400  0.59010300  1
  O  O29  1  0.97554600  0.84320200  0.72163400  1
  O  O30  1  0.00133300  0.14756200  0.26355900  1
  O  O31  1  0.40661000  0.80814800  0.41429200  1
  O  O32  1  0.12035200  0.87023600  0.25309100  1
  O  O33  1  0.03504200  0.53596800  0.19011600  1
  O  O34  1  0.60183700  0.60985300  0.41260200  1
  O  O35  1  0.79934800  0.01143400  0.41791800  1
  O  O36  1  0.43797000  0.26218100  0.27979600  1
  O  O37  1  0.25644200  0.78890200  0.09551700  1
  O  O38  1  0.30222200  0.43837300  0.10213900  1
  O  O39  1  0.67926700  0.15783600  0.20067800  1
  O  O40  1  0.67156900  0.51295000  0.19674800  1
  O  O41  1  0.64149300  0.85007100  0.10296900  1
