# generated using pymatgen
data_Li4Fe3Sb5O16
_symmetry_space_group_name_H-M   'P 1'
_cell_length_a   6.23445600
_cell_length_b   6.24308697
_cell_length_c   10.35825702
_cell_angle_alpha   90.29154118
_cell_angle_beta   90.25734424
_cell_angle_gamma   118.86009950
_symmetry_Int_Tables_number   1
_chemical_formula_structural   Li4Fe3Sb5O16
_chemical_formula_sum   'Li4 Fe3 Sb5 O16'
_cell_volume   353.07804775
_cell_formula_units_Z   1
loop_
 _symmetry_equiv_pos_site_id
 _symmetry_equiv_pos_as_xyz
  1  'x, y, z'
loop_
 _atom_site_type_symbol
 _atom_site_label
 _atom_site_symmetry_multiplicity
 _atom_site_fract_x
 _atom_site_fract_y
 _atom_site_fract_z
 _atom_site_occupancy
  Li  Li0  1  0.34200200  0.67672900  0.11103100  1
  Li  Li1  1  0.00366800  0.00840200  0.00912000  1
  Li  Li2  1  0.99852400  0.99858100  0.49820600  1
  Li  Li3  1  0.67983100  0.35915300  0.60423700  1
  Fe  Fe4  1  0.17063100  0.33877900  0.78662500  1
  Fe  Fe5  1  0.33348500  0.16303100  0.28566100  1
  Fe  Fe6  1  0.82819600  0.16371200  0.28465100  1
  Sb  Sb7  1  0.17029300  0.83638000  0.78422600  1
  Sb  Sb8  1  0.30975000  0.63810800  0.49028300  1
  Sb  Sb9  1  0.66695100  0.83480400  0.78376200  1
  Sb  Sb10  1  0.82648500  0.65795500  0.28112900  1
  Sb  Sb11  1  0.65065400  0.30328300  0.01988200  1
  O  O12  1  0.13490000  0.81913800  0.39340500  1
  O  O13  1  0.49133700  0.98973800  0.68199400  1
  O  O14  1  0.34795000  0.69229800  0.89355700  1
  O  O15  1  0.99257600  0.98730000  0.67949700  1
  O  O16  1  0.98281700  0.98152000  0.18768000  1
  O  O17  1  0.68819800  0.83793800  0.38935900  1
  O  O18  1  0.03366100  0.53528300  0.67415600  1
  O  O19  1  0.50568000  0.53218100  0.67920600  1
  O  O20  1  0.85967000  0.70861500  0.89065000  1
  O  O21  1  0.14040100  0.30300900  0.40006600  1
  O  O22  1  0.52617500  0.49635300  0.16736800  1
  O  O23  1  0.97075200  0.48277700  0.17126800  1
  O  O24  1  0.68534600  0.35046400  0.39053800  1
  O  O25  1  0.29824600  0.13338700  0.89790200  1
  O  O26  1  0.52807700  0.03771300  0.16196500  1
  O  O27  1  0.83344500  0.13337200  0.89473200  1
