# generated using pymatgen
data_Li3Co2Cu3O10
_symmetry_space_group_name_H-M   'P 1'
_cell_length_a   5.02856422
_cell_length_b   5.26543393
_cell_length_c   7.44476339
_cell_angle_alpha   108.86127200
_cell_angle_beta   99.67486726
_cell_angle_gamma   102.50922246
_symmetry_Int_Tables_number   1
_chemical_formula_structural   Li3Co2Cu3O10
_chemical_formula_sum   'Li3 Co2 Cu3 O10'
_cell_volume   175.95575991
_cell_formula_units_Z   1
loop_
 _symmetry_equiv_pos_site_id
 _symmetry_equiv_pos_as_xyz
  1  'x, y, z'
loop_
 _atom_site_type_symbol
 _atom_site_label
 _atom_site_symmetry_multiplicity
 _atom_site_fract_x
 _atom_site_fract_y
 _atom_site_fract_z
 _atom_site_occupancy
  Li  Li0  1  0.21549009  0.91220040  0.40450679  1
  Li  Li1  1  0.50000000  0.50000000  0.50000000  1
  Li  Li2  1  0.78450991  0.08779960  0.59549321  1
  Co  Co3  1  0.11181219  0.69325145  0.69364858  1
  Co  Co4  1  0.88818781  0.30674855  0.30635142  1
  Cu  Cu5  1  0.00000000  0.50000000  0.00000000  1
  Cu  Cu6  1  0.69721175  0.88245305  0.90302259  1
  Cu  Cu7  1  0.30278825  0.11754695  0.09697741  1
  O  O8  1  0.05180726  0.04096517  0.83456526  1
  O  O9  1  0.31849814  0.73357459  0.95303798  1
  O  O10  1  0.10934322  0.33080651  0.54549582  1
  O  O11  1  0.21110809  0.46921847  0.22722690  1
  O  O12  1  0.44529093  0.85749795  0.65768121  1
  O  O13  1  0.55470907  0.14250205  0.34231879  1
  O  O14  1  0.78889191  0.53078153  0.77277310  1
  O  O15  1  0.89065678  0.66919349  0.45450418  1
  O  O16  1  0.68150186  0.26642541  0.04696202  1
  O  O17  1  0.94819274  0.95903483  0.16543474  1
