# generated using pymatgen
data_Li4Fe(PO3)6
_symmetry_space_group_name_H-M   'P 1'
_cell_length_a   7.32367200
_cell_length_b   7.55424563
_cell_length_c   7.61989196
_cell_angle_alpha   106.72439567
_cell_angle_beta   99.55489629
_cell_angle_gamma   113.39285394
_symmetry_Int_Tables_number   1
_chemical_formula_structural   Li4Fe(PO3)6
_chemical_formula_sum   'Li4 Fe1 P6 O18'
_cell_volume   351.21284321
_cell_formula_units_Z   1
loop_
 _symmetry_equiv_pos_site_id
 _symmetry_equiv_pos_as_xyz
  1  'x, y, z'
loop_
 _atom_site_type_symbol
 _atom_site_label
 _atom_site_symmetry_multiplicity
 _atom_site_fract_x
 _atom_site_fract_y
 _atom_site_fract_z
 _atom_site_occupancy
  Li  Li0  1  0.24021400  0.08154500  0.87708900  1
  Li  Li1  1  0.62261900  0.43635900  0.84484700  1
  Li  Li2  1  0.47488900  0.00441900  0.54833900  1
  Li  Li3  1  0.36964500  0.55450900  0.14045000  1
  Fe  Fe4  1  0.78591400  0.93394900  0.14662900  1
  P  P5  1  0.98616900  0.31254500  0.77875000  1
  P  P6  1  0.32978300  0.67836400  0.78207100  1
  P  P7  1  0.20815100  0.26691200  0.49962000  1
  P  P8  1  0.77632300  0.72455100  0.48978300  1
  P  P9  1  0.67571100  0.32439500  0.20649800  1
  P  P10  1  0.02694400  0.69499100  0.23793500  1
  O  O11  1  0.11957900  0.28538400  0.93052400  1
  O  O12  1  0.49274400  0.67628500  0.93368700  1
  O  O13  1  0.10273100  0.55901800  0.80664300  1
  O  O14  1  0.75926900  0.24970100  0.75225000  1
  O  O15  1  0.36801500  0.22512200  0.60767500  1
  O  O16  1  0.00264700  0.20169600  0.57031200  1
  O  O17  1  0.35577100  0.87935500  0.76826000  1
  O  O18  1  0.82138500  0.81306900  0.70117500  1
  O  O19  1  0.30084800  0.51980500  0.57014300  1
  O  O20  1  0.69012700  0.46966100  0.41630200  1
  O  O21  1  0.12010500  0.16773600  0.28333000  1
  O  O22  1  0.65556700  0.12176300  0.21446700  1
  O  O23  1  0.99991300  0.79562800  0.44337300  1
  O  O24  1  0.63819100  0.76542900  0.35149100  1
  O  O25  1  0.25446500  0.76268700  0.26886500  1
  O  O26  1  0.90857300  0.44788500  0.19546800  1
  O  O27  1  0.51581400  0.32284500  0.05308200  1
  O  O28  1  0.89789200  0.72439000  0.08094000  1
