# generated using pymatgen
data_Li2V3WO8
_symmetry_space_group_name_H-M   'P 1'
_cell_length_a   5.99670177
_cell_length_b   5.99670177
_cell_length_c   9.80402400
_cell_angle_alpha   90.00000000
_cell_angle_beta   90.00000000
_cell_angle_gamma   119.99999741
_symmetry_Int_Tables_number   1
_chemical_formula_structural   Li2V3WO8
_chemical_formula_sum   'Li4 V6 W2 O16'
_cell_volume   305.32327341
_cell_formula_units_Z   2
loop_
 _symmetry_equiv_pos_site_id
 _symmetry_equiv_pos_as_xyz
  1  'x, y, z'
loop_
 _atom_site_type_symbol
 _atom_site_label
 _atom_site_symmetry_multiplicity
 _atom_site_fract_x
 _atom_site_fract_y
 _atom_site_fract_z
 _atom_site_occupancy
  Li  Li0  1  0.33333300  0.66666700  0.90098100  1
  Li  Li1  1  0.00000000  0.00000000  0.99252400  1
  Li  Li2  1  0.00000000  0.00000000  0.49252400  1
  Li  Li3  1  0.66666700  0.33333300  0.40098100  1
  V  V4  1  0.17059900  0.82940100  0.21385700  1
  V  V5  1  0.17059900  0.34119900  0.21385700  1
  V  V6  1  0.65880100  0.82940100  0.21385700  1
  V  V7  1  0.34119900  0.17059900  0.71385700  1
  V  V8  1  0.82940100  0.65880100  0.71385700  1
  V  V9  1  0.82940100  0.17059900  0.71385700  1
  W  W10  1  0.33333300  0.66666700  0.48572000  1
  W  W11  1  0.66666700  0.33333300  0.98572000  1
  O  O12  1  0.17209300  0.82790700  0.59329100  1
  O  O13  1  0.03791600  0.51895800  0.34467900  1
  O  O14  1  0.33333300  0.66666700  0.10729100  1
  O  O15  1  0.00000000  0.00000000  0.30803700  1
  O  O16  1  0.00000000  0.00000000  0.80803700  1
  O  O17  1  0.17209300  0.34418600  0.59329100  1
  O  O18  1  0.48104200  0.96208400  0.34467900  1
  O  O19  1  0.48104200  0.51895800  0.34467900  1
  O  O20  1  0.34418600  0.17209300  0.09329100  1
  O  O21  1  0.65581400  0.82790700  0.59329100  1
  O  O22  1  0.51895800  0.48104200  0.84467900  1
  O  O23  1  0.51895800  0.03791600  0.84467900  1
  O  O24  1  0.66666700  0.33333300  0.60729100  1
  O  O25  1  0.82790700  0.65581400  0.09329100  1
  O  O26  1  0.96208400  0.48104200  0.84467900  1
  O  O27  1  0.82790700  0.17209300  0.09329100  1
