# generated using pymatgen
data_LiMnF5
_symmetry_space_group_name_H-M   'P 1'
_cell_length_a   5.47296800
_cell_length_b   5.47296800
_cell_length_c   11.49210800
_cell_angle_alpha   90.00000000
_cell_angle_beta   90.00000000
_cell_angle_gamma   90.00000000
_symmetry_Int_Tables_number   1
_chemical_formula_structural   LiMnF5
_chemical_formula_sum   'Li4 Mn4 F20'
_cell_volume   344.22746332
_cell_formula_units_Z   4
loop_
 _symmetry_equiv_pos_site_id
 _symmetry_equiv_pos_as_xyz
  1  'x, y, z'
loop_
 _atom_site_type_symbol
 _atom_site_label
 _atom_site_symmetry_multiplicity
 _atom_site_fract_x
 _atom_site_fract_y
 _atom_site_fract_z
 _atom_site_occupancy
  Li  Li0  1  0.05390500  0.31543400  0.84643000  1
  Li  Li1  1  0.31543400  0.94609500  0.59643000  1
  Li  Li2  1  0.68456600  0.05390500  0.09643000  1
  Li  Li3  1  0.94609500  0.68456600  0.34643000  1
  Mn  Mn4  1  0.18470900  0.48071400  0.11713600  1
  Mn  Mn5  1  0.48071400  0.81529100  0.86713600  1
  Mn  Mn6  1  0.51928600  0.18470900  0.36713600  1
  Mn  Mn7  1  0.81529100  0.51928600  0.61713600  1
  F  F8  1  0.00218000  0.72867800  0.18091500  1
  F  F9  1  0.01875700  0.76947800  0.64796400  1
  F  F10  1  0.01145800  0.51595600  0.98530800  1
  F  F11  1  0.28248100  0.42988800  0.28628800  1
  F  F12  1  0.27132200  0.00218000  0.43091500  1
  F  F13  1  0.23052200  0.01875700  0.89796400  1
  F  F14  1  0.27941000  0.58374300  0.81148800  1
  F  F15  1  0.48404400  0.01145800  0.23530800  1
  F  F16  1  0.58374300  0.72059000  0.56148800  1
  F  F17  1  0.42988800  0.71751900  0.03628800  1
  F  F18  1  0.57011200  0.28248100  0.53628800  1
  F  F19  1  0.41625700  0.27941000  0.06148800  1
  F  F20  1  0.51595600  0.98854200  0.73530800  1
  F  F21  1  0.72059000  0.41625700  0.31148800  1
  F  F22  1  0.76947800  0.98124300  0.39796400  1
  F  F23  1  0.72867800  0.99782000  0.93091500  1
  F  F24  1  0.71751900  0.57011200  0.78628800  1
  F  F25  1  0.98854200  0.48404400  0.48530800  1
  F  F26  1  0.98124300  0.23052200  0.14796400  1
  F  F27  1  0.99782000  0.27132200  0.68091500  1
