# generated using pymatgen
data_Li3Mn(PO4)2
_symmetry_space_group_name_H-M   'P 1'
_cell_length_a   8.55296900
_cell_length_b   8.66147758
_cell_length_c   9.37119226
_cell_angle_alpha   87.10529539
_cell_angle_beta   86.92760181
_cell_angle_gamma   69.37169136
_symmetry_Int_Tables_number   1
_chemical_formula_structural   Li3Mn(PO4)2
_chemical_formula_sum   'Li12 Mn4 P8 O32'
_cell_volume   648.41505365
_cell_formula_units_Z   4
loop_
 _symmetry_equiv_pos_site_id
 _symmetry_equiv_pos_as_xyz
  1  'x, y, z'
loop_
 _atom_site_type_symbol
 _atom_site_label
 _atom_site_symmetry_multiplicity
 _atom_site_fract_x
 _atom_site_fract_y
 _atom_site_fract_z
 _atom_site_occupancy
  Li  Li0  1  0.14743100  0.38514000  0.20663100  1
  Li  Li1  1  0.37862800  0.12826000  0.70148000  1
  Li  Li2  1  0.83944800  0.04131000  0.53928900  1
  Li  Li3  1  0.89065500  0.06259600  0.22781800  1
  Li  Li4  1  0.39104000  0.59811000  0.24004600  1
  Li  Li5  1  0.59463800  0.43094500  0.75234300  1
  Li  Li6  1  0.10531700  0.88912800  0.76947300  1
  Li  Li7  1  0.16803900  0.95772600  0.46131900  1
  Li  Li8  1  0.95396400  0.16164400  0.96503300  1
  Li  Li9  1  0.59371300  0.86633700  0.30297500  1
  Li  Li10  1  0.85382800  0.60847600  0.77443800  1
  Li  Li11  1  0.91580300  0.70982800  0.09873500  1
  Mn  Mn12  1  0.50452100  0.24495300  0.09445100  1
  Mn  Mn13  1  0.23255000  0.50269900  0.60355400  1
  Mn  Mn14  1  0.76729700  0.49903800  0.39454200  1
  Mn  Mn15  1  0.49354100  0.77144700  0.90208600  1
  P  P16  1  0.28604100  0.01235800  0.08540200  1
  P  P17  1  0.00413600  0.29187000  0.58638900  1
  P  P18  1  0.56436600  0.24964700  0.42413800  1
  P  P19  1  0.24184900  0.57198400  0.92495000  1
  P  P20  1  0.74738200  0.44406700  0.07229400  1
  P  P21  1  0.44125700  0.74863900  0.57134100  1
  P  P22  1  0.99912300  0.70874300  0.40907000  1
  P  P23  1  0.72803300  0.98204500  0.92890600  1
  O  O24  1  0.10029900  0.04000400  0.11307600  1
  O  O25  1  0.02663200  0.10728400  0.59913900  1
  O  O26  1  0.31632900  0.16952500  0.13577900  1
  O  O27  1  0.16721200  0.30971300  0.64158600  1
  O  O28  1  0.62479900  0.06182600  0.43717300  1
  O  O29  1  0.05093200  0.63222900  0.91921700  1
  O  O30  1  0.75321000  0.93887200  0.09096600  1
  O  O31  1  0.99761000  0.65327100  0.57233100  1
  O  O32  1  0.15769200  0.59542200  0.33271600  1
  O  O33  1  0.57150100  0.14559700  0.91025200  1
  O  O34  1  0.31211700  0.48537400  0.06780300  1
  O  O35  1  0.46347200  0.33501600  0.55825200  1
  O  O36  1  0.46227800  0.32373700  0.29030100  1
  O  O37  1  0.33366700  0.45749500  0.80245000  1
  O  O38  1  0.73098100  0.28871900  0.41429600  1
  O  O39  1  0.28319800  0.73538400  0.90564600  1
  O  O40  1  0.72746200  0.26856900  0.08451600  1
  O  O41  1  0.27157000  0.71256100  0.58537300  1
  O  O42  1  0.65553500  0.54697200  0.19881300  1
  O  O43  1  0.54958700  0.67108600  0.69827600  1
  O  O44  1  0.53601000  0.66748100  0.43313700  1
  O  O45  1  0.65807200  0.53404300  0.93474800  1
  O  O46  1  0.40617200  0.85693900  0.16020700  1
  O  O47  1  0.84789800  0.40177500  0.66797100  1
  O  O48  1  0.99785700  0.35304700  0.42342200  1
  O  O49  1  0.33398400  0.00052700  0.91839000  1
  O  O50  1  0.93530100  0.40679800  0.06578200  1
  O  O51  1  0.38151200  0.93674700  0.55977100  1
  O  O52  1  0.84076500  0.68944900  0.34242100  1
  O  O53  1  0.68693800  0.84146100  0.85710600  1
  O  O54  1  0.98058200  0.89262600  0.39352400  1
  O  O55  1  0.88040400  0.00608200  0.85009000  1
