# generated using pymatgen
data_LiV4OF11
_symmetry_space_group_name_H-M   'P 1'
_cell_length_a   5.26938800
_cell_length_b   5.52681849
_cell_length_c   17.31581562
_cell_angle_alpha   89.02990099
_cell_angle_beta   98.21559791
_cell_angle_gamma   117.88852661
_symmetry_Int_Tables_number   1
_chemical_formula_structural   LiV4OF11
_chemical_formula_sum   'Li2 V8 O2 F22'
_cell_volume   440.42648889
_cell_formula_units_Z   2
loop_
 _symmetry_equiv_pos_site_id
 _symmetry_equiv_pos_as_xyz
  1  'x, y, z'
loop_
 _atom_site_type_symbol
 _atom_site_label
 _atom_site_symmetry_multiplicity
 _atom_site_fract_x
 _atom_site_fract_y
 _atom_site_fract_z
 _atom_site_occupancy
  Li  Li0  1  0.61827000  0.29636400  0.94524400  1
  Li  Li1  1  0.19495200  0.67933800  0.69566300  1
  V  V2  1  0.99035900  0.01086400  0.00705300  1
  V  V3  1  0.75824600  0.36537100  0.12303700  1
  V  V4  1  0.99024800  0.49906100  0.49725900  1
  V  V5  1  0.51757800  0.24589900  0.74740800  1
  V  V6  1  0.50469300  0.74689600  0.24932800  1
  V  V7  1  0.24628300  0.12393600  0.37383800  1
  V  V8  1  0.74545600  0.88766100  0.62737300  1
  V  V9  1  0.25388000  0.62588000  0.87725300  1
  O  O10  1  0.82276300  0.21965700  0.03337900  1
  O  O11  1  0.65119800  0.02418700  0.70984900  1
  F  F12  1  0.73380000  0.05981300  0.18963200  1
  F  F13  1  0.76501100  0.18243600  0.55898800  1
  F  F14  1  0.75256800  0.66669300  0.05734900  1
  F  F15  1  0.68389500  0.53602500  0.21290500  1
  F  F16  1  0.67354100  0.33789200  0.40970300  1
  F  F17  1  0.80698400  0.40319900  0.84830700  1
  F  F18  1  0.82748900  0.91011600  0.33881500  1
  F  F19  1  0.81872900  0.71058800  0.53877300  1
  F  F20  1  0.32192800  0.15150200  0.08861400  1
  F  F21  1  0.77747100  0.58037200  0.68989000  1
  F  F22  1  0.27869900  0.44150100  0.31292400  1
  F  F23  1  0.67888700  0.84142800  0.90987800  1
  F  F24  1  0.18190400  0.09640400  0.66168600  1
  F  F25  1  0.17593600  0.29164400  0.46317900  1
  F  F26  1  0.18325200  0.59227300  0.16202600  1
  F  F27  1  0.31637700  0.47462300  0.78109200  1
  F  F28  1  0.30198800  0.64443900  0.59422000  1
  F  F29  1  0.32395100  0.95885300  0.28721200  1
  F  F30  1  0.25689700  0.31563100  0.93380700  1
  F  F31  1  0.22428100  0.81609100  0.44052000  1
  F  F32  1  0.26096200  0.91972500  0.80996900  1
  F  F33  1  0.18362600  0.79673500  0.96206300  1
