# generated using pymatgen
data_LiCoPO4
_symmetry_space_group_name_H-M   'P 1'
_cell_length_a   4.29277100
_cell_length_b   14.62690200
_cell_length_c   4.76642100
_cell_angle_alpha   89.99963167
_cell_angle_beta   90.00008812
_cell_angle_gamma   90.00033803
_symmetry_Int_Tables_number   1
_chemical_formula_structural   LiCoPO4
_chemical_formula_sum   'Li4 Co4 P4 O16'
_cell_volume   299.28329206
_cell_formula_units_Z   4
loop_
 _symmetry_equiv_pos_site_id
 _symmetry_equiv_pos_as_xyz
  1  'x, y, z'
loop_
 _atom_site_type_symbol
 _atom_site_label
 _atom_site_symmetry_multiplicity
 _atom_site_fract_x
 _atom_site_fract_y
 _atom_site_fract_z
 _atom_site_occupancy
  Li  Li0  1  0.99999900  0.24883200  0.75000000  1
  Li  Li1  1  0.00000000  0.75116800  0.25000000  1
  Li  Li2  1  0.50000000  0.25116800  0.25000000  1
  Li  Li3  1  0.50000000  0.74883200  0.75000000  1
  Co  Co4  1  0.99999400  0.06281400  0.24999800  1
  Co  Co5  1  0.00000300  0.93718500  0.75000200  1
  Co  Co6  1  0.49999900  0.56281400  0.25000100  1
  Co  Co7  1  0.50000500  0.43718500  0.74999800  1
  P  P8  1  0.99999900  0.38713700  0.25000300  1
  P  P9  1  0.00000200  0.61286500  0.74999600  1
  P  P10  1  0.49999900  0.11286400  0.75000500  1
  P  P11  1  0.50000200  0.88713700  0.24999600  1
  O  O12  1  0.18729900  0.32840100  0.46430800  1
  O  O13  1  0.18729900  0.67159700  0.96430500  1
  O  O14  1  0.26360700  0.05211300  0.58642300  1
  O  O15  1  0.26361100  0.94788700  0.08643100  1
  O  O16  1  0.23639200  0.44788700  0.08643000  1
  O  O17  1  0.23639100  0.55211300  0.58642600  1
  O  O18  1  0.31270000  0.17159800  0.96430600  1
  O  O19  1  0.31270400  0.82840100  0.46430600  1
  O  O20  1  0.68729500  0.17159900  0.53569700  1
  O  O21  1  0.68729900  0.82840100  0.03569400  1
  O  O22  1  0.76360400  0.55211200  0.91357500  1
  O  O23  1  0.76360400  0.44788700  0.41356900  1
  O  O24  1  0.73639300  0.05211200  0.91357600  1
  O  O25  1  0.73639300  0.94788700  0.41356600  1
  O  O26  1  0.81270300  0.32840200  0.03569400  1
  O  O27  1  0.81270300  0.67159800  0.53569500  1
