# generated using pymatgen
data_Li3Mn2(P2O7)2
_symmetry_space_group_name_H-M   'P 1'
_cell_length_a   9.89224500
_cell_length_b   9.84700100
_cell_length_c   11.38770957
_cell_angle_alpha   77.19844152
_cell_angle_beta   90.00000000
_cell_angle_gamma   90.00000000
_symmetry_Int_Tables_number   1
_chemical_formula_structural   Li3Mn2(P2O7)2
_chemical_formula_sum   'Li12 Mn8 P16 O56'
_cell_volume   1081.69215931
_cell_formula_units_Z   4
loop_
 _symmetry_equiv_pos_site_id
 _symmetry_equiv_pos_as_xyz
  1  'x, y, z'
loop_
 _atom_site_type_symbol
 _atom_site_label
 _atom_site_symmetry_multiplicity
 _atom_site_fract_x
 _atom_site_fract_y
 _atom_site_fract_z
 _atom_site_occupancy
  Li  Li0  1  0.96150600  0.88260500  0.45179900  1
  Li  Li1  1  0.35325400  0.91360200  0.02790200  1
  Li  Li2  1  0.65823000  0.84782500  0.04321900  1
  Li  Li3  1  0.86238800  0.58749200  0.97217900  1
  Li  Li4  1  0.17803300  0.66170300  0.46289200  1
  Li  Li5  1  0.47414900  0.61286900  0.55233300  1
  Li  Li6  1  0.03849400  0.38260500  0.45179900  1
  Li  Li7  1  0.64674600  0.41360200  0.02790200  1
  Li  Li8  1  0.34177000  0.34782500  0.04321900  1
  Li  Li9  1  0.13761200  0.08749200  0.97217900  1
  Li  Li10  1  0.82196700  0.16170300  0.46289200  1
  Li  Li11  1  0.52585100  0.11286900  0.55233300  1
  Mn  Mn12  1  0.17025000  0.79239300  0.68189900  1
  Mn  Mn13  1  0.46285900  0.74265000  0.82443900  1
  Mn  Mn14  1  0.96847500  0.76030400  0.17004200  1
  Mn  Mn15  1  0.67811100  0.70445200  0.33335500  1
  Mn  Mn16  1  0.82975000  0.29239300  0.68189900  1
  Mn  Mn17  1  0.53714100  0.24265000  0.82443900  1
  Mn  Mn18  1  0.03152500  0.26030400  0.17004200  1
  Mn  Mn19  1  0.32188900  0.20445200  0.33335500  1
  P  P20  1  0.69834300  0.97677100  0.75448100  1
  P  P21  1  0.95579000  0.88321000  0.88717700  1
  P  P22  1  0.18036900  0.94220300  0.24417900  1
  P  P23  1  0.40060100  0.87642000  0.42344200  1
  P  P24  1  0.89949800  0.61885200  0.57490800  1
  P  P25  1  0.68067300  0.56009500  0.75900600  1
  P  P26  1  0.30165700  0.47677100  0.75448100  1
  P  P27  1  0.45920100  0.61979300  0.10936000  1
  P  P28  1  0.04421000  0.38321000  0.88717700  1
  P  P29  1  0.20132800  0.52664800  0.24079000  1
  P  P30  1  0.81963100  0.44220300  0.24417900  1
  P  P31  1  0.59939900  0.37642000  0.42344200  1
  P  P32  1  0.10050200  0.11885200  0.57490800  1
  P  P33  1  0.31932700  0.06009500  0.75900600  1
  P  P34  1  0.54079900  0.11979300  0.10936000  1
  P  P35  1  0.79867200  0.02664800  0.24079000  1
  O  O36  1  0.66324400  0.98167800  0.62607400  1
  O  O37  1  0.09065200  0.96537100  0.56553500  1
  O  O38  1  0.33619000  0.91362600  0.73202100  1
  O  O39  1  0.60449600  0.88742900  0.85149600  1
  O  O40  1  0.84519500  0.90992300  0.77723000  1
  O  O41  1  0.07236600  0.81607200  0.83392200  1
  O  O42  1  0.88545900  0.77933300  0.99498200  1
  O  O43  1  0.52397200  0.98030100  0.07730900  1
  O  O44  1  0.32613000  0.88425200  0.29533100  1
  O  O45  1  0.18236300  0.93711500  0.11254000  1
  O  O46  1  0.78421800  0.87440600  0.21804500  1
  O  O47  1  0.53688100  0.80953400  0.41139800  1
  O  O48  1  0.07320600  0.83902800  0.31203900  1
  O  O49  1  0.31418600  0.77982900  0.51918500  1
  O  O50  1  0.82575300  0.71485500  0.47201800  1
  O  O51  1  0.56534600  0.65767600  0.69968000  1
  O  O52  1  0.04118600  0.67985300  0.58681800  1
  O  O53  1  0.29324800  0.62832000  0.78276900  1
  O  O54  1  0.82174000  0.62154700  0.69866000  1
  O  O55  1  0.69154500  0.56289900  0.89062300  1
  O  O56  1  0.01822600  0.51888600  0.92013000  1
  O  O57  1  0.40404200  0.73020100  0.00014700  1
  O  O58  1  0.58250700  0.67912100  0.16194500  1
  O  O59  1  0.34672600  0.60112500  0.21650500  1
  O  O60  1  0.83639100  0.58945900  0.26980500  1
  O  O61  1  0.10131800  0.60647100  0.14897600  1
  O  O62  1  0.33675600  0.48167800  0.62607400  1
  O  O63  1  0.59138300  0.52770700  0.43906100  1
  O  O64  1  0.90934800  0.46537100  0.56553500  1
  O  O65  1  0.16702500  0.52518300  0.37028000  1
  O  O66  1  0.39550400  0.38742900  0.85149600  1
  O  O67  1  0.66381000  0.41362600  0.73202100  1
  O  O68  1  0.15480500  0.40992300  0.77723000  1
  O  O69  1  0.92763400  0.31607200  0.83392200  1
  O  O70  1  0.11454100  0.27933300  0.99498200  1
  O  O71  1  0.47602800  0.48030100  0.07730900  1
  O  O72  1  0.81763700  0.43711500  0.11254000  1
  O  O73  1  0.67387000  0.38425200  0.29533100  1
  O  O74  1  0.21578200  0.37440600  0.21804500  1
  O  O75  1  0.46311900  0.30953400  0.41139800  1
  O  O76  1  0.92679400  0.33902800  0.31203900  1
  O  O77  1  0.68581400  0.27982900  0.51918500  1
  O  O78  1  0.17424700  0.21485500  0.47201800  1
  O  O79  1  0.43465400  0.15767600  0.69968000  1
  O  O80  1  0.95881400  0.17985300  0.58681800  1
  O  O81  1  0.70675200  0.12832000  0.78276900  1
  O  O82  1  0.30845500  0.06289900  0.89062300  1
  O  O83  1  0.17826000  0.12154700  0.69866000  1
  O  O84  1  0.98177400  0.01888600  0.92013000  1
  O  O85  1  0.59595800  0.23020100  0.00014700  1
  O  O86  1  0.41749300  0.17912100  0.16194500  1
  O  O87  1  0.65327400  0.10112500  0.21650500  1
  O  O88  1  0.89868200  0.10647100  0.14897600  1
  O  O89  1  0.16360900  0.08945900  0.26980500  1
  O  O90  1  0.40861700  0.02770700  0.43906100  1
  O  O91  1  0.83297500  0.02518300  0.37028000  1
