# generated using pymatgen
data_Li4VCr3O8
_symmetry_space_group_name_H-M   'P 1'
_cell_length_a   5.15659611
_cell_length_b   5.96221586
_cell_length_c   10.71702929
_cell_angle_alpha   105.90492459
_cell_angle_beta   85.38583823
_cell_angle_gamma   72.96842055
_symmetry_Int_Tables_number   1
_chemical_formula_structural   Li4VCr3O8
_chemical_formula_sum   'Li8 V2 Cr6 O16'
_cell_volume   298.31805061
_cell_formula_units_Z   2
loop_
 _symmetry_equiv_pos_site_id
 _symmetry_equiv_pos_as_xyz
  1  'x, y, z'
loop_
 _atom_site_type_symbol
 _atom_site_label
 _atom_site_symmetry_multiplicity
 _atom_site_fract_x
 _atom_site_fract_y
 _atom_site_fract_z
 _atom_site_occupancy
  Li  Li0  1  0.00003453  0.12507283  0.74999260  1
  Li  Li1  1  0.99987069  0.00060547  0.00138929  1
  Li  Li2  1  0.00006420  0.24933710  0.49863729  1
  Li  Li3  1  0.00049716  0.37507882  0.24948418  1
  Li  Li4  1  0.00010323  0.62488874  0.75001246  1
  Li  Li5  1  0.99731266  0.50230613  0.00074287  1
  Li  Li6  1  0.00256950  0.74779590  0.49923485  1
  Li  Li7  1  0.99949480  0.87493062  0.25048585  1
  V  V8  1  0.49977131  0.06436706  0.87402935  1
  V  V9  1  0.50025583  0.18558206  0.62598934  1
  Cr  Cr10  1  0.50035337  0.31117360  0.37486200  1
  Cr  Cr11  1  0.49939279  0.56567361  0.87553565  1
  Cr  Cr12  1  0.50000679  0.43878138  0.12498774  1
  Cr  Cr13  1  0.50068774  0.68430038  0.62445557  1
  Cr  Cr14  1  0.49990116  0.81124945  0.37502718  1
  Cr  Cr15  1  0.49966557  0.93883510  0.12512859  1
  O  O16  1  0.27597754  0.08652434  0.31058941  1
  O  O17  1  0.72516438  0.03590062  0.43922338  1
  O  O18  1  0.27034786  0.34226476  0.81184939  1
  O  O19  1  0.72629671  0.29305489  0.94009525  1
  O  O20  1  0.72400268  0.16353781  0.18941036  1
  O  O21  1  0.27478244  0.21409767  0.06079499  1
  O  O22  1  0.27604666  0.45995812  0.56013057  1
  O  O23  1  0.72714399  0.41449756  0.69122315  1
  O  O24  1  0.27615939  0.58590506  0.31033519  1
  O  O25  1  0.72483460  0.53555016  0.43896313  1
  O  O26  1  0.27297378  0.83560647  0.80882449  1
  O  O27  1  0.72405471  0.78998078  0.93989545  1
  O  O28  1  0.27516629  0.71446711  0.06102759  1
  O  O29  1  0.27361389  0.95680227  0.55987129  1
  O  O30  1  0.72379682  0.66410746  0.18965902  1
  O  O31  1  0.72965891  0.90776669  0.68811255  1
