# generated using pymatgen
data_LiCr3P4O15
_symmetry_space_group_name_H-M   'P 1'
_cell_length_a   10.49911000
_cell_length_b   6.44298600
_cell_length_c   17.28306645
_cell_angle_alpha   89.74628159
_cell_angle_beta   90.00000000
_cell_angle_gamma   90.00000000
_symmetry_Int_Tables_number   1
_chemical_formula_structural   LiCr3P4O15
_chemical_formula_sum   'Li4 Cr12 P16 O60'
_cell_volume   1169.11226123
_cell_formula_units_Z   4
loop_
 _symmetry_equiv_pos_site_id
 _symmetry_equiv_pos_as_xyz
  1  'x, y, z'
loop_
 _atom_site_type_symbol
 _atom_site_label
 _atom_site_symmetry_multiplicity
 _atom_site_fract_x
 _atom_site_fract_y
 _atom_site_fract_z
 _atom_site_occupancy
  Li  Li0  1  0.29406800  0.21356700  0.02003200  1
  Li  Li1  1  0.21194300  0.82313400  0.50145500  1
  Li  Li2  1  0.70593200  0.21356700  0.52003200  1
  Li  Li3  1  0.78805700  0.82313400  0.00145500  1
  Cr  Cr4  1  0.73894500  0.57954200  0.13607700  1
  Cr  Cr5  1  0.25240900  0.60569500  0.16551500  1
  Cr  Cr6  1  0.98767900  0.31546900  0.24657600  1
  Cr  Cr7  1  0.48887600  0.81331800  0.25115600  1
  Cr  Cr8  1  0.75290100  0.10154600  0.33380100  1
  Cr  Cr9  1  0.24039200  0.08156300  0.36587300  1
  Cr  Cr10  1  0.26105500  0.57954200  0.63607700  1
  Cr  Cr11  1  0.74759100  0.60569500  0.66551500  1
  Cr  Cr12  1  0.01232100  0.31546900  0.74657600  1
  Cr  Cr13  1  0.51112400  0.81331800  0.75115600  1
  Cr  Cr14  1  0.24709900  0.10154600  0.83380100  1
  Cr  Cr15  1  0.75960800  0.08156300  0.86587300  1
  P  P16  1  0.47879500  0.63302800  0.05223500  1
  P  P17  1  0.00798600  0.47761300  0.07062800  1
  P  P18  1  0.72936700  0.08202200  0.17557800  1
  P  P19  1  0.25158100  0.09796100  0.20525000  1
  P  P20  1  0.75031200  0.59581000  0.29578100  1
  P  P21  1  0.23014500  0.57769400  0.32447600  1
  P  P22  1  0.51241900  0.95737900  0.42781200  1
  P  P23  1  0.97320900  0.15189200  0.44925100  1
  P  P24  1  0.52120500  0.63302800  0.55223500  1
  P  P25  1  0.99201400  0.47761300  0.57062800  1
  P  P26  1  0.27063300  0.08202200  0.67557800  1
  P  P27  1  0.74841900  0.09796100  0.70525000  1
  P  P28  1  0.24968800  0.59581000  0.79578100  1
  P  P29  1  0.76985500  0.57769400  0.82447600  1
  P  P30  1  0.48758100  0.95737900  0.92781200  1
  P  P31  1  0.02679100  0.15189200  0.94925100  1
  O  O32  1  0.39821600  0.46183300  0.02259300  1
  O  O33  1  0.44635600  0.84798200  0.00693700  1
  O  O34  1  0.62393200  0.61121800  0.04625800  1
  O  O35  1  0.88099900  0.59482200  0.06150400  1
  O  O36  1  0.12204300  0.61663900  0.08416800  1
  O  O37  1  0.99891100  0.30471600  0.13234600  1
  O  O38  1  0.74633000  0.89406600  0.12401800  1
  O  O39  1  0.70340900  0.27727600  0.12989000  1
  O  O40  1  0.43847000  0.69144700  0.13742100  1
  O  O41  1  0.23361200  0.91192400  0.15405000  1
  O  O42  1  0.27748900  0.29232800  0.15719100  1
  O  O43  1  0.62377100  0.04226000  0.24054100  1
  O  O44  1  0.84757800  0.10669500  0.23235500  1
  O  O45  1  0.63350300  0.61633500  0.23647800  1
  O  O46  1  0.85683300  0.54635000  0.23205800  1
  O  O47  1  0.35921100  0.05230700  0.26830800  1
  O  O48  1  0.13525800  0.12128600  0.26358400  1
  O  O49  1  0.34661000  0.60815000  0.26691900  1
  O  O50  1  0.12241600  0.54824700  0.26003800  1
  O  O51  1  0.78064000  0.79320700  0.33885800  1
  O  O52  1  0.73008900  0.40808500  0.34650900  1
  O  O53  1  0.93848200  0.19514300  0.36183200  1
  O  O54  1  0.21054400  0.77076500  0.37350100  1
  O  O55  1  0.24636900  0.38765600  0.37485600  1
  O  O56  1  0.51006600  0.79614600  0.36284300  1
  O  O57  1  0.62022500  0.11429400  0.41695100  1
  O  O58  1  0.38022400  0.05180400  0.44228400  1
  O  O59  1  0.11209000  0.07320600  0.45302300  1
  O  O60  1  0.97164100  0.38309900  0.48610800  1
  O  O61  1  0.87097200  0.03060600  0.48856400  1
  O  O62  1  0.60178400  0.46183300  0.52259300  1
  O  O63  1  0.55364400  0.84798200  0.50693700  1
  O  O64  1  0.37606800  0.61121800  0.54625800  1
  O  O65  1  0.11900100  0.59482200  0.56150400  1
  O  O66  1  0.87795700  0.61663900  0.58416800  1
  O  O67  1  0.00108900  0.30471600  0.63234600  1
  O  O68  1  0.25367000  0.89406600  0.62401800  1
  O  O69  1  0.29659100  0.27727600  0.62989000  1
  O  O70  1  0.56153000  0.69144700  0.63742100  1
  O  O71  1  0.76638800  0.91192400  0.65405000  1
  O  O72  1  0.72251100  0.29232800  0.65719100  1
  O  O73  1  0.37622900  0.04226000  0.74054100  1
  O  O74  1  0.15242200  0.10669500  0.73235500  1
  O  O75  1  0.36649700  0.61633500  0.73647800  1
  O  O76  1  0.14316700  0.54635000  0.73205800  1
  O  O77  1  0.64078900  0.05230700  0.76830800  1
  O  O78  1  0.86474200  0.12128600  0.76358400  1
  O  O79  1  0.65339000  0.60815000  0.76691900  1
  O  O80  1  0.87758400  0.54824700  0.76003800  1
  O  O81  1  0.21936000  0.79320700  0.83885800  1
  O  O82  1  0.26991100  0.40808500  0.84650900  1
  O  O83  1  0.06151800  0.19514300  0.86183200  1
  O  O84  1  0.78945600  0.77076500  0.87350100  1
  O  O85  1  0.75363100  0.38765600  0.87485600  1
  O  O86  1  0.48993400  0.79614600  0.86284300  1
  O  O87  1  0.37977500  0.11429400  0.91695100  1
  O  O88  1  0.61977600  0.05180400  0.94228400  1
  O  O89  1  0.88791000  0.07320600  0.95302300  1
  O  O90  1  0.02835900  0.38309900  0.98610800  1
  O  O91  1  0.12902800  0.03060600  0.98856400  1
