# generated using pymatgen
data_Li9Mn2P4HO18
_symmetry_space_group_name_H-M   'P 1'
_cell_length_a   10.73138295
_cell_length_b   10.73138295
_cell_length_c   10.73138295
_cell_angle_alpha   143.30773195
_cell_angle_beta   96.94039727
_cell_angle_gamma   94.43378561
_symmetry_Int_Tables_number   1
_chemical_formula_structural   Li9Mn2P4HO18
_chemical_formula_sum   'Li18 Mn4 P8 H2 O36'
_cell_volume   700.70563702
_cell_formula_units_Z   2
loop_
 _symmetry_equiv_pos_site_id
 _symmetry_equiv_pos_as_xyz
  1  'x, y, z'
loop_
 _atom_site_type_symbol
 _atom_site_label
 _atom_site_symmetry_multiplicity
 _atom_site_fract_x
 _atom_site_fract_y
 _atom_site_fract_z
 _atom_site_occupancy
  Li  Li0  1  0.47748100  0.23603500  0.22144400  1
  Li  Li1  1  0.47748100  0.75603700  0.74144600  1
  Li  Li2  1  0.73962400  0.11730400  0.12232000  1
  Li  Li3  1  0.50155800  0.38103500  0.62052300  1
  Li  Li4  1  0.26167400  0.12513900  0.63653500  1
  Li  Li5  1  0.22902000  0.22902000  0.00000000  1
  Li  Li6  1  0.99345800  0.49345800  0.50000000  1
  Li  Li7  1  0.51145700  0.51145700  0.00000000  1
  Li  Li8  1  0.74985600  0.74985600  0.00000000  1
  Li  Li9  1  0.99345800  0.99345800  0.00000000  1
  Li  Li10  1  0.22902000  0.72902000  0.50000000  1
  Li  Li11  1  0.51145700  0.01145700  0.50000000  1
  Li  Li12  1  0.74985600  0.24985600  0.50000000  1
  Li  Li13  1  0.48860400  0.62513900  0.36346500  1
  Li  Li14  1  0.99498400  0.61730400  0.87768000  1
  Li  Li15  1  0.76051100  0.88103500  0.37947700  1
  Li  Li16  1  0.01459100  0.73603500  0.25855400  1
  Li  Li17  1  0.01459100  0.25603700  0.77855600  1
  Mn  Mn18  1  0.25231100  0.49091300  0.74512500  1
  Mn  Mn19  1  0.74578900  0.99091300  0.73860300  1
  Mn  Mn20  1  0.74578900  0.50718600  0.25487500  1
  Mn  Mn21  1  0.25231100  0.00718600  0.26139700  1
  P  P22  1  0.53032300  0.89227300  0.13805000  1
  P  P23  1  0.74398600  0.60766900  0.63631800  1
  P  P24  1  0.01667400  0.88443100  0.63224300  1
  P  P25  1  0.25249800  0.61212700  0.14037100  1
  P  P26  1  0.25218900  0.38443100  0.36775700  1
  P  P27  1  0.47175600  0.11212700  0.85962900  1
  P  P28  1  0.75422400  0.39227300  0.86195000  1
  P  P29  1  0.97135100  0.10766900  0.36368200  1
  H  H30  1  0.90662400  0.31184900  0.09477500  1
  H  H31  1  0.21707400  0.81184900  0.90522500  1
  O  O32  1  0.33603300  0.48884500  0.34718800  1
  O  O33  1  0.34824800  0.00866000  0.83958800  1
  O  O34  1  0.29474300  0.17771000  0.23960600  1
  O  O35  1  0.55199100  0.94181300  0.73093900  1
  O  O36  1  0.29474300  0.55513700  0.61703300  1
  O  O37  1  0.55199100  0.32105300  0.11017800  1
  O  O38  1  0.30675000  0.24385000  0.56290000  1
  O  O39  1  0.81240700  0.25581800  0.05658900  1
  O  O40  1  0.55966100  0.98190000  0.07776100  1
  O  O41  1  0.59492000  0.51758000  0.57734000  1
  O  O42  1  0.77971000  0.85563400  0.80716600  1
  O  O43  1  0.45471900  0.02754400  0.31033000  1
  O  O44  1  0.45471900  0.64438900  0.92717500  1
  O  O45  1  0.77971000  0.47254500  0.42407600  1
  O  O46  1  0.05035400  0.82693800  0.72341600  1
  O  O47  1  0.40332400  0.67272900  0.23059500  1
  O  O48  1  0.65646600  0.91179000  0.24467600  1
  O  O49  1  0.83333900  0.58990900  0.74343000  1
  O  O50  1  0.66711400  0.41179000  0.75532400  1
  O  O51  1  0.84647900  0.08990900  0.25657000  1
  O  O52  1  0.10352200  0.32693800  0.27658400  1
  O  O53  1  0.44213500  0.17272900  0.76940500  1
  O  O54  1  0.71721300  0.14438900  0.68967000  1
  O  O55  1  0.04846800  0.97254500  0.19283400  1
  O  O56  1  0.71721300  0.52754400  0.07282500  1
  O  O57  1  0.04846800  0.35563400  0.57592400  1
  O  O58  1  0.90413900  0.48190000  0.92223900  1
  O  O59  1  0.94024100  0.01758000  0.42266000  1
  O  O60  1  0.19923000  0.75581800  0.94341100  1
  O  O61  1  0.68094900  0.74385000  0.43710000  1
  O  O62  1  0.21087400  0.82105300  0.26906100  1
  O  O63  1  0.21087400  0.44181300  0.88982200  1
  O  O64  1  0.93810500  0.05513700  0.76039400  1
  O  O65  1  0.93810500  0.67771000  0.38296700  1
  O  O66  1  0.14165700  0.98884500  0.65281200  1
  O  O67  1  0.16907100  0.50866000  0.16041200  1
