# generated using pymatgen
data_LiNiPO4
_symmetry_space_group_name_H-M   'P 1'
_cell_length_a   9.88725748
_cell_length_b   9.88725748
_cell_length_c   23.36069800
_cell_angle_alpha   90.00000000
_cell_angle_beta   90.00000000
_cell_angle_gamma   119.99999651
_symmetry_Int_Tables_number   1
_chemical_formula_structural   LiNiPO4
_chemical_formula_sum   'Li24 Ni24 P24 O96'
_cell_volume   1977.73523049
_cell_formula_units_Z   24
loop_
 _symmetry_equiv_pos_site_id
 _symmetry_equiv_pos_as_xyz
  1  'x, y, z'
loop_
 _atom_site_type_symbol
 _atom_site_label
 _atom_site_symmetry_multiplicity
 _atom_site_fract_x
 _atom_site_fract_y
 _atom_site_fract_z
 _atom_site_occupancy
  Li  Li0  1  0.02164800  0.98027100  0.69610100  1
  Li  Li1  1  0.02822900  0.57398700  0.03693600  1
  Li  Li2  1  0.05384200  0.46133000  0.19503700  1
  Li  Li3  1  0.04365000  0.48113900  0.84926100  1
  Li  Li4  1  0.40748800  0.94615800  0.86170300  1
  Li  Li5  1  0.43748900  0.95635000  0.51592800  1
  Li  Li6  1  0.01972900  0.04137800  0.02943400  1
  Li  Li7  1  0.04137800  0.02164800  0.86276800  1
  Li  Li8  1  0.54575900  0.97177100  0.70360200  1
  Li  Li9  1  0.42601300  0.45424100  0.37026900  1
  Li  Li10  1  0.51886100  0.56251100  0.18259400  1
  Li  Li11  1  0.53867000  0.59251200  0.52837000  1
  Li  Li12  1  0.46133000  0.40748800  0.02837000  1
  Li  Li13  1  0.48113900  0.43748900  0.68259400  1
  Li  Li14  1  0.57398700  0.54575900  0.87026900  1
  Li  Li15  1  0.45424100  0.02822900  0.20360200  1
  Li  Li16  1  0.95862200  0.97835200  0.36276800  1
  Li  Li17  1  0.98027100  0.95862200  0.52943400  1
  Li  Li18  1  0.56251100  0.04365000  0.01592800  1
  Li  Li19  1  0.59251200  0.05384200  0.36170300  1
  Li  Li20  1  0.95635000  0.51886100  0.34926100  1
  Li  Li21  1  0.94615800  0.53867000  0.69503700  1
  Li  Li22  1  0.97177100  0.42601300  0.53693600  1
  Li  Li23  1  0.97835200  0.01972900  0.19610100  1
  Ni  Ni24  1  0.11006700  0.82564600  0.27164800  1
  Ni  Ni25  1  0.08770900  0.76198700  0.92310800  1
  Ni  Ni26  1  0.12728600  0.75947400  0.59648600  1
  Ni  Ni27  1  0.31472600  0.66489500  0.75554000  1
  Ni  Ni28  1  0.33510500  0.64983100  0.08887400  1
  Ni  Ni29  1  0.35016900  0.68527400  0.42220700  1
  Ni  Ni30  1  0.17435400  0.28442100  0.60498100  1
  Ni  Ni31  1  0.24052600  0.36781200  0.92982000  1
  Ni  Ni32  1  0.23801300  0.32572200  0.25644100  1
  Ni  Ni33  1  0.63218800  0.87271400  0.26315300  1
  Ni  Ni34  1  0.67427800  0.91229100  0.58977400  1
  Ni  Ni35  1  0.28442100  0.11006700  0.43831500  1
  Ni  Ni36  1  0.71557900  0.88993300  0.93831500  1
  Ni  Ni37  1  0.32572200  0.08770900  0.08977400  1
  Ni  Ni38  1  0.36781200  0.12728600  0.76315300  1
  Ni  Ni39  1  0.76198700  0.67427800  0.75644100  1
  Ni  Ni40  1  0.75947400  0.63218800  0.42982000  1
  Ni  Ni41  1  0.82564600  0.71557900  0.10498100  1
  Ni  Ni42  1  0.64983100  0.31472600  0.92220700  1
  Ni  Ni43  1  0.66489500  0.35016900  0.58887400  1
  Ni  Ni44  1  0.68527400  0.33510500  0.25554000  1
  Ni  Ni45  1  0.87271400  0.24052600  0.09648600  1
  Ni  Ni46  1  0.91229100  0.23801300  0.42310800  1
  Ni  Ni47  1  0.88993300  0.17435400  0.77164800  1
  P  P48  1  0.09501800  0.78731200  0.79092100  1
  P  P49  1  0.08516500  0.75829900  0.46653900  1
  P  P50  1  0.13266800  0.77028800  0.13899400  1
  P  P51  1  0.28402300  0.64523900  0.29383800  1
  P  P52  1  0.36121700  0.71597700  0.96050400  1
  P  P53  1  0.35476100  0.63878300  0.62717100  1
  P  P54  1  0.22971200  0.36238000  0.47232700  1
  P  P55  1  0.21268800  0.30770600  0.12425500  1
  P  P56  1  0.24170100  0.32686600  0.79987200  1
  P  P57  1  0.63762000  0.86733200  0.80566000  1
  P  P58  1  0.67313400  0.91483500  0.13320600  1
  P  P59  1  0.69229400  0.90498200  0.45758800  1
  P  P60  1  0.30770600  0.09501800  0.95758800  1
  P  P61  1  0.32686600  0.08516500  0.63320600  1
  P  P62  1  0.36238000  0.13266800  0.30566000  1
  P  P63  1  0.75829900  0.67313400  0.29987200  1
  P  P64  1  0.78731200  0.69229400  0.62425500  1
  P  P65  1  0.77028800  0.63762000  0.97232700  1
  P  P66  1  0.64523900  0.36121700  0.12717100  1
  P  P67  1  0.63878300  0.28402300  0.46050400  1
  P  P68  1  0.71597700  0.35476100  0.79383800  1
  P  P69  1  0.86733200  0.22971200  0.63899400  1
  P  P70  1  0.91483500  0.24170100  0.96653900  1
  P  P71  1  0.90498200  0.21268800  0.29092100  1
  O  O72  1  0.04233700  0.77565000  0.08523800  1
  O  O73  1  0.09336700  0.92085700  0.46859800  1
  O  O74  1  0.01667800  0.68794400  0.84498200  1
  O  O75  1  0.14601000  0.98400100  0.92896500  1
  O  O76  1  0.03510800  0.75967000  0.19215000  1
  O  O77  1  0.01697200  0.67273400  0.52388200  1
  O  O78  1  0.24355300  0.93964500  0.80990100  1
  O  O79  1  0.13634800  0.65780300  0.30611800  1
  O  O80  1  0.12690000  0.68678700  0.74838400  1
  O  O81  1  0.31597400  0.97203700  0.58448500  1
  O  O82  1  0.29892300  0.91745400  0.14047400  1
  O  O83  1  0.15266200  0.62453200  0.13379700  1
  O  O84  1  0.25438500  0.79175800  0.45861300  1
  O  O85  1  0.18991300  0.60466300  0.60939100  1
  O  O86  1  0.08254600  0.38146900  0.47380700  1
  O  O87  1  0.27838000  0.75164300  0.91111900  1
  O  O88  1  0.02796300  0.34393700  0.91781800  1
  O  O89  1  0.06035500  0.30390800  0.14323400  1
  O  O90  1  0.01599900  0.16200900  0.26229800  1
  O  O91  1  0.07914300  0.17251000  0.80193100  1
  O  O92  1  0.25536200  0.67022600  0.01444000  1
  O  O93  1  0.24835700  0.52673700  0.24445200  1
  O  O94  1  0.32977400  0.58513700  0.34777400  1
  O  O95  1  0.20824200  0.46262700  0.79194600  1
  O  O96  1  0.41486300  0.74463800  0.68110700  1
  O  O97  1  0.41475100  0.81008700  0.27605800  1
  O  O98  1  0.47187000  0.84733800  0.80046400  1
  O  O99  1  0.31321300  0.44011300  0.08171700  1
  O  O100  1  0.34219700  0.47854500  0.63945100  1
  O  O101  1  0.37546800  0.52813000  0.46713100  1
  O  O102  1  0.24033000  0.27543800  0.52548300  1
  O  O103  1  0.39533700  0.58524900  0.94272500  1
  O  O104  1  0.47326300  0.72162000  0.57778500  1
  O  O105  1  0.52145500  0.86365200  0.97278500  1
  O  O106  1  0.55988700  0.87310000  0.41505100  1
  O  O107  1  0.16200900  0.14601000  0.09563200  1
  O  O108  1  0.22435000  0.26668700  0.41857100  1
  O  O109  1  0.31205600  0.32873300  0.17831600  1
  O  O110  1  0.17251000  0.09336700  0.63526400  1
  O  O111  1  0.32726600  0.34423800  0.85721500  1
  O  O112  1  0.53737300  0.74561500  0.12527900  1
  O  O113  1  0.30390800  0.24355300  0.97656800  1
  O  O114  1  0.65576200  0.98302800  0.19054800  1
  O  O115  1  0.34393700  0.31597400  0.75115200  1
  O  O116  1  0.38146900  0.29892300  0.30714100  1
  O  O117  1  0.67126700  0.98332200  0.51164900  1
  O  O118  1  0.72456200  0.96489200  0.85881600  1
  O  O119  1  0.26668700  0.04233700  0.25190400  1
  O  O120  1  0.73331300  0.95766300  0.75190400  1
  O  O121  1  0.27543800  0.03510800  0.35881600  1
  O  O122  1  0.32873300  0.01667800  0.01164900  1
  O  O123  1  0.61853100  0.70107700  0.80714100  1
  O  O124  1  0.65606300  0.68402600  0.25115200  1
  O  O125  1  0.34423800  0.01697200  0.69054800  1
  O  O126  1  0.69609200  0.75644700  0.47656800  1
  O  O127  1  0.46262700  0.25438500  0.62527900  1
  O  O128  1  0.67273400  0.65576200  0.35721500  1
  O  O129  1  0.82749000  0.90663300  0.13526400  1
  O  O130  1  0.68794400  0.67126700  0.67831600  1
  O  O131  1  0.77565000  0.73331300  0.91857100  1
  O  O132  1  0.83799100  0.85399000  0.59563200  1
  O  O133  1  0.44011300  0.12690000  0.91505100  1
  O  O134  1  0.47854500  0.13634800  0.47278500  1
  O  O135  1  0.52673700  0.27838000  0.07778500  1
  O  O136  1  0.60466300  0.41475100  0.44272500  1
  O  O137  1  0.75967000  0.72456200  0.02548300  1
  O  O138  1  0.62453200  0.47187000  0.96713100  1
  O  O139  1  0.65780300  0.52145500  0.13945100  1
  O  O140  1  0.68678700  0.55988700  0.58171700  1
  O  O141  1  0.52813000  0.15266200  0.30046400  1
  O  O142  1  0.58524900  0.18991300  0.77605800  1
  O  O143  1  0.58513700  0.25536200  0.18110700  1
  O  O144  1  0.79175800  0.53737300  0.29194600  1
  O  O145  1  0.67022600  0.41486300  0.84777400  1
  O  O146  1  0.75164300  0.47326300  0.74445200  1
  O  O147  1  0.74463800  0.32977400  0.51444000  1
  O  O148  1  0.92085700  0.82749000  0.30193100  1
  O  O149  1  0.98400100  0.83799100  0.76229800  1
  O  O150  1  0.93964500  0.69609200  0.64323400  1
  O  O151  1  0.97203700  0.65606300  0.41781800  1
  O  O152  1  0.72162000  0.24835700  0.41111900  1
  O  O153  1  0.91745400  0.61853100  0.97380700  1
  O  O154  1  0.81008700  0.39533700  0.10939100  1
  O  O155  1  0.74561500  0.20824200  0.95861300  1
  O  O156  1  0.84733800  0.37546800  0.63379700  1
  O  O157  1  0.70107700  0.08254600  0.64047400  1
  O  O158  1  0.68402600  0.02796300  0.08448500  1
  O  O159  1  0.87310000  0.31321300  0.24838400  1
  O  O160  1  0.86365200  0.34219700  0.80611800  1
  O  O161  1  0.75644700  0.06035500  0.30990100  1
  O  O162  1  0.98302800  0.32726600  0.02388200  1
  O  O163  1  0.96489200  0.24033000  0.69215000  1
  O  O164  1  0.85399000  0.01599900  0.42896500  1
  O  O165  1  0.98332200  0.31205600  0.34498200  1
  O  O166  1  0.90663300  0.07914300  0.96859800  1
  O  O167  1  0.95766300  0.22435000  0.58523800  1
