# generated using pymatgen
data_LiCrPO4
_symmetry_space_group_name_H-M   'P 1'
_cell_length_a   10.17492129
_cell_length_b   10.17492129
_cell_length_c   16.85277106
_cell_angle_alpha   81.44243916
_cell_angle_beta   81.44243916
_cell_angle_gamma   59.51521828
_symmetry_Int_Tables_number   1
_chemical_formula_structural   LiCrPO4
_chemical_formula_sum   'Li16 Cr16 P16 O64'
_cell_volume   1481.31148814
_cell_formula_units_Z   16
loop_
 _symmetry_equiv_pos_site_id
 _symmetry_equiv_pos_as_xyz
  1  'x, y, z'
loop_
 _atom_site_type_symbol
 _atom_site_label
 _atom_site_symmetry_multiplicity
 _atom_site_fract_x
 _atom_site_fract_y
 _atom_site_fract_z
 _atom_site_occupancy
  Li  Li0  1  0.81528600  0.19827000  0.00347000  1
  Li  Li1  1  0.19827000  0.81528600  0.50347000  1
  Li  Li2  1  0.57478500  0.69972800  0.25219300  1
  Li  Li3  1  0.08175500  0.25232300  0.25149800  1
  Li  Li4  1  0.31321800  0.14257800  0.00326300  1
  Li  Li5  1  0.69972800  0.57478500  0.75219300  1
  Li  Li6  1  0.81281300  0.70115700  0.00379700  1
  Li  Li7  1  0.25232300  0.08175500  0.75149800  1
  Li  Li8  1  0.14257800  0.31321800  0.50326300  1
  Li  Li9  1  0.70115700  0.81281300  0.50379700  1
  Li  Li10  1  0.57569300  0.19814500  0.25194200  1
  Li  Li11  1  0.08046200  0.75512200  0.25357100  1
  Li  Li12  1  0.31337600  0.64120500  0.00456900  1
  Li  Li13  1  0.19814500  0.57569300  0.75194200  1
  Li  Li14  1  0.75512200  0.08046200  0.75357100  1
  Li  Li15  1  0.64120500  0.31337600  0.50456900  1
  Cr  Cr16  1  0.26606100  0.88946800  0.12811400  1
  Cr  Cr17  1  0.76617900  0.43937100  0.13041200  1
  Cr  Cr18  1  0.88946800  0.26606100  0.62811400  1
  Cr  Cr19  1  0.43937100  0.76617900  0.63041200  1
  Cr  Cr20  1  0.33931200  0.99595900  0.38221100  1
  Cr  Cr21  1  0.88376400  0.50938100  0.37740200  1
  Cr  Cr22  1  0.99595900  0.33931200  0.88221100  1
  Cr  Cr23  1  0.50938100  0.88376400  0.87740200  1
  Cr  Cr24  1  0.26519000  0.38800800  0.12839700  1
  Cr  Cr25  1  0.77112500  0.93583700  0.12996400  1
  Cr  Cr26  1  0.38800800  0.26519000  0.62839700  1
  Cr  Cr27  1  0.93583700  0.77112500  0.62996400  1
  Cr  Cr28  1  0.83861500  0.00213900  0.38270500  1
  Cr  Cr29  1  0.38392700  0.50191900  0.37901700  1
  Cr  Cr30  1  0.00213900  0.83861500  0.88270500  1
  Cr  Cr31  1  0.50191900  0.38392700  0.87901700  1
  P  P32  1  0.91872800  0.09861400  0.19079000  1
  P  P33  1  0.09861400  0.91872800  0.69079000  1
  P  P34  1  0.98484600  0.17018600  0.43753500  1
  P  P35  1  0.53627800  0.66657500  0.43902800  1
  P  P36  1  0.17018600  0.98484600  0.93753500  1
  P  P37  1  0.66657500  0.53627800  0.93902800  1
  P  P38  1  0.42038700  0.03968600  0.18997200  1
  P  P39  1  0.91549500  0.60002900  0.19174100  1
  P  P40  1  0.03968600  0.42038700  0.68997200  1
  P  P41  1  0.60002900  0.91549500  0.69174100  1
  P  P42  1  0.48511600  0.16665600  0.43779300  1
  P  P43  1  0.03871200  0.66725500  0.43967700  1
  P  P44  1  0.16665600  0.48511600  0.93779300  1
  P  P45  1  0.66725500  0.03871200  0.93967700  1
  P  P46  1  0.41618300  0.53987000  0.19044800  1
  P  P47  1  0.53987000  0.41618300  0.69044800  1
  O  O48  1  0.34097400  0.65311700  0.11703600  1
  O  O49  1  0.07678600  0.95077800  0.20352300  1
  O  O50  1  0.56934200  0.53130900  0.20361800  1
  O  O51  1  0.75266900  0.41950900  0.00960500  1
  O  O52  1  0.65311700  0.34097400  0.61703600  1
  O  O53  1  0.55316100  0.50717500  0.43604700  1
  O  O54  1  0.24253700  0.98956200  0.01157300  1
  O  O55  1  0.93878400  0.24138100  0.18488500  1
  O  O56  1  0.95077800  0.07678600  0.70352300  1
  O  O57  1  0.12311100  0.00697500  0.43070600  1
  O  O58  1  0.53130900  0.56934200  0.70361800  1
  O  O59  1  0.41950900  0.75266900  0.50960500  1
  O  O60  1  0.50717500  0.55316100  0.93604700  1
  O  O61  1  0.47059300  0.76627400  0.35947800  1
  O  O62  1  0.99070400  0.27647600  0.36181400  1
  O  O63  1  0.45060100  0.87815600  0.17795200  1
  O  O64  1  0.98956200  0.24253700  0.51157300  1
  O  O65  1  0.24138100  0.93878400  0.68488500  1
  O  O66  1  0.00697500  0.12311100  0.93070600  1
  O  O67  1  0.69234500  0.65171200  0.45018600  1
  O  O68  1  0.85056500  0.60228200  0.11381100  1
  O  O69  1  0.30838700  0.10391100  0.26580600  1
  O  O70  1  0.80159100  0.59901300  0.26445000  1
  O  O71  1  0.76627400  0.47059300  0.85947800  1
  O  O72  1  0.27647600  0.99070400  0.86181400  1
  O  O73  1  0.87815600  0.45060100  0.67795200  1
  O  O74  1  0.34542000  0.15130000  0.11577000  1
  O  O75  1  0.07336700  0.45132300  0.20338600  1
  O  O76  1  0.33684000  0.15426900  0.44778200  1
  O  O77  1  0.65171200  0.69234500  0.95018600  1
  O  O78  1  0.60228200  0.85056500  0.61381100  1
  O  O79  1  0.10391100  0.30838700  0.76580600  1
  O  O80  1  0.59901300  0.80159100  0.76445000  1
  O  O81  1  0.57443300  0.02855900  0.20231400  1
  O  O82  1  0.74763800  0.92344700  0.01175000  1
  O  O83  1  0.15130000  0.34542000  0.61577000  1
  O  O84  1  0.05480300  0.50886700  0.43409800  1
  O  O85  1  0.24596500  0.48480100  0.01032500  1
  O  O86  1  0.93867400  0.74052800  0.18786500  1
  O  O87  1  0.45132300  0.07336700  0.70338600  1
  O  O88  1  0.15426900  0.33683900  0.94778200  1
  O  O89  1  0.62790100  0.00575700  0.43300100  1
  O  O90  1  0.02855900  0.57443300  0.70231400  1
  O  O91  1  0.92344700  0.74763800  0.51175000  1
  O  O92  1  0.50886700  0.05480300  0.93409800  1
  O  O93  1  0.48901400  0.27002300  0.36009900  1
  O  O94  1  0.97166400  0.77262100  0.36187500  1
  O  O95  1  0.48480100  0.24596500  0.51032500  1
  O  O96  1  0.45082200  0.37771400  0.17688200  1
  O  O97  1  0.74052800  0.93867400  0.68786500  1
  O  O98  1  0.00575700  0.62790100  0.93300100  1
  O  O99  1  0.19563300  0.65011800  0.45079500  1
  O  O100  1  0.85639100  0.09664500  0.11265800  1
  O  O101  1  0.80590600  0.09916500  0.26363500  1
  O  O102  1  0.30213900  0.59888700  0.26658400  1
  O  O103  1  0.27002300  0.48901400  0.86009900  1
  O  O104  1  0.77262100  0.97166400  0.86187500  1
  O  O105  1  0.37771400  0.45082200  0.67688200  1
  O  O106  1  0.65011800  0.19563300  0.95079500  1
  O  O107  1  0.83369400  0.16298400  0.44669600  1
  O  O108  1  0.09664500  0.85639100  0.61265800  1
  O  O109  1  0.09916500  0.80590600  0.76363500  1
  O  O110  1  0.59888700  0.30213900  0.76658400  1
  O  O111  1  0.16298400  0.83369400  0.94669600  1
