# generated using pymatgen
data_LiMn3(PO4)3
_symmetry_space_group_name_H-M   'P 1'
_cell_length_a   9.04112700
_cell_length_b   9.05435852
_cell_length_c   12.26691544
_cell_angle_alpha   109.51391099
_cell_angle_beta   109.89876234
_cell_angle_gamma   84.10862943
_symmetry_Int_Tables_number   1
_chemical_formula_structural   LiMn3(PO4)3
_chemical_formula_sum   'Li4 Mn12 P12 O48'
_cell_volume   889.92912518
_cell_formula_units_Z   4
loop_
 _symmetry_equiv_pos_site_id
 _symmetry_equiv_pos_as_xyz
  1  'x, y, z'
loop_
 _atom_site_type_symbol
 _atom_site_label
 _atom_site_symmetry_multiplicity
 _atom_site_fract_x
 _atom_site_fract_y
 _atom_site_fract_z
 _atom_site_occupancy
  Li  Li0  1  0.51235100  0.50620600  0.01157700  1
  Li  Li1  1  0.36498800  0.38774500  0.37467300  1
  Li  Li2  1  0.98812500  0.99334900  0.48934800  1
  Li  Li3  1  0.25005500  0.25063300  0.75098100  1
  Mn  Mn4  1  0.48173000  0.16284200  0.09825400  1
  Mn  Mn5  1  0.01125200  0.33426200  0.39947900  1
  Mn  Mn6  1  0.08423800  0.76837400  0.15087300  1
  Mn  Mn7  1  0.85896700  0.39453100  0.12633800  1
  Mn  Mn8  1  0.64424000  0.09614800  0.37122500  1
  Mn  Mn9  1  0.41233500  0.73516600  0.34680400  1
  Mn  Mn10  1  0.58877900  0.27000700  0.65386600  1
  Mn  Mn11  1  0.36384600  0.88845100  0.62581000  1
  Mn  Mn12  1  0.13818700  0.61357700  0.87571400  1
  Mn  Mn13  1  0.98189800  0.66567000  0.59761800  1
  Mn  Mn14  1  0.91506300  0.23185400  0.84907000  1
  Mn  Mn15  1  0.51871600  0.83477100  0.90311700  1
  P  P16  1  0.20700400  0.42334600  0.07513400  1
  P  P17  1  0.83145100  0.04606300  0.17817900  1
  P  P18  1  0.29494300  0.08098400  0.42507900  1
  P  P19  1  0.41282800  0.83315000  0.12455200  1
  P  P20  1  0.08693500  0.66684400  0.37447900  1
  P  P21  1  0.66490200  0.45107600  0.32184100  1
  P  P22  1  0.32549300  0.54170000  0.67412400  1
  P  P23  1  0.91450900  0.33684200  0.62635100  1
  P  P24  1  0.58568600  0.16316100  0.87470600  1
  P  P25  1  0.70955300  0.92470100  0.57695100  1
  P  P26  1  0.17376700  0.95829500  0.82398200  1
  P  P27  1  0.79084400  0.57515900  0.92421000  1
  O  O28  1  0.03556600  0.36479700  0.03517500  1
  O  O29  1  0.66376700  0.02673800  0.07439900  1
  O  O30  1  0.45066300  0.01222400  0.18219000  1
  O  O31  1  0.31901200  0.31136300  0.13773300  1
  O  O32  1  0.19288100  0.20868100  0.37383000  1
  O  O33  1  0.23206100  0.80079900  0.06571600  1
  O  O34  1  0.05403600  0.48655100  0.31820300  1
  O  O35  1  0.22191600  0.58839300  0.17856500  1
  O  O36  1  0.48382100  0.74547300  0.02056300  1
  O  O37  1  0.00649900  0.74271400  0.27388000  1
  O  O38  1  0.74619800  0.54937200  0.02598600  1
  O  O39  1  0.82184400  0.01796600  0.29115300  1
  O  O40  1  0.25285600  0.06008000  0.52971100  1
  O  O41  1  0.60744200  0.28094300  0.29234200  1
  O  O42  1  0.88722500  0.21812300  0.21253600  1
  O  O43  1  0.46672600  0.13866600  0.46165100  1
  O  O44  1  0.67704200  0.47969400  0.21028600  1
  O  O45  1  0.49547000  0.75976800  0.22774800  1
  O  O46  1  0.01837000  0.75398600  0.47958000  1
  O  O47  1  0.15962100  0.52688000  0.56943500  1
  O  O48  1  0.27503600  0.91786200  0.32013700  1
  O  O49  1  0.27061700  0.69316100  0.43235000  1
  O  O50  1  0.54125400  0.55587000  0.37545200  1
  O  O51  1  0.05831700  0.06817200  0.88047100  1
  O  O52  1  0.94485900  0.93462100  0.12053400  1
  O  O53  1  0.43731400  0.43034300  0.61203900  1
  O  O54  1  0.73474100  0.30097800  0.56875800  1
  O  O55  1  0.83192200  0.47416800  0.42612600  1
  O  O56  1  0.72420400  0.08833000  0.68256100  1
  O  O57  1  0.98763500  0.24965100  0.52361000  1
  O  O58  1  0.49748400  0.23623300  0.77054900  1
  O  O59  1  0.30611300  0.49738100  0.77855200  1
  O  O60  1  0.53673500  0.86772100  0.53401700  1
  O  O61  1  0.11643800  0.78649200  0.78351200  1
  O  O62  1  0.38426600  0.71274100  0.71497700  1
  O  O63  1  0.75580500  0.94903400  0.47540300  1
  O  O64  1  0.19595800  0.00096400  0.71936500  1
  O  O65  1  0.25018100  0.44149000  0.96985100  1
  O  O66  1  0.00298000  0.26317800  0.72937100  1
  O  O67  1  0.51013900  0.24928700  0.97627900  1
  O  O68  1  0.77694600  0.41109000  0.81855100  1
  O  O69  1  0.95030700  0.51569200  0.68267900  1
  O  O70  1  0.76447300  0.19990900  0.93280800  1
  O  O71  1  0.81749400  0.80572600  0.63120500  1
  O  O72  1  0.68087300  0.69194000  0.86849200  1
  O  O73  1  0.55007200  0.98404600  0.81752500  1
  O  O74  1  0.33884300  0.97332800  0.92958700  1
  O  O75  1  0.96282300  0.63294100  0.96521900  1
