# generated using pymatgen
data_Li3Mn10O20
_symmetry_space_group_name_H-M   'P 1'
_cell_length_a   5.89207024
_cell_length_b   5.85817018
_cell_length_c   29.77496903
_cell_angle_alpha   60.53641310
_cell_angle_beta   60.08477295
_cell_angle_gamma   60.19014457
_symmetry_Int_Tables_number   1
_chemical_formula_structural   Li3Mn10O20
_chemical_formula_sum   'Li6 Mn20 O40'
_cell_volume   731.14209459
_cell_formula_units_Z   2
loop_
 _symmetry_equiv_pos_site_id
 _symmetry_equiv_pos_as_xyz
  1  'x, y, z'
loop_
 _atom_site_type_symbol
 _atom_site_label
 _atom_site_symmetry_multiplicity
 _atom_site_fract_x
 _atom_site_fract_y
 _atom_site_fract_z
 _atom_site_occupancy
  Li  Li0  1  0.13403400  0.14447100  0.61540500  1
  Li  Li1  1  0.87487600  0.85768500  0.18195100  1
  Li  Li2  1  0.85002300  0.87674100  0.37929900  1
  Li  Li3  1  0.86379800  0.89020100  0.57116000  1
  Li  Li4  1  0.89954400  0.89090400  0.76373000  1
  Li  Li5  1  0.88818100  0.89399400  0.96476600  1
  Mn  Mn6  1  0.13913200  0.09695600  0.23339100  1
  Mn  Mn7  1  0.01398700  0.47901400  0.10559700  1
  Mn  Mn8  1  0.51510800  0.48013800  0.10388600  1
  Mn  Mn9  1  0.50441900  0.48398600  0.20552200  1
  Mn  Mn10  1  0.15168200  0.11373200  0.42417100  1
  Mn  Mn11  1  0.51510800  0.98532400  0.10388600  1
  Mn  Mn12  1  0.50850400  0.48937200  0.30433600  1
  Mn  Mn13  1  0.50793500  0.49670800  0.39973000  1
  Mn  Mn14  1  0.50850400  0.98044400  0.30433600  1
  Mn  Mn15  1  0.50194400  0.50293400  0.49887100  1
  Mn  Mn16  1  0.01367100  0.51267000  0.69219800  1
  Mn  Mn17  1  0.50567000  0.51632500  0.59233600  1
  Mn  Mn18  1  0.50194400  0.00076600  0.49887100  1
  Mn  Mn19  1  0.51047000  0.51461200  0.69155500  1
  Mn  Mn20  1  0.02256900  0.52203600  0.88667200  1
  Mn  Mn21  1  0.51047000  0.01714400  0.69155500  1
  Mn  Mn22  1  0.52232300  0.01860300  0.88760600  1
  Mn  Mn23  1  0.52352100  0.51268000  0.79022400  1
  Mn  Mn24  1  0.52232300  0.52104600  0.88760600  1
  Mn  Mn25  1  0.51556300  0.50057000  0.99665900  1
  O  O26  1  0.26218900  0.23039000  0.06451100  1
  O  O27  1  0.27404800  0.24310500  0.14794800  1
  O  O28  1  0.26218900  0.68486600  0.06451100  1
  O  O29  1  0.71168300  0.24230500  0.06074100  1
  O  O30  1  0.30197600  0.23881700  0.25304300  1
  O  O31  1  0.30700100  0.71403200  0.15298700  1
  O  O32  1  0.74845100  0.27500500  0.15196500  1
  O  O33  1  0.75724700  0.71479100  0.06263400  1
  O  O34  1  0.28841800  0.24438300  0.34456300  1
  O  O35  1  0.30197600  0.69399200  0.25304300  1
  O  O36  1  0.72075700  0.24630300  0.25732700  1
  O  O37  1  0.74845100  0.71671800  0.15196500  1
  O  O38  1  0.28749600  0.25226200  0.45023400  1
  O  O39  1  0.28803200  0.73065200  0.35013300  1
  O  O40  1  0.70616500  0.74242300  0.26179800  1
  O  O41  1  0.70590600  0.28015500  0.35323100  1
  O  O42  1  0.29900300  0.25509500  0.53816100  1
  O  O43  1  0.28749600  0.70907300  0.45023400  1
  O  O44  1  0.72310900  0.26040500  0.45121600  1
  O  O45  1  0.70590600  0.74778300  0.35323100  1
  O  O46  1  0.28452100  0.74707100  0.54426800  1
  O  O47  1  0.25244500  0.28675600  0.64610100  1
  O  O48  1  0.69594900  0.29162500  0.54990400  1
  O  O49  1  0.70228100  0.75419800  0.45786500  1
  O  O50  1  0.25244500  0.73029200  0.64610100  1
  O  O51  1  0.27614000  0.28421300  0.73108700  1
  O  O52  1  0.69594900  0.76290600  0.54990400  1
  O  O53  1  0.71401400  0.28350000  0.64379700  1
  O  O54  1  0.29075600  0.28421000  0.84043400  1
  O  O55  1  0.31003500  0.74582500  0.73966300  1
  O  O56  1  0.76055900  0.29910700  0.73984000  1
  O  O57  1  0.74987800  0.74463500  0.65217000  1
  O  O58  1  0.28678700  0.29052300  0.92643300  1
  O  O59  1  0.29075600  0.72286400  0.84043400  1
  O  O60  1  0.72422800  0.28594200  0.84077800  1
  O  O61  1  0.76055900  0.74113500  0.73984000  1
  O  O62  1  0.31420100  0.76335600  0.93181800  1
  O  O63  1  0.77119600  0.30987800  0.92990100  1
  O  O64  1  0.75830700  0.75592800  0.84596700  1
  O  O65  1  0.77119600  0.76942300  0.92990100  1
