# generated using pymatgen
data_LiFe5O8
_symmetry_space_group_name_H-M   'P 1'
_cell_length_a   8.41410026
_cell_length_b   8.37664959
_cell_length_c   16.76566353
_cell_angle_alpha   90.20695289
_cell_angle_beta   90.23343174
_cell_angle_gamma   90.06701399
_symmetry_Int_Tables_number   1
_chemical_formula_structural   LiFe5O8
_chemical_formula_sum   'Li8 Fe40 O64'
_cell_volume   1181.65864203
_cell_formula_units_Z   8
loop_
 _symmetry_equiv_pos_site_id
 _symmetry_equiv_pos_as_xyz
  1  'x, y, z'
loop_
 _atom_site_type_symbol
 _atom_site_label
 _atom_site_symmetry_multiplicity
 _atom_site_fract_x
 _atom_site_fract_y
 _atom_site_fract_z
 _atom_site_occupancy
  Li  Li0  1  0.12710700  0.62254300  0.06282000  1
  Li  Li1  1  0.12280000  0.63044100  0.56479400  1
  Li  Li2  1  0.12444900  0.87119000  0.68445600  1
  Li  Li3  1  0.13213400  0.12218900  0.31607600  1
  Li  Li4  1  0.36879400  0.12334900  0.43628700  1
  Li  Li5  1  0.37298100  0.12460800  0.93487100  1
  Li  Li6  1  0.62370500  0.62709200  0.31392400  1
  Li  Li7  1  0.62194400  0.62479600  0.81184300  1
  Fe  Fe8  1  0.00678900  0.50679100  0.25421800  1
  Fe  Fe9  1  0.00423600  0.49873200  0.74960500  1
  Fe  Fe10  1  0.12607400  0.37134500  0.43924600  1
  Fe  Fe11  1  0.12676700  0.87152700  0.18993200  1
  Fe  Fe12  1  0.12968500  0.37389900  0.93626800  1
  Fe  Fe13  1  0.12709000  0.12583000  0.81166600  1
  Fe  Fe14  1  0.24612700  0.74214800  0.37370400  1
  Fe  Fe15  1  0.24852600  0.74467100  0.87327900  1
  Fe  Fe16  1  0.24903100  0.25005300  0.12531800  1
  Fe  Fe17  1  0.24712600  0.24697800  0.62445400  1
  Fe  Fe18  1  0.36803000  0.87184100  0.05899300  1
  Fe  Fe19  1  0.36474000  0.87790400  0.56130100  1
  Fe  Fe20  1  0.37423400  0.62440700  0.18818400  1
  Fe  Fe21  1  0.37242900  0.62692300  0.68857300  1
  Fe  Fe22  1  0.37699800  0.37067300  0.31818700  1
  Fe  Fe23  1  0.37698400  0.37297700  0.81260000  1
  Fe  Fe24  1  0.49468000  0.50655600  0.99854100  1
  Fe  Fe25  1  0.50449200  0.50434800  0.50149700  1
  Fe  Fe26  1  0.50279000  0.00301500  0.25232400  1
  Fe  Fe27  1  0.50041100  0.00649700  0.75089000  1
  Fe  Fe28  1  0.62198300  0.87359700  0.93536100  1
  Fe  Fe29  1  0.62093700  0.87706600  0.43557000  1
  Fe  Fe30  1  0.61916000  0.12727500  0.05934500  1
  Fe  Fe31  1  0.62612900  0.12736700  0.56339900  1
  Fe  Fe32  1  0.62357200  0.38227500  0.19112600  1
  Fe  Fe33  1  0.62675800  0.37396600  0.68803700  1
  Fe  Fe34  1  0.74461400  0.74564900  0.12424400  1
  Fe  Fe35  1  0.74794500  0.74574100  0.62505000  1
  Fe  Fe36  1  0.74679600  0.24320400  0.37652800  1
  Fe  Fe37  1  0.74634900  0.24528400  0.87200300  1
  Fe  Fe38  1  0.87476700  0.62580700  0.93626300  1
  Fe  Fe39  1  0.87496500  0.62226600  0.43803900  1
  Fe  Fe40  1  0.88264800  0.37795800  0.06236100  1
  Fe  Fe41  1  0.87316600  0.37482000  0.56343200  1
  Fe  Fe42  1  0.87519800  0.87358100  0.31317900  1
  Fe  Fe43  1  0.87626300  0.87223000  0.80797100  1
  Fe  Fe44  1  0.87923600  0.12493300  0.19258000  1
  Fe  Fe45  1  0.87676700  0.12587700  0.68630500  1
  Fe  Fe46  1  0.00379200  0.00717000  0.49936400  1
  Fe  Fe47  1  0.00300600  0.00539100  0.99775600  1
  O  O48  1  0.11359200  0.60652000  0.43804300  1
  O  O49  1  0.11506300  0.60820500  0.93709300  1
  O  O50  1  0.13165900  0.87508600  0.06499400  1
  O  O51  1  0.13348700  0.88057800  0.56261300  1
  O  O52  1  0.11884700  0.37185600  0.05379000  1
  O  O53  1  0.10671100  0.36844100  0.55735100  1
  O  O54  1  0.10821000  0.87449700  0.30930000  1
  O  O55  1  0.14197200  0.63134500  0.18646400  1
  O  O56  1  0.13411600  0.62248800  0.68792600  1
  O  O57  1  0.11561500  0.89284200  0.81573400  1
  O  O58  1  0.12546100  0.14420500  0.43691200  1
  O  O59  1  0.12462700  0.14046100  0.92955300  1
  O  O60  1  0.11500800  0.11481500  0.18772500  1
  O  O61  1  0.10681000  0.13343600  0.69480600  1
  O  O62  1  0.13340800  0.37384000  0.31868000  1
  O  O63  1  0.13924100  0.36251700  0.81810800  1
  O  O64  1  0.37542600  0.63378900  0.07159900  1
  O  O65  1  0.37440300  0.63330000  0.56818500  1
  O  O66  1  0.38397400  0.87324900  0.44013900  1
  O  O67  1  0.38847300  0.86985100  0.94068300  1
  O  O68  1  0.36769900  0.86242000  0.18468800  1
  O  O69  1  0.37941500  0.86684000  0.68551200  1
  O  O70  1  0.38445900  0.11522500  0.06288400  1
  O  O71  1  0.37892800  0.37998800  0.43289100  1
  O  O72  1  0.39489200  0.11993500  0.56559500  1
  O  O73  1  0.36295200  0.37815700  0.93012600  1
  O  O74  1  0.37511600  0.61537600  0.30399100  1
  O  O75  1  0.37675700  0.60566100  0.80935900  1
  O  O76  1  0.37776700  0.13877100  0.31094200  1
  O  O77  1  0.35980300  0.14040600  0.81033400  1
  O  O78  1  0.38126200  0.38737000  0.19062200  1
  O  O79  1  0.39069700  0.37698800  0.69285600  1
  O  O80  1  0.61694500  0.88203800  0.05534300  1
  O  O81  1  0.62201400  0.89215900  0.55962400  1
  O  O82  1  0.63423200  0.63924300  0.93782500  1
  O  O83  1  0.63860900  0.63571700  0.43800700  1
  O  O84  1  0.62454400  0.11057800  0.93977900  1
  O  O85  1  0.62929700  0.11572600  0.44772100  1
  O  O86  1  0.61015900  0.61647300  0.18653000  1
  O  O87  1  0.62048500  0.60562800  0.68821100  1
  O  O88  1  0.64258900  0.87655400  0.31645900  1
  O  O89  1  0.63388500  0.88236800  0.81991500  1
  O  O90  1  0.63164100  0.36886200  0.06514700  1
  O  O91  1  0.63711700  0.36363800  0.56986700  1
  O  O92  1  0.61908200  0.37485000  0.30797200  1
  O  O93  1  0.61167300  0.36764700  0.80517700  1
  O  O94  1  0.63540900  0.13624600  0.18185300  1
  O  O95  1  0.64032300  0.13787400  0.68193000  1
  O  O96  1  0.87252700  0.86700400  0.43115400  1
  O  O97  1  0.86121100  0.86904900  0.93382000  1
  O  O98  1  0.87528500  0.61438200  0.05862500  1
  O  O99  1  0.87359400  0.60715600  0.55976200  1
  O  O100  1  0.87170300  0.64012700  0.31587600  1
  O  O101  1  0.87466000  0.63420600  0.81595500  1
  O  O102  1  0.86508800  0.13366400  0.06623900  1
  O  O103  1  0.86209600  0.13957100  0.56894200  1
  O  O104  1  0.88477300  0.37949400  0.93915200  1
  O  O105  1  0.86796200  0.38208000  0.44424000  1
  O  O106  1  0.88076400  0.87815700  0.19286600  1
  O  O107  1  0.86942400  0.89322300  0.69051500  1
  O  O108  1  0.86862000  0.37106000  0.18447400  1
  O  O109  1  0.86313300  0.36155300  0.68235500  1
  O  O110  1  0.87141900  0.10987600  0.30823100  1
  O  O111  1  0.88868400  0.12056100  0.80517200  1
