# generated using pymatgen
data_Li2Mn(BO3)2
_symmetry_space_group_name_H-M   'P 1'
_cell_length_a   14.60742600
_cell_length_b   3.00255200
_cell_length_c   9.15740721
_cell_angle_alpha   87.44419471
_cell_angle_beta   90.00000000
_cell_angle_gamma   90.00000000
_symmetry_Int_Tables_number   1
_chemical_formula_structural   Li2Mn(BO3)2
_chemical_formula_sum   'Li8 Mn4 B8 O24'
_cell_volume   401.24028982
_cell_formula_units_Z   4
loop_
 _symmetry_equiv_pos_site_id
 _symmetry_equiv_pos_as_xyz
  1  'x, y, z'
loop_
 _atom_site_type_symbol
 _atom_site_label
 _atom_site_symmetry_multiplicity
 _atom_site_fract_x
 _atom_site_fract_y
 _atom_site_fract_z
 _atom_site_occupancy
  Li  Li0  1  0.04014500  0.72333400  0.88785100  1
  Li  Li1  1  0.25236700  0.69829800  0.89309800  1
  Li  Li2  1  0.45985500  0.72333400  0.38785100  1
  Li  Li3  1  0.24763300  0.69829800  0.39309800  1
  Li  Li4  1  0.75236700  0.30170200  0.60690200  1
  Li  Li5  1  0.54014500  0.27666600  0.61214900  1
  Li  Li6  1  0.74763300  0.30170200  0.10690200  1
  Li  Li7  1  0.95985500  0.27666600  0.11214900  1
  Mn  Mn8  1  0.63249300  0.82177400  0.87710200  1
  Mn  Mn9  1  0.86750700  0.82177400  0.37710200  1
  Mn  Mn10  1  0.13249300  0.17822600  0.62289800  1
  Mn  Mn11  1  0.36750700  0.17822600  0.12289800  1
  B  B12  1  0.42377400  0.84412700  0.83900700  1
  B  B13  1  0.84259400  0.85511200  0.89521500  1
  B  B14  1  0.07622600  0.84412700  0.33900700  1
  B  B15  1  0.65740600  0.85511200  0.39521500  1
  B  B16  1  0.34259400  0.14488800  0.60478500  1
  B  B17  1  0.92377400  0.15587300  0.66099300  1
  B  B18  1  0.15740600  0.14488800  0.10478500  1
  B  B19  1  0.57622600  0.15587300  0.16099300  1
  O  O20  1  0.34764600  0.98368900  0.75463100  1
  O  O21  1  0.50958600  0.84145500  0.78779700  1
  O  O22  1  0.15235400  0.98368900  0.25463100  1
  O  O23  1  0.75488500  0.81571200  0.95840600  1
  O  O24  1  0.99041400  0.84145500  0.28779700  1
  O  O25  1  0.74511500  0.81571200  0.45840600  1
  O  O26  1  0.91519000  0.74487700  0.97545700  1
  O  O27  1  0.39964700  0.70989400  0.98377200  1
  O  O28  1  0.15858600  0.66666800  0.74343900  1
  O  O29  1  0.58481000  0.74487700  0.47545700  1
  O  O30  1  0.10035300  0.70989400  0.48377200  1
  O  O31  1  0.34141400  0.66666800  0.24343900  1
  O  O32  1  0.65858600  0.33333200  0.75656100  1
  O  O33  1  0.89964700  0.29010600  0.51622800  1
  O  O34  1  0.41519000  0.25512300  0.52454300  1
  O  O35  1  0.84141400  0.33333200  0.25656100  1
  O  O36  1  0.60035300  0.29010600  0.01622800  1
  O  O37  1  0.08481000  0.25512300  0.02454300  1
  O  O38  1  0.25488500  0.18428800  0.54159400  1
  O  O39  1  0.00958600  0.15854500  0.71220300  1
  O  O40  1  0.24511500  0.18428800  0.04159400  1
  O  O41  1  0.84764600  0.01631100  0.74536900  1
  O  O42  1  0.49041400  0.15854500  0.21220300  1
  O  O43  1  0.65235400  0.01631100  0.24536900  1
