# generated using pymatgen
data_Li6V5O12
_symmetry_space_group_name_H-M   'P 1'
_cell_length_a   5.18552600
_cell_length_b   8.80550664
_cell_length_c   9.92596773
_cell_angle_alpha   98.40716621
_cell_angle_beta   95.63040601
_cell_angle_gamma   90.16071848
_symmetry_Int_Tables_number   1
_chemical_formula_structural   Li6V5O12
_chemical_formula_sum   'Li12 V10 O24'
_cell_volume   446.13020031
_cell_formula_units_Z   2
loop_
 _symmetry_equiv_pos_site_id
 _symmetry_equiv_pos_as_xyz
  1  'x, y, z'
loop_
 _atom_site_type_symbol
 _atom_site_label
 _atom_site_symmetry_multiplicity
 _atom_site_fract_x
 _atom_site_fract_y
 _atom_site_fract_z
 _atom_site_occupancy
  Li  Li0  1  0.01898800  0.82499800  0.51431100  1
  Li  Li1  1  0.24760800  0.74882800  0.98032700  1
  Li  Li2  1  0.22690900  0.40430600  0.98661800  1
  Li  Li3  1  0.37515000  0.86927500  0.74361800  1
  Li  Li4  1  0.26992000  0.07993100  0.99040600  1
  Li  Li5  1  0.50779200  0.34055300  0.51307000  1
  Li  Li6  1  0.50942900  0.98588300  0.52084200  1
  Li  Li7  1  0.74091400  0.56113900  0.98151900  1
  Li  Li8  1  0.74243400  0.91719000  0.98612600  1
  Li  Li9  1  0.87821500  0.37119900  0.75597900  1
  Li  Li10  1  0.98127300  0.50094200  0.50863900  1
  Li  Li11  1  0.00759500  0.17412100  0.52028700  1
  V  V12  1  0.11757200  0.29211700  0.24732900  1
  V  V13  1  0.12410300  0.62526600  0.24930400  1
  V  V14  1  0.12644000  0.95376400  0.25312500  1
  V  V15  1  0.62477600  0.12556400  0.25104600  1
  V  V16  1  0.61959000  0.45747700  0.24743200  1
  V  V17  1  0.62442400  0.79033500  0.25190800  1
  V  V18  1  0.35600600  0.54084500  0.73980200  1
  V  V19  1  0.40258700  0.20493900  0.76204900  1
  V  V20  1  0.85097100  0.70090200  0.73901700  1
  V  V21  1  0.89685500  0.04406200  0.76050000  1
  O  O22  1  0.03931800  0.89775100  0.86556700  1
  O  O23  1  0.09382900  0.21427900  0.86529100  1
  O  O24  1  0.05875600  0.57318300  0.85948100  1
  O  O25  1  0.19349200  0.03728800  0.64108800  1
  O  O26  1  0.15917700  0.67640400  0.63487100  1
  O  O27  1  0.21312800  0.35925800  0.63528900  1
  O  O28  1  0.30379600  0.14114200  0.36118700  1
  O  O29  1  0.29547400  0.46096900  0.35751700  1
  O  O30  1  0.30597500  0.82109600  0.36432400  1
  O  O31  1  0.52994100  0.38934900  0.85819000  1
  O  O32  1  0.43231500  0.60706400  0.13700200  1
  O  O33  1  0.42989500  0.93929300  0.13825700  1
  O  O34  1  0.42277500  0.27004100  0.14222500  1
  O  O35  1  0.55516900  0.70600000  0.85832700  1
  O  O36  1  0.57615400  0.06199300  0.86366800  1
  O  O37  1  0.67614300  0.52498700  0.63706500  1
  O  O38  1  0.69773400  0.16993600  0.64187700  1
  O  O39  1  0.72303100  0.85356300  0.64215500  1
  O  O40  1  0.81827900  0.97590200  0.36163200  1
  O  O41  1  0.81284300  0.31114300  0.36293000  1
  O  O42  1  0.81978900  0.64194400  0.35712100  1
  O  O43  1  0.93970100  0.43856700  0.13750400  1
  O  O44  1  0.93835300  0.78123300  0.13656200  1
  O  O45  1  0.95508000  0.10450300  0.14605900  1
