# generated using pymatgen
data_Li4V5(P3O11)2
_symmetry_space_group_name_H-M   'P 1'
_cell_length_a   6.67362800
_cell_length_b   10.86575900
_cell_length_c   12.81198575
_cell_angle_alpha   76.27201645
_cell_angle_beta   90.00000000
_cell_angle_gamma   90.00000000
_symmetry_Int_Tables_number   1
_chemical_formula_structural   Li4V5(P3O11)2
_chemical_formula_sum   'Li8 V10 P12 O44'
_cell_volume   902.50893585
_cell_formula_units_Z   2
loop_
 _symmetry_equiv_pos_site_id
 _symmetry_equiv_pos_as_xyz
  1  'x, y, z'
loop_
 _atom_site_type_symbol
 _atom_site_label
 _atom_site_symmetry_multiplicity
 _atom_site_fract_x
 _atom_site_fract_y
 _atom_site_fract_z
 _atom_site_occupancy
  Li  Li0  1  0.85396900  0.44349600  0.18518500  1
  Li  Li1  1  0.64603100  0.94349600  0.18518500  1
  Li  Li2  1  0.47614800  0.11986300  0.34492000  1
  Li  Li3  1  0.02385200  0.61986300  0.34492000  1
  Li  Li4  1  0.97614800  0.38013700  0.65508000  1
  Li  Li5  1  0.52385200  0.88013700  0.65508000  1
  Li  Li6  1  0.35396900  0.05650400  0.81481500  1
  Li  Li7  1  0.14603100  0.55650400  0.81481500  1
  V  V8  1  0.50000000  0.50000000  0.00000000  1
  V  V9  1  0.24517500  0.21799700  0.13191000  1
  V  V10  1  0.00000000  0.00000000  0.00000000  1
  V  V11  1  0.25482500  0.71799700  0.13191000  1
  V  V12  1  0.01639300  0.19651500  0.33595600  1
  V  V13  1  0.48360700  0.69651500  0.33595600  1
  V  V14  1  0.51639300  0.30348500  0.66404400  1
  V  V15  1  0.98360700  0.80348500  0.66404400  1
  V  V16  1  0.74517500  0.28200300  0.86809000  1
  V  V17  1  0.75482500  0.78200300  0.86809000  1
  P  P18  1  0.73860500  0.22290300  0.09222700  1
  P  P19  1  0.76139500  0.72290300  0.09222700  1
  P  P20  1  0.39480900  0.43293200  0.26471400  1
  P  P21  1  0.10519100  0.93293200  0.26471400  1
  P  P22  1  0.72344900  0.41838800  0.41655400  1
  P  P23  1  0.77655100  0.91838800  0.41655400  1
  P  P24  1  0.22344900  0.08161200  0.58344600  1
  P  P25  1  0.27655100  0.58161200  0.58344600  1
  P  P26  1  0.89480900  0.06706800  0.73528600  1
  P  P27  1  0.60519100  0.56706800  0.73528600  1
  P  P28  1  0.23860500  0.27709700  0.90777300  1
  P  P29  1  0.26139500  0.77709700  0.90777300  1
  O  O30  1  0.77758800  0.13479800  0.01371700  1
  O  O31  1  0.70615900  0.35303200  0.00972900  1
  O  O32  1  0.72241200  0.63479800  0.01371700  1
  O  O33  1  0.79384100  0.85303200  0.00972900  1
  O  O34  1  0.55921700  0.16925100  0.16494300  1
  O  O35  1  0.92007200  0.24339800  0.16325200  1
  O  O36  1  0.55174900  0.45694200  0.17592500  1
  O  O37  1  0.20973800  0.05715500  0.27506600  1
  O  O38  1  0.94078300  0.66925100  0.16494300  1
  O  O39  1  0.57992700  0.74339800  0.16325200  1
  O  O40  1  0.24563300  0.32992400  0.25194900  1
  O  O41  1  0.94825100  0.95694200  0.17592500  1
  O  O42  1  0.29026200  0.55715500  0.27506600  1
  O  O43  1  0.76947200  0.06415600  0.38940000  1
  O  O44  1  0.25436700  0.82992400  0.25194900  1
  O  O45  1  0.87906500  0.37034100  0.34771700  1
  O  O46  1  0.50364400  0.37572500  0.37839800  1
  O  O47  1  0.23509800  0.14495700  0.46418200  1
  O  O48  1  0.73052800  0.56415600  0.38940000  1
  O  O49  1  0.62093500  0.87034100  0.34771700  1
  O  O50  1  0.99635600  0.87572500  0.37839800  1
  O  O51  1  0.26490200  0.64495700  0.46418200  1
  O  O52  1  0.73509800  0.35504300  0.53581800  1
  O  O53  1  0.00364400  0.12427500  0.62160200  1
  O  O54  1  0.37906500  0.12965900  0.65228300  1
  O  O55  1  0.26947200  0.43584400  0.61060000  1
  O  O56  1  0.76490200  0.85504300  0.53581800  1
  O  O57  1  0.49635600  0.62427500  0.62160200  1
  O  O58  1  0.12093500  0.62965900  0.65228300  1
  O  O59  1  0.74563300  0.17007600  0.74805100  1
  O  O60  1  0.23052800  0.93584400  0.61060000  1
  O  O61  1  0.70973800  0.44284500  0.72493400  1
  O  O62  1  0.05174900  0.04305800  0.82407500  1
  O  O63  1  0.75436700  0.67007600  0.74805100  1
  O  O64  1  0.42007200  0.25660200  0.83674800  1
  O  O65  1  0.05921700  0.33074900  0.83505700  1
  O  O66  1  0.79026200  0.94284500  0.72493400  1
  O  O67  1  0.44825100  0.54305800  0.82407500  1
  O  O68  1  0.07992800  0.75660200  0.83674800  1
  O  O69  1  0.44078300  0.83074900  0.83505700  1
  O  O70  1  0.20615900  0.14696800  0.99027100  1
  O  O71  1  0.27758800  0.36520200  0.98628300  1
  O  O72  1  0.29384100  0.64696800  0.99027100  1
  O  O73  1  0.22241200  0.86520200  0.98628300  1
