# generated using pymatgen
data_Li24Ti5Cr7O36
_symmetry_space_group_name_H-M   'P 1'
_cell_length_a   5.05810200
_cell_length_b   9.80127187
_cell_length_c   13.37242712
_cell_angle_alpha   80.64781394
_cell_angle_beta   79.34609191
_cell_angle_gamma   85.22286826
_symmetry_Int_Tables_number   1
_chemical_formula_structural   Li24Ti5Cr7O36
_chemical_formula_sum   'Li24 Ti5 Cr7 O36'
_cell_volume   641.89168743
_cell_formula_units_Z   1
loop_
 _symmetry_equiv_pos_site_id
 _symmetry_equiv_pos_as_xyz
  1  'x, y, z'
loop_
 _atom_site_type_symbol
 _atom_site_label
 _atom_site_symmetry_multiplicity
 _atom_site_fract_x
 _atom_site_fract_y
 _atom_site_fract_z
 _atom_site_occupancy
  Li  Li0  1  0.66067400  0.99982900  0.16826200  1
  Li  Li1  1  0.56585500  0.99964500  0.38670900  1
  Li  Li2  1  0.25075400  0.75076200  0.75044500  1
  Li  Li3  1  0.58404800  0.74990200  0.08259200  1
  Li  Li4  1  0.06214800  0.50003700  0.88640100  1
  Li  Li5  1  0.40345100  0.50024900  0.21972200  1
  Li  Li6  1  0.16205100  0.49873100  0.66658900  1
  Li  Li7  1  0.49720100  0.50094100  0.00071600  1
  Li  Li8  1  0.26970500  0.50040400  0.44625700  1
  Li  Li9  1  0.08556600  0.24996000  0.58405900  1
  Li  Li10  1  0.99228400  0.99880700  0.50088500  1
  Li  Li11  1  0.77092100  0.99828900  0.94529900  1
  Li  Li12  1  0.10484300  0.99902700  0.27933400  1
  Li  Li13  1  0.90091700  0.99949400  0.72094500  1
  Li  Li14  1  0.22970400  0.00067500  0.05392500  1
  Li  Li15  1  0.91929700  0.75015600  0.41751200  1
  Li  Li16  1  0.73532700  0.49995600  0.55409600  1
  Li  Li17  1  0.82550000  0.50105900  0.33460400  1
  Li  Li18  1  0.60558100  0.49994500  0.77939500  1
  Li  Li19  1  0.93608100  0.50057300  0.11360100  1
  Li  Li20  1  0.41858400  0.25059100  0.91560100  1
  Li  Li21  1  0.32992200  0.00045800  0.83385000  1
  Li  Li22  1  0.75092800  0.24921800  0.24958600  1
  Li  Li23  1  0.43600400  0.00030200  0.61197000  1
  Ti  Ti24  1  0.85435700  0.25317600  0.02959100  1
  Ti  Ti25  1  0.35883500  0.75123800  0.52717100  1
  Ti  Ti26  1  0.19724800  0.24627500  0.36051800  1
  Ti  Ti27  1  0.03143200  0.74637300  0.19284600  1
  Ti  Ti28  1  0.52689500  0.24965900  0.69331300  1
  Cr  Cr29  1  0.47575100  0.75047700  0.30599700  1
  Cr  Cr30  1  0.97400300  0.24947200  0.80698300  1
  Cr  Cr31  1  0.30207500  0.25048600  0.13772100  1
  Cr  Cr32  1  0.68664800  0.75194900  0.86378600  1
  Cr  Cr33  1  0.80638200  0.74800700  0.64144300  1
  Cr  Cr34  1  0.64329000  0.25106300  0.47231400  1
  Cr  Cr35  1  0.13546800  0.75133600  0.96923400  1
  O  O36  1  0.93064100  0.86325600  0.06875000  1
  O  O37  1  0.71789600  0.63341200  0.21334100  1
  O  O38  1  0.42624400  0.36452700  0.57175700  1
  O  O39  1  0.50271800  0.36214500  0.35809300  1
  O  O40  1  0.62226100  0.36744800  0.11852100  1
  O  O41  1  0.25800500  0.86456500  0.40530600  1
  O  O42  1  0.21875300  0.13302000  0.71399600  1
  O  O43  1  0.33646000  0.13761100  0.47744100  1
  O  O44  1  0.54009200  0.13552400  0.05028800  1
  O  O45  1  0.00471300  0.86190600  0.85823900  1
  O  O46  1  0.11160200  0.86461100  0.61971800  1
  O  O47  1  0.33673800  0.86178000  0.19061500  1
  O  O48  1  0.40660400  0.13778900  0.26032300  1
  O  O49  1  0.83071200  0.63746700  0.97256900  1
  O  O50  1  0.05193000  0.63271800  0.54793800  1
  O  O51  1  0.17067300  0.63765100  0.31066300  1
  O  O52  1  0.90480300  0.63978600  0.76053600  1
  O  O53  1  0.23883600  0.63752900  0.09352100  1
  O  O54  1  0.75753600  0.36437800  0.90507100  1
  O  O55  1  0.09816900  0.36238000  0.23527200  1
  O  O56  1  0.83630700  0.36163400  0.69112100  1
  O  O57  1  0.94574000  0.36451500  0.45194200  1
  O  O58  1  0.17253600  0.36236400  0.02454600  1
  O  O59  1  0.59596800  0.86235700  0.74074800  1
  O  O60  1  0.67144200  0.13779700  0.81130400  1
  O  O61  1  0.88294000  0.13439300  0.38091500  1
  O  O62  1  0.99678900  0.13571700  0.14330000  1
  O  O63  1  0.45656900  0.86540900  0.95030500  1
  O  O64  1  0.66886400  0.86141700  0.52517300  1
  O  O65  1  0.77690300  0.86414800  0.28563400  1
  O  O66  1  0.73944700  0.13750500  0.59268800  1
  O  O67  1  0.37408400  0.63678600  0.88417400  1
  O  O68  1  0.50407600  0.63733400  0.64485200  1
  O  O69  1  0.57380400  0.63797400  0.42552500  1
  O  O70  1  0.27696600  0.36475000  0.78625000  1
  O  O71  1  0.07245300  0.13787100  0.92629600  1
