# generated using pymatgen
data_Li2MnVP2(O4F)2
_symmetry_space_group_name_H-M   'P 1'
_cell_length_a   5.23900300
_cell_length_b   7.50051296
_cell_length_c   14.74787962
_cell_angle_alpha   93.30659547
_cell_angle_beta   94.21628672
_cell_angle_gamma   105.27384925
_symmetry_Int_Tables_number   1
_chemical_formula_structural   Li2MnVP2(O4F)2
_chemical_formula_sum   'Li6 Mn3 V3 P6 O24 F6'
_cell_volume   555.74725241
_cell_formula_units_Z   3
loop_
 _symmetry_equiv_pos_site_id
 _symmetry_equiv_pos_as_xyz
  1  'x, y, z'
loop_
 _atom_site_type_symbol
 _atom_site_label
 _atom_site_symmetry_multiplicity
 _atom_site_fract_x
 _atom_site_fract_y
 _atom_site_fract_z
 _atom_site_occupancy
  Li  Li0  1  0.06005100  0.33077400  0.14269800  1
  Li  Li1  1  0.39160700  0.66641900  0.47708100  1
  Li  Li2  1  0.72840800  0.99518800  0.80847400  1
  Li  Li3  1  0.27359200  0.00167900  0.18978000  1
  Li  Li4  1  0.60526400  0.33589300  0.52571700  1
  Li  Li5  1  0.93779500  0.66743500  0.85679100  1
  Mn  Mn6  1  0.99570000  0.99694300  0.50041300  1
  Mn  Mn7  1  0.66535800  0.66580600  0.66674200  1
  Mn  Mn8  1  0.66862200  0.66900800  0.16627000  1
  V  V9  1  0.00406600  0.00257500  0.99950300  1
  V  V10  1  0.33431000  0.33280400  0.83385900  1
  V  V11  1  0.33342600  0.33335000  0.33331200  1
  P  P12  1  0.26266300  0.94123500  0.70678000  1
  P  P13  1  0.06945700  0.38892200  0.62683600  1
  P  P14  1  0.40590400  0.72407700  0.96021200  1
  P  P15  1  0.59728900  0.27875900  0.04095600  1
  P  P16  1  0.92768600  0.61132800  0.37189300  1
  P  P17  1  0.73880100  0.05607500  0.29348900  1
  O  O18  1  0.08417600  0.77920200  0.43943800  1
  O  O19  1  0.23100000  0.86028700  0.94628200  1
  O  O20  1  0.24154200  0.99244000  0.60788300  1
  O  O21  1  0.08949900  0.33882300  0.72534000  1
  O  O22  1  0.10072400  0.47326200  0.38391900  1
  O  O23  1  0.25140700  0.55365900  0.89512200  1
  O  O24  1  0.01769900  0.14411000  0.26087500  1
  O  O25  1  0.43787800  0.80444500  0.72144200  1
  O  O26  1  0.35025900  0.47679700  0.59350300  1
  O  O27  1  0.42533200  0.67322100  0.05920400  1
  O  O28  1  0.58281800  0.88822000  0.22620400  1
  O  O29  1  0.68628200  0.81472400  0.92747100  1
  O  O30  1  0.31665500  0.18924900  0.07344100  1
  O  O31  1  0.41513300  0.11156300  0.77217400  1
  O  O32  1  0.57591200  0.32769100  0.94210200  1
  O  O33  1  0.64925700  0.52277400  0.40457300  1
  O  O34  1  0.56525900  0.19365300  0.28150900  1
  O  O35  1  0.98126300  0.85301400  0.74031600  1
  O  O36  1  0.75110100  0.44808600  0.10722900  1
  O  O37  1  0.89235300  0.52503800  0.61337200  1
  O  O38  1  0.91143700  0.66369500  0.27315600  1
  O  O39  1  0.75637000  0.00498800  0.39259000  1
  O  O40  1  0.77277000  0.14295700  0.05337400  1
  O  O41  1  0.91675000  0.22001800  0.55982500  1
  F  F42  1  0.02435400  0.15141700  0.88742700  1
  F  F43  1  0.34388900  0.47614900  0.22518900  1
  F  F44  1  0.32316300  0.19089200  0.44153700  1
  F  F45  1  0.67306200  0.81678200  0.55244800  1
  F  F46  1  0.64336800  0.50749100  0.78351200  1
  F  F47  1  0.98928700  0.85708600  0.10873500  1
