# generated using pymatgen
data_LiCoPO4
_symmetry_space_group_name_H-M   'P 1'
_cell_length_a   5.17452494
_cell_length_b   7.89942716
_cell_length_c   8.75783359
_cell_angle_alpha   92.36271766
_cell_angle_beta   92.77699778
_cell_angle_gamma   77.88463756
_symmetry_Int_Tables_number   1
_chemical_formula_structural   LiCoPO4
_chemical_formula_sum   'Li4 Co4 P4 O16'
_cell_volume   349.42208309
_cell_formula_units_Z   4
loop_
 _symmetry_equiv_pos_site_id
 _symmetry_equiv_pos_as_xyz
  1  'x, y, z'
loop_
 _atom_site_type_symbol
 _atom_site_label
 _atom_site_symmetry_multiplicity
 _atom_site_fract_x
 _atom_site_fract_y
 _atom_site_fract_z
 _atom_site_occupancy
  Li  Li0  1  0.13435400  0.96913500  0.34536000  1
  Li  Li1  1  0.86566400  0.03088000  0.65463600  1
  Li  Li2  1  0.17992200  0.43634500  0.23258500  1
  Li  Li3  1  0.82004400  0.56362000  0.76745100  1
  Co  Co4  1  0.30991200  0.67969700  0.55721900  1
  Co  Co5  1  0.69007500  0.32031100  0.44277600  1
  Co  Co6  1  0.23600700  0.19151700  0.90905000  1
  Co  Co7  1  0.76402600  0.80846800  0.09093800  1
  P  P8  1  0.24240800  0.28516400  0.57550500  1
  P  P9  1  0.75757200  0.71483600  0.42449700  1
  P  P10  1  0.24027000  0.79255300  0.89041400  1
  P  P11  1  0.75974900  0.20744900  0.10958800  1
  O  O12  1  0.06064200  0.17725400  0.48561900  1
  O  O13  1  0.93935200  0.82275500  0.51437800  1
  O  O14  1  0.01141500  0.28289300  0.08664800  1
  O  O15  1  0.98860800  0.71708000  0.91334500  1
  O  O16  1  0.12041200  0.34760800  0.73105600  1
  O  O17  1  0.87954100  0.65238700  0.26894400  1
  O  O18  1  0.26456500  0.44123800  0.47411200  1
  O  O19  1  0.73540700  0.55877800  0.52588300  1
  O  O20  1  0.14802900  0.97457700  0.81763100  1
  O  O21  1  0.85198400  0.02539600  0.18235300  1
  O  O22  1  0.42163200  0.67109700  0.77617900  1
  O  O23  1  0.57840000  0.32889800  0.22382800  1
  O  O24  1  0.39115300  0.80794900  0.04428700  1
  O  O25  1  0.60887500  0.19209100  0.95570100  1
  O  O26  1  0.53066700  0.18077900  0.59210800  1
  O  O27  1  0.46931500  0.81924600  0.40790900  1
