# generated using pymatgen
data_Li6Mn5O12
_symmetry_space_group_name_H-M   'P 1'
_cell_length_a   5.07254800
_cell_length_b   8.83905275
_cell_length_c   9.84306935
_cell_angle_alpha   82.37921942
_cell_angle_beta   85.27891187
_cell_angle_gamma   88.71446229
_symmetry_Int_Tables_number   1
_chemical_formula_structural   Li6Mn5O12
_chemical_formula_sum   'Li12 Mn10 O24'
_cell_volume   435.91715473
_cell_formula_units_Z   2
loop_
 _symmetry_equiv_pos_site_id
 _symmetry_equiv_pos_as_xyz
  1  'x, y, z'
loop_
 _atom_site_type_symbol
 _atom_site_label
 _atom_site_symmetry_multiplicity
 _atom_site_fract_x
 _atom_site_fract_y
 _atom_site_fract_z
 _atom_site_occupancy
  Li  Li0  1  0.97607100  0.17314000  0.51644600  1
  Li  Li1  1  0.77577600  0.60213800  0.98145700  1
  Li  Li2  1  0.73588900  0.91817400  0.98760800  1
  Li  Li3  1  0.74031100  0.24641000  0.97892900  1
  Li  Li4  1  0.61812000  0.13032100  0.74209100  1
  Li  Li5  1  0.48862200  0.01252400  0.51639000  1
  Li  Li6  1  0.48978700  0.65564500  0.51175700  1
  Li  Li7  1  0.26363000  0.08579600  0.98651600  1
  Li  Li8  1  0.25251300  0.43510600  0.98391000  1
  Li  Li9  1  0.12577900  0.62814200  0.75875000  1
  Li  Li10  1  0.01268800  0.49650000  0.51426100  1
  Li  Li11  1  0.99644800  0.81539100  0.52343400  1
  Mn  Mn12  1  0.87384600  0.36898300  0.25409700  1
  Mn  Mn13  1  0.87658900  0.03832700  0.24986500  1
  Mn  Mn14  1  0.87991300  0.70816000  0.24868500  1
  Mn  Mn15  1  0.38516400  0.87445400  0.24697400  1
  Mn  Mn16  1  0.37354100  0.54235700  0.25118300  1
  Mn  Mn17  1  0.37740300  0.20438100  0.25042700  1
  Mn  Mn18  1  0.62497600  0.46020300  0.74677200  1
  Mn  Mn19  1  0.61514100  0.79355500  0.75118900  1
  Mn  Mn20  1  0.12940200  0.29449300  0.74869300  1
  Mn  Mn21  1  0.11696900  0.95885400  0.75313100  1
  O  O22  1  0.96464200  0.11131000  0.86265500  1
  O  O23  1  0.92856700  0.43010800  0.86306600  1
  O  O24  1  0.91337100  0.78936800  0.85816900  1
  O  O25  1  0.83427600  0.32435400  0.63905200  1
  O  O26  1  0.81196200  0.96392200  0.63859400  1
  O  O27  1  0.77992500  0.64290100  0.63776600  1
  O  O28  1  0.69145000  0.84782600  0.36064900  1
  O  O29  1  0.68457800  0.17215600  0.36067300  1
  O  O30  1  0.69148800  0.53920500  0.35398500  1
  O  O31  1  0.47143500  0.60633300  0.85899300  1
  O  O32  1  0.56162100  0.07744200  0.12593400  1
  O  O33  1  0.55748300  0.38678200  0.14902900  1
  O  O34  1  0.59063000  0.73970200  0.13579700  1
  O  O35  1  0.43499000  0.29021600  0.85859000  1
  O  O36  1  0.42532800  0.93538300  0.85721800  1
  O  O37  1  0.31592100  0.46808300  0.64346200  1
  O  O38  1  0.31165000  0.82210700  0.63872500  1
  O  O39  1  0.27143800  0.13660100  0.64284500  1
  O  O40  1  0.16944400  0.33746900  0.36193000  1
  O  O41  1  0.22021500  0.02472500  0.35762800  1
  O  O42  1  0.17483400  0.67696400  0.36768000  1
  O  O43  1  0.06498800  0.56397000  0.14118500  1
  O  O44  1  0.05754200  0.89046700  0.14806800  1
  O  O45  1  0.08316200  0.22460400  0.13783700  1
