# generated using pymatgen
data_Li9V14O35
_symmetry_space_group_name_H-M   'P 1'
_cell_length_a   4.82687400
_cell_length_b   15.00741300
_cell_length_c   20.75236077
_cell_angle_alpha   71.87218375
_cell_angle_beta   90.00000000
_cell_angle_gamma   90.00000000
_symmetry_Int_Tables_number   1
_chemical_formula_structural   Li9V14O35
_chemical_formula_sum   'Li18 V28 O70'
_cell_volume   1428.66249384
_cell_formula_units_Z   2
loop_
 _symmetry_equiv_pos_site_id
 _symmetry_equiv_pos_as_xyz
  1  'x, y, z'
loop_
 _atom_site_type_symbol
 _atom_site_label
 _atom_site_symmetry_multiplicity
 _atom_site_fract_x
 _atom_site_fract_y
 _atom_site_fract_z
 _atom_site_occupancy
  Li  Li0  1  0.60967300  0.00000000  0.75000000  1
  Li  Li1  1  0.65141700  0.86334400  0.92496000  1
  Li  Li2  1  0.39032700  0.00000000  0.25000000  1
  Li  Li3  1  0.63373700  0.77849800  0.69909200  1
  Li  Li4  1  0.34858300  0.86334400  0.42496000  1
  Li  Li5  1  0.63785700  0.64936600  0.88732800  1
  Li  Li6  1  0.36626300  0.77849800  0.19909200  1
  Li  Li7  1  0.64364700  0.57349000  0.64569900  1
  Li  Li8  1  0.36214300  0.64936600  0.38732800  1
  Li  Li9  1  0.64364700  0.42651000  0.85430100  1
  Li  Li10  1  0.35635300  0.57349000  0.14569900  1
  Li  Li11  1  0.63785700  0.35063400  0.61267200  1
  Li  Li12  1  0.35635300  0.42651000  0.35430100  1
  Li  Li13  1  0.63373700  0.22150200  0.80090800  1
  Li  Li14  1  0.36214300  0.35063400  0.11267200  1
  Li  Li15  1  0.65141700  0.13665600  0.57504000  1
  Li  Li16  1  0.36626300  0.22150200  0.30090800  1
  Li  Li17  1  0.34858300  0.13665600  0.07504000  1
  V  V18  1  0.07800300  0.93360700  0.65269800  1
  V  V19  1  0.06887800  0.85510400  0.81669800  1
  V  V20  1  0.87528100  0.90841900  0.51878700  1
  V  V21  1  0.10710500  0.69881700  0.97460100  1
  V  V22  1  0.92199700  0.93360700  0.15269800  1
  V  V23  1  0.93112200  0.85510400  0.31669800  1
  V  V24  1  0.10444500  0.72211300  0.60816700  1
  V  V25  1  0.15975100  0.59935300  0.76884400  1
  V  V26  1  0.12471900  0.90841900  0.01878700  1
  V  V27  1  0.89289500  0.69881700  0.47460100  1
  V  V28  1  0.10454100  0.48939000  0.93289400  1
  V  V29  1  0.89555500  0.72211300  0.10816700  1
  V  V30  1  0.10454100  0.51061000  0.56710600  1
  V  V31  1  0.15975100  0.40064700  0.73115600  1
  V  V32  1  0.84024900  0.59935300  0.26884400  1
  V  V33  1  0.89545900  0.48939000  0.43289400  1
  V  V34  1  0.10444500  0.27788700  0.89183300  1
  V  V35  1  0.89545900  0.51061000  0.06710600  1
  V  V36  1  0.10710500  0.30118300  0.52539900  1
  V  V37  1  0.87528100  0.09158100  0.98121300  1
  V  V38  1  0.84024900  0.40064700  0.23115600  1
  V  V39  1  0.89555500  0.27788700  0.39183300  1
  V  V40  1  0.06887800  0.14489600  0.68330200  1
  V  V41  1  0.07800300  0.06639300  0.84730200  1
  V  V42  1  0.89289500  0.30118300  0.02539900  1
  V  V43  1  0.12471900  0.09158100  0.48121300  1
  V  V44  1  0.93112200  0.14489600  0.18330200  1
  V  V45  1  0.92199700  0.06639300  0.34730200  1
  O  O46  1  0.95570700  0.99124200  0.94115000  1
  O  O47  1  0.92453500  0.96024400  0.82354200  1
  O  O48  1  0.42131900  0.92859900  0.66019000  1
  O  O49  1  0.41305600  0.86915600  0.82022100  1
  O  O50  1  0.04429300  0.99124200  0.44115000  1
  O  O51  1  0.94995100  0.84576900  0.73840100  1
  O  O52  1  0.94138000  0.76102500  0.88485000  1
  O  O53  1  0.44480500  0.70823400  0.95748600  1
  O  O54  1  0.54472500  0.89933000  0.50182000  1
  O  O55  1  0.94243300  0.83675800  0.61467700  1
  O  O56  1  0.07546500  0.96024400  0.32354200  1
  O  O57  1  0.04372100  0.79707500  0.50887200  1
  O  O58  1  0.94149500  0.58306700  0.96818100  1
  O  O59  1  0.39632100  0.67413500  0.78187400  1
  O  O60  1  0.57868100  0.92859900  0.16019000  1
  O  O61  1  0.58694400  0.86915600  0.32022100  1
  O  O62  1  0.44093000  0.70551100  0.62734100  1
  O  O63  1  0.94332800  0.65161200  0.69925300  1
  O  O64  1  0.05004900  0.84576900  0.23840100  1
  O  O65  1  0.05862000  0.76102500  0.38485000  1
  O  O66  1  0.94512800  0.55331800  0.83988500  1
  O  O67  1  0.55519500  0.70823400  0.45748600  1
  O  O68  1  0.44126400  0.50190300  0.91307800  1
  O  O69  1  0.45527500  0.89933000  0.00182000  1
  O  O70  1  0.05756700  0.83675800  0.11467700  1
  O  O71  1  0.94354500  0.62677000  0.57361000  1
  O  O72  1  0.33789200  0.50000000  0.75000000  1
  O  O73  1  0.95627900  0.79707500  0.00887200  1
  O  O74  1  0.05850500  0.58306700  0.46818100  1
  O  O75  1  0.60367900  0.67413500  0.28187400  1
  O  O76  1  0.94354500  0.37323000  0.92639000  1
  O  O77  1  0.55907000  0.70551100  0.12734100  1
  O  O78  1  0.44126400  0.49809700  0.58692200  1
  O  O79  1  0.05667200  0.65161200  0.19925300  1
  O  O80  1  0.94512800  0.44668200  0.66011500  1
  O  O81  1  0.05487200  0.55331800  0.33988500  1
  O  O82  1  0.94332800  0.34838800  0.80074700  1
  O  O83  1  0.55873600  0.50190300  0.41307800  1
  O  O84  1  0.44093000  0.29448900  0.87265900  1
  O  O85  1  0.05645500  0.62677000  0.07361000  1
  O  O86  1  0.39632100  0.32586500  0.71812600  1
  O  O87  1  0.94149500  0.41693300  0.53181900  1
  O  O88  1  0.04372100  0.20292500  0.99112800  1
  O  O89  1  0.66210800  0.50000000  0.25000000  1
  O  O90  1  0.05645500  0.37323000  0.42639000  1
  O  O91  1  0.94243300  0.16324200  0.88532300  1
  O  O92  1  0.54472500  0.10067000  0.99818000  1
  O  O93  1  0.55873600  0.49809700  0.08692200  1
  O  O94  1  0.44480500  0.29176600  0.54251400  1
  O  O95  1  0.05487200  0.44668200  0.16011500  1
  O  O96  1  0.94138000  0.23897500  0.61515000  1
  O  O97  1  0.94995100  0.15423100  0.76159900  1
  O  O98  1  0.05667200  0.34838800  0.30074700  1
  O  O99  1  0.55907000  0.29448900  0.37265900  1
  O  O100  1  0.41305600  0.13084400  0.67977900  1
  O  O101  1  0.42131900  0.07140100  0.83981000  1
  O  O102  1  0.60367900  0.32586500  0.21812600  1
  O  O103  1  0.05850500  0.41693300  0.03181900  1
  O  O104  1  0.95627900  0.20292500  0.49112800  1
  O  O105  1  0.92453500  0.03975600  0.67645800  1
  O  O106  1  0.05756700  0.16324200  0.38532300  1
  O  O107  1  0.45527500  0.10067000  0.49818000  1
  O  O108  1  0.55519500  0.29176600  0.04251400  1
  O  O109  1  0.05862000  0.23897500  0.11515000  1
  O  O110  1  0.05004900  0.15423100  0.26159900  1
  O  O111  1  0.95570700  0.00875800  0.55885000  1
  O  O112  1  0.58694400  0.13084400  0.17977900  1
  O  O113  1  0.57868100  0.07140100  0.33981000  1
  O  O114  1  0.07546500  0.03975600  0.17645800  1
  O  O115  1  0.04429300  0.00875800  0.05885000  1
