# generated using pymatgen
data_Li3V3P8O29
_symmetry_space_group_name_H-M   'P 1'
_cell_length_a   9.78072807
_cell_length_b   9.78072807
_cell_length_c   14.22839500
_cell_angle_alpha   90.00000000
_cell_angle_beta   90.00000000
_cell_angle_gamma   120.00000049
_symmetry_Int_Tables_number   1
_chemical_formula_structural   Li3V3P8O29
_chemical_formula_sum   'Li6 V6 P16 O58'
_cell_volume   1178.76955972
_cell_formula_units_Z   2
loop_
 _symmetry_equiv_pos_site_id
 _symmetry_equiv_pos_as_xyz
  1  'x, y, z'
loop_
 _atom_site_type_symbol
 _atom_site_label
 _atom_site_symmetry_multiplicity
 _atom_site_fract_x
 _atom_site_fract_y
 _atom_site_fract_z
 _atom_site_occupancy
  Li  Li0  1  0.98028600  0.42151900  0.94227800  1
  Li  Li1  1  0.98028600  0.55876700  0.44227800  1
  Li  Li2  1  0.44123300  0.42151900  0.44227800  1
  Li  Li3  1  0.57848100  0.55876700  0.94227800  1
  Li  Li4  1  0.44123300  0.01971400  0.94227800  1
  Li  Li5  1  0.57848100  0.01971400  0.44227800  1
  V  V6  1  0.66801400  0.76847400  0.74812200  1
  V  V7  1  0.66801400  0.89954000  0.24812200  1
  V  V8  1  0.10046000  0.76847400  0.24812200  1
  V  V9  1  0.23152600  0.89954000  0.74812200  1
  V  V10  1  0.10046000  0.33198600  0.74812200  1
  V  V11  1  0.23152600  0.33198600  0.24812200  1
  P  P12  1  0.98371700  0.42078400  0.15787400  1
  P  P13  1  0.98371700  0.56293300  0.65787400  1
  P  P14  1  0.43706700  0.42078400  0.65787400  1
  P  P15  1  0.33333300  0.66666700  0.86983000  1
  P  P16  1  0.33333300  0.66666700  0.36983000  1
  P  P17  1  0.57921600  0.56293300  0.15787400  1
  P  P18  1  0.75310600  0.64825400  0.33939700  1
  P  P19  1  0.43706700  0.01628300  0.15787400  1
  P  P20  1  0.89514800  0.64825400  0.83939700  1
  P  P21  1  0.57921600  0.01628300  0.65787400  1
  P  P22  1  0.75310600  0.10485200  0.83939700  1
  P  P23  1  0.00000000  0.00000000  0.63049300  1
  P  P24  1  0.00000000  0.00000000  0.13049300  1
  P  P25  1  0.89514800  0.24689400  0.33939700  1
  P  P26  1  0.35174600  0.10485200  0.33939700  1
  P  P27  1  0.35174600  0.24689400  0.83939700  1
  O  O28  1  0.90424500  0.34174200  0.42243100  1
  O  O29  1  0.00871600  0.41917800  0.67028100  1
  O  O30  1  0.90424500  0.56250300  0.92243100  1
  O  O31  1  0.00871600  0.58953700  0.17028100  1
  O  O32  1  0.14558100  0.42979900  0.17947300  1
  O  O33  1  0.18206100  0.51662700  0.82893600  1
  O  O34  1  0.28421800  0.42979900  0.67947300  1
  O  O35  1  0.43749700  0.34174200  0.92243100  1
  O  O36  1  0.41046300  0.41917800  0.17028100  1
  O  O37  1  0.18206100  0.66543300  0.32893600  1
  O  O38  1  0.14558100  0.71578200  0.67947300  1
  O  O39  1  0.33456700  0.51662700  0.32893600  1
  O  O40  1  0.33333300  0.66666700  0.97440100  1
  O  O41  1  0.33333300  0.66666700  0.47440100  1
  O  O42  1  0.48337300  0.66543300  0.82893600  1
  O  O43  1  0.28421800  0.85441900  0.17947300  1
  O  O44  1  0.33456700  0.81793900  0.82893600  1
  O  O45  1  0.58082200  0.58953700  0.67028100  1
  O  O46  1  0.67793900  0.54784100  0.24329000  1
  O  O47  1  0.65825800  0.56250300  0.42243100  1
  O  O48  1  0.65393000  0.57333000  0.06614600  1
  O  O49  1  0.57020100  0.71578200  0.17947300  1
  O  O50  1  0.48337300  0.81793900  0.32893600  1
  O  O51  1  0.75054900  0.67374100  0.83960000  1
  O  O52  1  0.57020100  0.85441900  0.67947300  1
  O  O53  1  0.41046300  0.99128400  0.67028100  1
  O  O54  1  0.86990200  0.54784100  0.74329000  1
  O  O55  1  0.91940000  0.57333000  0.56614600  1
  O  O56  1  0.43749700  0.09575500  0.42243100  1
  O  O57  1  0.92319200  0.67374100  0.33960000  1
  O  O58  1  0.76072900  0.80932500  0.32205400  1
  O  O59  1  0.58082200  0.99128400  0.17028100  1
  O  O60  1  0.85048500  0.85277400  0.67548400  1
  O  O61  1  0.76072900  0.95140400  0.82205400  1
  O  O62  1  0.65825800  0.09575500  0.92243100  1
  O  O63  1  0.65393000  0.08060000  0.56614600  1
  O  O64  1  0.67793900  0.13009800  0.74329000  1
  O  O65  1  0.75054900  0.07680800  0.33960000  1
  O  O66  1  0.00229000  0.85277400  0.17548400  1
  O  O67  1  0.04859600  0.80932500  0.82205400  1
  O  O68  1  0.85048500  0.99771000  0.17548400  1
  O  O69  1  0.00000000  0.00000000  0.02698200  1
  O  O70  1  0.00000000  0.00000000  0.52698200  1
  O  O71  1  0.00229000  0.14951500  0.67548400  1
  O  O72  1  0.19067500  0.95140400  0.32205400  1
  O  O73  1  0.14722600  0.99771000  0.67548400  1
  O  O74  1  0.92319200  0.24945100  0.83960000  1
  O  O75  1  0.86990200  0.32206100  0.24329000  1
  O  O76  1  0.91940000  0.34607000  0.06614600  1
  O  O77  1  0.04859600  0.23927100  0.32205400  1
  O  O78  1  0.14722600  0.14951500  0.17548400  1
  O  O79  1  0.19067500  0.23927100  0.82205400  1
  O  O80  1  0.32625900  0.07680800  0.83960000  1
  O  O81  1  0.42667000  0.08060000  0.06614600  1
  O  O82  1  0.45215900  0.13009800  0.24329000  1
  O  O83  1  0.32625900  0.24945100  0.33960000  1
  O  O84  1  0.42667000  0.34607000  0.56614600  1
  O  O85  1  0.45215900  0.32206100  0.74329000  1
