# generated using pymatgen
data_Li3Ti(Si2O5)3
_symmetry_space_group_name_H-M   'P 1'
_cell_length_a   7.93947500
_cell_length_b   9.88809200
_cell_length_c   15.01751300
_cell_angle_alpha   90.00000000
_cell_angle_beta   90.00000000
_cell_angle_gamma   90.00000000
_symmetry_Int_Tables_number   1
_chemical_formula_structural   Li3Ti(Si2O5)3
_chemical_formula_sum   'Li12 Ti4 Si24 O60'
_cell_volume   1178.96876859
_cell_formula_units_Z   4
loop_
 _symmetry_equiv_pos_site_id
 _symmetry_equiv_pos_as_xyz
  1  'x, y, z'
loop_
 _atom_site_type_symbol
 _atom_site_label
 _atom_site_symmetry_multiplicity
 _atom_site_fract_x
 _atom_site_fract_y
 _atom_site_fract_z
 _atom_site_occupancy
  Li  Li0  1  0.75000000  0.08004200  0.93471000  1
  Li  Li1  1  0.75000000  0.41995700  0.43471000  1
  Li  Li2  1  0.00128400  0.50204100  0.75818600  1
  Li  Li3  1  0.49871600  0.50204100  0.75818600  1
  Li  Li4  1  0.99871600  0.49795900  0.24181400  1
  Li  Li5  1  0.50128400  0.49795900  0.24181400  1
  Li  Li6  1  0.25000000  0.58004300  0.56529000  1
  Li  Li7  1  0.25000000  0.91995700  0.06529000  1
  Li  Li8  1  0.99871600  0.00204100  0.74181400  1
  Li  Li9  1  0.50128400  0.00204100  0.74181400  1
  Li  Li10  1  0.49871600  0.99795900  0.25818600  1
  Li  Li11  1  0.00128400  0.99795900  0.25818600  1
  Ti  Ti12  1  0.75000000  0.25446000  0.74855200  1
  Ti  Ti13  1  0.75000000  0.24554000  0.24855200  1
  Ti  Ti14  1  0.25000000  0.74554000  0.25144800  1
  Ti  Ti15  1  0.25000000  0.75446000  0.75144800  1
  Si  Si16  1  0.25000000  0.03087700  0.59736800  1
  Si  Si17  1  0.25000000  0.02840300  0.40173800  1
  Si  Si18  1  0.43928000  0.20436500  0.90074000  1
  Si  Si19  1  0.06072000  0.20436500  0.90074000  1
  Si  Si20  1  0.05824600  0.20206500  0.09879900  1
  Si  Si21  1  0.44175400  0.20206500  0.09879900  1
  Si  Si22  1  0.05824600  0.29793500  0.59879900  1
  Si  Si23  1  0.43928000  0.29563500  0.40074000  1
  Si  Si24  1  0.44175400  0.29793500  0.59879900  1
  Si  Si25  1  0.06072000  0.29563500  0.40074000  1
  Si  Si26  1  0.25000000  0.47159700  0.90173800  1
  Si  Si27  1  0.25000000  0.46912300  0.09736800  1
  Si  Si28  1  0.75000000  0.52840300  0.09826200  1
  Si  Si29  1  0.75000000  0.53087700  0.90263200  1
  Si  Si30  1  0.56072000  0.70436500  0.59926000  1
  Si  Si31  1  0.93928000  0.70436500  0.59926000  1
  Si  Si32  1  0.94175400  0.70206500  0.40120100  1
  Si  Si33  1  0.55824600  0.70206500  0.40120100  1
  Si  Si34  1  0.94175400  0.79793500  0.90120100  1
  Si  Si35  1  0.56072000  0.79563500  0.09926000  1
  Si  Si36  1  0.93928000  0.79563500  0.09926000  1
  Si  Si37  1  0.55824600  0.79793500  0.90120100  1
  Si  Si38  1  0.75000000  0.96912300  0.40263200  1
  Si  Si39  1  0.75000000  0.97159700  0.59826200  1
  O  O40  1  0.75000000  0.04339200  0.49998300  1
  O  O41  1  0.75000000  0.07192700  0.68151900  1
  O  O42  1  0.75000000  0.06621300  0.31772500  1
  O  O43  1  0.41379000  0.13394400  0.60287500  1
  O  O44  1  0.08621000  0.13394400  0.60287500  1
  O  O45  1  0.41474500  0.13114700  0.39469500  1
  O  O46  1  0.08525500  0.13114700  0.39469500  1
  O  O47  1  0.25000000  0.13537200  0.89403100  1
  O  O48  1  0.25000000  0.12898100  0.09882900  1
  O  O49  1  0.92785200  0.14942500  0.82888200  1
  O  O50  1  0.57214800  0.14942500  0.82888200  1
  O  O51  1  0.94311900  0.15363700  0.17997400  1
  O  O52  1  0.55688100  0.15363700  0.17997400  1
  O  O53  1  0.52193900  0.16270600  0.99957700  1
  O  O54  1  0.97806100  0.16270600  0.99957700  1
  O  O55  1  0.52193900  0.33729400  0.49957700  1
  O  O56  1  0.97806100  0.33729400  0.49957700  1
  O  O57  1  0.92785200  0.35057500  0.32888200  1
  O  O58  1  0.94311900  0.34636300  0.67997400  1
  O  O59  1  0.55688100  0.34636300  0.67997400  1
  O  O60  1  0.57214800  0.35057500  0.32888200  1
  O  O61  1  0.25000000  0.37101900  0.59882900  1
  O  O62  1  0.25000000  0.36462800  0.39403100  1
  O  O63  1  0.08525500  0.36885300  0.89469500  1
  O  O64  1  0.41474500  0.36885300  0.89469500  1
  O  O65  1  0.08621000  0.36605600  0.10287500  1
  O  O66  1  0.41379000  0.36605600  0.10287500  1
  O  O67  1  0.75000000  0.43378700  0.81772500  1
  O  O68  1  0.75000000  0.42807300  0.18151900  1
  O  O69  1  0.75000000  0.45660800  0.99998300  1
  O  O70  1  0.25000000  0.54339200  0.00001700  1
  O  O71  1  0.25000000  0.57192700  0.81848100  1
  O  O72  1  0.25000000  0.56621300  0.18227500  1
  O  O73  1  0.91474500  0.63114700  0.10530500  1
  O  O74  1  0.58525500  0.63114700  0.10530500  1
  O  O75  1  0.91379000  0.63394400  0.89712500  1
  O  O76  1  0.58621000  0.63394400  0.89712500  1
  O  O77  1  0.75000000  0.62898100  0.40117100  1
  O  O78  1  0.75000000  0.63537200  0.60596900  1
  O  O79  1  0.44311900  0.65363700  0.32002600  1
  O  O80  1  0.05688100  0.65363700  0.32002600  1
  O  O81  1  0.42785200  0.64942500  0.67111800  1
  O  O82  1  0.07214800  0.64942500  0.67111800  1
  O  O83  1  0.02193900  0.66270600  0.50042300  1
  O  O84  1  0.47806100  0.66270600  0.50042300  1
  O  O85  1  0.02193900  0.83729400  0.00042300  1
  O  O86  1  0.47806100  0.83729400  0.00042300  1
  O  O87  1  0.44311900  0.84636300  0.82002600  1
  O  O88  1  0.05688100  0.84636300  0.82002600  1
  O  O89  1  0.42785200  0.85057500  0.17111800  1
  O  O90  1  0.07214800  0.85057500  0.17111800  1
  O  O91  1  0.75000000  0.87101900  0.90117100  1
  O  O92  1  0.75000000  0.86462800  0.10596900  1
  O  O93  1  0.58621000  0.86605600  0.39712500  1
  O  O94  1  0.91474500  0.86885300  0.60530500  1
  O  O95  1  0.58525500  0.86885300  0.60530500  1
  O  O96  1  0.91379000  0.86605600  0.39712500  1
  O  O97  1  0.25000000  0.93378700  0.68227500  1
  O  O98  1  0.25000000  0.92807300  0.31848100  1
  O  O99  1  0.25000000  0.95660800  0.50001700  1
