# generated using pymatgen
data_Li11Cr3Fe3O16
_symmetry_space_group_name_H-M   'P 1'
_cell_length_a   5.98543611
_cell_length_b   5.98016160
_cell_length_c   10.04714550
_cell_angle_alpha   96.70613332
_cell_angle_beta   96.66650781
_cell_angle_gamma   59.15946704
_symmetry_Int_Tables_number   1
_chemical_formula_structural   Li11Cr3Fe3O16
_chemical_formula_sum   'Li11 Cr3 Fe3 O16'
_cell_volume   305.99429167
_cell_formula_units_Z   1
loop_
 _symmetry_equiv_pos_site_id
 _symmetry_equiv_pos_as_xyz
  1  'x, y, z'
loop_
 _atom_site_type_symbol
 _atom_site_label
 _atom_site_symmetry_multiplicity
 _atom_site_fract_x
 _atom_site_fract_y
 _atom_site_fract_z
 _atom_site_occupancy
  Li  Li0  1  0.04562580  0.04547936  0.00343384  1
  Li  Li1  1  0.63624230  0.14298810  0.55742125  1
  Li  Li2  1  0.30701977  0.29785691  0.05555275  1
  Li  Li3  1  0.35282345  0.35062190  0.79642510  1
  Li  Li4  1  0.22116500  0.22947089  0.55618454  1
  Li  Li5  1  0.14710303  0.63828870  0.56020540  1
  Li  Li6  1  0.63925562  0.64214716  0.53712334  1
  Li  Li7  1  0.67255141  0.67310010  0.28910899  1
  Li  Li8  1  0.55107685  0.53809048  0.00949334  1
  Li  Li9  1  0.79867858  0.80308075  0.07022350  1
  Li  Li10  1  0.02862633  0.02844986  0.48787023  1
  Cr  Cr11  1  0.85029475  0.35143118  0.78061916  1
  Cr  Cr12  1  0.35032680  0.85035094  0.78173182  1
  Cr  Cr13  1  0.17026865  0.17039710  0.28369978  1
  Fe  Fe14  1  0.66904561  0.17294141  0.28653023  1
  Fe  Fe15  1  0.17316282  0.66819011  0.28630048  1
  Fe  Fe16  1  0.84747474  0.85042319  0.78841864  1
  O  O17  1  0.19155663  0.17707572  0.88527607  1
  O  O18  1  0.48864975  0.00991537  0.17948582  1
  O  O19  1  0.71527252  0.19750001  0.89258697  1
  O  O20  1  0.98952499  0.98766678  0.17496870  1
  O  O21  1  0.34089924  0.34312273  0.40958542  1
  O  O22  1  0.01070867  0.48642170  0.17771224  1
  O  O23  1  0.47872945  0.47532150  0.18175956  1
  O  O24  1  0.85582547  0.33236549  0.39588062  1
  O  O25  1  0.20520123  0.71657452  0.89016342  1
  O  O26  1  0.50420800  0.52123648  0.67253568  1
  O  O27  1  0.33186774  0.85721490  0.39603183  1
  O  O28  1  0.98797933  0.51153602  0.67169077  1
  O  O29  1  0.69069084  0.69373098  0.89309624  1
  O  O30  1  0.50375265  0.98848617  0.67290882  1
  O  O31  1  0.85927086  0.86401288  0.39831373  1
  O  O32  1  0.00276712  0.00234461  0.66867674  1
