# generated using pymatgen
data_Li6V3W3O16
_symmetry_space_group_name_H-M   'P 1'
_cell_length_a   6.07480669
_cell_length_b   6.09818374
_cell_length_c   10.11696499
_cell_angle_alpha   89.87405018
_cell_angle_beta   90.98440350
_cell_angle_gamma   120.20412636
_symmetry_Int_Tables_number   1
_chemical_formula_structural   Li6V3W3O16
_chemical_formula_sum   'Li6 V3 W3 O16'
_cell_volume   323.84759743
_cell_formula_units_Z   1
loop_
 _symmetry_equiv_pos_site_id
 _symmetry_equiv_pos_as_xyz
  1  'x, y, z'
loop_
 _atom_site_type_symbol
 _atom_site_label
 _atom_site_symmetry_multiplicity
 _atom_site_fract_x
 _atom_site_fract_y
 _atom_site_fract_z
 _atom_site_occupancy
  Li  Li0  1  0.32999800  0.66228200  0.51506200  1
  Li  Li1  1  0.33144800  0.66818900  0.88774500  1
  Li  Li2  1  0.99084300  0.99478100  0.99651200  1
  Li  Li3  1  0.98581700  0.99054600  0.50044800  1
  Li  Li4  1  0.65857000  0.33045700  0.00846500  1
  Li  Li5  1  0.66651500  0.33405700  0.39544500  1
  V  V6  1  0.66688400  0.83373300  0.21356500  1
  V  V7  1  0.83712700  0.66455200  0.71430700  1
  V  V8  1  0.83277700  0.16750800  0.71446600  1
  W  W9  1  0.17215300  0.83100500  0.21561700  1
  W  W10  1  0.17141500  0.34079700  0.21555900  1
  W  W11  1  0.34218000  0.17202300  0.71498700  1
  O  O12  1  0.16388600  0.85769500  0.60803300  1
  O  O13  1  0.02446700  0.51162500  0.32936800  1
  O  O14  1  0.32402900  0.66258900  0.09856900  1
  O  O15  1  0.01309500  0.00619600  0.32112300  1
  O  O16  1  0.02126600  0.00312500  0.81767500  1
  O  O17  1  0.15776500  0.30205900  0.60905600  1
  O  O18  1  0.48334700  0.97544000  0.31924500  1
  O  O19  1  0.48277900  0.50763700  0.31879400  1
  O  O20  1  0.30604000  0.15366600  0.10287600  1
  O  O21  1  0.70005800  0.83385000  0.61655600  1
  O  O22  1  0.50364600  0.47745000  0.82034500  1
  O  O23  1  0.50790100  0.02938200  0.82035400  1
  O  O24  1  0.64613900  0.33051300  0.60285600  1
  O  O25  1  0.85527400  0.69484200  0.10937900  1
  O  O26  1  0.96893100  0.50287300  0.81309400  1
  O  O27  1  0.85565400  0.16143000  0.10834100  1
