# generated using pymatgen
data_Li2AlCr2SbO8
_symmetry_space_group_name_H-M   'P 1'
_cell_length_a   5.87838500
_cell_length_b   5.89089109
_cell_length_c   28.78574123
_cell_angle_alpha   90.14192443
_cell_angle_beta   89.95178600
_cell_angle_gamma   119.83236938
_symmetry_Int_Tables_number   1
_chemical_formula_structural   Li2AlCr2SbO8
_chemical_formula_sum   'Li12 Al6 Cr12 Sb6 O48'
_cell_volume   864.72259830
_cell_formula_units_Z   6
loop_
 _symmetry_equiv_pos_site_id
 _symmetry_equiv_pos_as_xyz
  1  'x, y, z'
loop_
 _atom_site_type_symbol
 _atom_site_label
 _atom_site_symmetry_multiplicity
 _atom_site_fract_x
 _atom_site_fract_y
 _atom_site_fract_z
 _atom_site_occupancy
  Li  Li0  1  0.66707000  0.33354000  0.36591000  1
  Li  Li1  1  0.66678800  0.33257100  0.69900000  1
  Li  Li2  1  0.66653200  0.33257700  0.03323700  1
  Li  Li3  1  0.00010200  0.00039500  0.00553100  1
  Li  Li4  1  0.00266700  0.99779000  0.83611800  1
  Li  Li5  1  0.99959600  0.00059500  0.67061100  1
  Li  Li6  1  0.99743500  0.99510100  0.50203900  1
  Li  Li7  1  0.00024700  0.00078200  0.33805300  1
  Li  Li8  1  0.00014000  0.00056900  0.16854100  1
  Li  Li9  1  0.33233000  0.66820000  0.86488800  1
  Li  Li10  1  0.33365300  0.66767000  0.19718700  1
  Li  Li11  1  0.33381400  0.66865800  0.53083800  1
  Al  Al12  1  0.17087000  0.34145400  0.09516600  1
  Al  Al13  1  0.65882000  0.83007800  0.42831900  1
  Al  Al14  1  0.65858300  0.82897200  0.09519800  1
  Al  Al15  1  0.17057100  0.82912200  0.76178100  1
  Al  Al16  1  0.17145000  0.83021000  0.42832800  1
  Al  Al17  1  0.17055400  0.82909900  0.09521500  1
  Cr  Cr18  1  0.83034500  0.16948000  0.92932900  1
  Cr  Cr19  1  0.83000200  0.16995800  0.59512100  1
  Cr  Cr20  1  0.83123000  0.17088000  0.26171600  1
  Cr  Cr21  1  0.33899600  0.16964600  0.92925700  1
  Cr  Cr22  1  0.33863900  0.17024800  0.59506000  1
  Cr  Cr23  1  0.33978100  0.17086300  0.26174400  1
  Cr  Cr24  1  0.83020700  0.66090000  0.92928500  1
  Cr  Cr25  1  0.82941400  0.66079400  0.59492100  1
  Cr  Cr26  1  0.83090500  0.66163900  0.26166100  1
  Cr  Cr27  1  0.16965100  0.33974900  0.76212400  1
  Cr  Cr28  1  0.17042000  0.34060900  0.42876800  1
  Cr  Cr29  1  0.66030700  0.83024300  0.76220200  1
  Sb  Sb30  1  0.66732000  0.33308300  0.83745200  1
  Sb  Sb31  1  0.66539500  0.33118100  0.50317300  1
  Sb  Sb32  1  0.66679700  0.33388000  0.16950300  1
  Sb  Sb33  1  0.33158900  0.66836600  0.67122900  1
  Sb  Sb34  1  0.33547700  0.67074100  0.33824000  1
  Sb  Sb35  1  0.33328200  0.66649600  0.00580300  1
  O  O36  1  0.82711300  0.15440400  0.46672400  1
  O  O37  1  0.83698000  0.16344400  0.80195700  1
  O  O38  1  0.83560000  0.16506300  0.13236800  1
  O  O39  1  0.51787300  0.03504200  0.88573500  1
  O  O40  1  0.51817300  0.03576800  0.21796100  1
  O  O41  1  0.51709400  0.03475100  0.55176000  1
  O  O42  1  0.66737400  0.33513800  0.29732900  1
  O  O43  1  0.66653200  0.33422500  0.96485200  1
  O  O44  1  0.66638300  0.33475100  0.63067900  1
  O  O45  1  0.99925200  0.99952100  0.56339400  1
  O  O46  1  0.00975000  0.99004900  0.73269400  1
  O  O47  1  0.99121700  0.98227600  0.40089000  1
  O  O48  1  0.32721000  0.15447800  0.46677500  1
  O  O49  1  0.00053800  0.00028900  0.23001100  1
  O  O50  1  0.99996900  0.99967500  0.06882100  1
  O  O51  1  0.99978600  0.99906500  0.89758000  1
  O  O52  1  0.32931800  0.16516900  0.13241900  1
  O  O53  1  0.33207700  0.15778200  0.80039900  1
  O  O54  1  0.96538300  0.48190300  0.88587000  1
  O  O55  1  0.96499300  0.48150400  0.55135400  1
  O  O56  1  0.96581200  0.48276800  0.21799600  1
  O  O57  1  0.51646500  0.48264000  0.88541400  1
  O  O58  1  0.51558200  0.48182400  0.55135500  1
  O  O59  1  0.51712500  0.48318200  0.21808500  1
  O  O60  1  0.16447900  0.32922000  0.96967800  1
  O  O61  1  0.16402700  0.33032600  0.63536200  1
  O  O62  1  0.16542500  0.33107500  0.30243000  1
  O  O63  1  0.83255400  0.66538700  0.46597200  1
  O  O64  1  0.83535400  0.67105600  0.13249600  1
  O  O65  1  0.84236400  0.66798900  0.80048200  1
  O  O66  1  0.48210500  0.51815400  0.71896800  1
  O  O67  1  0.48810300  0.52565600  0.38655700  1
  O  O68  1  0.48128700  0.51875500  0.05427300  1
  O  O69  1  0.03554500  0.52332100  0.71965900  1
  O  O70  1  0.03793800  0.52584100  0.38657500  1
  O  O71  1  0.32431700  0.67561900  0.79637800  1
  O  O72  1  0.34174200  0.68352600  0.46190300  1
  O  O73  1  0.33340100  0.66693000  0.12805900  1
  O  O74  1  0.66949100  0.83589000  0.63524500  1
  O  O75  1  0.67052300  0.83563300  0.96963100  1
  O  O76  1  0.67164900  0.83716600  0.30192500  1
  O  O77  1  0.03781700  0.51894500  0.05429300  1
  O  O78  1  0.47672600  0.96414100  0.71969600  1
  O  O79  1  0.48219900  0.96447000  0.38692400  1
  O  O80  1  0.48080100  0.96162800  0.05434700  1
  O  O81  1  0.16494600  0.83552000  0.96955800  1
  O  O82  1  0.16549100  0.83695400  0.30189400  1
  O  O83  1  0.16403300  0.83595000  0.63488300  1
