# generated using pymatgen
data_Li4AlCr3O8
_symmetry_space_group_name_H-M   'P 1'
_cell_length_a   5.10915000
_cell_length_b   5.86599683
_cell_length_c   10.15822551
_cell_angle_alpha   89.96220812
_cell_angle_beta   99.53971454
_cell_angle_gamma   106.67025711
_symmetry_Int_Tables_number   1
_chemical_formula_structural   Li4AlCr3O8
_chemical_formula_sum   'Li8 Al2 Cr6 O16'
_cell_volume   287.26169078
_cell_formula_units_Z   2
loop_
 _symmetry_equiv_pos_site_id
 _symmetry_equiv_pos_as_xyz
  1  'x, y, z'
loop_
 _atom_site_type_symbol
 _atom_site_label
 _atom_site_symmetry_multiplicity
 _atom_site_fract_x
 _atom_site_fract_y
 _atom_site_fract_z
 _atom_site_occupancy
  Li  Li0  1  0.99939900  0.24909800  0.24883000  1
  Li  Li1  1  0.00032000  0.24934300  0.75104900  1
  Li  Li2  1  0.00000000  0.00000000  0.00000000  1
  Li  Li3  1  0.00000000  0.00000000  0.50000000  1
  Li  Li4  1  0.99968000  0.75065700  0.24895100  1
  Li  Li5  1  0.00060100  0.75090200  0.75117000  1
  Li  Li6  1  0.00000000  0.50000000  0.00000000  1
  Li  Li7  1  0.00000000  0.50000000  0.50000000  1
  Al  Al8  1  0.50022400  0.12391200  0.87680800  1
  Al  Al9  1  0.49977600  0.87608800  0.12319200  1
  Cr  Cr10  1  0.50026600  0.12399400  0.37334100  1
  Cr  Cr11  1  0.49973400  0.87600600  0.62665900  1
  Cr  Cr12  1  0.49968500  0.62625100  0.87675400  1
  Cr  Cr13  1  0.49981200  0.62612800  0.37309900  1
  Cr  Cr14  1  0.50031500  0.37374900  0.12324600  1
  Cr  Cr15  1  0.50018800  0.37387200  0.62690100  1
  O  O16  1  0.27969600  0.06074600  0.18602100  1
  O  O17  1  0.27848400  0.06906800  0.69773100  1
  O  O18  1  0.71698100  0.17066500  0.05667200  1
  O  O19  1  0.72752600  0.18160500  0.56037200  1
  O  O20  1  0.28301900  0.82933500  0.94332800  1
  O  O21  1  0.72030400  0.93925400  0.81397900  1
  O  O22  1  0.27247400  0.81839500  0.43962800  1
  O  O23  1  0.72151600  0.93093200  0.30226900  1
  O  O24  1  0.27818700  0.57834600  0.18494800  1
  O  O25  1  0.72026000  0.68929600  0.06323500  1
  O  O26  1  0.27264100  0.56822800  0.69053200  1
  O  O27  1  0.72684000  0.68201500  0.56074100  1
  O  O28  1  0.27974000  0.31070400  0.93676500  1
  O  O29  1  0.72181300  0.42165400  0.81505200  1
  O  O30  1  0.27316000  0.31798500  0.43925900  1
  O  O31  1  0.72735900  0.43177200  0.30946800  1
