# generated using pymatgen
data_LiNiPO4
_symmetry_space_group_name_H-M   'P 1'
_cell_length_a   5.49464502
_cell_length_b   6.23961108
_cell_length_c   9.28187495
_cell_angle_alpha   105.10267002
_cell_angle_beta   80.98396444
_cell_angle_gamma   103.96264312
_symmetry_Int_Tables_number   1
_chemical_formula_structural   LiNiPO4
_chemical_formula_sum   'Li4 Ni4 P4 O16'
_cell_volume   296.65562232
_cell_formula_units_Z   4
loop_
 _symmetry_equiv_pos_site_id
 _symmetry_equiv_pos_as_xyz
  1  'x, y, z'
loop_
 _atom_site_type_symbol
 _atom_site_label
 _atom_site_symmetry_multiplicity
 _atom_site_fract_x
 _atom_site_fract_y
 _atom_site_fract_z
 _atom_site_occupancy
  Li  Li0  1  0.29387200  0.35332300  0.08189100  1
  Li  Li1  1  0.70638100  0.64664800  0.91795200  1
  Li  Li2  1  0.80753700  0.47756200  0.25427500  1
  Li  Li3  1  0.19270100  0.52253400  0.74573000  1
  Ni  Ni4  1  0.31481300  0.06482600  0.78573800  1
  Ni  Ni5  1  0.22559500  0.16615900  0.41376300  1
  Ni  Ni6  1  0.68511600  0.93517800  0.21417900  1
  Ni  Ni7  1  0.77428500  0.83372600  0.58620500  1
  P  P8  1  0.18734800  0.83201100  0.07666900  1
  P  P9  1  0.81266200  0.16803700  0.92332500  1
  P  P10  1  0.31855800  0.69943400  0.45227800  1
  P  P11  1  0.68135400  0.30052600  0.54777600  1
  O  O12  1  0.39099300  0.70815800  0.09909800  1
  O  O13  1  0.60896100  0.29177200  0.90085400  1
  O  O14  1  0.91264600  0.70229500  0.11654000  1
  O  O15  1  0.08737200  0.29777500  0.88347000  1
  O  O16  1  0.79162100  0.16721500  0.09143500  1
  O  O17  1  0.20832000  0.83298000  0.90860200  1
  O  O18  1  0.22709400  0.07525700  0.17842100  1
  O  O19  1  0.77306800  0.92478500  0.82157000  1
  O  O20  1  0.14113700  0.84950900  0.43750200  1
  O  O21  1  0.85867600  0.15033200  0.56255000  1
  O  O22  1  0.59444500  0.75580300  0.37458200  1
  O  O23  1  0.40538900  0.24418500  0.62537100  1
  O  O24  1  0.19363100  0.45569400  0.38212800  1
  O  O25  1  0.80631500  0.54423300  0.61805100  1
  O  O26  1  0.63364700  0.25094400  0.37823800  1
  O  O27  1  0.36646600  0.74910000  0.62180900  1
