# generated using pymatgen
data_Li2CrO4
_symmetry_space_group_name_H-M   'P 1'
_cell_length_a   9.79513300
_cell_length_b   7.74498800
_cell_length_c   9.76891487
_cell_angle_alpha   86.88769052
_cell_angle_beta   90.00000000
_cell_angle_gamma   90.00000000
_symmetry_Int_Tables_number   1
_chemical_formula_structural   Li2CrO4
_chemical_formula_sum   'Li16 Cr8 O32'
_cell_volume   740.00791807
_cell_formula_units_Z   8
loop_
 _symmetry_equiv_pos_site_id
 _symmetry_equiv_pos_as_xyz
  1  'x, y, z'
loop_
 _atom_site_type_symbol
 _atom_site_label
 _atom_site_symmetry_multiplicity
 _atom_site_fract_x
 _atom_site_fract_y
 _atom_site_fract_z
 _atom_site_occupancy
  Li  Li0  1  0.61724400  0.47219400  0.59816700  1
  Li  Li1  1  0.38275600  0.47219400  0.09816700  1
  Li  Li2  1  0.59434500  0.53859400  0.84935600  1
  Li  Li3  1  0.40565500  0.53859400  0.34935600  1
  Li  Li4  1  0.10949800  0.49900100  0.08442700  1
  Li  Li5  1  0.89050200  0.49900100  0.58442700  1
  Li  Li6  1  0.62095800  0.19961200  0.06491000  1
  Li  Li7  1  0.37904200  0.19961200  0.56491000  1
  Li  Li8  1  0.87195100  0.15058400  0.41106000  1
  Li  Li9  1  0.12804900  0.15058400  0.91106000  1
  Li  Li10  1  0.10427000  0.12232600  0.63893100  1
  Li  Li11  1  0.89573000  0.12232600  0.13893100  1
  Li  Li12  1  0.59521200  0.90296500  0.64986400  1
  Li  Li13  1  0.40478800  0.90296500  0.14986400  1
  Li  Li14  1  0.15834900  0.91455700  0.42356300  1
  Li  Li15  1  0.84165100  0.91455700  0.92356300  1
  Cr  Cr16  1  0.12058900  0.84393500  0.13136800  1
  Cr  Cr17  1  0.87941100  0.84393500  0.63136800  1
  Cr  Cr18  1  0.63517800  0.62529700  0.12904900  1
  Cr  Cr19  1  0.36482200  0.62529700  0.62904900  1
  Cr  Cr20  1  0.12609300  0.32970900  0.36664000  1
  Cr  Cr21  1  0.87390700  0.32970900  0.86664000  1
  Cr  Cr22  1  0.61470100  0.19119900  0.38135500  1
  Cr  Cr23  1  0.38529900  0.19119900  0.88135500  1
  O  O24  1  0.97456900  0.98525600  0.52813200  1
  O  O25  1  0.02543100  0.98525600  0.02813200  1
  O  O26  1  0.22801200  0.95132700  0.22915500  1
  O  O27  1  0.77198800  0.95132700  0.72915500  1
  O  O28  1  0.21239200  0.71170100  0.04001000  1
  O  O29  1  0.78760800  0.71170100  0.54001000  1
  O  O30  1  0.01844000  0.73090700  0.23112300  1
  O  O31  1  0.98156000  0.73090700  0.73112300  1
  O  O32  1  0.48753900  0.68815100  0.20601000  1
  O  O33  1  0.51246100  0.68815100  0.70601000  1
  O  O34  1  0.69851700  0.77944600  0.02421300  1
  O  O35  1  0.30148300  0.77944600  0.52421300  1
  O  O36  1  0.74639200  0.55862000  0.24005100  1
  O  O37  1  0.25360800  0.55862000  0.74005100  1
  O  O38  1  0.41785700  0.45635800  0.53550800  1
  O  O39  1  0.58214300  0.45635800  0.03550800  1
  O  O40  1  0.95134200  0.45392900  0.97284500  1
  O  O41  1  0.04865800  0.45392900  0.47284500  1
  O  O42  1  0.23135500  0.44409600  0.26120400  1
  O  O43  1  0.76864500  0.44409600  0.76120400  1
  O  O44  1  0.20805300  0.17678400  0.46477900  1
  O  O45  1  0.79194700  0.17678400  0.96477900  1
  O  O46  1  0.00642200  0.23569000  0.27444800  1
  O  O47  1  0.99357800  0.23569000  0.77444800  1
  O  O48  1  0.49930200  0.30341900  0.29243200  1
  O  O49  1  0.50069800  0.30341900  0.79243200  1
  O  O50  1  0.71769400  0.31200800  0.47482100  1
  O  O51  1  0.28230600  0.31200800  0.97482100  1
  O  O52  1  0.71818000  0.09329500  0.27195400  1
  O  O53  1  0.28182000  0.09329500  0.77195400  1
  O  O54  1  0.46555800  0.05464400  0.99316400  1
  O  O55  1  0.53444200  0.05464400  0.49316400  1
