# generated using pymatgen
data_Li3V3P8O29
_symmetry_space_group_name_H-M   'P 1'
_cell_length_a   9.73619700
_cell_length_b   9.76584969
_cell_length_c   14.27289935
_cell_angle_alpha   89.67897083
_cell_angle_beta   89.83022674
_cell_angle_gamma   60.22727012
_symmetry_Int_Tables_number   1
_chemical_formula_structural   Li3V3P8O29
_chemical_formula_sum   'Li6 V6 P16 O58'
_cell_volume   1177.94614826
_cell_formula_units_Z   2
loop_
 _symmetry_equiv_pos_site_id
 _symmetry_equiv_pos_as_xyz
  1  'x, y, z'
loop_
 _atom_site_type_symbol
 _atom_site_label
 _atom_site_symmetry_multiplicity
 _atom_site_fract_x
 _atom_site_fract_y
 _atom_site_fract_z
 _atom_site_occupancy
  Li  Li0  1  0.69415500  0.08276000  0.05525900  1
  Li  Li1  1  0.08442900  0.22647600  0.05848900  1
  Li  Li2  1  0.22533700  0.68243800  0.05659300  1
  Li  Li3  1  0.09278300  0.67532700  0.55931600  1
  Li  Li4  1  0.31633200  0.91006900  0.93704200  1
  Li  Li5  1  0.98295200  0.05429100  0.50445700  1
  V  V6  1  0.99752400  0.43571400  0.25305400  1
  V  V7  1  0.99794900  0.56533800  0.75286200  1
  V  V8  1  0.56738700  0.42989100  0.74639500  1
  V  V9  1  0.44030700  0.56210900  0.25517400  1
  V  V10  1  0.56480500  0.99872600  0.25687000  1
  V  V11  1  0.43433500  0.00550800  0.73800600  1
  P  P12  1  0.68158100  0.08771900  0.84037800  1
  P  P13  1  0.69673400  0.22157200  0.34374300  1
  P  P14  1  0.21872000  0.08274000  0.34034100  1
  P  P15  1  0.33381200  0.33179900  0.13394900  1
  P  P16  1  0.32943000  0.34101600  0.62905100  1
  P  P17  1  0.09230100  0.22563400  0.84192700  1
  P  P18  1  0.91704500  0.30676300  0.66132200  1
  P  P19  1  0.23178500  0.67934800  0.84213600  1
  P  P20  1  0.77214500  0.31390800  0.15932100  1
  P  P21  1  0.08766000  0.68500500  0.34285600  1
  P  P22  1  0.91183700  0.77423900  0.16273600  1
  P  P23  1  0.66807100  0.66578500  0.36923800  1
  P  P24  1  0.65844000  0.66986800  0.86510900  1
  P  P25  1  0.78359200  0.91469900  0.65940500  1
  P  P26  1  0.30708400  0.77549300  0.66072200  1
  P  P27  1  0.31982100  0.90975500  0.15823700  1
  O  O28  1  0.80320200  0.99519000  0.57722500  1
  O  O29  1  0.65468400  0.08789800  0.33055500  1
  O  O30  1  0.76334500  0.22986000  0.07560900  1
  O  O31  1  0.65841000  0.25602200  0.82884700  1
  O  O32  1  0.52221600  0.09548400  0.81515800  1
  O  O33  1  0.47956300  0.18076400  0.17722100  1
  O  O34  1  0.38121400  0.07961100  0.32970800  1
  O  O35  1  0.24630400  0.99518200  0.06819500  1
  O  O36  1  0.26049800  0.07923900  0.83321000  1
  O  O37  1  0.47993200  0.33223100  0.67523300  1
  O  O38  1  0.53759500  0.38207300  0.33015600  1
  O  O39  1  0.32656000  0.19037600  0.67126900  1
  O  O40  1  0.33494000  0.33198000  0.02969100  1
  O  O41  1  0.32838100  0.34483600  0.52527400  1
  O  O42  1  0.18092000  0.33438300  0.17339300  1
  O  O43  1  0.38209300  0.52070000  0.82332200  1
  O  O44  1  0.33835300  0.47841300  0.17632300  1
  O  O45  1  0.08542900  0.25806500  0.32857600  1
  O  O46  1  0.99365900  0.20884400  0.75757100  1
  O  O47  1  0.99758800  0.20940700  0.57899300  1
  O  O48  1  0.01911800  0.23239100  0.93419700  1
  O  O49  1  0.10030800  0.37889700  0.82068400  1
  O  O50  1  0.18295300  0.49128300  0.67124700  1
  O  O51  1  0.91687500  0.34059500  0.15998000  1
  O  O52  1  0.09121500  0.52544500  0.32435200  1
  O  O53  1  0.25839800  0.65585100  0.32777900  1
  O  O54  1  0.79849100  0.20784500  0.25195700  1
  O  O55  1  0.78874200  0.20405200  0.42908600  1
  O  O56  1  0.20078100  0.79218500  0.58185400  1
  O  O57  1  0.74078900  0.34800000  0.66800600  1
  O  O58  1  0.92180600  0.46272900  0.67276300  1
  O  O59  1  0.08536800  0.65685000  0.83377300  1
  O  O60  1  0.81364200  0.51700000  0.32354600  1
  O  O61  1  0.90552100  0.61980300  0.17897100  1
  O  O62  1  0.00847600  0.76766700  0.08069700  1
  O  O63  1  0.02103700  0.75459300  0.43510600  1
  O  O64  1  0.98704400  0.79962400  0.25876200  1
  O  O65  1  0.91773600  0.73800500  0.66458700  1
  O  O66  1  0.65467700  0.52638800  0.81884700  1
  O  O67  1  0.61956400  0.47431300  0.17886000  1
  O  O68  1  0.81486400  0.65902000  0.82073700  1
  O  O69  1  0.65867500  0.66824800  0.96895300  1
  O  O70  1  0.66894700  0.66528200  0.47253700  1
  O  O71  1  0.67123500  0.81286000  0.32442500  1
  O  O72  1  0.46214300  0.61595600  0.66890700  1
  O  O73  1  0.51805600  0.66945600  0.32352800  1
  O  O74  1  0.74187900  0.91870200  0.16238800  1
  O  O75  1  0.80142400  0.98673800  0.75751300  1
  O  O76  1  0.74500300  0.01394900  0.93250400  1
  O  O77  1  0.62029600  0.91786400  0.66846400  1
  O  O78  1  0.51478000  0.82232800  0.82354100  1
  O  O79  1  0.47839600  0.90338500  0.17979200  1
  O  O80  1  0.34119900  0.74152900  0.16067300  1
  O  O81  1  0.23925800  0.75406100  0.93235300  1
  O  O82  1  0.21308100  0.79886600  0.75909700  1
  O  O83  1  0.34722400  0.91149300  0.66413100  1
  O  O84  1  0.19714500  0.00614900  0.42371200  1
  O  O85  1  0.20335400  0.00332100  0.24385700  1
