# generated using pymatgen
data_Li4Nb2Fe3Sb3O16
_symmetry_space_group_name_H-M   'P 1'
_cell_length_a   6.32426403
_cell_length_b   6.32426403
_cell_length_c   9.99205836
_cell_angle_alpha   89.26079048
_cell_angle_beta   89.26079048
_cell_angle_gamma   59.14430978
_symmetry_Int_Tables_number   1
_chemical_formula_structural   Li4Nb2Fe3Sb3O16
_chemical_formula_sum   'Li4 Nb2 Fe3 Sb3 O16'
_cell_volume   343.04266360
_cell_formula_units_Z   1
loop_
 _symmetry_equiv_pos_site_id
 _symmetry_equiv_pos_as_xyz
  1  'x, y, z'
loop_
 _atom_site_type_symbol
 _atom_site_label
 _atom_site_symmetry_multiplicity
 _atom_site_fract_x
 _atom_site_fract_y
 _atom_site_fract_z
 _atom_site_occupancy
  Li  Li0  1  0.32988200  0.32988200  0.10582400  1
  Li  Li1  1  0.01455900  0.01455900  0.01757800  1
  Li  Li2  1  0.01024400  0.01024400  0.50411900  1
  Li  Li3  1  0.66591800  0.66591800  0.58569400  1
  Nb  Nb4  1  0.33103700  0.33103700  0.50166400  1
  Nb  Nb5  1  0.65721500  0.65721500  0.02120400  1
  Fe  Fe6  1  0.16795600  0.16795600  0.78828600  1
  Fe  Fe7  1  0.83799900  0.33879900  0.28964900  1
  Fe  Fe8  1  0.33879900  0.83799900  0.28964900  1
  Sb  Sb9  1  0.65093400  0.17140800  0.78629400  1
  Sb  Sb10  1  0.17140800  0.65093400  0.78629400  1
  Sb  Sb11  1  0.82950300  0.82950300  0.28400100  1
  O  O12  1  0.66317100  0.14136600  0.40366300  1
  O  O13  1  0.47962800  0.47962800  0.60475300  1
  O  O14  1  0.30511100  0.30511100  0.90700400  1
  O  O15  1  0.01268300  0.01268300  0.69060600  1
  O  O16  1  0.99455600  0.99455600  0.20015500  1
  O  O17  1  0.14136600  0.66317100  0.40366300  1
  O  O18  1  0.47220800  0.04716800  0.65629400  1
  O  O19  1  0.04716800  0.47220800  0.65629400  1
  O  O20  1  0.83561500  0.83561500  0.90307300  1
  O  O21  1  0.17009900  0.17009900  0.40625800  1
  O  O22  1  0.96397300  0.54294800  0.15617400  1
  O  O23  1  0.54294800  0.96397300  0.15617400  1
  O  O24  1  0.67542000  0.67542000  0.39014400  1
  O  O25  1  0.84776800  0.35644000  0.91976100  1
  O  O26  1  0.52791100  0.52791100  0.15242800  1
  O  O27  1  0.35644000  0.84776800  0.91976100  1
