# generated using pymatgen
data_Li4CrFe3O8
_symmetry_space_group_name_H-M   'P 1'
_cell_length_a   5.19603164
_cell_length_b   5.96928957
_cell_length_c   10.75608966
_cell_angle_alpha   106.06307915
_cell_angle_beta   85.41294809
_cell_angle_gamma   73.19355593
_symmetry_Int_Tables_number   1
_chemical_formula_structural   Li4CrFe3O8
_chemical_formula_sum   'Li8 Cr2 Fe6 O16'
_cell_volume   302.22245726
_cell_formula_units_Z   2
loop_
 _symmetry_equiv_pos_site_id
 _symmetry_equiv_pos_as_xyz
  1  'x, y, z'
loop_
 _atom_site_type_symbol
 _atom_site_label
 _atom_site_symmetry_multiplicity
 _atom_site_fract_x
 _atom_site_fract_y
 _atom_site_fract_z
 _atom_site_occupancy
  Li  Li0  1  0.99913860  0.12546706  0.75015310  1
  Li  Li1  1  0.00022075  0.99956786  0.00040110  1
  Li  Li2  1  0.00293328  0.24897570  0.50018664  1
  Li  Li3  1  0.99979656  0.37517636  0.24999929  1
  Li  Li4  1  0.00081609  0.62439949  0.74968487  1
  Li  Li5  1  0.99730009  0.50074070  0.99986398  1
  Li  Li6  1  0.99987761  0.75056553  0.49960721  1
  Li  Li7  1  0.00000531  0.87487046  0.25008994  1
  Cr  Cr8  1  0.50117824  0.81222656  0.37378445  1
  Cr  Cr9  1  0.49880637  0.93784055  0.12619705  1
  Fe  Fe10  1  0.49898126  0.06283831  0.87590156  1
  Fe  Fe11  1  0.49999230  0.18698676  0.62423665  1
  Fe  Fe12  1  0.50109835  0.31269649  0.37436934  1
  Fe  Fe13  1  0.50000680  0.56297834  0.87577631  1
  Fe  Fe14  1  0.49882930  0.43739561  0.12560944  1
  Fe  Fe15  1  0.50108353  0.68709531  0.62409566  1
  O  O16  1  0.27344577  0.08584182  0.31033720  1
  O  O17  1  0.72723023  0.03603510  0.43821418  1
  O  O18  1  0.27065015  0.33836620  0.81159266  1
  O  O19  1  0.72884475  0.28720460  0.93984148  1
  O  O20  1  0.72630735  0.16092241  0.18914684  1
  O  O21  1  0.27040220  0.21235285  0.06259933  1
  O  O22  1  0.27112216  0.46278473  0.56017006  1
  O  O23  1  0.72938274  0.41155318  0.68838949  1
  O  O24  1  0.27362294  0.58919500  0.31085269  1
  O  O25  1  0.72950768  0.53779203  0.43739711  1
  O  O26  1  0.27135510  0.83748563  0.81045626  1
  O  O27  1  0.72597314  0.78889024  0.94141827  1
  O  O28  1  0.27273284  0.71405121  0.06182162  1
  O  O29  1  0.27400154  0.96108020  0.55860053  1
  O  O30  1  0.72658601  0.66420174  0.18965798  1
  O  O31  1  0.72877097  0.91242295  0.68954772  1
