# generated using pymatgen
data_LiMn3(BO3)3
_symmetry_space_group_name_H-M   'P 1'
_cell_length_a   5.33003100
_cell_length_b   5.90777293
_cell_length_c   12.05925331
_cell_angle_alpha   83.25775747
_cell_angle_beta   80.14624730
_cell_angle_gamma   88.20779775
_symmetry_Int_Tables_number   1
_chemical_formula_structural   LiMn3(BO3)3
_chemical_formula_sum   'Li2 Mn6 B6 O18'
_cell_volume   371.51571268
_cell_formula_units_Z   2
loop_
 _symmetry_equiv_pos_site_id
 _symmetry_equiv_pos_as_xyz
  1  'x, y, z'
loop_
 _atom_site_type_symbol
 _atom_site_label
 _atom_site_symmetry_multiplicity
 _atom_site_fract_x
 _atom_site_fract_y
 _atom_site_fract_z
 _atom_site_occupancy
  Li  Li0  1  0.70389700  0.07240400  0.76721700  1
  Li  Li1  1  0.29610300  0.92759600  0.23278300  1
  Mn  Mn2  1  0.29189900  0.90087400  0.64718700  1
  Mn  Mn3  1  0.62408700  0.25645700  0.99495800  1
  Mn  Mn4  1  0.93186300  0.58844500  0.33078300  1
  Mn  Mn5  1  0.37591300  0.74354300  0.00504200  1
  Mn  Mn6  1  0.70810100  0.09912600  0.35281300  1
  Mn  Mn7  1  0.06813700  0.41155500  0.66921700  1
  B  B8  1  0.52346200  0.51960500  0.77918400  1
  B  B9  1  0.15340800  0.12616500  0.87997800  1
  B  B10  1  0.47653800  0.48039500  0.22081600  1
  B  B11  1  0.84659200  0.87383500  0.12002200  1
  B  B12  1  0.18370900  0.17936600  0.44261800  1
  B  B13  1  0.81629100  0.82063400  0.55738200  1
  O  O14  1  0.29862600  0.61466900  0.74592000  1
  O  O15  1  0.68460300  0.39568600  0.71073700  1
  O  O16  1  0.09597400  0.10127800  0.77310800  1
  O  O17  1  0.55762300  0.53830200  0.89041400  1
  O  O18  1  0.99297900  0.23354300  0.95651400  1
  O  O19  1  0.39759900  0.04666300  0.90275400  1
  O  O20  1  0.70137400  0.38533100  0.25408000  1
  O  O21  1  0.44237700  0.46169800  0.10958600  1
  O  O22  1  0.31539700  0.60431400  0.28926300  1
  O  O23  1  0.00702100  0.76645700  0.04348600  1
  O  O24  1  0.90402600  0.89872200  0.22689200  1
  O  O25  1  0.60240100  0.95333700  0.09724600  1
  O  O26  1  0.94989400  0.27002700  0.42168900  1
  O  O27  1  0.34152100  0.08001800  0.35961600  1
  O  O28  1  0.75650300  0.81285200  0.45005300  1
  O  O29  1  0.24349700  0.18714800  0.54994700  1
  O  O30  1  0.65847900  0.91998200  0.64038400  1
  O  O31  1  0.05010600  0.72997300  0.57831100  1
