# generated using pymatgen
data_LiVP2HO8
_symmetry_space_group_name_H-M   'P 1'
_cell_length_a   7.75989000
_cell_length_b   7.99199521
_cell_length_c   9.73184012
_cell_angle_alpha   90.02662007
_cell_angle_beta   111.84548177
_cell_angle_gamma   90.09158588
_symmetry_Int_Tables_number   1
_chemical_formula_structural   LiVP2HO8
_chemical_formula_sum   'Li4 V4 P8 H4 O32'
_cell_volume   560.19875481
_cell_formula_units_Z   4
loop_
 _symmetry_equiv_pos_site_id
 _symmetry_equiv_pos_as_xyz
  1  'x, y, z'
loop_
 _atom_site_type_symbol
 _atom_site_label
 _atom_site_symmetry_multiplicity
 _atom_site_fract_x
 _atom_site_fract_y
 _atom_site_fract_z
 _atom_site_occupancy
  Li  Li0  1  0.64874300  0.37121600  0.77359500  1
  Li  Li1  1  0.85075900  0.87049100  0.72796500  1
  Li  Li2  1  0.35364600  0.63268900  0.22124700  1
  Li  Li3  1  0.85076500  0.87080300  0.22587400  1
  V  V4  1  0.01386000  0.49727800  0.75294000  1
  V  V5  1  0.48620700  0.99720400  0.74750400  1
  V  V6  1  0.99896300  0.49271100  0.25301200  1
  V  V7  1  0.49194600  0.01193300  0.25137900  1
  P  P8  1  0.23016700  0.84796300  0.93305000  1
  P  P9  1  0.73603100  0.65375200  0.93227900  1
  P  P10  1  0.26839200  0.34646800  0.56626300  1
  P  P11  1  0.23169700  0.84835000  0.43078800  1
  P  P12  1  0.76160600  0.15503300  0.56795400  1
  P  P13  1  0.73840600  0.65678200  0.43319600  1
  P  P14  1  0.26832600  0.35146300  0.06757000  1
  P  P15  1  0.76205600  0.15598100  0.06667300  1
  H  H16  1  0.50825300  0.50846700  0.99150900  1
  H  H17  1  0.50978300  0.50698000  0.49130700  1
  H  H18  1  0.98887200  0.01039600  0.51211500  1
  H  H19  1  0.98924200  0.01030600  0.01202900  1
  O  O20  1  0.05209800  0.94386000  0.90605700  1
  O  O21  1  0.13625500  0.33234400  0.90345600  1
  O  O22  1  0.18450500  0.67317500  0.86132200  1
  O  O23  1  0.35190400  0.94295100  0.85922400  1
  O  O24  1  0.55964300  0.54743100  0.90518400  1
  O  O25  1  0.64136800  0.17451300  0.90030100  1
  O  O26  1  0.68631700  0.82409500  0.85372400  1
  O  O27  1  0.84749400  0.55130400  0.85582400  1
  O  O28  1  0.15173000  0.44361700  0.64407600  1
  O  O29  1  0.31554500  0.17279800  0.63907200  1
  O  O30  1  0.35953000  0.83212100  0.59578700  1
  O  O31  1  0.44790200  0.44107700  0.59080100  1
  O  O32  1  0.65452500  0.05061600  0.64745100  1
  O  O33  1  0.81239900  0.32549700  0.64626300  1
  O  O34  1  0.05166300  0.93954400  0.40602900  1
  O  O35  1  0.13795000  0.33035800  0.40246500  1
  O  O36  1  0.85531000  0.67568600  0.60014700  1
  O  O37  1  0.94013900  0.05057000  0.59552500  1
  O  O38  1  0.19206700  0.67640200  0.35149800  1
  O  O39  1  0.35196000  0.94732200  0.35650300  1
  O  O40  1  0.55415500  0.56224000  0.40606300  1
  O  O41  1  0.63901700  0.17370000  0.40336400  1
  O  O42  1  0.68715300  0.82429100  0.34983200  1
  O  O43  1  0.85640300  0.55645100  0.36171300  1
  O  O44  1  0.15464000  0.44900200  0.14797500  1
  O  O45  1  0.31617300  0.17559400  0.13495800  1
  O  O46  1  0.35524500  0.83145400  0.09931500  1
  O  O47  1  0.43905400  0.45872900  0.09249600  1
  O  O48  1  0.65349900  0.05378100  0.14518600  1
  O  O49  1  0.81720100  0.32851800  0.13756100  1
  O  O50  1  0.85507800  0.67449500  0.09913000  1
  O  O51  1  0.93821400  0.04762000  0.09528500  1
