# generated using pymatgen
data_Li8TiMn3O12
_symmetry_space_group_name_H-M   'P 1'
_cell_length_a   4.95421356
_cell_length_b   8.44879800
_cell_length_c   9.95332302
_cell_angle_alpha   90.00187547
_cell_angle_beta   90.06819789
_cell_angle_gamma   89.99893537
_symmetry_Int_Tables_number   1
_chemical_formula_structural   Li8TiMn3O12
_chemical_formula_sum   'Li16 Ti2 Mn6 O24'
_cell_volume   416.61743525
_cell_formula_units_Z   2
loop_
 _symmetry_equiv_pos_site_id
 _symmetry_equiv_pos_as_xyz
  1  'x, y, z'
loop_
 _atom_site_type_symbol
 _atom_site_label
 _atom_site_symmetry_multiplicity
 _atom_site_fract_x
 _atom_site_fract_y
 _atom_site_fract_z
 _atom_site_occupancy
  Li  Li0  1  0.00369100  0.92139900  0.25016300  1
  Li  Li1  1  0.00369000  0.92142700  0.75016600  1
  Li  Li2  1  0.00208000  0.23121400  0.25022400  1
  Li  Li3  1  0.00208400  0.23125700  0.75022400  1
  Li  Li4  1  0.00030600  0.56359000  0.00008500  1
  Li  Li5  1  0.00031400  0.56359300  0.50004600  1
  Li  Li6  1  0.00010100  0.25295400  0.00024400  1
  Li  Li7  1  0.00036800  0.25295400  0.50021600  1
  Li  Li8  1  0.50102700  0.75750400  0.24998600  1
  Li  Li9  1  0.50102100  0.75746900  0.74998900  1
  Li  Li10  1  0.50008000  0.72782500  0.49998900  1
  Li  Li11  1  0.49990200  0.72782400  0.00000900  1
  Li  Li12  1  0.50029600  0.41549900  0.00019900  1
  Li  Li13  1  0.50017800  0.41549600  0.50015100  1
  Li  Li14  1  0.50328500  0.07145500  0.25040100  1
  Li  Li15  1  0.50328600  0.07143800  0.75040200  1
  Ti  Ti16  1  0.00021200  0.90094100  0.00013600  1
  Ti  Ti17  1  0.00006300  0.90094700  0.50000100  1
  Mn  Mn18  1  0.00063800  0.57956600  0.75006700  1
  Mn  Mn19  1  0.50048500  0.08500200  0.00029200  1
  Mn  Mn20  1  0.50032500  0.08499600  0.50025300  1
  Mn  Mn21  1  0.00064500  0.57961000  0.25006300  1
  Mn  Mn22  1  0.50072700  0.40367400  0.25017000  1
  Mn  Mn23  1  0.50071900  0.40377100  0.75018500  1
  O  O24  1  0.13887900  0.74106600  0.12735800  1
  O  O25  1  0.13833100  0.74115600  0.62743300  1
  O  O26  1  0.86246800  0.74121900  0.37274400  1
  O  O27  1  0.86299700  0.74130600  0.87266300  1
  O  O28  1  0.17576200  0.41810400  0.14312400  1
  O  O29  1  0.17600700  0.41830700  0.64307300  1
  O  O30  1  0.82556200  0.41818600  0.35713100  1
  O  O31  1  0.82530500  0.41838800  0.85718000  1
  O  O32  1  0.17979200  0.06979200  0.10852500  1
  O  O33  1  0.17974000  0.06981300  0.60855300  1
  O  O34  1  0.82151800  0.06989500  0.39193800  1
  O  O35  1  0.82156900  0.06992000  0.89190800  1
  O  O36  1  0.32662400  0.56736100  0.35739600  1
  O  O37  1  0.32643200  0.56716100  0.85743400  1
  O  O38  1  0.67454900  0.56732400  0.14279100  1
  O  O39  1  0.67470900  0.56713100  0.64273200  1
  O  O40  1  0.32974900  0.92127100  0.39122800  1
  O  O41  1  0.32987900  0.92131900  0.89124000  1
  O  O42  1  0.67148600  0.92126300  0.10918800  1
  O  O43  1  0.67135800  0.92130500  0.60917400  1
  O  O44  1  0.35244500  0.24508000  0.37578400  1
  O  O45  1  0.35298000  0.24510100  0.87588300  1
  O  O46  1  0.64896800  0.24506900  0.12460300  1
  O  O47  1  0.64843000  0.24508700  0.62449700  1
