# generated using pymatgen
data_Li4Ti3V4Cr2O18
_symmetry_space_group_name_H-M   'P 1'
_cell_length_a   2.95211300
_cell_length_b   9.08065600
_cell_length_c   25.58861800
_cell_angle_alpha   90.00000000
_cell_angle_beta   90.00000000
_cell_angle_gamma   90.00000000
_symmetry_Int_Tables_number   1
_chemical_formula_structural   Li4Ti3V4Cr2O18
_chemical_formula_sum   'Li8 Ti6 V8 Cr4 O36'
_cell_volume   685.95722056
_cell_formula_units_Z   2
loop_
 _symmetry_equiv_pos_site_id
 _symmetry_equiv_pos_as_xyz
  1  'x, y, z'
loop_
 _atom_site_type_symbol
 _atom_site_label
 _atom_site_symmetry_multiplicity
 _atom_site_fract_x
 _atom_site_fract_y
 _atom_site_fract_z
 _atom_site_occupancy
  Li  Li0  1  0.00000000  0.94680800  0.98836400  1
  Li  Li1  1  0.00000000  0.91986500  0.20841800  1
  Li  Li2  1  0.00000000  0.08013500  0.70841800  1
  Li  Li3  1  0.00000000  0.05319200  0.48836400  1
  Li  Li4  1  0.00000000  0.44343800  0.50674100  1
  Li  Li5  1  0.00000000  0.42998600  0.30320000  1
  Li  Li6  1  0.00000000  0.57001400  0.80320000  1
  Li  Li7  1  0.00000000  0.55656200  0.00674100  1
  Ti  Ti8  1  0.00000000  0.74597500  0.10453600  1
  Ti  Ti9  1  0.00000000  0.25402500  0.60453600  1
  Ti  Ti10  1  0.00000000  0.23558700  0.39390800  1
  Ti  Ti11  1  0.50000000  0.40570400  0.69607100  1
  Ti  Ti12  1  0.50000000  0.59429600  0.19607100  1
  Ti  Ti13  1  0.00000000  0.76441300  0.89390800  1
  V  V14  1  0.00000000  0.77278000  0.30822100  1
  V  V15  1  0.50000000  0.89719400  0.58635400  1
  V  V16  1  0.50000000  0.10280600  0.08635400  1
  V  V17  1  0.00000000  0.22722000  0.80822100  1
  V  V18  1  0.00000000  0.25325300  0.19428200  1
  V  V19  1  0.50000000  0.39993900  0.91303600  1
  V  V20  1  0.50000000  0.60006100  0.41303600  1
  V  V21  1  0.00000000  0.74674700  0.69428200  1
  Cr  Cr22  1  0.00000000  0.74943700  0.49973800  1
  Cr  Cr23  1  0.50000000  0.90083200  0.80461100  1
  Cr  Cr24  1  0.50000000  0.09916800  0.30461100  1
  Cr  Cr25  1  0.00000000  0.25056300  0.99973800  1
  O  O26  1  0.00000000  0.73880200  0.42212700  1
  O  O27  1  0.00000000  0.75989200  0.57781900  1
  O  O28  1  0.50000000  0.81213500  0.93884700  1
  O  O29  1  0.50000000  0.79500600  0.15949900  1
  O  O30  1  0.50000000  0.85695400  0.65990200  1
  O  O31  1  0.00000000  0.85364100  0.75578200  1
  O  O32  1  0.50000000  0.90009000  0.50690100  1
  O  O33  1  0.50000000  0.89214800  0.27731600  1
  O  O34  1  0.00000000  0.94474700  0.85511400  1
  O  O35  1  0.00000000  0.95297100  0.08419600  1
  O  O36  1  0.00000000  0.04702900  0.58419600  1
  O  O37  1  0.00000000  0.05525300  0.35511400  1
  O  O38  1  0.50000000  0.10785200  0.77731600  1
  O  O39  1  0.50000000  0.09991000  0.00690100  1
  O  O40  1  0.00000000  0.14635900  0.25578200  1
  O  O41  1  0.50000000  0.14304600  0.15990200  1
  O  O42  1  0.50000000  0.20499400  0.65949900  1
  O  O43  1  0.50000000  0.18786500  0.43884700  1
  O  O44  1  0.00000000  0.24010800  0.07781900  1
  O  O45  1  0.00000000  0.26119800  0.92212700  1
  O  O46  1  0.50000000  0.31007200  0.56127200  1
  O  O47  1  0.50000000  0.29949000  0.34055800  1
  O  O48  1  0.50000000  0.34908000  0.83969900  1
  O  O49  1  0.00000000  0.35594700  0.74408200  1
  O  O50  1  0.50000000  0.40170600  0.99214500  1
  O  O51  1  0.50000000  0.39236000  0.21603100  1
  O  O52  1  0.00000000  0.43945900  0.64656400  1
  O  O53  1  0.00000000  0.45300500  0.41468800  1
  O  O54  1  0.00000000  0.54699500  0.91468800  1
  O  O55  1  0.00000000  0.56054100  0.14656400  1
  O  O56  1  0.50000000  0.60764000  0.71603100  1
  O  O57  1  0.50000000  0.59829400  0.49214500  1
  O  O58  1  0.00000000  0.64405300  0.24408200  1
  O  O59  1  0.50000000  0.65092000  0.33969900  1
  O  O60  1  0.50000000  0.70051000  0.84055800  1
  O  O61  1  0.50000000  0.68992800  0.06127200  1
