# generated using pymatgen
data_Li4Ti7O16
_symmetry_space_group_name_H-M   'P 1'
_cell_length_a   5.84962991
_cell_length_b   5.84962991
_cell_length_c   9.70109247
_cell_angle_alpha   89.97286371
_cell_angle_beta   89.97286371
_cell_angle_gamma   60.98300394
_symmetry_Int_Tables_number   1
_chemical_formula_structural   Li4Ti7O16
_chemical_formula_sum   'Li4 Ti7 O16'
_cell_volume   290.28539293
_cell_formula_units_Z   1
loop_
 _symmetry_equiv_pos_site_id
 _symmetry_equiv_pos_as_xyz
  1  'x, y, z'
loop_
 _atom_site_type_symbol
 _atom_site_label
 _atom_site_symmetry_multiplicity
 _atom_site_fract_x
 _atom_site_fract_y
 _atom_site_fract_z
 _atom_site_occupancy
  Li  Li0  1  0.08974600  0.08974600  0.96105300  1
  Li  Li1  1  0.10761400  0.10761400  0.64390600  1
  Li  Li2  1  0.09507800  0.58876600  0.54355000  1
  Li  Li3  1  0.58876600  0.09507800  0.54355000  1
  Ti  Ti4  1  0.37501900  0.88996000  0.36709400  1
  Ti  Ti5  1  0.09781800  0.61075300  0.85736500  1
  Ti  Ti6  1  0.61075300  0.09781800  0.85736500  1
  Ti  Ti7  1  0.86765200  0.86765200  0.14524100  1
  Ti  Ti8  1  0.40424300  0.40424300  0.13294700  1
  Ti  Ti9  1  0.60537400  0.60537400  0.64177200  1
  Ti  Ti10  1  0.88996000  0.37501900  0.36709400  1
  O  O11  1  0.29125800  0.76336700  0.52977600  1
  O  O12  1  0.03423600  0.03423600  0.27877300  1
  O  O13  1  0.49721400  0.96053100  0.71850500  1
  O  O14  1  0.23169000  0.23169000  0.45483200  1
  O  O15  1  0.27773700  0.27773700  0.96386100  1
  O  O16  1  0.77006500  0.77006500  0.96936700  1
  O  O17  1  0.04326500  0.53374500  0.22576300  1
  O  O18  1  0.53374500  0.04326500  0.22576300  1
  O  O19  1  0.46279700  0.46279700  0.77302200  1
  O  O20  1  0.96664500  0.96664500  0.79554600  1
  O  O21  1  0.21758000  0.73040400  0.03940200  1
  O  O22  1  0.73040400  0.21758000  0.03940200  1
  O  O23  1  0.76336700  0.29125800  0.52977600  1
  O  O24  1  0.54323000  0.54323000  0.27122800  1
  O  O25  1  0.96053100  0.49721400  0.71850500  1
  O  O26  1  0.73215700  0.73215700  0.46441300  1
