# generated using pymatgen
data_Li3BiO3
_symmetry_space_group_name_H-M   'P 1'
_cell_length_a   7.16499900
_cell_length_b   7.16499900
_cell_length_c   7.16499900
_cell_angle_alpha   90.00000000
_cell_angle_beta   90.00000000
_cell_angle_gamma   90.00000000
_symmetry_Int_Tables_number   1
_chemical_formula_structural   Li3BiO3
_chemical_formula_sum   'Li12 Bi4 O12'
_cell_volume   367.83106311
_cell_formula_units_Z   4
loop_
 _symmetry_equiv_pos_site_id
 _symmetry_equiv_pos_as_xyz
  1  'x, y, z'
loop_
 _atom_site_type_symbol
 _atom_site_label
 _atom_site_symmetry_multiplicity
 _atom_site_fract_x
 _atom_site_fract_y
 _atom_site_fract_z
 _atom_site_occupancy
  Li  Li0  1  0.97667500  0.97667500  0.97667500  1
  Li  Li1  1  0.24644600  0.25355400  0.74644600  1
  Li  Li2  1  0.24452600  0.74452600  0.75547400  1
  Li  Li3  1  0.25547400  0.25547400  0.25547400  1
  Li  Li4  1  0.25355400  0.74644600  0.24644600  1
  Li  Li5  1  0.52332500  0.02332500  0.47667500  1
  Li  Li6  1  0.47667500  0.52332500  0.02332500  1
  Li  Li7  1  0.74644600  0.24644600  0.25355400  1
  Li  Li8  1  0.74452600  0.75547400  0.24452600  1
  Li  Li9  1  0.75547400  0.24452600  0.74452600  1
  Li  Li10  1  0.75355400  0.75355400  0.75355400  1
  Li  Li11  1  0.02332500  0.47667500  0.52332500  1
  Bi  Bi12  1  0.03434300  0.96565700  0.46565700  1
  Bi  Bi13  1  0.46565700  0.03434300  0.96565700  1
  Bi  Bi14  1  0.53434300  0.53434300  0.53434300  1
  Bi  Bi15  1  0.96565700  0.46565700  0.03434300  1
  O  O16  1  0.99734500  0.25220600  0.38190900  1
  O  O17  1  0.11809100  0.00265500  0.75220600  1
  O  O18  1  0.25220600  0.38190900  0.99734500  1
  O  O19  1  0.24779400  0.61809100  0.49734500  1
  O  O20  1  0.38190900  0.99734500  0.25220600  1
  O  O21  1  0.50265500  0.74779400  0.88190900  1
  O  O22  1  0.49734500  0.24779400  0.61809100  1
  O  O23  1  0.61809100  0.49734500  0.24779400  1
  O  O24  1  0.75220600  0.11809100  0.00265500  1
  O  O25  1  0.74779400  0.88190900  0.50265500  1
  O  O26  1  0.88190900  0.50265500  0.74779400  1
  O  O27  1  0.00265500  0.75220600  0.11809100  1
