# generated using pymatgen
data_Na3LiSbP2O9
_symmetry_space_group_name_H-M   'P 1'
_cell_length_a   7.32515600
_cell_length_b   9.49811200
_cell_length_c   12.72838100
_cell_angle_alpha   90.00000000
_cell_angle_beta   90.00000000
_cell_angle_gamma   90.00000000
_symmetry_Int_Tables_number   1
_chemical_formula_structural   Na3LiSbP2O9
_chemical_formula_sum   'Na12 Li4 Sb4 P8 O36'
_cell_volume   885.57904413
_cell_formula_units_Z   4
loop_
 _symmetry_equiv_pos_site_id
 _symmetry_equiv_pos_as_xyz
  1  'x, y, z'
loop_
 _atom_site_type_symbol
 _atom_site_label
 _atom_site_symmetry_multiplicity
 _atom_site_fract_x
 _atom_site_fract_y
 _atom_site_fract_z
 _atom_site_occupancy
  Na  Na0  1  0.14249500  0.10764600  0.14929200  1
  Na  Na1  1  0.15696400  0.24191400  0.76606400  1
  Na  Na2  1  0.23505500  0.58510400  0.50133900  1
  Na  Na3  1  0.26494500  0.41489600  0.00133900  1
  Na  Na4  1  0.34303600  0.75808600  0.26606400  1
  Na  Na5  1  0.35750500  0.89235400  0.64929200  1
  Na  Na6  1  0.64249500  0.39235400  0.85070800  1
  Na  Na7  1  0.65696400  0.25808600  0.23393600  1
  Na  Na8  1  0.73505500  0.91489600  0.49866100  1
  Na  Na9  1  0.76494500  0.08510400  0.99866100  1
  Na  Na10  1  0.84303600  0.74191400  0.73393600  1
  Na  Na11  1  0.85750500  0.60764600  0.35070800  1
  Li  Li12  1  0.09633100  0.55748100  0.16511500  1
  Li  Li13  1  0.40366900  0.44251900  0.66511500  1
  Li  Li14  1  0.59633100  0.94251900  0.83488500  1
  Li  Li15  1  0.90366900  0.05748100  0.33488500  1
  Sb  Sb16  1  0.01751500  0.75377200  0.99607900  1
  Sb  Sb17  1  0.48248500  0.24622800  0.49607900  1
  Sb  Sb18  1  0.51751500  0.74622800  0.00392100  1
  Sb  Sb19  1  0.98248500  0.25377200  0.50392100  1
  P  P20  1  0.22060800  0.37357900  0.29056700  1
  P  P21  1  0.23276000  0.95975800  0.42087200  1
  P  P22  1  0.26724000  0.04024200  0.92087200  1
  P  P23  1  0.27939200  0.62642100  0.79056700  1
  P  P24  1  0.72060800  0.12642100  0.70943300  1
  P  P25  1  0.73276000  0.54024200  0.57912800  1
  P  P26  1  0.76724000  0.45975800  0.07912800  1
  P  P27  1  0.77939200  0.87357900  0.20943300  1
  O  O28  1  0.05740400  0.28512000  0.33874800  1
  O  O29  1  0.04960100  0.02696200  0.46607600  1
  O  O30  1  0.09499400  0.68094600  0.83911300  1
  O  O31  1  0.10316400  0.97050900  0.98632900  1
  O  O32  1  0.18862400  0.53255900  0.31394600  1
  O  O33  1  0.23666700  0.31059900  0.56095100  1
  O  O34  1  0.24214600  0.80401800  0.44778300  1
  O  O35  1  0.22417100  0.35008200  0.17193800  1
  O  O36  1  0.25636000  0.01076800  0.80297800  1
  O  O37  1  0.24364000  0.98923200  0.30297800  1
  O  O38  1  0.27582900  0.64991800  0.67193800  1
  O  O39  1  0.25785400  0.19598200  0.94778300  1
  O  O40  1  0.26333300  0.68940100  0.06095100  1
  O  O41  1  0.31137600  0.46744100  0.81394600  1
  O  O42  1  0.39683600  0.02949100  0.48632900  1
  O  O43  1  0.40500600  0.31905400  0.33911300  1
  O  O44  1  0.45039900  0.97303800  0.96607600  1
  O  O45  1  0.44259600  0.71488000  0.83874800  1
  O  O46  1  0.55740400  0.21488000  0.66125200  1
  O  O47  1  0.54960100  0.47303800  0.53392400  1
  O  O48  1  0.59499400  0.81905400  0.16088700  1
  O  O49  1  0.60316400  0.52949100  0.01367100  1
  O  O50  1  0.68862400  0.96744100  0.68605400  1
  O  O51  1  0.73666700  0.18940100  0.43904900  1
  O  O52  1  0.74214600  0.69598200  0.55221700  1
  O  O53  1  0.72417100  0.14991800  0.82806200  1
  O  O54  1  0.75636000  0.48923200  0.19702200  1
  O  O55  1  0.74364000  0.51076800  0.69702200  1
  O  O56  1  0.77582900  0.85008200  0.32806200  1
  O  O57  1  0.75785400  0.30401800  0.05221700  1
  O  O58  1  0.76333300  0.81059900  0.93904900  1
  O  O59  1  0.81137600  0.03255900  0.18605400  1
  O  O60  1  0.89683600  0.47050900  0.51367100  1
  O  O61  1  0.90500600  0.18094600  0.66088700  1
  O  O62  1  0.95039900  0.52696200  0.03392400  1
  O  O63  1  0.94259600  0.78512000  0.16125200  1
