# generated using pymatgen
data_Li2Mn3(PO4)3
_symmetry_space_group_name_H-M   'P 1'
_cell_length_a   8.60737661
_cell_length_b   8.60737661
_cell_length_c   8.53394979
_cell_angle_alpha   63.76681293
_cell_angle_beta   63.76681293
_cell_angle_gamma   62.55521581
_symmetry_Int_Tables_number   1
_chemical_formula_structural   Li2Mn3(PO4)3
_chemical_formula_sum   'Li4 Mn6 P6 O24'
_cell_volume   480.22557928
_cell_formula_units_Z   2
loop_
 _symmetry_equiv_pos_site_id
 _symmetry_equiv_pos_as_xyz
  1  'x, y, z'
loop_
 _atom_site_type_symbol
 _atom_site_label
 _atom_site_symmetry_multiplicity
 _atom_site_fract_x
 _atom_site_fract_y
 _atom_site_fract_z
 _atom_site_occupancy
  Li  Li0  1  0.35571200  0.64428800  0.50000000  1
  Li  Li1  1  0.65877000  0.34123000  0.00000000  1
  Li  Li2  1  0.24608900  0.15209000  0.60085700  1
  Li  Li3  1  0.84791000  0.75391100  0.39914300  1
  Mn  Mn4  1  0.49798800  0.00975100  0.24168400  1
  Mn  Mn5  1  0.14965400  0.64435700  0.89649200  1
  Mn  Mn6  1  0.65296500  0.15634900  0.40649600  1
  Mn  Mn7  1  0.99024900  0.50201200  0.75831600  1
  Mn  Mn8  1  0.35564300  0.85034600  0.10350800  1
  Mn  Mn9  1  0.84365100  0.34703500  0.59350400  1
  P  P10  1  0.74936700  0.56015300  0.18313500  1
  P  P11  1  0.43984700  0.25063300  0.81686500  1
  P  P12  1  0.05956100  0.94043900  0.50000000  1
  P  P13  1  0.96265500  0.03734500  0.00000000  1
  P  P14  1  0.54410000  0.74919800  0.69368500  1
  P  P15  1  0.25080200  0.45590000  0.30631500  1
  O  O16  1  0.59763500  0.30714900  0.78902400  1
  O  O17  1  0.02840500  0.09400800  0.56573400  1
  O  O18  1  0.80357800  0.53697600  0.34339900  1
  O  O19  1  0.58174800  0.74767400  0.17651800  1
  O  O20  1  0.69285100  0.40236500  0.21097600  1
  O  O21  1  0.90085200  0.58255800  0.99731600  1
  O  O22  1  0.41744200  0.09914800  0.00268400  1
  O  O23  1  0.25232600  0.41825200  0.82348200  1
  O  O24  1  0.11349500  0.99267500  0.07746600  1
  O  O25  1  0.08273200  0.74515500  0.64747000  1
  O  O26  1  0.76837700  0.05655100  0.14729400  1
  O  O27  1  0.48978000  0.81315000  0.85611800  1
  O  O28  1  0.46302400  0.19642200  0.65660100  1
  O  O29  1  0.25484500  0.91726800  0.35253000  1
  O  O30  1  0.94344900  0.23162300  0.85270600  1
  O  O31  1  0.90599100  0.97159500  0.43426600  1
  O  O32  1  0.73940300  0.59653200  0.68263700  1
  O  O33  1  0.57097500  0.90279200  0.50360800  1
  O  O34  1  0.09720800  0.42902500  0.49639200  1
  O  O35  1  0.31666600  0.60038800  0.29332800  1
  O  O36  1  0.40346800  0.26059700  0.31736300  1
  O  O37  1  0.18685000  0.51022000  0.14388200  1
  O  O38  1  0.00732500  0.88650500  0.92253400  1
  O  O39  1  0.39961200  0.68333400  0.70667200  1
