# generated using pymatgen
data_LiVBO4
_symmetry_space_group_name_H-M   'P 1'
_cell_length_a   3.11395300
_cell_length_b   9.08791700
_cell_length_c   9.41504400
_cell_angle_alpha   90.00000000
_cell_angle_beta   90.00000000
_cell_angle_gamma   90.00000000
_symmetry_Int_Tables_number   1
_chemical_formula_structural   LiVBO4
_chemical_formula_sum   'Li4 V4 B4 O16'
_cell_volume   266.43959158
_cell_formula_units_Z   4
loop_
 _symmetry_equiv_pos_site_id
 _symmetry_equiv_pos_as_xyz
  1  'x, y, z'
loop_
 _atom_site_type_symbol
 _atom_site_label
 _atom_site_symmetry_multiplicity
 _atom_site_fract_x
 _atom_site_fract_y
 _atom_site_fract_z
 _atom_site_occupancy
  Li  Li0  1  0.75000000  0.12199200  0.93492100  1
  Li  Li1  1  0.25000000  0.37800800  0.43492100  1
  Li  Li2  1  0.75000000  0.62199200  0.56507900  1
  Li  Li3  1  0.25000000  0.87800800  0.06507900  1
  V  V4  1  0.75000000  0.10756900  0.29088600  1
  V  V5  1  0.25000000  0.39243100  0.79088600  1
  V  V6  1  0.75000000  0.60756900  0.20911400  1
  V  V7  1  0.25000000  0.89243100  0.70911400  1
  B  B8  1  0.75000000  0.16504400  0.61456800  1
  B  B9  1  0.25000000  0.33495600  0.11456800  1
  B  B10  1  0.75000000  0.66504400  0.88543200  1
  B  B11  1  0.25000000  0.83495600  0.38543200  1
  O  O12  1  0.75000000  0.02521300  0.13067900  1
  O  O13  1  0.75000000  0.01127700  0.63242700  1
  O  O14  1  0.75000000  0.22564400  0.48452200  1
  O  O15  1  0.75000000  0.24868800  0.74132100  1
  O  O16  1  0.25000000  0.25131200  0.24132100  1
  O  O17  1  0.25000000  0.27435600  0.98452200  1
  O  O18  1  0.25000000  0.48872300  0.13242700  1
  O  O19  1  0.25000000  0.47478700  0.63067900  1
  O  O20  1  0.75000000  0.52521300  0.36932100  1
  O  O21  1  0.75000000  0.51127700  0.86757300  1
  O  O22  1  0.75000000  0.72564400  0.01547800  1
  O  O23  1  0.75000000  0.74868800  0.75867900  1
  O  O24  1  0.25000000  0.75131200  0.25867900  1
  O  O25  1  0.25000000  0.77435600  0.51547800  1
  O  O26  1  0.25000000  0.98872300  0.36757300  1
  O  O27  1  0.25000000  0.97478700  0.86932100  1
