# generated using pymatgen
data_Li3V(BO3)2
_symmetry_space_group_name_H-M   'P 1'
_cell_length_a   8.76463400
_cell_length_b   5.97131000
_cell_length_c   10.43512638
_cell_angle_alpha   55.58155240
_cell_angle_beta   90.00000000
_cell_angle_gamma   90.00000000
_symmetry_Int_Tables_number   1
_chemical_formula_structural   Li3V(BO3)2
_chemical_formula_sum   'Li12 V4 B8 O24'
_cell_volume   450.52514110
_cell_formula_units_Z   4
loop_
 _symmetry_equiv_pos_site_id
 _symmetry_equiv_pos_as_xyz
  1  'x, y, z'
loop_
 _atom_site_type_symbol
 _atom_site_label
 _atom_site_symmetry_multiplicity
 _atom_site_fract_x
 _atom_site_fract_y
 _atom_site_fract_z
 _atom_site_occupancy
  Li  Li0  1  0.24154200  0.83714400  0.15296100  1
  Li  Li1  1  0.77040700  0.62725600  0.39693300  1
  Li  Li2  1  0.41739100  0.88152200  0.40199300  1
  Li  Li3  1  0.91739100  0.11847800  0.09800700  1
  Li  Li4  1  0.27040700  0.37274400  0.10306700  1
  Li  Li5  1  0.74154200  0.16285600  0.34703900  1
  Li  Li6  1  0.25845800  0.83714400  0.65296100  1
  Li  Li7  1  0.72959300  0.62725600  0.89693300  1
  Li  Li8  1  0.08260900  0.88152200  0.90199300  1
  Li  Li9  1  0.58260900  0.11847800  0.59800700  1
  Li  Li10  1  0.22959300  0.37274400  0.60306700  1
  Li  Li11  1  0.75845800  0.16285600  0.84703900  1
  V  V12  1  0.40106200  0.29242200  0.86897700  1
  V  V13  1  0.90106200  0.70757800  0.63102300  1
  V  V14  1  0.09893800  0.29242200  0.36897700  1
  V  V15  1  0.59893800  0.70757800  0.13102300  1
  B  B16  1  0.10629700  0.85470700  0.36402100  1
  B  B17  1  0.56516100  0.61337700  0.63650100  1
  B  B18  1  0.06516100  0.38662300  0.86349900  1
  B  B19  1  0.60629700  0.14529300  0.13597900  1
  B  B20  1  0.39370300  0.85470700  0.86402100  1
  B  B21  1  0.93483900  0.61337700  0.13650100  1
  B  B22  1  0.43483900  0.38662300  0.36349900  1
  B  B23  1  0.89370300  0.14529300  0.63597900  1
  O  O24  1  0.14030900  0.62450400  0.37311700  1
  O  O25  1  0.46687300  0.07271500  0.10317800  1
  O  O26  1  0.71804400  0.94942500  0.18364100  1
  O  O27  1  0.41199800  0.57403900  0.61733500  1
  O  O28  1  0.15530800  0.20034800  0.98613400  1
  O  O29  1  0.61226900  0.45449600  0.79118100  1
  O  O30  1  0.11226900  0.54550400  0.70881900  1
  O  O31  1  0.65530800  0.79965200  0.51386600  1
  O  O32  1  0.21804400  0.05057500  0.31635900  1
  O  O33  1  0.91199800  0.42596100  0.88266500  1
  O  O34  1  0.96687300  0.92728500  0.39682200  1
  O  O35  1  0.64030900  0.37549600  0.12688300  1
  O  O36  1  0.35969100  0.62450400  0.87311700  1
  O  O37  1  0.03312700  0.07271500  0.60317800  1
  O  O38  1  0.08800200  0.57403900  0.11733500  1
  O  O39  1  0.78195600  0.94942500  0.68364100  1
  O  O40  1  0.34469200  0.20034800  0.48613400  1
  O  O41  1  0.88773100  0.45449600  0.29118100  1
  O  O42  1  0.38773100  0.54550400  0.20881900  1
  O  O43  1  0.84469200  0.79965200  0.01386600  1
  O  O44  1  0.58800200  0.42596100  0.38266500  1
  O  O45  1  0.28195600  0.05057500  0.81635900  1
  O  O46  1  0.53312700  0.92728500  0.89682200  1
  O  O47  1  0.85969100  0.37549600  0.62688300  1
