# generated using pymatgen
data_LiCr(PO3)4
_symmetry_space_group_name_H-M   'P 1'
_cell_length_a   9.03859600
_cell_length_b   7.59279200
_cell_length_c   14.81597850
_cell_angle_alpha   68.20767537
_cell_angle_beta   90.00000000
_cell_angle_gamma   90.00000000
_symmetry_Int_Tables_number   1
_chemical_formula_structural   LiCr(PO3)4
_chemical_formula_sum   'Li4 Cr4 P16 O48'
_cell_volume   944.12905040
_cell_formula_units_Z   4
loop_
 _symmetry_equiv_pos_site_id
 _symmetry_equiv_pos_as_xyz
  1  'x, y, z'
loop_
 _atom_site_type_symbol
 _atom_site_label
 _atom_site_symmetry_multiplicity
 _atom_site_fract_x
 _atom_site_fract_y
 _atom_site_fract_z
 _atom_site_occupancy
  Li  Li0  1  0.57894900  0.90386500  0.07544100  1
  Li  Li1  1  0.07894900  0.09613500  0.42455900  1
  Li  Li2  1  0.92105100  0.90386500  0.57544100  1
  Li  Li3  1  0.42105100  0.09613500  0.92455900  1
  Cr  Cr4  1  0.63520800  0.34496100  0.64872000  1
  Cr  Cr5  1  0.86479200  0.34496100  0.14872000  1
  Cr  Cr6  1  0.13520800  0.65503900  0.85128000  1
  Cr  Cr7  1  0.36479200  0.65503900  0.35128000  1
  P  P8  1  0.29316100  0.35543800  0.57124200  1
  P  P9  1  0.05201400  0.65232500  0.22583100  1
  P  P10  1  0.23981900  0.75099300  0.04392800  1
  P  P11  1  0.06577800  0.07073800  0.69407900  1
  P  P12  1  0.73981900  0.24900700  0.45607200  1
  P  P13  1  0.55201400  0.34767500  0.27416900  1
  P  P14  1  0.56577800  0.92926200  0.80592100  1
  P  P15  1  0.20683900  0.35543800  0.07124200  1
  P  P16  1  0.79316100  0.64456200  0.92875800  1
  P  P17  1  0.43422200  0.07073800  0.19407900  1
  P  P18  1  0.44798600  0.65232500  0.72583100  1
  P  P19  1  0.26018100  0.75099300  0.54392800  1
  P  P20  1  0.93422200  0.92926200  0.30592100  1
  P  P21  1  0.76018100  0.24900700  0.95607200  1
  P  P22  1  0.94798600  0.34767500  0.77416900  1
  P  P23  1  0.70683900  0.64456200  0.42875800  1
  O  O24  1  0.37186500  0.86984500  0.04352000  1
  O  O25  1  0.11939700  0.77332600  0.11967700  1
  O  O26  1  0.05856500  0.19021600  0.76406100  1
  O  O27  1  0.32511200  0.40874100  0.46448600  1
  O  O28  1  0.16519500  0.59523400  0.30574800  1
  O  O29  1  0.78487900  0.47059800  0.40806500  1
  O  O30  1  0.42101100  0.27895000  0.63891900  1
  O  O31  1  0.45719800  0.50783300  0.27664300  1
  O  O32  1  0.15947500  0.21011900  0.59964700  1
  O  O33  1  0.66265600  0.09822800  0.75548100  1
  O  O34  1  0.95719800  0.49216700  0.22335700  1
  O  O35  1  0.91998100  0.04111700  0.65731100  1
  O  O36  1  0.66323800  0.21448000  0.55129300  1
  O  O37  1  0.28487900  0.52940200  0.09193500  1
  O  O38  1  0.66519500  0.40476600  0.19425200  1
  O  O39  1  0.82511200  0.59125900  0.03551400  1
  O  O40  1  0.16323800  0.78552000  0.94870700  1
  O  O41  1  0.41998100  0.95888300  0.84268900  1
  O  O42  1  0.61939700  0.22667400  0.38032300  1
  O  O43  1  0.16265600  0.90177200  0.74451900  1
  O  O44  1  0.87186500  0.13015500  0.45648000  1
  O  O45  1  0.65947500  0.78988100  0.90035300  1
  O  O46  1  0.44143500  0.19021600  0.26406100  1
  O  O47  1  0.92101100  0.72105000  0.86108100  1
  O  O48  1  0.07898900  0.27895000  0.13891900  1
  O  O49  1  0.55856500  0.80978400  0.73593900  1
  O  O50  1  0.34052500  0.21011900  0.09964700  1
  O  O51  1  0.12813500  0.86984500  0.54352000  1
  O  O52  1  0.83734400  0.09822800  0.25548100  1
  O  O53  1  0.38060300  0.77332600  0.61967700  1
  O  O54  1  0.58001900  0.04111700  0.15731100  1
  O  O55  1  0.83676200  0.21448000  0.05129300  1
  O  O56  1  0.17488800  0.40874100  0.96448600  1
  O  O57  1  0.33480500  0.59523400  0.80574800  1
  O  O58  1  0.71512100  0.47059800  0.90806500  1
  O  O59  1  0.33676200  0.78552000  0.44870700  1
  O  O60  1  0.08001900  0.95888300  0.34268900  1
  O  O61  1  0.04280200  0.50783300  0.77664300  1
  O  O62  1  0.33734400  0.90177200  0.24451900  1
  O  O63  1  0.84052500  0.78988100  0.40035300  1
  O  O64  1  0.54280200  0.49216700  0.72335700  1
  O  O65  1  0.57898900  0.72105000  0.36108100  1
  O  O66  1  0.21512100  0.52940200  0.59193500  1
  O  O67  1  0.83480500  0.40476600  0.69425200  1
  O  O68  1  0.67488800  0.59125900  0.53551400  1
  O  O69  1  0.94143500  0.80978400  0.23593900  1
  O  O70  1  0.88060300  0.22667400  0.88032300  1
  O  O71  1  0.62813500  0.13015500  0.95648000  1
