# generated using pymatgen
data_Li4Ti3V2Cr3O16
_symmetry_space_group_name_H-M   'P 1'
_cell_length_a   5.91251415
_cell_length_b   5.91251415
_cell_length_c   9.55519028
_cell_angle_alpha   89.24106670
_cell_angle_beta   89.24106670
_cell_angle_gamma   60.23203016
_symmetry_Int_Tables_number   1
_chemical_formula_structural   Li4Ti3V2Cr3O16
_chemical_formula_sum   'Li4 Ti3 V2 Cr3 O16'
_cell_volume   289.91728946
_cell_formula_units_Z   1
loop_
 _symmetry_equiv_pos_site_id
 _symmetry_equiv_pos_as_xyz
  1  'x, y, z'
loop_
 _atom_site_type_symbol
 _atom_site_label
 _atom_site_symmetry_multiplicity
 _atom_site_fract_x
 _atom_site_fract_y
 _atom_site_fract_z
 _atom_site_occupancy
  Li  Li0  1  0.33373200  0.33373200  0.89130500  1
  Li  Li1  1  0.00385100  0.00385100  0.99315200  1
  Li  Li2  1  0.00212500  0.00212500  0.49791700  1
  Li  Li3  1  0.66572400  0.66572400  0.39794300  1
  Ti  Ti4  1  0.16552200  0.66363600  0.21452800  1
  Ti  Ti5  1  0.66363600  0.16552200  0.21452800  1
  Ti  Ti6  1  0.82677100  0.82677100  0.71910500  1
  V  V7  1  0.32855100  0.32855100  0.49307200  1
  V  V8  1  0.66233900  0.66233900  0.98636400  1
  Cr  Cr9  1  0.17064900  0.17064900  0.21246200  1
  Cr  Cr10  1  0.34062700  0.82378300  0.71313100  1
  Cr  Cr11  1  0.82378300  0.34062700  0.71313100  1
  O  O12  1  0.16589900  0.66552300  0.59622800  1
  O  O13  1  0.47776400  0.47776400  0.34035200  1
  O  O14  1  0.34075300  0.34075300  0.10352400  1
  O  O15  1  0.99868100  0.99868100  0.31168000  1
  O  O16  1  0.99638600  0.99638600  0.80699400  1
  O  O17  1  0.66552300  0.16589900  0.59622800  1
  O  O18  1  0.04162600  0.48313800  0.34085700  1
  O  O19  1  0.48313800  0.04162600  0.34085700  1
  O  O20  1  0.83786500  0.83786500  0.10738600  1
  O  O21  1  0.17356700  0.17356700  0.59379800  1
  O  O22  1  0.52282400  0.96045600  0.84015600  1
  O  O23  1  0.96045600  0.52282400  0.84015600  1
  O  O24  1  0.67256000  0.67256000  0.60353400  1
  O  O25  1  0.32628500  0.83183800  0.10115600  1
  O  O26  1  0.51640900  0.51640900  0.83701100  1
  O  O27  1  0.83183800  0.32628500  0.10115600  1
