# generated using pymatgen
data_Na3Li3Mn2P2(CO7)2
_symmetry_space_group_name_H-M   'P 1'
_cell_length_a   6.76635700
_cell_length_b   8.75109624
_cell_length_c   10.14992142
_cell_angle_alpha   91.06440448
_cell_angle_beta   90.30446735
_cell_angle_gamma   91.08575929
_symmetry_Int_Tables_number   1
_chemical_formula_structural   Na3Li3Mn2P2(CO7)2
_chemical_formula_sum   'Na6 Li6 Mn4 P4 C4 O28'
_cell_volume   600.78646836
_cell_formula_units_Z   2
loop_
 _symmetry_equiv_pos_site_id
 _symmetry_equiv_pos_as_xyz
  1  'x, y, z'
loop_
 _atom_site_type_symbol
 _atom_site_label
 _atom_site_symmetry_multiplicity
 _atom_site_fract_x
 _atom_site_fract_y
 _atom_site_fract_z
 _atom_site_occupancy
  Na  Na0  1  0.24426000  0.91640300  0.37887200  1
  Na  Na1  1  0.49968000  0.74603700  0.62623300  1
  Na  Na2  1  0.99876900  0.74455900  0.12331000  1
  Na  Na3  1  0.50097800  0.74289900  0.12154300  1
  Na  Na4  1  0.50083600  0.25371600  0.87614500  1
  Na  Na5  1  0.50115500  0.25525000  0.37574300  1
  Li  Li6  1  0.23606300  0.92037700  0.87537400  1
  Li  Li7  1  0.01989700  0.73028700  0.62059800  1
  Li  Li8  1  0.98239000  0.26628800  0.88353000  1
  Li  Li9  1  0.98022300  0.27042300  0.38377500  1
  Li  Li10  1  0.76739500  0.08572300  0.62601900  1
  Li  Li11  1  0.76021400  0.08910600  0.12291200  1
  Mn  Mn12  1  0.75148100  0.64175100  0.88517200  1
  Mn  Mn13  1  0.75222000  0.63982000  0.39090100  1
  Mn  Mn14  1  0.24581400  0.35520400  0.61313900  1
  Mn  Mn15  1  0.24472500  0.35568100  0.10870800  1
  P  P16  1  0.24147600  0.59475200  0.84900800  1
  P  P17  1  0.24479200  0.58493800  0.35362900  1
  P  P18  1  0.75803000  0.40571200  0.64865100  1
  P  P19  1  0.75308200  0.40182700  0.14606300  1
  C  C20  1  0.75996900  0.95501800  0.86552500  1
  C  C21  1  0.75917100  0.95498400  0.36721000  1
  C  C22  1  0.23939300  0.05151200  0.63903300  1
  C  C23  1  0.24840100  0.05122200  0.12988700  1
  O  O24  1  0.22712900  0.90411900  0.65407200  1
  O  O25  1  0.25523000  0.90709000  0.14981800  1
  O  O26  1  0.75305400  0.91015200  0.98721700  1
  O  O27  1  0.75076800  0.90975500  0.48875900  1
  O  O28  1  0.75302500  0.85444200  0.76901800  1
  O  O29  1  0.75266900  0.85348400  0.27106300  1
  O  O30  1  0.06827100  0.69582700  0.89670400  1
  O  O31  1  0.43425800  0.68372900  0.88943400  1
  O  O32  1  0.06802400  0.68331200  0.40127500  1
  O  O33  1  0.43600200  0.67289300  0.39929200  1
  O  O34  1  0.23058200  0.57896500  0.69512000  1
  O  O35  1  0.76787500  0.57180000  0.59508600  1
  O  O36  1  0.24336700  0.57271900  0.20008800  1
  O  O37  1  0.74906500  0.56445300  0.08784300  1
  O  O38  1  0.23337900  0.43037000  0.90523200  1
  O  O39  1  0.77250400  0.41952100  0.80235100  1
  O  O40  1  0.23228300  0.42027900  0.40766100  1
  O  O41  1  0.77128100  0.42017000  0.29954300  1
  O  O42  1  0.56417200  0.31864300  0.60884600  1
  O  O43  1  0.92789300  0.30448600  0.59538100  1
  O  O44  1  0.56370600  0.30623400  0.11009900  1
  O  O45  1  0.92737700  0.30508900  0.09274500  1
  O  O46  1  0.24279200  0.14122500  0.74269800  1
  O  O47  1  0.24248000  0.14721400  0.22976500  1
  O  O48  1  0.24891000  0.11103400  0.52325000  1
  O  O49  1  0.24682700  0.10249500  0.00979200  1
  O  O50  1  0.77314900  0.09870800  0.83765100  1
  O  O51  1  0.77350800  0.09830400  0.33921500  1
