# generated using pymatgen
data_Li6V3P8O29
_symmetry_space_group_name_H-M   'P 1'
_cell_length_a   9.80343493
_cell_length_b   9.85072888
_cell_length_c   13.86376787
_cell_angle_alpha   90.12022897
_cell_angle_beta   90.47266323
_cell_angle_gamma   59.88071848
_symmetry_Int_Tables_number   1
_chemical_formula_structural   Li6V3P8O29
_chemical_formula_sum   'Li12 V6 P16 O58'
_cell_volume   1158.02863558
_cell_formula_units_Z   2
loop_
 _symmetry_equiv_pos_site_id
 _symmetry_equiv_pos_as_xyz
  1  'x, y, z'
loop_
 _atom_site_type_symbol
 _atom_site_label
 _atom_site_symmetry_multiplicity
 _atom_site_fract_x
 _atom_site_fract_y
 _atom_site_fract_z
 _atom_site_occupancy
  Li  Li0  1  0.77159800  0.90581500  0.55835000  1
  Li  Li1  1  0.67280300  0.66576700  0.88374700  1
  Li  Li2  1  0.76571000  0.32987500  0.06516900  1
  Li  Li3  1  0.33154800  0.90087200  0.06529600  1
  Li  Li4  1  0.68257500  0.22864800  0.43816800  1
  Li  Li5  1  0.32326100  0.77242800  0.55827800  1
  Li  Li6  1  0.66360200  0.09892400  0.94056800  1
  Li  Li7  1  0.23357000  0.66114500  0.94174100  1
  Li  Li8  1  0.09491600  0.67572700  0.43786000  1
  Li  Li9  1  0.22537200  0.09673200  0.44044400  1
  Li  Li10  1  0.10127000  0.23661200  0.94013200  1
  Li  Li11  1  0.99158300  0.98027900  0.00621900  1
  V  V12  1  0.56706800  0.43304600  0.25187700  1
  V  V13  1  0.43106900  0.56593800  0.74744100  1
  V  V14  1  0.56729800  0.00201600  0.74834600  1
  V  V15  1  0.43332400  0.00187600  0.25172400  1
  V  V16  1  0.99603900  0.56643100  0.24563500  1
  V  V17  1  0.00002600  0.43313900  0.74628600  1
  P  P18  1  0.91345100  0.77463100  0.84302300  1
  P  P19  1  0.77166000  0.91219500  0.34115800  1
  P  P20  1  0.91458400  0.31729000  0.34327400  1
  P  P21  1  0.66510600  0.66511900  0.12624500  1
  P  P22  1  0.66481900  0.66949000  0.62664500  1
  P  P23  1  0.77464600  0.31494900  0.84340400  1
  P  P24  1  0.68309500  0.23069500  0.65635400  1
  P  P25  1  0.31760000  0.90862500  0.84263800  1
  P  P26  1  0.68361000  0.08917000  0.15614000  1
  P  P27  1  0.32029600  0.76936500  0.34159000  1
  P  P28  1  0.22592200  0.68463200  0.15734400  1
  P  P29  1  0.33183100  0.33489200  0.37234500  1
  P  P30  1  0.33293300  0.33449600  0.87388300  1
  P  P31  1  0.08563000  0.68115000  0.65632600  1
  P  P32  1  0.22814100  0.08782700  0.65735000  1
  P  P33  1  0.08580900  0.22828700  0.15736100  1
  O  O34  1  0.99711200  0.75758700  0.56481000  1
  O  O35  1  0.91743700  0.74854000  0.34231200  1
  O  O36  1  0.77115900  0.01298500  0.06494200  1
  O  O37  1  0.74292900  0.91980400  0.84182000  1
  O  O38  1  0.89923100  0.62603200  0.83437900  1
  O  O39  1  0.81164600  0.66904000  0.17032100  1
  O  O40  1  0.90409900  0.47603500  0.32629000  1
  O  O41  1  0.00263600  0.22427100  0.06513300  1
  O  O42  1  0.92217000  0.33190600  0.84389200  1
  O  O43  1  0.67311100  0.81568200  0.66728900  1
  O  O44  1  0.61992800  0.90271500  0.32195000  1
  O  O45  1  0.81235700  0.52323800  0.67614400  1
  O  O46  1  0.66657000  0.66299300  0.01744800  1
  O  O47  1  0.66429000  0.67026800  0.51944500  1
  O  O48  1  0.67599800  0.51018900  0.16383700  1
  O  O49  1  0.48189100  0.89128400  0.83112400  1
  O  O50  1  0.51257400  0.81195200  0.16349400  1
  O  O51  1  0.74725600  0.33631900  0.34173800  1
  O  O52  1  0.79159300  0.20987200  0.74995400  1
  O  O53  1  0.75229500  0.24369700  0.56490000  1
  O  O54  1  0.77154800  0.22727900  0.93249500  1
  O  O55  1  0.62673300  0.47899300  0.83115200  1
  O  O56  1  0.51248400  0.67377700  0.66731700  1
  O  O57  1  0.66096300  0.25716600  0.16149000  1
  O  O58  1  0.48089000  0.62020100  0.32396000  1
  O  O59  1  0.33790500  0.91672600  0.34329600  1
  O  O60  1  0.79276800  0.00036700  0.24944200  1
  O  O61  1  0.75377400  0.00356700  0.43194900  1
  O  O62  1  0.24698300  0.99504900  0.56730400  1
  O  O63  1  0.66514600  0.08275300  0.65977900  1
  O  O64  1  0.52220100  0.38145400  0.67922900  1
  O  O65  1  0.33750500  0.74180700  0.84133700  1
  O  O66  1  0.48626900  0.32653600  0.33187000  1
  O  O67  1  0.38160700  0.53012000  0.16986600  1
  O  O68  1  0.22462600  0.77487100  0.06746300  1
  O  O69  1  0.24313900  0.75569800  0.43163600  1
  O  O70  1  0.20905100  0.79474600  0.24951600  1
  O  O71  1  0.24952100  0.66961600  0.65784900  1
  O  O72  1  0.48593500  0.18873500  0.83378400  1
  O  O73  1  0.52755700  0.09245300  0.16956500  1
  O  O74  1  0.32363800  0.48804700  0.83379700  1
  O  O75  1  0.33113700  0.33287800  0.98172300  1
  O  O76  1  0.33338000  0.33524900  0.48023100  1
  O  O77  1  0.18352700  0.48560400  0.32964100  1
  O  O78  1  0.38299800  0.09139100  0.67865700  1
  O  O79  1  0.32558900  0.18683900  0.33255500  1
  O  O80  1  0.08353400  0.66280500  0.15985700  1
  O  O81  1  0.99244700  0.79402100  0.74590400  1
  O  O82  1  0.00591400  0.78449000  0.92686300  1
  O  O83  1  0.10319900  0.51988200  0.67454500  1
  O  O84  1  0.18363400  0.32997000  0.83149400  1
  O  O85  1  0.09582900  0.37765800  0.16834300  1
  O  O86  1  0.25417500  0.08106700  0.16038900  1
  O  O87  1  0.23048600  0.99648800  0.93232800  1
  O  O88  1  0.20998500  0.99678500  0.75000300  1
  O  O89  1  0.08719000  0.25189500  0.65867200  1
  O  O90  1  0.00903400  0.22817600  0.42896200  1
  O  O91  1  0.99432400  0.20990800  0.24619800  1
