# generated using pymatgen
data_Li2Mn3F8
_symmetry_space_group_name_H-M   'P 1'
_cell_length_a   9.55270000
_cell_length_b   6.86431400
_cell_length_c   11.38853265
_cell_angle_alpha   88.07296757
_cell_angle_beta   90.00000000
_cell_angle_gamma   90.00000000
_symmetry_Int_Tables_number   1
_chemical_formula_structural   Li2Mn3F8
_chemical_formula_sum   'Li8 Mn12 F32'
_cell_volume   746.35487227
_cell_formula_units_Z   4
loop_
 _symmetry_equiv_pos_site_id
 _symmetry_equiv_pos_as_xyz
  1  'x, y, z'
loop_
 _atom_site_type_symbol
 _atom_site_label
 _atom_site_symmetry_multiplicity
 _atom_site_fract_x
 _atom_site_fract_y
 _atom_site_fract_z
 _atom_site_occupancy
  Li  Li0  1  0.05527900  0.90142600  0.85694200  1
  Li  Li1  1  0.44472100  0.90142600  0.35694200  1
  Li  Li2  1  0.60672800  0.58848800  0.85976200  1
  Li  Li3  1  0.89327200  0.58848800  0.35976200  1
  Li  Li4  1  0.10672800  0.41151200  0.64023800  1
  Li  Li5  1  0.39327200  0.41151200  0.14023800  1
  Li  Li6  1  0.55527900  0.09857400  0.64305800  1
  Li  Li7  1  0.94472100  0.09857400  0.14305800  1
  Mn  Mn8  1  0.19664200  0.90740300  0.56635000  1
  Mn  Mn9  1  0.30335800  0.90740300  0.06635000  1
  Mn  Mn10  1  0.84370300  0.76039800  0.64375600  1
  Mn  Mn11  1  0.65629700  0.76039800  0.14375600  1
  Mn  Mn12  1  0.45402600  0.61026400  0.62346000  1
  Mn  Mn13  1  0.04597400  0.61026400  0.12346000  1
  Mn  Mn14  1  0.95402600  0.38973600  0.87654000  1
  Mn  Mn15  1  0.54597400  0.38973600  0.37654000  1
  Mn  Mn16  1  0.34370300  0.23960200  0.85624400  1
  Mn  Mn17  1  0.15629700  0.23960200  0.35624400  1
  Mn  Mn18  1  0.69664200  0.09259700  0.93365000  1
  Mn  Mn19  1  0.80335800  0.09259700  0.43365000  1
  F  F20  1  0.24743700  0.96091400  0.89098600  1
  F  F21  1  0.25256300  0.96091400  0.39098600  1
  F  F22  1  0.40244800  0.91887200  0.62556500  1
  F  F23  1  0.09755200  0.91887200  0.12556500  1
  F  F24  1  0.03954900  0.87223100  0.69090600  1
  F  F25  1  0.46045100  0.87223100  0.19090600  1
  F  F26  1  0.61629900  0.79909200  0.96336400  1
  F  F27  1  0.88370100  0.79909200  0.46336400  1
  F  F28  1  0.99189700  0.67213200  0.93880800  1
  F  F29  1  0.65050700  0.67615400  0.70413900  1
  F  F30  1  0.50810300  0.67213200  0.43880800  1
  F  F31  1  0.84949300  0.67615400  0.20413900  1
  F  F32  1  0.23312200  0.60437700  0.58260900  1
  F  F33  1  0.26687800  0.60437700  0.08260900  1
  F  F34  1  0.42542900  0.51103300  0.80653300  1
  F  F35  1  0.07457100  0.51103300  0.30653300  1
  F  F36  1  0.92542900  0.48896700  0.69346700  1
  F  F37  1  0.57457100  0.48896700  0.19346700  1
  F  F38  1  0.73312200  0.39562300  0.91739100  1
  F  F39  1  0.76687800  0.39562300  0.41739100  1
  F  F40  1  0.15050700  0.32384600  0.79586100  1
  F  F41  1  0.49189700  0.32786800  0.56119200  1
  F  F42  1  0.34949300  0.32384600  0.29586100  1
  F  F43  1  0.00810300  0.32786800  0.06119200  1
  F  F44  1  0.11629900  0.20090800  0.53663600  1
  F  F45  1  0.38370100  0.20090800  0.03663600  1
  F  F46  1  0.53954900  0.12776900  0.80909400  1
  F  F47  1  0.96045100  0.12776900  0.30909400  1
  F  F48  1  0.90244800  0.08112800  0.87443500  1
  F  F49  1  0.59755200  0.08112800  0.37443500  1
  F  F50  1  0.74743700  0.03908600  0.60901400  1
  F  F51  1  0.75256300  0.03908600  0.10901400  1
