# generated using pymatgen
data_Li4Co3Cu3(WO8)2
_symmetry_space_group_name_H-M   'P 1'
_cell_length_a   5.90675238
_cell_length_b   5.76977526
_cell_length_c   9.59259711
_cell_angle_alpha   90.03060122
_cell_angle_beta   86.30938750
_cell_angle_gamma   119.32664696
_symmetry_Int_Tables_number   1
_chemical_formula_structural   Li4Co3Cu3(WO8)2
_chemical_formula_sum   'Li4 Co3 Cu3 W2 O16'
_cell_volume   284.25239208
_cell_formula_units_Z   1
loop_
 _symmetry_equiv_pos_site_id
 _symmetry_equiv_pos_as_xyz
  1  'x, y, z'
loop_
 _atom_site_type_symbol
 _atom_site_label
 _atom_site_symmetry_multiplicity
 _atom_site_fract_x
 _atom_site_fract_y
 _atom_site_fract_z
 _atom_site_occupancy
  Li  Li0  1  0.34209300  0.67063400  0.90476500  1
  Li  Li1  1  0.99045800  0.99484300  0.99014600  1
  Li  Li2  1  0.98753500  0.99403100  0.48848900  1
  Li  Li3  1  0.68758500  0.34394400  0.40956100  1
  Co  Co4  1  0.65899000  0.82945800  0.21650100  1
  Co  Co5  1  0.82620700  0.65965100  0.71320800  1
  Co  Co6  1  0.82639100  0.16687700  0.71332700  1
  Cu  Cu7  1  0.16220100  0.82442500  0.21372900  1
  Cu  Cu8  1  0.16212500  0.33754000  0.21373400  1
  Cu  Cu9  1  0.33331900  0.16634100  0.71450900  1
  W  W10  1  0.35349100  0.67701400  0.49244300  1
  W  W11  1  0.66088300  0.32973700  0.98519500  1
  O  O12  1  0.15963600  0.82546500  0.58674500  1
  O  O13  1  0.05881100  0.53049500  0.35708900  1
  O  O14  1  0.34859900  0.67422400  0.12339700  1
  O  O15  1  0.98305500  0.99129400  0.29496200  1
  O  O16  1  0.98312800  0.99187400  0.80116400  1
  O  O17  1  0.15836400  0.33558100  0.58651300  1
  O  O18  1  0.52380200  0.97570900  0.35631100  1
  O  O19  1  0.52410600  0.54886600  0.35687400  1
  O  O20  1  0.32071000  0.15987600  0.07530700  1
  O  O21  1  0.65766800  0.82844200  0.60824600  1
  O  O22  1  0.53312800  0.49528800  0.84374900  1
  O  O23  1  0.53383800  0.03695800  0.84444100  1
  O  O24  1  0.67625300  0.33783900  0.61759900  1
  O  O25  1  0.79560300  0.64617600  0.08501100  1
  O  O26  1  0.95664100  0.47905500  0.82970700  1
  O  O27  1  0.79538100  0.14866500  0.08511800  1
