# generated using pymatgen
data_Li3Mn4(PO4)6
_symmetry_space_group_name_H-M   'P 1'
_cell_length_a   8.25768400
_cell_length_b   8.52593615
_cell_length_c   12.04415160
_cell_angle_alpha   90.23747346
_cell_angle_beta   90.56122844
_cell_angle_gamma   90.04070410
_symmetry_Int_Tables_number   1
_chemical_formula_structural   Li3Mn4(PO4)6
_chemical_formula_sum   'Li6 Mn8 P12 O48'
_cell_volume   847.91410758
_cell_formula_units_Z   2
loop_
 _symmetry_equiv_pos_site_id
 _symmetry_equiv_pos_as_xyz
  1  'x, y, z'
loop_
 _atom_site_type_symbol
 _atom_site_label
 _atom_site_symmetry_multiplicity
 _atom_site_fract_x
 _atom_site_fract_y
 _atom_site_fract_z
 _atom_site_occupancy
  Li  Li0  1  0.92679900  0.90944700  0.30163600  1
  Li  Li1  1  0.80463200  0.20126100  0.82916500  1
  Li  Li2  1  0.57682800  0.39242500  0.19494400  1
  Li  Li3  1  0.42281300  0.60005200  0.80389900  1
  Li  Li4  1  0.07717500  0.49377000  0.33680800  1
  Li  Li5  1  0.08332800  0.09825000  0.69193700  1
  Mn  Mn6  1  0.74521000  0.96914900  0.10720400  1
  Mn  Mn7  1  0.74499100  0.47091200  0.39695200  1
  Mn  Mn8  1  0.74373800  0.02935400  0.61183600  1
  Mn  Mn9  1  0.75480200  0.53583800  0.88590900  1
  Mn  Mn10  1  0.24737600  0.46917900  0.11204500  1
  Mn  Mn11  1  0.25719500  0.97010200  0.38466600  1
  Mn  Mn12  1  0.24510400  0.53336600  0.60710300  1
  Mn  Mn13  1  0.25172700  0.02655700  0.89393000  1
  P  P14  1  0.96188100  0.75382500  0.50618400  1
  P  P15  1  0.88657400  0.61477700  0.14685000  1
  P  P16  1  0.88851400  0.88667600  0.85077100  1
  P  P17  1  0.61019300  0.11715300  0.36199200  1
  P  P18  1  0.61464400  0.38830200  0.64571800  1
  P  P19  1  0.53345800  0.24930800  0.99250600  1
  P  P20  1  0.46019500  0.74905700  0.00725700  1
  P  P21  1  0.38716600  0.61533700  0.34910200  1
  P  P22  1  0.39015600  0.88644100  0.64617700  1
  P  P23  1  0.11667700  0.11485000  0.14463000  1
  P  P24  1  0.11138800  0.38180800  0.86153900  1
  P  P25  1  0.03773000  0.24748200  0.49432500  1
  O  O26  1  0.93775100  0.11236900  0.10949400  1
  O  O27  1  0.94097500  0.12224300  0.55823400  1
  O  O28  1  0.93915600  0.32920500  0.39998800  1
  O  O29  1  0.93115500  0.41512500  0.82613200  1
  O  O30  1  0.87551700  0.79388800  0.16731300  1
  O  O31  1  0.85883800  0.58186300  0.02322800  1
  O  O32  1  0.90396500  0.63491400  0.41444800  1
  O  O33  1  0.88041700  0.99465300  0.74417300  1
  O  O34  1  0.83829500  0.71861300  0.81620300  1
  O  O35  1  0.80735700  0.83121400  0.55172300  1
  O  O36  1  0.77147000  0.51786200  0.22176700  1
  O  O37  1  0.73373800  0.02799200  0.29458100  1
  O  O38  1  0.77609700  0.96155000  0.93435500  1
  O  O39  1  0.73104400  0.44556100  0.55351200  1
  O  O40  1  0.68268800  0.32725100  0.93673100  1
  O  O41  1  0.67807800  0.22558400  0.68668000  1
  O  O42  1  0.59755000  0.14411400  0.08623200  1
  O  O43  1  0.62535400  0.09404500  0.48828700  1
  O  O44  1  0.61813600  0.29983200  0.34133400  1
  O  O45  1  0.62945100  0.49898600  0.74906400  1
  O  O46  1  0.56119200  0.82401200  0.09973600  1
  O  O47  1  0.56417200  0.61331500  0.39382700  1
  O  O48  1  0.56652100  0.92967300  0.67903600  1
  O  O49  1  0.55621800  0.62612900  0.93717700  1
  O  O50  1  0.44305400  0.37992100  0.05692100  1
  O  O51  1  0.43610600  0.07546500  0.32320000  1
  O  O52  1  0.43763800  0.38910500  0.60836900  1
  O  O53  1  0.43344100  0.17223800  0.89877700  1
  O  O54  1  0.38373400  0.51294800  0.24110300  1
  O  O55  1  0.37670300  0.70672700  0.66634000  1
  O  O56  1  0.35529800  0.91838800  0.52346100  1
  O  O57  1  0.40024500  0.85988100  0.91365300  1
  O  O58  1  0.34098700  0.78417600  0.31549500  1
  O  O59  1  0.30722100  0.66814400  0.05227500  1
  O  O60  1  0.26373800  0.54841100  0.42993900  1
  O  O61  1  0.23056600  0.05512300  0.05155700  1
  O  O62  1  0.27508600  0.98207800  0.72251300  1
  O  O63  1  0.23055600  0.47428900  0.79357400  1
  O  O64  1  0.18638600  0.17052300  0.44100400  1
  O  O65  1  0.17571300  0.27908600  0.18458100  1
  O  O66  1  0.13155800  0.00541100  0.24817000  1
  O  O67  1  0.09814600  0.35835600  0.58684600  1
  O  O68  1  0.12699300  0.40758100  0.98731600  1
  O  O69  1  0.11590700  0.19877700  0.83971200  1
  O  O70  1  0.06318500  0.56881500  0.18284800  1
  O  O71  1  0.06201500  0.68062200  0.59943000  1
  O  O72  1  0.05592500  0.87363800  0.43405900  1
  O  O73  1  0.06921600  0.88392100  0.88765800  1
