# generated using pymatgen
data_LiTePO5
_symmetry_space_group_name_H-M   'P 1'
_cell_length_a   6.81560600
_cell_length_b   7.36584200
_cell_length_c   8.76165000
_cell_angle_alpha   90.00000000
_cell_angle_beta   90.00000000
_cell_angle_gamma   90.00000000
_symmetry_Int_Tables_number   1
_chemical_formula_structural   LiTePO5
_chemical_formula_sum   'Li4 Te4 P4 O20'
_cell_volume   439.85828433
_cell_formula_units_Z   4
loop_
 _symmetry_equiv_pos_site_id
 _symmetry_equiv_pos_as_xyz
  1  'x, y, z'
loop_
 _atom_site_type_symbol
 _atom_site_label
 _atom_site_symmetry_multiplicity
 _atom_site_fract_x
 _atom_site_fract_y
 _atom_site_fract_z
 _atom_site_occupancy
  Li  Li0  1  0.00000000  0.00000000  0.00000000  1
  Li  Li1  1  0.50000000  0.00000000  0.00000000  1
  Li  Li2  1  0.00000000  0.50000000  0.50000000  1
  Li  Li3  1  0.50000000  0.50000000  0.50000000  1
  Te  Te4  1  0.25000000  0.72151500  0.13715600  1
  Te  Te5  1  0.75000000  0.22151500  0.36284400  1
  Te  Te6  1  0.25000000  0.77848500  0.63715600  1
  Te  Te7  1  0.75000000  0.27848500  0.86284400  1
  P  P8  1  0.75000000  0.63668300  0.12699200  1
  P  P9  1  0.25000000  0.13668300  0.37300800  1
  P  P10  1  0.75000000  0.86331700  0.62699200  1
  P  P11  1  0.25000000  0.36331700  0.87300800  1
  O  O12  1  0.25000000  0.47306500  0.02589000  1
  O  O13  1  0.75000000  0.14331200  0.04151200  1
  O  O14  1  0.56831500  0.76613500  0.12406600  1
  O  O15  1  0.93168500  0.76613500  0.12406600  1
  O  O16  1  0.25000000  0.01625100  0.22965900  1
  O  O17  1  0.75000000  0.51625100  0.27034100  1
  O  O18  1  0.06831500  0.26613500  0.37593400  1
  O  O19  1  0.43168500  0.26613500  0.37593400  1
  O  O20  1  0.25000000  0.64331200  0.45848800  1
  O  O21  1  0.75000000  0.97306500  0.47411000  1
  O  O22  1  0.25000000  0.02693500  0.52589000  1
  O  O23  1  0.75000000  0.35668800  0.54151200  1
  O  O24  1  0.56831500  0.73386500  0.62406600  1
  O  O25  1  0.93168500  0.73386500  0.62406600  1
  O  O26  1  0.25000000  0.48374900  0.72965900  1
  O  O27  1  0.75000000  0.98374900  0.77034100  1
  O  O28  1  0.06831500  0.23386500  0.87593400  1
  O  O29  1  0.43168500  0.23386500  0.87593400  1
  O  O30  1  0.25000000  0.85668800  0.95848800  1
  O  O31  1  0.75000000  0.52693500  0.97411000  1
