# generated using pymatgen
data_Li3Cr(Si2O5)3
_symmetry_space_group_name_H-M   'P 1'
_cell_length_a   10.09264838
_cell_length_b   10.09264838
_cell_length_c   14.24726800
_cell_angle_alpha   90.00000000
_cell_angle_beta   90.00000000
_cell_angle_gamma   120.00000250
_symmetry_Int_Tables_number   1
_chemical_formula_structural   Li3Cr(Si2O5)3
_chemical_formula_sum   'Li12 Cr4 Si24 O60'
_cell_volume   1256.81831454
_cell_formula_units_Z   4
loop_
 _symmetry_equiv_pos_site_id
 _symmetry_equiv_pos_as_xyz
  1  'x, y, z'
loop_
 _atom_site_type_symbol
 _atom_site_label
 _atom_site_symmetry_multiplicity
 _atom_site_fract_x
 _atom_site_fract_y
 _atom_site_fract_z
 _atom_site_occupancy
  Li  Li0  1  0.00000000  0.50000000  0.75000000  1
  Li  Li1  1  0.00000000  0.50000000  0.25000000  1
  Li  Li2  1  0.33333300  0.66666700  0.50000000  1
  Li  Li3  1  0.66666700  0.33333300  0.50000000  1
  Li  Li4  1  0.00000000  0.00000000  0.75000000  1
  Li  Li5  1  0.00000000  0.00000000  0.25000000  1
  Li  Li6  1  0.33333300  0.66666700  0.00000000  1
  Li  Li7  1  0.50000000  0.00000000  0.75000000  1
  Li  Li8  1  0.50000000  0.00000000  0.25000000  1
  Li  Li9  1  0.66666700  0.33333300  0.00000000  1
  Li  Li10  1  0.50000000  0.50000000  0.75000000  1
  Li  Li11  1  0.50000000  0.50000000  0.25000000  1
  Cr  Cr12  1  0.33333300  0.66666700  0.75000000  1
  Cr  Cr13  1  0.66666700  0.33333300  0.75000000  1
  Cr  Cr14  1  0.66666700  0.33333300  0.25000000  1
  Cr  Cr15  1  0.33333300  0.66666700  0.25000000  1
  Si  Si16  1  0.12252200  0.76399500  0.11216800  1
  Si  Si17  1  0.12252200  0.76399500  0.88783200  1
  Si  Si18  1  0.35852700  0.23600500  0.61216800  1
  Si  Si19  1  0.35852700  0.23600500  0.38783200  1
  Si  Si20  1  0.23600500  0.87747800  0.61216800  1
  Si  Si21  1  0.23600500  0.87747800  0.38783200  1
  Si  Si22  1  0.35852700  0.12252200  0.11216800  1
  Si  Si23  1  0.35852700  0.12252200  0.88783200  1
  Si  Si24  1  0.12252200  0.35852700  0.61216800  1
  Si  Si25  1  0.12252200  0.35852700  0.38783200  1
  Si  Si26  1  0.76399500  0.64147300  0.88783200  1
  Si  Si27  1  0.76399500  0.64147300  0.11216800  1
  Si  Si28  1  0.23600500  0.35852700  0.11216800  1
  Si  Si29  1  0.23600500  0.35852700  0.88783200  1
  Si  Si30  1  0.87747800  0.64147300  0.61216800  1
  Si  Si31  1  0.87747800  0.64147300  0.38783200  1
  Si  Si32  1  0.64147300  0.87747800  0.88783200  1
  Si  Si33  1  0.64147300  0.87747800  0.11216800  1
  Si  Si34  1  0.76399500  0.12252200  0.61216800  1
  Si  Si35  1  0.76399500  0.12252200  0.38783200  1
  Si  Si36  1  0.64147300  0.76399500  0.61216800  1
  Si  Si37  1  0.64147300  0.76399500  0.38783200  1
  Si  Si38  1  0.87747800  0.23600500  0.88783200  1
  Si  Si39  1  0.87747800  0.23600500  0.11216800  1
  O  O40  1  0.05261200  0.77733500  0.63524900  1
  O  O41  1  0.05261200  0.77733500  0.36475100  1
  O  O42  1  0.27527700  0.22266500  0.86475100  1
  O  O43  1  0.27527700  0.22266500  0.13524900  1
  O  O44  1  0.22266500  0.94738800  0.13524900  1
  O  O45  1  0.22266500  0.94738800  0.86475100  1
  O  O46  1  0.27527700  0.05261200  0.63524900  1
  O  O47  1  0.27527700  0.05261200  0.36475100  1
  O  O48  1  0.14763500  0.73848000  0.00000000  1
  O  O49  1  0.40915500  0.26152000  0.50000000  1
  O  O50  1  0.26152000  0.85236500  0.50000000  1
  O  O51  1  0.40915500  0.14763500  0.00000000  1
  O  O52  1  0.16435500  0.65533400  0.82946800  1
  O  O53  1  0.16435500  0.65533400  0.17053200  1
  O  O54  1  0.50902100  0.34466600  0.67053200  1
  O  O55  1  0.50902100  0.34466600  0.32946800  1
  O  O56  1  0.16435500  0.50902100  0.67053200  1
  O  O57  1  0.16435500  0.50902100  0.32946800  1
  O  O58  1  0.65533400  0.49097900  0.82946800  1
  O  O59  1  0.65533400  0.49097900  0.17053200  1
  O  O60  1  0.05261200  0.27527700  0.86475100  1
  O  O61  1  0.05261200  0.27527700  0.13524900  1
  O  O62  1  0.77733500  0.72472300  0.63524900  1
  O  O63  1  0.77733500  0.72472300  0.36475100  1
  O  O64  1  0.34466600  0.83564500  0.67053200  1
  O  O65  1  0.34466600  0.83564500  0.32946800  1
  O  O66  1  0.50902100  0.16435500  0.82946800  1
  O  O67  1  0.50902100  0.16435500  0.17053200  1
  O  O68  1  0.14763500  0.40915500  0.50000000  1
  O  O69  1  0.73848000  0.59084500  0.00000000  1
  O  O70  1  0.26152000  0.40915500  0.00000000  1
  O  O71  1  0.85236500  0.59084500  0.50000000  1
  O  O72  1  0.49097900  0.83564500  0.17053200  1
  O  O73  1  0.49097900  0.83564500  0.82946800  1
  O  O74  1  0.65533400  0.16435500  0.67053200  1
  O  O75  1  0.65533400  0.16435500  0.32946800  1
  O  O76  1  0.22266500  0.27527700  0.63524900  1
  O  O77  1  0.22266500  0.27527700  0.36475100  1
  O  O78  1  0.94738800  0.72472300  0.86475100  1
  O  O79  1  0.94738800  0.72472300  0.13524900  1
  O  O80  1  0.34466600  0.50902100  0.17053200  1
  O  O81  1  0.34466600  0.50902100  0.82946800  1
  O  O82  1  0.83564500  0.49097900  0.67053200  1
  O  O83  1  0.83564500  0.49097900  0.32946800  1
  O  O84  1  0.49097900  0.65533400  0.67053200  1
  O  O85  1  0.49097900  0.65533400  0.32946800  1
  O  O86  1  0.83564500  0.34466600  0.82946800  1
  O  O87  1  0.83564500  0.34466600  0.17053200  1
  O  O88  1  0.59084500  0.85236500  0.00000000  1
  O  O89  1  0.73848000  0.14763500  0.50000000  1
  O  O90  1  0.59084500  0.73848000  0.50000000  1
  O  O91  1  0.85236500  0.26152000  0.00000000  1
  O  O92  1  0.72472300  0.94738800  0.63524900  1
  O  O93  1  0.72472300  0.94738800  0.36475100  1
  O  O94  1  0.77733500  0.05261200  0.86475100  1
  O  O95  1  0.77733500  0.05261200  0.13524900  1
  O  O96  1  0.72472300  0.77733500  0.86475100  1
  O  O97  1  0.72472300  0.77733500  0.13524900  1
  O  O98  1  0.94738800  0.22266500  0.63524900  1
  O  O99  1  0.94738800  0.22266500  0.36475100  1
