# generated using pymatgen
data_Li3Cr3SiO8
_symmetry_space_group_name_H-M   'P 1'
_cell_length_a   5.03114947
_cell_length_b   5.15313097
_cell_length_c   11.60741366
_cell_angle_alpha   90.00002732
_cell_angle_beta   90.00000466
_cell_angle_gamma   71.89910483
_symmetry_Int_Tables_number   1
_chemical_formula_structural   Li3Cr3SiO8
_chemical_formula_sum   'Li6 Cr6 Si2 O16'
_cell_volume   286.04275600
_cell_formula_units_Z   2
loop_
 _symmetry_equiv_pos_site_id
 _symmetry_equiv_pos_as_xyz
  1  'x, y, z'
loop_
 _atom_site_type_symbol
 _atom_site_label
 _atom_site_symmetry_multiplicity
 _atom_site_fract_x
 _atom_site_fract_y
 _atom_site_fract_z
 _atom_site_occupancy
  Li  Li0  1  0.99999800  0.00000200  0.25000100  1
  Li  Li1  1  0.00000200  0.99999900  0.75000000  1
  Li  Li2  1  0.49999900  0.00000300  0.11818400  1
  Li  Li3  1  0.50000000  0.00000000  0.61817900  1
  Li  Li4  1  0.50000100  0.00000100  0.38181700  1
  Li  Li5  1  0.49999900  0.00000000  0.88182100  1
  Cr  Cr6  1  0.49999700  0.49999700  0.24999700  1
  Cr  Cr7  1  0.00000700  0.50001100  0.62225100  1
  Cr  Cr8  1  0.00000100  0.50001000  0.87774600  1
  Cr  Cr9  1  0.50000800  0.49998600  0.74999900  1
  Cr  Cr10  1  0.99998900  0.50000800  0.12225100  1
  Cr  Cr11  1  0.99999500  0.49998800  0.37774700  1
  Si  Si12  1  0.49999900  0.50000200  0.00000400  1
  Si  Si13  1  0.49999700  0.50000500  0.49999600  1
  O  O14  1  0.27205000  0.29419400  0.00000100  1
  O  O15  1  0.27205300  0.29419400  0.50000100  1
  O  O16  1  0.72794700  0.70581200  0.49999900  1
  O  O17  1  0.72794400  0.70580700  0.00000200  1
  O  O18  1  0.23290000  0.27128300  0.24999900  1
  O  O19  1  0.23289700  0.27127900  0.75000000  1
  O  O20  1  0.76710600  0.72871800  0.25000200  1
  O  O21  1  0.76710500  0.72871400  0.75000100  1
  O  O22  1  0.28207400  0.70778900  0.11603300  1
  O  O23  1  0.28208400  0.70776600  0.61603400  1
  O  O24  1  0.71792100  0.29221900  0.11603700  1
  O  O25  1  0.71791900  0.29222700  0.61603000  1
  O  O26  1  0.28207700  0.70778700  0.38396700  1
  O  O27  1  0.28209100  0.70775800  0.88396700  1
  O  O28  1  0.71792000  0.29221900  0.38396500  1
  O  O29  1  0.71792200  0.29222600  0.88397000  1
