# generated using pymatgen
data_Li6Mn3P8O29
_symmetry_space_group_name_H-M   'P 1'
_cell_length_a   9.72740100
_cell_length_b   9.73434486
_cell_length_c   13.92022727
_cell_angle_alpha   89.98900410
_cell_angle_beta   90.02446967
_cell_angle_gamma   119.85473293
_symmetry_Int_Tables_number   1
_chemical_formula_structural   Li6Mn3P8O29
_chemical_formula_sum   'Li12 Mn6 P16 O58'
_cell_volume   1143.17924071
_cell_formula_units_Z   2
loop_
 _symmetry_equiv_pos_site_id
 _symmetry_equiv_pos_as_xyz
  1  'x, y, z'
loop_
 _atom_site_type_symbol
 _atom_site_label
 _atom_site_symmetry_multiplicity
 _atom_site_fract_x
 _atom_site_fract_y
 _atom_site_fract_z
 _atom_site_occupancy
  Li  Li0  1  0.98873600  0.03121400  0.49127300  1
  Li  Li1  1  0.33544500  0.10183800  0.43789800  1
  Li  Li2  1  0.77533100  0.09805300  0.94179100  1
  Li  Li3  1  0.76276300  0.66492100  0.43707400  1
  Li  Li4  1  0.09280200  0.31642800  0.06249100  1
  Li  Li5  1  0.90737900  0.67812400  0.94075000  1
  Li  Li6  1  0.23434300  0.33789900  0.55832600  1
  Li  Li7  1  0.09812100  0.76377300  0.55874700  1
  Li  Li8  1  0.33166400  0.66411100  0.88515700  1
  Li  Li9  1  0.22500300  0.91525500  0.06298800  1
  Li  Li10  1  0.68201200  0.77373700  0.06396900  1
  Li  Li11  1  0.66470100  0.90465000  0.55877900  1
  Mn  Mn12  1  0.43484400  0.00134300  0.25039000  1
  Mn  Mn13  1  0.56721400  0.00038200  0.74925000  1
  Mn  Mn14  1  0.43151100  0.43158800  0.75067300  1
  Mn  Mn15  1  0.56471000  0.56320600  0.24879700  1
  Mn  Mn16  1  0.99871800  0.43191200  0.25230500  1
  Mn  Mn17  1  0.00058800  0.56542400  0.74760600  1
  P  P18  1  0.31828200  0.08867100  0.65986600  1
  P  P19  1  0.31989100  0.23099000  0.15877700  1
  P  P20  1  0.76811900  0.09037600  0.16071000  1
  P  P21  1  0.66686700  0.33438200  0.86970300  1
  P  P22  1  0.66807500  0.33385800  0.37002900  1
  P  P23  1  0.91348400  0.22619800  0.65911700  1
  P  P24  1  0.09219600  0.32264300  0.84247600  1
  P  P25  1  0.76854600  0.67979700  0.65859300  1
  P  P26  1  0.22843900  0.31829900  0.34107800  1
  P  P27  1  0.90951500  0.67575000  0.15927700  1
  P  P28  1  0.08912800  0.77079800  0.34079900  1
  P  P29  1  0.33230100  0.66645000  0.12858800  1
  P  P30  1  0.33397000  0.66684300  0.62691000  1
  P  P31  1  0.23111100  0.90853100  0.84252500  1
  P  P32  1  0.67750100  0.76805900  0.84144700  1
  P  P33  1  0.68244900  0.90886700  0.34187200  1
  O  O34  1  0.21073000  0.99985100  0.75187000  1
  O  O35  1  0.23878700  0.98881700  0.93427300  1
  O  O36  1  0.33742200  0.08084300  0.15946900  1
  O  O37  1  0.21264400  0.20419500  0.25414600  1
  O  O38  1  0.22482800  0.23111400  0.43317100  1
  O  O39  1  0.33489600  0.25525100  0.65968800  1
  O  O40  1  0.47944300  0.09789900  0.67203500  1
  O  O41  1  0.50861800  0.18546500  0.33536000  1
  O  O42  1  0.62069600  0.10631000  0.17676000  1
  O  O43  1  0.77077900  0.98322700  0.43359500  1
  O  O44  1  0.79213000  0.99991700  0.25057000  1
  O  O45  1  0.74417300  0.07980900  0.65935100  1
  O  O46  1  0.51573100  0.32809400  0.82874600  1
  O  O47  1  0.48358000  0.37846100  0.17468000  1
  O  O48  1  0.67267000  0.18309900  0.83533300  1
  O  O49  1  0.67385500  0.33847000  0.97744600  1
  O  O50  1  0.66273100  0.33818500  0.47778500  1
  O  O51  1  0.81078800  0.32208500  0.33040700  1
  O  O52  1  0.61672000  0.52114100  0.67179800  1
  O  O53  1  0.67682000  0.49125100  0.33232200  1
  O  O54  1  0.91955500  0.25498000  0.15981900  1
  O  O55  1  0.99329000  0.20661600  0.75628500  1
  O  O56  1  0.00317500  0.25158400  0.93376300  1
  O  O57  1  0.00344600  0.21278200  0.57540400  1
  O  O58  1  0.90804800  0.38041200  0.66837900  1
  O  O59  1  0.81841300  0.48863700  0.83257900  1
  O  O60  1  0.08190900  0.33798200  0.33888600  1
  O  O61  1  0.89541600  0.51435500  0.17668600  1
  O  O62  1  0.74456100  0.66303100  0.15862200  1
  O  O63  1  0.23228700  0.23563700  0.07269600  1
  O  O64  1  0.75325800  0.75400900  0.93200900  1
  O  O65  1  0.78898900  0.78885200  0.75125300  1
  O  O66  1  0.25720700  0.33859300  0.84075400  1
  O  O67  1  0.11590600  0.49134500  0.82329000  1
  O  O68  1  0.91865600  0.66320300  0.65867400  1
  O  O69  1  0.18465000  0.51080200  0.16499000  1
  O  O70  1  0.09823900  0.61918900  0.32903100  1
  O  O71  1  0.00277100  0.77398600  0.43103400  1
  O  O72  1  0.99750300  0.75494000  0.06849800  1
  O  O73  1  0.00007600  0.79145000  0.24915200  1
  O  O74  1  0.07968700  0.74180400  0.83936100  1
  O  O75  1  0.32118500  0.50870600  0.66478300  1
  O  O76  1  0.38231200  0.47795700  0.32885700  1
  O  O77  1  0.18844000  0.68014900  0.66424200  1
  O  O78  1  0.33307400  0.66761100  0.01981100  1
  O  O79  1  0.33424000  0.66710800  0.51912400  1
  O  O80  1  0.32494700  0.81474300  0.16546300  1
  O  O81  1  0.50883700  0.62562400  0.82410300  1
  O  O82  1  0.48925700  0.67480700  0.16449900  1
  O  O83  1  0.25569600  0.91998800  0.34106900  1
  O  O84  1  0.23136100  0.00360200  0.56916600  1
  O  O85  1  0.37595900  0.88456900  0.82351300  1
  O  O86  1  0.49186600  0.81238600  0.66456200  1
  O  O87  1  0.52370900  0.90478400  0.33015000  1
  O  O88  1  0.66176800  0.74044900  0.33766300  1
  O  O89  1  0.77161900  0.76889000  0.56877100  1
  O  O90  1  0.66490100  0.92032600  0.84259100  1
  O  O91  1  0.75808000  0.00215000  0.06946800  1
