# generated using pymatgen
data_Li3MnV(PO4)3
_symmetry_space_group_name_H-M   'P 1'
_cell_length_a   9.23414331
_cell_length_b   8.38855521
_cell_length_c   8.41952513
_cell_angle_alpha   60.45380363
_cell_angle_beta   63.16289128
_cell_angle_gamma   90.35394508
_symmetry_Int_Tables_number   1
_chemical_formula_structural   Li3MnV(PO4)3
_chemical_formula_sum   'Li6 Mn2 V2 P6 O24'
_cell_volume   483.77369378
_cell_formula_units_Z   2
loop_
 _symmetry_equiv_pos_site_id
 _symmetry_equiv_pos_as_xyz
  1  'x, y, z'
loop_
 _atom_site_type_symbol
 _atom_site_label
 _atom_site_symmetry_multiplicity
 _atom_site_fract_x
 _atom_site_fract_y
 _atom_site_fract_z
 _atom_site_occupancy
  Li  Li0  1  0.12599612  0.74517107  0.19556196  1
  Li  Li1  1  0.13638164  0.32027931  0.94145243  1
  Li  Li2  1  0.37471185  0.17844392  0.37650139  1
  Li  Li3  1  0.62528815  0.82155608  0.62349861  1
  Li  Li4  1  0.86361836  0.67972069  0.05854757  1
  Li  Li5  1  0.87400388  0.25482893  0.80443804  1
  Mn  Mn6  1  0.56523254  0.85972127  0.28423754  1
  Mn  Mn7  1  0.43476746  0.14027873  0.71576246  1
  V  V8  1  0.03307276  0.34405643  0.31459425  1
  V  V9  1  0.96692724  0.65594357  0.68540575  1
  P  P10  1  0.24450164  0.04914620  0.22095695  1
  P  P11  1  0.24735169  0.45967222  0.49140183  1
  P  P12  1  0.24053534  0.73673759  0.81063631  1
  P  P13  1  0.75946466  0.26326241  0.18936369  1
  P  P14  1  0.75264831  0.54032778  0.50859817  1
  P  P15  1  0.75549836  0.95085380  0.77904305  1
  O  O16  1  0.12168490  0.83673188  0.37471740  1
  O  O17  1  0.25289255  0.13113843  0.00846388  1
  O  O18  1  0.17020145  0.17081983  0.31656587  1
  O  O19  1  0.17019811  0.48335701  0.34774809  1
  O  O20  1  0.09947361  0.45646924  0.69079744  1
  O  O21  1  0.10305188  0.76688330  0.74194969  1
  O  O22  1  0.41299903  0.05018254  0.21261222  1
  O  O23  1  0.27359342  0.26082909  0.58056679  1
  O  O24  1  0.40256459  0.62514392  0.36123158  1
  O  O25  1  0.17920827  0.51827417  0.99365240  1
  O  O26  1  0.23586535  0.86087684  0.89672553  1
  O  O27  1  0.41458634  0.78768706  0.62161314  1
  O  O28  1  0.58541366  0.21231294  0.37838686  1
  O  O29  1  0.76413465  0.13912316  0.10327447  1
  O  O30  1  0.82079173  0.48172583  0.00634760  1
  O  O31  1  0.59743541  0.37485608  0.63876842  1
  O  O32  1  0.72640658  0.73917091  0.41943321  1
  O  O33  1  0.58700097  0.94981746  0.78738778  1
  O  O34  1  0.89694812  0.23311670  0.25805031  1
  O  O35  1  0.90052639  0.54353076  0.30920256  1
  O  O36  1  0.82980189  0.51664299  0.65225191  1
  O  O37  1  0.82979855  0.82918017  0.68343413  1
  O  O38  1  0.74710745  0.86886157  0.99153612  1
  O  O39  1  0.87831510  0.16326812  0.62528260  1
