# generated using pymatgen
data_Li9Mn4(BO3)8
_symmetry_space_group_name_H-M   'P 1'
_cell_length_a   5.28091300
_cell_length_b   8.72878511
_cell_length_c   9.81036874
_cell_angle_alpha   90.28307333
_cell_angle_beta   93.22414361
_cell_angle_gamma   90.07314928
_symmetry_Int_Tables_number   1
_chemical_formula_structural   Li9Mn4(BO3)8
_chemical_formula_sum   'Li9 Mn4 B8 O24'
_cell_volume   451.49646397
_cell_formula_units_Z   1
loop_
 _symmetry_equiv_pos_site_id
 _symmetry_equiv_pos_as_xyz
  1  'x, y, z'
loop_
 _atom_site_type_symbol
 _atom_site_label
 _atom_site_symmetry_multiplicity
 _atom_site_fract_x
 _atom_site_fract_y
 _atom_site_fract_z
 _atom_site_occupancy
  Li  Li0  1  0.18687300  0.65500000  0.63054300  1
  Li  Li1  1  0.17449600  0.98155800  0.10922400  1
  Li  Li2  1  0.31509600  0.15725200  0.86825500  1
  Li  Li3  1  0.32490800  0.48406300  0.38831800  1
  Li  Li4  1  0.67738500  0.51988600  0.61245900  1
  Li  Li5  1  0.67077500  0.83325800  0.12234800  1
  Li  Li6  1  0.82221600  0.01709200  0.87689100  1
  Li  Li7  1  0.81203600  0.35722400  0.36893000  1
  Li  Li8  1  0.85969200  0.02604400  0.34395000  1
  Mn  Mn9  1  0.13244500  0.30892100  0.12925900  1
  Mn  Mn10  1  0.36870800  0.80078800  0.37427700  1
  Mn  Mn11  1  0.62756300  0.19678300  0.62383600  1
  Mn  Mn12  1  0.87267800  0.69502200  0.87206400  1
  B  B13  1  0.17478300  0.31521300  0.61537500  1
  B  B14  1  0.15841800  0.65389100  0.12910300  1
  B  B15  1  0.32464700  0.81904700  0.88149100  1
  B  B16  1  0.33810700  0.15291600  0.36845100  1
  B  B17  1  0.65962500  0.84696900  0.63091700  1
  B  B18  1  0.67330000  0.18316700  0.12537800  1
  B  B19  1  0.83995600  0.34739200  0.86936100  1
  B  B20  1  0.82756300  0.68127400  0.38222700  1
  O  O21  1  0.06686400  0.30939600  0.93723000  1
  O  O22  1  0.08653600  0.66436800  0.40549100  1
  O  O23  1  0.16404400  0.93791800  0.90412300  1
  O  O24  1  0.22508300  0.67635300  0.84253900  1
  O  O25  1  0.19649700  0.28177200  0.32587900  1
  O  O26  1  0.22744400  0.01412600  0.34967200  1
  O  O27  1  0.27497800  0.17279000  0.65296700  1
  O  O28  1  0.33817700  0.43304900  0.59567900  1
  O  O29  1  0.25321700  0.51188800  0.15675400  1
  O  O30  1  0.30687800  0.77761300  0.17595600  1
  O  O31  1  0.42840400  0.81152000  0.56850400  1
  O  O32  1  0.41433300  0.17197400  0.09695400  1
  O  O33  1  0.58520600  0.83310600  0.90355100  1
  O  O34  1  0.58636400  0.17468300  0.42516000  1
  O  O35  1  0.68740100  0.22480200  0.82102200  1
  O  O36  1  0.75445800  0.49110600  0.83921000  1
  O  O37  1  0.66742900  0.56278000  0.40262400  1
  O  O38  1  0.72998000  0.82451500  0.34321200  1
  O  O39  1  0.75391000  0.99146400  0.65456500  1
  O  O40  1  0.81461700  0.72571300  0.67724300  1
  O  O41  1  0.77852000  0.32597300  0.15854600  1
  O  O42  1  0.82481200  0.05626900  0.12257400  1
  O  O43  1  0.91519800  0.33019400  0.59257200  1
  O  O44  1  0.92607300  0.68437400  0.06362000  1
