# generated using pymatgen
data_Li4Ti3V2(Fe2O9)2
_symmetry_space_group_name_H-M   'P 1'
_cell_length_a   2.95529800
_cell_length_b   9.17778000
_cell_length_c   25.50941800
_cell_angle_alpha   90.00000000
_cell_angle_beta   90.00000000
_cell_angle_gamma   90.00000000
_symmetry_Int_Tables_number   1
_chemical_formula_structural   Li4Ti3V2(Fe2O9)2
_chemical_formula_sum   'Li8 Ti6 V4 Fe8 O36'
_cell_volume   691.89385452
_cell_formula_units_Z   2
loop_
 _symmetry_equiv_pos_site_id
 _symmetry_equiv_pos_as_xyz
  1  'x, y, z'
loop_
 _atom_site_type_symbol
 _atom_site_label
 _atom_site_symmetry_multiplicity
 _atom_site_fract_x
 _atom_site_fract_y
 _atom_site_fract_z
 _atom_site_occupancy
  Li  Li0  1  0.50000000  0.94980500  0.98937400  1
  Li  Li1  1  0.50000000  0.94803500  0.18309800  1
  Li  Li2  1  0.50000000  0.05196500  0.68309800  1
  Li  Li3  1  0.50000000  0.05019500  0.48937400  1
  Li  Li4  1  0.50000000  0.44449400  0.50935100  1
  Li  Li5  1  0.50000000  0.43823200  0.31129800  1
  Li  Li6  1  0.50000000  0.56176800  0.81129800  1
  Li  Li7  1  0.50000000  0.55550600  0.00935100  1
  Ti  Ti8  1  0.50000000  0.75063600  0.09915600  1
  Ti  Ti9  1  0.50000000  0.24936400  0.59915600  1
  Ti  Ti10  1  0.50000000  0.24421000  0.40032200  1
  Ti  Ti11  1  0.00000000  0.40357700  0.69031500  1
  Ti  Ti12  1  0.00000000  0.59642300  0.19031500  1
  Ti  Ti13  1  0.50000000  0.75579000  0.90032200  1
  V  V14  1  0.50000000  0.74801900  0.49992200  1
  V  V15  1  0.00000000  0.90442700  0.80935600  1
  V  V16  1  0.00000000  0.09557300  0.30935600  1
  V  V17  1  0.50000000  0.25198100  0.99992200  1
  Fe  Fe18  1  0.50000000  0.75339200  0.30599000  1
  Fe  Fe19  1  0.00000000  0.89644600  0.58724800  1
  Fe  Fe20  1  0.00000000  0.10355400  0.08724800  1
  Fe  Fe21  1  0.50000000  0.24660800  0.80599000  1
  Fe  Fe22  1  0.50000000  0.25369000  0.19624700  1
  Fe  Fe23  1  0.00000000  0.40339900  0.91308700  1
  Fe  Fe24  1  0.00000000  0.59660100  0.41308700  1
  Fe  Fe25  1  0.50000000  0.74631000  0.69624700  1
  O  O26  1  0.50000000  0.74277700  0.42572100  1
  O  O27  1  0.50000000  0.75279600  0.57453200  1
  O  O28  1  0.00000000  0.81223600  0.94357500  1
  O  O29  1  0.00000000  0.79566400  0.15525100  1
  O  O30  1  0.00000000  0.87348900  0.66607600  1
  O  O31  1  0.50000000  0.84549400  0.76329100  1
  O  O32  1  0.00000000  0.89677500  0.50393600  1
  O  O33  1  0.00000000  0.89685800  0.29129700  1
  O  O34  1  0.50000000  0.93767000  0.85931100  1
  O  O35  1  0.50000000  0.95267100  0.08398500  1
  O  O36  1  0.50000000  0.04732900  0.58398500  1
  O  O37  1  0.50000000  0.06233000  0.35931100  1
  O  O38  1  0.00000000  0.10314200  0.79129700  1
  O  O39  1  0.00000000  0.10322500  0.00393600  1
  O  O40  1  0.50000000  0.15450600  0.26329100  1
  O  O41  1  0.00000000  0.12651100  0.16607600  1
  O  O42  1  0.00000000  0.20433600  0.65525100  1
  O  O43  1  0.00000000  0.18776400  0.44357500  1
  O  O44  1  0.50000000  0.24720400  0.07453200  1
  O  O45  1  0.50000000  0.25722300  0.92572100  1
  O  O46  1  0.00000000  0.30852500  0.55629600  1
  O  O47  1  0.00000000  0.29136100  0.34310700  1
  O  O48  1  0.00000000  0.37284300  0.83454300  1
  O  O49  1  0.50000000  0.34485800  0.73827100  1
  O  O50  1  0.00000000  0.40081400  0.99618600  1
  O  O51  1  0.00000000  0.39446300  0.21154400  1
  O  O52  1  0.50000000  0.43567800  0.64178900  1
  O  O53  1  0.50000000  0.44815800  0.41591000  1
  O  O54  1  0.50000000  0.55184200  0.91591000  1
  O  O55  1  0.50000000  0.56432200  0.14178900  1
  O  O56  1  0.00000000  0.60553700  0.71154400  1
  O  O57  1  0.00000000  0.59918600  0.49618600  1
  O  O58  1  0.50000000  0.65514200  0.23827100  1
  O  O59  1  0.00000000  0.62715700  0.33454300  1
  O  O60  1  0.00000000  0.70863900  0.84310700  1
  O  O61  1  0.00000000  0.69147500  0.05629600  1
