# generated using pymatgen
data_Li3Bi(BO3)2
_symmetry_space_group_name_H-M   'P 1'
_cell_length_a   8.61209500
_cell_length_b   6.66131800
_cell_length_c   11.00693258
_cell_angle_alpha   57.94804209
_cell_angle_beta   90.00000000
_cell_angle_gamma   90.00000000
_symmetry_Int_Tables_number   1
_chemical_formula_structural   Li3Bi(BO3)2
_chemical_formula_sum   'Li12 Bi4 B8 O24'
_cell_volume   535.19176851
_cell_formula_units_Z   4
loop_
 _symmetry_equiv_pos_site_id
 _symmetry_equiv_pos_as_xyz
  1  'x, y, z'
loop_
 _atom_site_type_symbol
 _atom_site_label
 _atom_site_symmetry_multiplicity
 _atom_site_fract_x
 _atom_site_fract_y
 _atom_site_fract_z
 _atom_site_occupancy
  Li  Li0  1  0.24146700  0.76811600  0.67869900  1
  Li  Li1  1  0.68212200  0.56163300  0.88896300  1
  Li  Li2  1  0.07539700  0.34556600  0.90179200  1
  Li  Li3  1  0.57539700  0.65443400  0.59820800  1
  Li  Li4  1  0.18212200  0.43836700  0.61103700  1
  Li  Li5  1  0.74146700  0.23188400  0.82130100  1
  Li  Li6  1  0.25853300  0.76811600  0.17869900  1
  Li  Li7  1  0.81787800  0.56163300  0.38896300  1
  Li  Li8  1  0.42460300  0.34556600  0.40179200  1
  Li  Li9  1  0.92460300  0.65443400  0.09820800  1
  Li  Li10  1  0.31787800  0.43836700  0.11103700  1
  Li  Li11  1  0.75853300  0.23188400  0.32130100  1
  Bi  Bi12  1  0.12161900  0.99579400  0.35007500  1
  Bi  Bi13  1  0.62161900  0.00420600  0.14992500  1
  Bi  Bi14  1  0.37838100  0.99579400  0.85007500  1
  Bi  Bi15  1  0.87838100  0.00420600  0.64992500  1
  B  B16  1  0.39496000  0.42471000  0.85365100  1
  B  B17  1  0.93573300  0.15593000  0.10661300  1
  B  B18  1  0.43573300  0.84407000  0.39338700  1
  B  B19  1  0.89496000  0.57529000  0.64634900  1
  B  B20  1  0.10504000  0.42471000  0.35365100  1
  B  B21  1  0.56426700  0.15593000  0.60661300  1
  B  B22  1  0.06426700  0.84407000  0.89338700  1
  B  B23  1  0.60504000  0.57529000  0.14634900  1
  O  O24  1  0.39056400  0.61859900  0.86501300  1
  O  O25  1  0.02937500  0.71124700  0.61713100  1
  O  O26  1  0.76354400  0.64168000  0.69282500  1
  O  O27  1  0.08751500  0.22858600  0.10397400  1
  O  O28  1  0.36028800  0.79416300  0.51673700  1
  O  O29  1  0.86234600  0.02657900  0.24137700  1
  O  O30  1  0.36234600  0.97342100  0.25862300  1
  O  O31  1  0.86028800  0.20583700  0.98326300  1
  O  O32  1  0.26354400  0.35832000  0.80717500  1
  O  O33  1  0.58751500  0.77141400  0.39602600  1
  O  O34  1  0.52937500  0.28875300  0.88286900  1
  O  O35  1  0.89056400  0.38140100  0.63498700  1
  O  O36  1  0.10943600  0.61859900  0.36501300  1
  O  O37  1  0.47062500  0.71124700  0.11713100  1
  O  O38  1  0.41248500  0.22858600  0.60397400  1
  O  O39  1  0.73645600  0.64168000  0.19282500  1
  O  O40  1  0.13971200  0.79416300  0.01673700  1
  O  O41  1  0.63765400  0.02657900  0.74137700  1
  O  O42  1  0.13765400  0.97342100  0.75862300  1
  O  O43  1  0.63971200  0.20583700  0.48326300  1
  O  O44  1  0.91248500  0.77141400  0.89602600  1
  O  O45  1  0.23645600  0.35832000  0.30717500  1
  O  O46  1  0.97062500  0.28875300  0.38286900  1
  O  O47  1  0.60943600  0.38140100  0.13498700  1
