# generated using pymatgen
data_LiCoPO4
_symmetry_space_group_name_H-M   'P 1'
_cell_length_a   4.54832761
_cell_length_b   5.16860866
_cell_length_c   14.85956240
_cell_angle_alpha   94.92115909
_cell_angle_beta   93.81129762
_cell_angle_gamma   74.86495942
_symmetry_Int_Tables_number   1
_chemical_formula_structural   LiCoPO4
_chemical_formula_sum   'Li4 Co4 P4 O16'
_cell_volume   335.61336005
_cell_formula_units_Z   4
loop_
 _symmetry_equiv_pos_site_id
 _symmetry_equiv_pos_as_xyz
  1  'x, y, z'
loop_
 _atom_site_type_symbol
 _atom_site_label
 _atom_site_symmetry_multiplicity
 _atom_site_fract_x
 _atom_site_fract_y
 _atom_site_fract_z
 _atom_site_occupancy
  Li  Li0  1  0.74107300  0.28106600  0.00474000  1
  Li  Li1  1  0.24100700  0.28108800  0.50470800  1
  Li  Li2  1  0.75897700  0.71895700  0.49529900  1
  Li  Li3  1  0.25894100  0.71886300  0.99524700  1
  Co  Co4  1  0.63397800  0.23164200  0.69985000  1
  Co  Co5  1  0.36601100  0.76837400  0.30014500  1
  Co  Co6  1  0.13395400  0.23141800  0.19992100  1
  Co  Co7  1  0.86603400  0.76858200  0.80006500  1
  P  P8  1  0.71956800  0.19290200  0.37027600  1
  P  P9  1  0.21963700  0.19295400  0.87026800  1
  P  P10  1  0.78033800  0.80702700  0.12972900  1
  P  P11  1  0.28045100  0.80712900  0.62973000  1
  O  O12  1  0.45926200  0.38343500  0.31498600  1
  O  O13  1  0.95928900  0.38367300  0.81506600  1
  O  O14  1  0.04066500  0.61634100  0.18494900  1
  O  O15  1  0.54074600  0.61658400  0.68502200  1
  O  O16  1  0.50603700  0.91812300  0.19248600  1
  O  O17  1  0.00622500  0.91831000  0.69248800  1
  O  O18  1  0.99384400  0.08179500  0.30752800  1
  O  O19  1  0.49390900  0.08185500  0.80750100  1
  O  O20  1  0.68272300  0.66138000  0.04360700  1
  O  O21  1  0.18295000  0.66122700  0.54363600  1
  O  O22  1  0.81700200  0.33877400  0.45639000  1
  O  O23  1  0.31732000  0.33855400  0.95638900  1
  O  O24  1  0.59960400  0.95315900  0.39644000  1
  O  O25  1  0.09965300  0.95314400  0.89635700  1
  O  O26  1  0.90030800  0.04684300  0.10363900  1
  O  O27  1  0.40049300  0.04680000  0.60354000  1
