# generated using pymatgen
data_Li6(NiO2)11
_symmetry_space_group_name_H-M   'P 1'
_cell_length_a   7.46183800
_cell_length_b   7.64020882
_cell_length_c   7.70542757
_cell_angle_alpha   84.90396517
_cell_angle_beta   110.68524111
_cell_angle_gamma   114.10816644
_symmetry_Int_Tables_number   1
_chemical_formula_structural   Li6(NiO2)11
_chemical_formula_sum   'Li6 Ni11 O22'
_cell_volume   374.32969678
_cell_formula_units_Z   1
loop_
 _symmetry_equiv_pos_site_id
 _symmetry_equiv_pos_as_xyz
  1  'x, y, z'
loop_
 _atom_site_type_symbol
 _atom_site_label
 _atom_site_symmetry_multiplicity
 _atom_site_fract_x
 _atom_site_fract_y
 _atom_site_fract_z
 _atom_site_occupancy
  Li  Li0  1  0.81927000  0.45670400  0.54365300  1
  Li  Li1  1  0.63527000  0.89359200  0.10691500  1
  Li  Li2  1  0.45237800  0.36088800  0.63066500  1
  Li  Li3  1  0.36171600  0.09156600  0.90916300  1
  Li  Li4  1  0.18440000  0.56162700  0.43837700  1
  Li  Li5  1  0.00092000  0.00308900  0.00299000  1
  Ni  Ni6  1  0.77437300  0.31871500  0.18121900  1
  Ni  Ni7  1  0.68515100  0.04902000  0.45729400  1
  Ni  Ni8  1  0.94921700  0.85975800  0.63223900  1
  Ni  Ni9  1  0.50029500  0.50080500  0.00143600  1
  Ni  Ni10  1  0.86326600  0.59280200  0.91236400  1
  Ni  Ni11  1  0.41103700  0.22565800  0.27199400  1
  Ni  Ni12  1  0.58775400  0.77186000  0.72830400  1
  Ni  Ni13  1  0.13506300  0.40560700  0.08493400  1
  Ni  Ni14  1  0.05158300  0.14188300  0.36718100  1
  Ni  Ni15  1  0.31844100  0.95433800  0.54452500  1
  Ni  Ni16  1  0.22513800  0.68088200  0.81702900  1
  O  O17  1  0.89357700  0.16583700  0.12183300  1
  O  O18  1  0.92994800  0.29480000  0.42567700  1
  O  O19  1  0.82040300  0.98873500  0.71119200  1
  O  O20  1  0.98548000  0.46572200  0.82446500  1
  O  O21  1  0.54479000  0.09565100  0.19745800  1
  O  O22  1  0.64609000  0.44554100  0.26227300  1
  O  O23  1  0.81874300  0.92207600  0.38458000  1
  O  O24  1  0.55687500  0.19021000  0.51944600  1
  O  O25  1  0.70475400  0.61844800  0.66670500  1
  O  O26  1  0.27289000  0.25264200  0.02408900  1
  O  O27  1  0.63178400  0.36688600  0.93260100  1
  O  O28  1  0.37744900  0.64340100  0.05879500  1
  O  O29  1  0.73862100  0.73944100  0.97505100  1
  O  O30  1  0.28554000  0.35689200  0.35433600  1
  O  O31  1  0.43915200  0.80813700  0.48514800  1
  O  O32  1  0.20559700  0.10358300  0.61399800  1
  O  O33  1  0.35400300  0.55198100  0.73743200  1
  O  O34  1  0.46042900  0.90397100  0.81080000  1
  O  O35  1  0.99334000  0.54426100  0.15954400  1
  O  O36  1  0.17270700  0.00925500  0.28392200  1
  O  O37  1  0.07958800  0.71926600  0.57062600  1
  O  O38  1  0.09206400  0.81556200  0.88721600  1
