# generated using pymatgen
data_LiMnF3
_symmetry_space_group_name_H-M   'P 1'
_cell_length_a   5.93696400
_cell_length_b   5.93823003
_cell_length_c   11.67697050
_cell_angle_alpha   89.97098302
_cell_angle_beta   90.08854694
_cell_angle_gamma   119.98774517
_symmetry_Int_Tables_number   1
_chemical_formula_structural   LiMnF3
_chemical_formula_sum   'Li6 Mn6 F18'
_cell_volume   356.56221987
_cell_formula_units_Z   6
loop_
 _symmetry_equiv_pos_site_id
 _symmetry_equiv_pos_as_xyz
  1  'x, y, z'
loop_
 _atom_site_type_symbol
 _atom_site_label
 _atom_site_symmetry_multiplicity
 _atom_site_fract_x
 _atom_site_fract_y
 _atom_site_fract_z
 _atom_site_occupancy
  Li  Li0  1  0.32960900  0.00100300  0.74671400  1
  Li  Li1  1  0.00398200  0.32516100  0.74607400  1
  Li  Li2  1  0.33427600  0.32927900  0.24492000  1
  Li  Li3  1  0.67845400  0.00031700  0.24567400  1
  Li  Li4  1  0.67861000  0.67488600  0.74617700  1
  Li  Li5  1  0.00808900  0.67270700  0.24482800  1
  Mn  Mn6  1  0.33945500  0.66815100  0.02787500  1
  Mn  Mn7  1  0.34046200  0.66762100  0.52916300  1
  Mn  Mn8  1  0.00731700  0.00066400  0.49405700  1
  Mn  Mn9  1  0.67216300  0.33474800  0.96310000  1
  Mn  Mn10  1  0.67374800  0.33440000  0.46218900  1
  Mn  Mn11  1  0.00519800  0.00119100  0.99980000  1
  F  F12  1  0.05112500  0.69071900  0.41772800  1
  F  F13  1  0.96314200  0.64508300  0.07304900  1
  F  F14  1  0.31404800  0.95828100  0.91952400  1
  F  F15  1  0.36008100  0.04395500  0.57194600  1
  F  F16  1  0.04825500  0.35263500  0.91940600  1
  F  F17  1  0.96459000  0.31184000  0.57164400  1
  F  F18  1  0.33899300  0.66751000  0.71208200  1
  F  F19  1  0.34035800  0.66729800  0.21120200  1
  F  F20  1  0.00673600  0.00043800  0.24233400  1
  F  F21  1  0.00415900  0.99988700  0.74479600  1
  F  F22  1  0.65313300  0.95751200  0.41807100  1
  F  F23  1  0.31782200  0.35473300  0.41776600  1
  F  F24  1  0.69302800  0.04446100  0.07313900  1
  F  F25  1  0.36197400  0.31435200  0.07302200  1
  F  F26  1  0.65395700  0.69286800  0.91945700  1
  F  F27  1  0.69648400  0.64713100  0.57179500  1
  F  F28  1  0.67045800  0.33345300  0.78021500  1
  F  F29  1  0.67409500  0.33409100  0.27915100  1
