# generated using pymatgen
data_LiV2O4
_symmetry_space_group_name_H-M   'P 1'
_cell_length_a   5.28240661
_cell_length_b   10.55222035
_cell_length_c   10.11043458
_cell_angle_alpha   16.63486002
_cell_angle_beta   28.08216782
_cell_angle_gamma   32.29081485
_symmetry_Int_Tables_number   1
_chemical_formula_structural   LiV2O4
_chemical_formula_sum   'Li1 V2 O4'
_cell_volume   75.94550216
_cell_formula_units_Z   1
loop_
 _symmetry_equiv_pos_site_id
 _symmetry_equiv_pos_as_xyz
  1  'x, y, z'
loop_
 _atom_site_type_symbol
 _atom_site_label
 _atom_site_symmetry_multiplicity
 _atom_site_fract_x
 _atom_site_fract_y
 _atom_site_fract_z
 _atom_site_occupancy
  Li  Li0  1  0.50000000  0.50000000  0.50000000  1
  V  V1  1  0.00000400  0.49999800  0.99999900  1
  V  V2  1  0.99999400  0.00000200  0.00000300  1
  O  O3  1  0.28985100  0.49994000  0.25357000  1
  O  O4  1  0.71015000  0.50006000  0.74642900  1
  O  O5  1  0.25351700  0.00005000  0.26388600  1
  O  O6  1  0.74648400  0.99995000  0.73611300  1
