# generated using pymatgen
data_Li3VP2H2O9
_symmetry_space_group_name_H-M   'P 1'
_cell_length_a   8.08611386
_cell_length_b   8.08611386
_cell_length_c   6.87361564
_cell_angle_alpha   85.99183481
_cell_angle_beta   85.99183481
_cell_angle_gamma   53.04273794
_symmetry_Int_Tables_number   1
_chemical_formula_structural   Li3VP2H2O9
_chemical_formula_sum   'Li6 V2 P4 H4 O18'
_cell_volume   358.03728833
_cell_formula_units_Z   2
loop_
 _symmetry_equiv_pos_site_id
 _symmetry_equiv_pos_as_xyz
  1  'x, y, z'
loop_
 _atom_site_type_symbol
 _atom_site_label
 _atom_site_symmetry_multiplicity
 _atom_site_fract_x
 _atom_site_fract_y
 _atom_site_fract_z
 _atom_site_occupancy
  Li  Li0  1  0.37748900  0.37748900  0.69837500  1
  Li  Li1  1  0.00000000  0.50000000  0.50000000  1
  Li  Li2  1  0.50000000  0.00000000  0.50000000  1
  Li  Li3  1  0.62251100  0.62251100  0.30162500  1
  Li  Li4  1  0.75131800  0.24868200  0.00000000  1
  Li  Li5  1  0.24868200  0.75131800  0.00000000  1
  V  V6  1  0.50000000  0.00000000  0.00000000  1
  V  V7  1  0.00000000  0.50000000  0.00000000  1
  P  P8  1  0.88091000  0.88091000  0.69062700  1
  P  P9  1  0.39315500  0.39315500  0.23661800  1
  P  P10  1  0.60684500  0.60684500  0.76338200  1
  P  P11  1  0.11909000  0.11909000  0.30937300  1
  H  H12  1  0.94597300  0.94597300  0.36777300  1
  H  H13  1  0.80957700  0.80957700  0.21625200  1
  H  H14  1  0.19042300  0.19042300  0.78374800  1
  H  H15  1  0.05402700  0.05402700  0.63222700  1
  O  O16  1  0.97635900  0.97635900  0.77382500  1
  O  O17  1  0.49866000  0.49866000  0.23651400  1
  O  O18  1  0.88414300  0.88414300  0.45952800  1
  O  O19  1  0.64730800  0.00460000  0.74743900  1
  O  O20  1  0.00460000  0.64730800  0.74743900  1
  O  O21  1  0.33662700  0.33662700  0.43743500  1
  O  O22  1  0.54566500  0.18946200  0.11873200  1
  O  O23  1  0.18946200  0.54566500  0.11873200  1
  O  O24  1  0.24255800  0.24255800  0.86606000  1
  O  O25  1  0.75744200  0.75744200  0.13394000  1
  O  O26  1  0.81053800  0.45433500  0.88126800  1
  O  O27  1  0.45433500  0.81053800  0.88126800  1
  O  O28  1  0.66337300  0.66337300  0.56256500  1
  O  O29  1  0.35269200  0.99540000  0.25256100  1
  O  O30  1  0.99540000  0.35269200  0.25256100  1
  O  O31  1  0.11585700  0.11585700  0.54047200  1
  O  O32  1  0.50134000  0.50134000  0.76348600  1
  O  O33  1  0.02364100  0.02364100  0.22617500  1
