# generated using pymatgen
data_K4Li5Ti8(PO5)8
_symmetry_space_group_name_H-M   'P 1'
_cell_length_a   6.48347700
_cell_length_b   10.64119377
_cell_length_c   12.85995817
_cell_angle_alpha   89.49353110
_cell_angle_beta   89.94433914
_cell_angle_gamma   89.83379603
_symmetry_Int_Tables_number   1
_chemical_formula_structural   K4Li5Ti8(PO5)8
_chemical_formula_sum   'K4 Li5 Ti8 P8 O40'
_cell_volume   887.19460666
_cell_formula_units_Z   1
loop_
 _symmetry_equiv_pos_site_id
 _symmetry_equiv_pos_as_xyz
  1  'x, y, z'
loop_
 _atom_site_type_symbol
 _atom_site_label
 _atom_site_symmetry_multiplicity
 _atom_site_fract_x
 _atom_site_fract_y
 _atom_site_fract_z
 _atom_site_occupancy
  K  K0  1  0.36299800  0.09931900  0.90683100  1
  K  K1  1  0.86373100  0.59863000  0.59398500  1
  K  K2  1  0.13515700  0.10166700  0.41032300  1
  K  K3  1  0.61685400  0.57536600  0.07937800  1
  Li  Li4  1  0.93097000  0.99313000  0.89291000  1
  Li  Li5  1  0.43180600  0.49355000  0.60602200  1
  Li  Li6  1  0.56354800  0.00149000  0.39748600  1
  Li  Li7  1  0.76803300  0.77868500  0.25590900  1
  Li  Li8  1  0.06789600  0.49231700  0.10387000  1
  Ti  Ti9  1  0.00181700  0.51175300  0.86508100  1
  Ti  Ti10  1  0.25260600  0.76385900  0.75214000  1
  Ti  Ti11  1  0.75322500  0.26338500  0.74757800  1
  Ti  Ti12  1  0.50179700  0.01341900  0.63458200  1
  Ti  Ti13  1  0.49924200  0.51373600  0.36517400  1
  Ti  Ti14  1  0.25173500  0.76235400  0.25108100  1
  Ti  Ti15  1  0.74732000  0.26413100  0.24805200  1
  Ti  Ti16  1  0.00022300  0.01331800  0.13419200  1
  P  P17  1  0.15698700  0.76087300  0.00105600  1
  P  P18  1  0.49902900  0.51161000  0.81538300  1
  P  P19  1  0.99869000  0.01246500  0.68349900  1
  P  P20  1  0.65756500  0.26212500  0.49886800  1
  P  P21  1  0.34191800  0.76165500  0.50067200  1
  P  P22  1  0.99833300  0.51328200  0.31588800  1
  P  P23  1  0.50553500  0.01210200  0.18427000  1
  P  P24  1  0.84154800  0.26071300  0.99901200  1
  O  O25  1  0.02410000  0.63898800  0.99942500  1
  O  O26  1  0.97585400  0.38138400  0.99399600  1
  O  O27  1  0.69908800  0.24843900  0.90274200  1
  O  O28  1  0.29775300  0.77282500  0.90341100  1
  O  O29  1  0.31129100  0.48612900  0.88689600  1
  O  O30  1  0.68954800  0.53817200  0.88272800  1
  O  O31  1  0.95570100  0.38758200  0.77359000  1
  O  O32  1  0.04050600  0.64056600  0.77580700  1
  O  O33  1  0.95706400  0.12174900  0.76200700  1
  O  O34  1  0.03741100  0.90044300  0.76082700  1
  O  O35  1  0.53707500  0.40060000  0.73891300  1
  O  O36  1  0.45656700  0.62230300  0.73736200  1
  O  O37  1  0.54137100  0.14000600  0.72437900  1
  O  O38  1  0.45570600  0.88699000  0.72589600  1
  O  O39  1  0.18872400  0.04025700  0.61519400  1
  O  O40  1  0.81009400  0.98769700  0.61380400  1
  O  O41  1  0.79771500  0.27425900  0.59613700  1
  O  O42  1  0.19842200  0.74946300  0.59723900  1
  O  O43  1  0.47620700  0.88226500  0.50465000  1
  O  O44  1  0.52398100  0.14059900  0.50227400  1
  O  O45  1  0.47520800  0.63981700  0.49718300  1
  O  O46  1  0.52317700  0.38267300  0.49283000  1
  O  O47  1  0.80189000  0.24918800  0.40243600  1
  O  O48  1  0.20159700  0.77388900  0.40267400  1
  O  O49  1  0.19214600  0.49212500  0.38192100  1
  O  O50  1  0.81133000  0.53839500  0.38678300  1
  O  O51  1  0.54482300  0.38948800  0.27361300  1
  O  O52  1  0.48227600  0.64706400  0.27228700  1
  O  O53  1  0.54169800  0.12123900  0.26264800  1
  O  O54  1  0.48267300  0.89618400  0.26090300  1
  O  O55  1  0.96354900  0.40285300  0.23860100  1
  O  O56  1  0.02523800  0.62875300  0.23926100  1
  O  O57  1  0.95913800  0.13883400  0.22446600  1
  O  O58  1  0.02569600  0.88112000  0.22760300  1
  O  O59  1  0.31166300  0.03425600  0.11851800  1
  O  O60  1  0.69211800  0.98758100  0.11300400  1
  O  O61  1  0.69976800  0.27449800  0.09634500  1
  O  O62  1  0.30246000  0.74857400  0.09730800  1
  O  O63  1  0.02461500  0.88213200  0.00593700  1
  O  O64  1  0.97589700  0.13926300  0.00355800  1
