# generated using pymatgen
data_Li5V3P8O29
_symmetry_space_group_name_H-M   'P 1'
_cell_length_a   9.80948500
_cell_length_b   9.82624820
_cell_length_c   13.94375407
_cell_angle_alpha   90.02906157
_cell_angle_beta   89.99543894
_cell_angle_gamma   119.91437987
_symmetry_Int_Tables_number   1
_chemical_formula_structural   Li5V3P8O29
_chemical_formula_sum   'Li10 V6 P16 O58'
_cell_volume   1164.97945545
_cell_formula_units_Z   2
loop_
 _symmetry_equiv_pos_site_id
 _symmetry_equiv_pos_as_xyz
  1  'x, y, z'
loop_
 _atom_site_type_symbol
 _atom_site_label
 _atom_site_symmetry_multiplicity
 _atom_site_fract_x
 _atom_site_fract_y
 _atom_site_fract_z
 _atom_site_occupancy
  Li  Li0  1  0.68875000  0.91403400  0.94209600  1
  Li  Li1  1  0.22731400  0.90529100  0.43828500  1
  Li  Li2  1  0.33393700  0.66468500  0.11856800  1
  Li  Li3  1  0.08505000  0.77359400  0.93987000  1
  Li  Li4  1  0.22429800  0.31537300  0.94246900  1
  Li  Li5  1  0.90471800  0.67768300  0.55748100  1
  Li  Li6  1  0.09238600  0.32306100  0.43638900  1
  Li  Li7  1  0.77372800  0.08851700  0.55887000  1
  Li  Li8  1  0.32180400  0.22834100  0.55889500  1
  Li  Li9  1  0.32420500  0.09626500  0.06214600  1
  V  V10  1  0.99894800  0.56572000  0.75241000  1
  V  V11  1  0.99634500  0.42994700  0.24505700  1
  V  V12  1  0.57654800  0.57330400  0.25128800  1
  V  V13  1  0.43680100  0.43644000  0.74973500  1
  V  V14  1  0.56951700  0.00111700  0.74929600  1
  V  V15  1  0.43322200  0.00000800  0.25322200  1
  P  P16  1  0.68085600  0.91055700  0.15795700  1
  P  P17  1  0.68536800  0.76990800  0.65611000  1
  P  P18  1  0.23155800  0.91142900  0.65886200  1
  P  P19  1  0.33459400  0.66778300  0.87337400  1
  P  P20  1  0.33207100  0.66303900  0.37344400  1
  P  P21  1  0.09072200  0.77127500  0.15662300  1
  P  P22  1  0.91518200  0.68117700  0.34047000  1
  P  P23  1  0.23136200  0.32092400  0.15787600  1
  P  P24  1  0.76915400  0.68520300  0.84366800  1
  P  P25  1  0.08806200  0.32071900  0.65715300  1
  P  P26  1  0.91461700  0.23072000  0.84213800  1
  P  P27  1  0.66752400  0.33362900  0.62704400  1
  P  P28  1  0.66228100  0.33191800  0.12657500  1
  P  P29  1  0.77038100  0.08648400  0.34255700  1
  P  P30  1  0.31893300  0.23351800  0.34194400  1
  P  P31  1  0.32104100  0.08947900  0.84178600  1
  O  O32  1  0.75868000  0.00440900  0.43381900  1
  O  O33  1  0.66348500  0.91522400  0.65864200  1
  O  O34  1  0.75535500  0.76287800  0.93078900  1
  O  O35  1  0.66055100  0.74225800  0.16614900  1
  O  O36  1  0.51331800  0.88664500  0.17493000  1
  O  O37  1  0.48666500  0.81270000  0.83478800  1
  O  O38  1  0.38171000  0.90150000  0.67701900  1
  O  O39  1  0.24153400  0.00223900  0.93184200  1
  O  O40  1  0.25783600  0.92082500  0.16170200  1
  O  O41  1  0.47889200  0.66277800  0.32528900  1
  O  O42  1  0.52289000  0.61772600  0.67717700  1
  O  O43  1  0.32741000  0.81296700  0.33549700  1
  O  O44  1  0.33271800  0.66224200  0.98121400  1
  O  O45  1  0.33415000  0.66187200  0.48008500  1
  O  O46  1  0.18644700  0.67285000  0.83522400  1
  O  O47  1  0.37878400  0.48540300  0.17295700  1
  O  O48  1  0.33041700  0.51362900  0.83203400  1
  O  O49  1  0.08369700  0.74580400  0.66054800  1
  O  O50  1  0.00304500  0.79109800  0.24900100  1
  O  O51  1  0.00079200  0.76096600  0.43088100  1
  O  O52  1  0.00866800  0.76364200  0.06611400  1
  O  O53  1  0.11526500  0.62814700  0.17421000  1
  O  O54  1  0.18239800  0.51193600  0.33231000  1
  O  O55  1  0.91485300  0.66362000  0.84120800  1
  O  O56  1  0.10100100  0.47997900  0.67590800  1
  O  O57  1  0.25484300  0.33719000  0.66150700  1
  O  O58  1  0.79035100  0.79060600  0.75004500  1
  O  O59  1  0.76479600  0.75759100  0.56921600  1
  O  O60  1  0.24080700  0.24360200  0.43229800  1
  O  O61  1  0.74766500  0.66052800  0.33678400  1
  O  O62  1  0.90645100  0.52290100  0.32547700  1
  O  O63  1  0.08652500  0.34094000  0.15891800  1
  O  O64  1  0.81174700  0.48593500  0.66714400  1
  O  O65  1  0.90302800  0.38124400  0.82426900  1
  O  O66  1  0.00693200  0.23838500  0.92775800  1
  O  O67  1  0.00392200  0.24286500  0.56590800  1
  O  O68  1  0.99434900  0.20694900  0.74575600  1
  O  O69  1  0.91626800  0.25218100  0.33856300  1
  O  O70  1  0.65976800  0.47903600  0.17540000  1
  O  O71  1  0.61771500  0.52256800  0.82207700  1
  O  O72  1  0.81226700  0.33566900  0.17091500  1
  O  O73  1  0.66107600  0.33849000  0.02050500  1
  O  O74  1  0.65846900  0.33129200  0.52030300  1
  O  O75  1  0.67361500  0.18660500  0.66687700  1
  O  O76  1  0.47722000  0.38299200  0.32334600  1
  O  O77  1  0.51190000  0.32897000  0.67069500  1
  O  O78  1  0.74625100  0.08452100  0.83956400  1
  O  O79  1  0.78899900  0.99908300  0.24968200  1
  O  O80  1  0.75532500  0.99134800  0.06746700  1
  O  O81  1  0.61824300  0.09546100  0.32136700  1
  O  O82  1  0.51246700  0.18393300  0.16636500  1
  O  O83  1  0.48033100  0.10225500  0.82346100  1
  O  O84  1  0.33684000  0.25532100  0.83900300  1
  O  O85  1  0.24404700  0.24146300  0.06912500  1
  O  O86  1  0.21062800  0.21167600  0.24994700  1
  O  O87  1  0.33452800  0.08438000  0.34278500  1
  O  O88  1  0.24219100  0.99973300  0.56858800  1
  O  O89  1  0.20931700  0.00001300  0.75016200  1
