# generated using pymatgen
data_Li7V3P8O29
_symmetry_space_group_name_H-M   'P 1'
_cell_length_a   9.84889900
_cell_length_b   9.85107611
_cell_length_c   13.90963855
_cell_angle_alpha   90.12723292
_cell_angle_beta   89.99364416
_cell_angle_gamma   119.99149758
_symmetry_Int_Tables_number   1
_chemical_formula_structural   Li7V3P8O29
_chemical_formula_sum   'Li14 V6 P16 O58'
_cell_volume   1168.83626364
_cell_formula_units_Z   2
loop_
 _symmetry_equiv_pos_site_id
 _symmetry_equiv_pos_as_xyz
  1  'x, y, z'
loop_
 _atom_site_type_symbol
 _atom_site_label
 _atom_site_symmetry_multiplicity
 _atom_site_fract_x
 _atom_site_fract_y
 _atom_site_fract_z
 _atom_site_occupancy
  Li  Li0  1  0.66578500  0.76252600  0.06082100  1
  Li  Li1  1  0.67082500  0.90241000  0.56313100  1
  Li  Li2  1  0.23551100  0.33333300  0.56133800  1
  Li  Li3  1  0.33879600  0.66750400  0.88373500  1
  Li  Li4  1  0.09311300  0.32725600  0.06157500  1
  Li  Li5  1  0.22845200  0.90343500  0.06416300  1
  Li  Li6  1  0.91084500  0.23395200  0.43569300  1
  Li  Li7  1  0.10374400  0.75834300  0.55896500  1
  Li  Li8  1  0.65517800  0.32797100  0.61211000  1
  Li  Li9  1  0.67908400  0.32966700  0.11332900  1
  Li  Li10  1  0.76908000  0.67465100  0.43812000  1
  Li  Li11  1  0.32181100  0.23047500  0.93606600  1
  Li  Li12  1  0.94824600  0.96588000  0.99641700  1
  Li  Li13  1  0.06252000  0.01173900  0.49096000  1
  V  V14  1  0.00146900  0.43773400  0.24778200  1
  V  V15  1  0.99828800  0.56554400  0.75465900  1
  V  V16  1  0.56358000  0.00141400  0.74999100  1
  V  V17  1  0.43289600  0.99916600  0.25341100  1
  V  V18  1  0.56323100  0.56374800  0.25088900  1
  V  V19  1  0.43478000  0.43564100  0.74875400  1
  P  P20  1  0.68181800  0.77722600  0.84284800  1
  P  P21  1  0.68626900  0.91627600  0.34557200  1
  P  P22  1  0.22587600  0.31177100  0.34489600  1
  P  P23  1  0.33631200  0.66619400  0.12574200  1
  P  P24  1  0.32865400  0.66790900  0.62644100  1
  P  P25  1  0.08755200  0.31437900  0.84562600  1
  P  P26  1  0.91035400  0.22793200  0.65806500  1
  P  P27  1  0.22795500  0.91109000  0.84508000  1
  P  P28  1  0.77926800  0.08634100  0.15860300  1
  P  P29  1  0.08526200  0.77265400  0.34229600  1
  P  P30  1  0.90808000  0.69073500  0.15674200  1
  P  P31  1  0.66775000  0.33338600  0.37053100  1
  P  P32  1  0.66500900  0.33112100  0.87293400  1
  P  P33  1  0.77430700  0.68140700  0.65846200  1
  P  P34  1  0.30756100  0.08497800  0.65702100  1
  P  P35  1  0.31814200  0.22667100  0.15940900  1
  O  O36  1  0.76583000  0.76664900  0.56994100  1
  O  O37  1  0.66723100  0.75079100  0.34100100  1
  O  O38  1  0.78647300  0.98465000  0.08048500  1
  O  O39  1  0.66423000  0.92237600  0.83342500  1
  O  O40  1  0.51794800  0.63025700  0.83158500  1
  O  O41  1  0.48662400  0.66870800  0.17046200  1
  O  O42  1  0.38322200  0.46626400  0.33292400  1
  O  O43  1  0.23746700  0.23657500  0.06939400  1
  O  O44  1  0.25064300  0.33032100  0.83997000  1
  O  O45  1  0.47986600  0.81648600  0.66875600  1
  O  O46  1  0.52975300  0.90957100  0.32831800  1
  O  O47  1  0.32867400  0.51751900  0.65983600  1
  O  O48  1  0.34935600  0.66736900  0.01765400  1
  O  O49  1  0.31904400  0.68018900  0.51996500  1
  O  O50  1  0.19075600  0.51461300  0.16088700  1
  O  O51  1  0.37492600  0.89267600  0.83094100  1
  O  O52  1  0.33275800  0.81417400  0.16300000  1
  O  O53  1  0.08420700  0.33661500  0.34003200  1
  O  O54  1  0.99357900  0.21101500  0.75269600  1
  O  O55  1  0.00324500  0.23187200  0.57015500  1
  O  O56  1  0.00457600  0.23081600  0.93573700  1
  O  O57  1  0.10641600  0.48029500  0.83242100  1
  O  O58  1  0.18179300  0.66638300  0.67547400  1
  O  O59  1  0.91862200  0.25423700  0.15358600  1
  O  O60  1  0.09109100  0.62302900  0.33214600  1
  O  O61  1  0.25253400  0.91836100  0.33301400  1
  O  O62  1  0.79998600  0.01663600  0.25958600  1
  O  O63  1  0.76804400  0.99877900  0.43792900  1
  O  O64  1  0.20009900  0.98179300  0.57875500  1
  O  O65  1  0.74494900  0.08202800  0.65536600  1
  O  O66  1  0.89542700  0.37635800  0.66876000  1
  O  O67  1  0.08268300  0.74835000  0.84057100  1
  O  O68  1  0.81278400  0.32554100  0.33455800  1
  O  O69  1  0.89458600  0.52778300  0.16239100  1
  O  O70  1  0.00433500  0.79730800  0.07695900  1
  O  O71  1  0.00586600  0.78125200  0.43406600  1
  O  O72  1  0.98210500  0.78560400  0.25683500  1
  O  O73  1  0.92409800  0.66849600  0.65796500  1
  O  O74  1  0.65657800  0.18398000  0.82140600  1
  O  O75  1  0.62585800  0.09486500  0.16759800  1
  O  O76  1  0.81561700  0.47434100  0.82767400  1
  O  O77  1  0.67426500  0.32451500  0.97973800  1
  O  O78  1  0.66916500  0.34311600  0.47848000  1
  O  O79  1  0.67453600  0.48886100  0.32992100  1
  O  O80  1  0.46994000  0.09578100  0.66239500  1
  O  O81  1  0.51804700  0.19254400  0.32647700  1
  O  O82  1  0.73859000  0.66325600  0.15660400  1
  O  O83  1  0.78825700  0.78354700  0.75189300  1
  O  O84  1  0.76716500  0.78260100  0.93370100  1
  O  O85  1  0.63166200  0.51502800  0.66923000  1
  O  O86  1  0.51627800  0.33388200  0.84079100  1
  O  O87  1  0.48339700  0.37320000  0.17308800  1
  O  O88  1  0.33972900  0.08175600  0.15825900  1
  O  O89  1  0.23568200  0.99938800  0.93612000  1
  O  O90  1  0.22056400  0.01364500  0.75835000  1
  O  O91  1  0.33142800  0.25102500  0.65343000  1
  O  O92  1  0.21585800  0.22222300  0.43459300  1
  O  O93  1  0.21054800  0.20708300  0.25036800  1
