# generated using pymatgen
data_LiFe(SiO3)2
_symmetry_space_group_name_H-M   'P 1'
_cell_length_a   5.30970100
_cell_length_b   8.83854500
_cell_length_c   18.24426200
_cell_angle_alpha   90.00000000
_cell_angle_beta   90.00000000
_cell_angle_gamma   90.00000000
_symmetry_Int_Tables_number   1
_chemical_formula_structural   LiFe(SiO3)2
_chemical_formula_sum   'Li8 Fe8 Si16 O48'
_cell_volume   856.20378534
_cell_formula_units_Z   8
loop_
 _symmetry_equiv_pos_site_id
 _symmetry_equiv_pos_as_xyz
  1  'x, y, z'
loop_
 _atom_site_type_symbol
 _atom_site_label
 _atom_site_symmetry_multiplicity
 _atom_site_fract_x
 _atom_site_fract_y
 _atom_site_fract_z
 _atom_site_occupancy
  Li  Li0  1  0.61478900  0.99975600  0.12494800  1
  Li  Li1  1  0.11478900  0.50024400  0.12494800  1
  Li  Li2  1  0.11478900  0.00024400  0.37505200  1
  Li  Li3  1  0.61478900  0.49975600  0.37505200  1
  Li  Li4  1  0.38521100  0.50024400  0.62494800  1
  Li  Li5  1  0.88521100  0.99975600  0.62494800  1
  Li  Li6  1  0.38521100  0.00024400  0.87505200  1
  Li  Li7  1  0.88521100  0.49975600  0.87505200  1
  Fe  Fe8  1  0.61567000  0.64676600  0.12506900  1
  Fe  Fe9  1  0.11567000  0.85323400  0.12506900  1
  Fe  Fe10  1  0.11567000  0.35323400  0.37493100  1
  Fe  Fe11  1  0.61567000  0.14676600  0.37493100  1
  Fe  Fe12  1  0.38433000  0.85323400  0.62506900  1
  Fe  Fe13  1  0.88433000  0.64676600  0.62506900  1
  Fe  Fe14  1  0.38433000  0.35323400  0.87493100  1
  Fe  Fe15  1  0.88433000  0.14676600  0.87493100  1
  Si  Si16  1  0.71689600  0.33745800  0.02512100  1
  Si  Si17  1  0.21689600  0.16254200  0.02512100  1
  Si  Si18  1  0.44318700  0.33866800  0.22561500  1
  Si  Si19  1  0.94318700  0.16133200  0.22561500  1
  Si  Si20  1  0.44318700  0.83866800  0.27438500  1
  Si  Si21  1  0.94318700  0.66133200  0.27438500  1
  Si  Si22  1  0.71689600  0.83745800  0.47487900  1
  Si  Si23  1  0.21689600  0.66254200  0.47487900  1
  Si  Si24  1  0.78310400  0.33745800  0.52512100  1
  Si  Si25  1  0.28310400  0.16254200  0.52512100  1
  Si  Si26  1  0.05681300  0.33866800  0.72561500  1
  Si  Si27  1  0.55681300  0.16133200  0.72561500  1
  Si  Si28  1  0.05681300  0.83866800  0.77438500  1
  Si  Si29  1  0.55681300  0.66133200  0.77438500  1
  Si  Si30  1  0.78310400  0.83745800  0.97487900  1
  Si  Si31  1  0.28310400  0.66254200  0.97487900  1
  O  O32  1  0.43447200  0.28369100  0.05210500  1
  O  O33  1  0.93447200  0.21630900  0.05210500  1
  O  O34  1  0.78843700  0.83343600  0.06586600  1
  O  O35  1  0.28843700  0.66656400  0.06586600  1
  O  O36  1  0.78549100  0.49795900  0.06297800  1
  O  O37  1  0.28549100  0.00204100  0.06297800  1
  O  O38  1  0.44295800  0.83216000  0.18368300  1
  O  O39  1  0.94295800  0.66784000  0.18368300  1
  O  O40  1  0.94936300  0.99306300  0.19129600  1
  O  O41  1  0.44936300  0.50693700  0.19129600  1
  O  O42  1  0.17554500  0.26695100  0.19553500  1
  O  O43  1  0.67554500  0.23304900  0.19553500  1
  O  O44  1  0.17554500  0.76695100  0.30446500  1
  O  O45  1  0.67554500  0.73304900  0.30446500  1
  O  O46  1  0.94936300  0.49306300  0.30870400  1
  O  O47  1  0.44936300  0.00693700  0.30870400  1
  O  O48  1  0.44295800  0.33216000  0.31631700  1
  O  O49  1  0.94295800  0.16784000  0.31631700  1
  O  O50  1  0.78549100  0.99795900  0.43702200  1
  O  O51  1  0.28549100  0.50204100  0.43702200  1
  O  O52  1  0.78843700  0.33343600  0.43413400  1
  O  O53  1  0.28843700  0.16656400  0.43413400  1
  O  O54  1  0.43447200  0.78369100  0.44789500  1
  O  O55  1  0.93447200  0.71630900  0.44789500  1
  O  O56  1  0.06552800  0.28369100  0.55210500  1
  O  O57  1  0.56552800  0.21630900  0.55210500  1
  O  O58  1  0.71156300  0.83343600  0.56586600  1
  O  O59  1  0.21156300  0.66656400  0.56586600  1
  O  O60  1  0.71450900  0.49795900  0.56297800  1
  O  O61  1  0.21450900  0.00204100  0.56297800  1
  O  O62  1  0.05704200  0.83216000  0.68368300  1
  O  O63  1  0.55704200  0.66784000  0.68368300  1
  O  O64  1  0.55063700  0.99306300  0.69129600  1
  O  O65  1  0.05063700  0.50693700  0.69129600  1
  O  O66  1  0.32445500  0.26695100  0.69553500  1
  O  O67  1  0.82445500  0.23304900  0.69553500  1
  O  O68  1  0.32445500  0.76695100  0.80446500  1
  O  O69  1  0.82445500  0.73304900  0.80446500  1
  O  O70  1  0.55063700  0.49306300  0.80870400  1
  O  O71  1  0.05063700  0.00693700  0.80870400  1
  O  O72  1  0.05704200  0.33216000  0.81631700  1
  O  O73  1  0.55704200  0.16784000  0.81631700  1
  O  O74  1  0.71450900  0.99795900  0.93702200  1
  O  O75  1  0.21450900  0.50204100  0.93702200  1
  O  O76  1  0.71156300  0.33343600  0.93413400  1
  O  O77  1  0.21156300  0.16656400  0.93413400  1
  O  O78  1  0.06552800  0.78369100  0.94789500  1
  O  O79  1  0.56552800  0.71630900  0.94789500  1
