# generated using pymatgen
data_Li8ScFe7(SiO3)16
_symmetry_space_group_name_H-M   'P 1'
_cell_length_a   7.34279100
_cell_length_b   9.54283434
_cell_length_c   13.22180326
_cell_angle_alpha   102.82458683
_cell_angle_beta   95.41935436
_cell_angle_gamma   102.27102313
_symmetry_Int_Tables_number   1
_chemical_formula_structural   Li8ScFe7(SiO3)16
_chemical_formula_sum   'Li8 Sc1 Fe7 Si16 O48'
_cell_volume   872.90956560
_cell_formula_units_Z   1
loop_
 _symmetry_equiv_pos_site_id
 _symmetry_equiv_pos_as_xyz
  1  'x, y, z'
loop_
 _atom_site_type_symbol
 _atom_site_label
 _atom_site_symmetry_multiplicity
 _atom_site_fract_x
 _atom_site_fract_y
 _atom_site_fract_z
 _atom_site_occupancy
  Li  Li0  1  0.25068900  0.99977300  0.37457200  1
  Li  Li1  1  0.24792500  0.50353200  0.12861300  1
  Li  Li2  1  0.75020500  0.49972900  0.37487300  1
  Li  Li3  1  0.24704100  0.99582300  0.87389000  1
  Li  Li4  1  0.24984300  0.50002200  0.62489500  1
  Li  Li5  1  0.74938000  0.00070400  0.12582000  1
  Li  Li6  1  0.75434700  0.50259500  0.87461700  1
  Li  Li7  1  0.74856600  0.00047700  0.62536500  1
  Sc  Sc8  1  0.42604000  0.32385900  0.94886000  1
  Fe  Fe9  1  0.57456100  0.67888800  0.05244100  1
  Fe  Fe10  1  0.07151400  0.17592700  0.05236600  1
  Fe  Fe11  1  0.92663600  0.82346200  0.44841300  1
  Fe  Fe12  1  0.57340200  0.67603100  0.55145900  1
  Fe  Fe13  1  0.42647500  0.32325000  0.44873900  1
  Fe  Fe14  1  0.07317000  0.17638100  0.55114200  1
  Fe  Fe15  1  0.92601900  0.82417800  0.94850400  1
  Si  Si16  1  0.32758500  0.94219400  0.10418100  1
  Si  Si17  1  0.98881800  0.78105700  0.19339800  1
  Si  Si18  1  0.51330100  0.72001600  0.30746600  1
  Si  Si19  1  0.82917900  0.44330800  0.10486200  1
  Si  Si20  1  0.32633500  0.94079900  0.60329800  1
  Si  Si21  1  0.17361700  0.55880900  0.39624300  1
  Si  Si22  1  0.48704400  0.28110900  0.19438900  1
  Si  Si23  1  0.01169000  0.21952400  0.30735700  1
  Si  Si24  1  0.98724900  0.77991600  0.69251600  1
  Si  Si25  1  0.51232000  0.71733500  0.80632400  1
  Si  Si26  1  0.82821700  0.44099800  0.60224400  1
  Si  Si27  1  0.17244000  0.56025000  0.89664800  1
  Si  Si28  1  0.67299400  0.05905900  0.39676100  1
  Si  Si29  1  0.48918300  0.28019100  0.69008600  1
  Si  Si30  1  0.00872200  0.21834000  0.80685600  1
  Si  Si31  1  0.67329800  0.05506000  0.89536800  1
  O  O32  1  0.17608400  0.97430700  0.01600300  1
  O  O33  1  0.48017900  0.85528100  0.05753800  1
  O  O34  1  0.20565300  0.85197500  0.17774100  1
  O  O35  1  0.84151700  0.80972300  0.10140700  1
  O  O36  1  0.54471300  0.89958500  0.32372400  1
  O  O37  1  0.68268200  0.47956600  0.01688700  1
  O  O38  1  0.17521100  0.97389800  0.51536600  1
  O  O39  1  0.52926500  0.64187600  0.18781600  1
  O  O40  1  0.29633300  0.64799700  0.32237800  1
  O  O41  1  0.33638200  0.30967600  0.10441900  1
  O  O42  1  0.02268000  0.64736200  0.44317200  1
  O  O43  1  0.97258100  0.85962400  0.31290300  1
  O  O44  1  0.04513200  0.39928000  0.32309800  1
  O  O45  1  0.95961400  0.60161200  0.17843800  1
  O  O46  1  0.02430400  0.13977100  0.18745400  1
  O  O47  1  0.47701800  0.85184000  0.55655400  1
  O  O48  1  0.97775400  0.35268300  0.05750400  1
  O  O49  1  0.66023000  0.69093000  0.39939900  1
  O  O50  1  0.20418900  0.85217800  0.67761500  1
  O  O51  1  0.70270600  0.35290800  0.17684400  1
  O  O52  1  0.47466100  0.35991100  0.31423900  1
  O  O53  1  0.32440100  0.52592000  0.48436600  1
  O  O54  1  0.45526200  0.10153300  0.17779200  1
  O  O55  1  0.83999600  0.80917300  0.60077800  1
  O  O56  1  0.15952600  0.19009500  0.39863400  1
  O  O57  1  0.54604100  0.89658000  0.82105500  1
  O  O58  1  0.67645800  0.47449100  0.51504900  1
  O  O59  1  0.52776900  0.63832100  0.68676300  1
  O  O60  1  0.29485800  0.64767700  0.82186400  1
  O  O61  1  0.79487400  0.14966300  0.32350100  1
  O  O62  1  0.34073100  0.30882500  0.59873000  1
  O  O63  1  0.52154500  0.14686200  0.44374000  1
  O  O64  1  0.02028800  0.64803900  0.94207500  1
  O  O65  1  0.97162700  0.85774700  0.81225900  1
  O  O66  1  0.04482300  0.39894200  0.82533700  1
  O  O67  1  0.95597000  0.60021000  0.67602500  1
  O  O68  1  0.02627200  0.14229500  0.68699300  1
  O  O69  1  0.98008100  0.35350500  0.55528200  1
  O  O70  1  0.65898400  0.69028600  0.89935400  1
  O  O71  1  0.70660400  0.34874800  0.67460600  1
  O  O72  1  0.47336400  0.36003800  0.80896200  1
  O  O73  1  0.32301400  0.53150900  0.98654300  1
  O  O74  1  0.82412300  0.02587700  0.48461500  1
  O  O75  1  0.45511200  0.10060100  0.67534600  1
  O  O76  1  0.15214200  0.18570500  0.89826800  1
  O  O77  1  0.79146800  0.14736900  0.82146500  1
  O  O78  1  0.52297000  0.14187900  0.94387000  1
  O  O79  1  0.82500000  0.02353500  0.98366400  1
