# generated using pymatgen
data_Li2MnF5
_symmetry_space_group_name_H-M   'P 1'
_cell_length_a   5.34835468
_cell_length_b   5.34835468
_cell_length_c   9.72933300
_cell_angle_alpha   90.00000000
_cell_angle_beta   90.00000000
_cell_angle_gamma   134.91310700
_symmetry_Int_Tables_number   1
_chemical_formula_structural   Li2MnF5
_chemical_formula_sum   'Li4 Mn2 F10'
_cell_volume   197.09069006
_cell_formula_units_Z   2
loop_
 _symmetry_equiv_pos_site_id
 _symmetry_equiv_pos_as_xyz
  1  'x, y, z'
loop_
 _atom_site_type_symbol
 _atom_site_label
 _atom_site_symmetry_multiplicity
 _atom_site_fract_x
 _atom_site_fract_y
 _atom_site_fract_z
 _atom_site_occupancy
  Li  Li0  1  0.13946500  0.86053500  0.92904500  1
  Li  Li1  1  0.13946500  0.86053500  0.57095500  1
  Li  Li2  1  0.86053500  0.13946500  0.07095500  1
  Li  Li3  1  0.86053500  0.13946500  0.42904500  1
  Mn  Mn4  1  0.19032600  0.80967400  0.25000000  1
  Mn  Mn5  1  0.80967400  0.19032600  0.75000000  1
  F  F6  1  0.05432000  0.94568000  0.11678800  1
  F  F7  1  0.05432000  0.94568000  0.38321200  1
  F  F8  1  0.68672100  0.31327900  0.90433800  1
  F  F9  1  0.68672100  0.31327900  0.59566200  1
  F  F10  1  0.25282300  0.74717700  0.75000000  1
  F  F11  1  0.74717700  0.25282300  0.25000000  1
  F  F12  1  0.31327900  0.68672100  0.40433800  1
  F  F13  1  0.31327900  0.68672100  0.09566200  1
  F  F14  1  0.94568000  0.05432000  0.61678800  1
  F  F15  1  0.94568000  0.05432000  0.88321200  1
