# generated using pymatgen
data_Na3Li3Mn2P2(CO7)2
_symmetry_space_group_name_H-M   'P 1'
_cell_length_a   6.79216500
_cell_length_b   8.75921479
_cell_length_c   10.26003535
_cell_angle_alpha   88.33989320
_cell_angle_beta   89.96881132
_cell_angle_gamma   89.76964447
_symmetry_Int_Tables_number   1
_chemical_formula_structural   Na3Li3Mn2P2(CO7)2
_chemical_formula_sum   'Na6 Li6 Mn4 P4 C4 O28'
_cell_volume   610.14967996
_cell_formula_units_Z   2
loop_
 _symmetry_equiv_pos_site_id
 _symmetry_equiv_pos_as_xyz
  1  'x, y, z'
loop_
 _atom_site_type_symbol
 _atom_site_label
 _atom_site_symmetry_multiplicity
 _atom_site_fract_x
 _atom_site_fract_y
 _atom_site_fract_z
 _atom_site_occupancy
  Na  Na0  1  0.74414100  0.91579500  0.12422600  1
  Na  Na1  1  0.00238200  0.74845100  0.37305800  1
  Na  Na2  1  0.99894900  0.74625800  0.87364700  1
  Na  Na3  1  0.50073200  0.74722200  0.87291100  1
  Na  Na4  1  0.49921500  0.24991900  0.12621900  1
  Na  Na5  1  0.49938600  0.25277900  0.62622500  1
  Li  Li6  1  0.75998100  0.91051400  0.62418400  1
  Li  Li7  1  0.54263600  0.71617200  0.39416300  1
  Li  Li8  1  0.03866900  0.27860100  0.10976200  1
  Li  Li9  1  0.02420800  0.27253500  0.61592700  1
  Li  Li10  1  0.24081900  0.09474700  0.37360400  1
  Li  Li11  1  0.23037300  0.09869100  0.87245600  1
  Mn  Mn12  1  0.25419600  0.63860300  0.11564500  1
  Mn  Mn13  1  0.25233300  0.64291400  0.60917800  1
  Mn  Mn14  1  0.75811200  0.34814000  0.38810600  1
  Mn  Mn15  1  0.75532500  0.35714500  0.89001500  1
  P  P16  1  0.75353600  0.58265900  0.14810500  1
  P  P17  1  0.75577400  0.59063000  0.64143500  1
  P  P18  1  0.25318200  0.40471500  0.35785200  1
  P  P19  1  0.24756000  0.40669000  0.85720100  1
  C  C20  1  0.23739200  0.95728300  0.13493400  1
  C  C21  1  0.23650600  0.95776100  0.63512800  1
  C  C22  1  0.73532300  0.03814800  0.37392000  1
  C  C23  1  0.75318300  0.06123100  0.85162500  1
  O  O24  1  0.71471800  0.89431300  0.35161400  1
  O  O25  1  0.74944200  0.91790800  0.82267600  1
  O  O26  1  0.24446100  0.92862400  0.01108700  1
  O  O27  1  0.23622000  0.92720800  0.51253800  1
  O  O28  1  0.25233000  0.84616100  0.22177600  1
  O  O29  1  0.25444800  0.84666200  0.72296700  1
  O  O30  1  0.93532100  0.68215900  0.11055700  1
  O  O31  1  0.56975000  0.66854100  0.09348000  1
  O  O32  1  0.93415300  0.69337800  0.60191400  1
  O  O33  1  0.57039100  0.68128600  0.59242700  1
  O  O34  1  0.73729500  0.56916500  0.30034500  1
  O  O35  1  0.26977800  0.56962100  0.41037700  1
  O  O36  1  0.74817000  0.57256300  0.79320000  1
  O  O37  1  0.24994100  0.56795800  0.91600500  1
  O  O38  1  0.77193400  0.41785100  0.09516100  1
  O  O39  1  0.22813700  0.41975500  0.20631000  1
  O  O40  1  0.76718600  0.42884200  0.58396700  1
  O  O41  1  0.22276100  0.42657100  0.70594800  1
  O  O42  1  0.43737100  0.30494600  0.39038300  1
  O  O43  1  0.07649200  0.31342500  0.41710800  1
  O  O44  1  0.43687300  0.31269200  0.88834200  1
  O  O45  1  0.07632700  0.30719100  0.91426400  1
  O  O46  1  0.75075000  0.13607200  0.27538800  1
  O  O47  1  0.76839800  0.16482600  0.75832800  1
  O  O48  1  0.74403700  0.08704100  0.49214500  1
  O  O49  1  0.74235700  0.10451500  0.97138200  1
  O  O50  1  0.21696000  0.09618500  0.17527300  1
  O  O51  1  0.22009100  0.09693800  0.67551200  1
