# generated using pymatgen
data_Li5Cu(PO4)2
_symmetry_space_group_name_H-M   'P 1'
_cell_length_a   5.33800700
_cell_length_b   6.21500959
_cell_length_c   9.95567526
_cell_angle_alpha   89.87822099
_cell_angle_beta   89.81502542
_cell_angle_gamma   89.91042878
_symmetry_Int_Tables_number   1
_chemical_formula_structural   Li5Cu(PO4)2
_chemical_formula_sum   'Li10 Cu2 P4 O16'
_cell_volume   330.28427283
_cell_formula_units_Z   2
loop_
 _symmetry_equiv_pos_site_id
 _symmetry_equiv_pos_as_xyz
  1  'x, y, z'
loop_
 _atom_site_type_symbol
 _atom_site_label
 _atom_site_symmetry_multiplicity
 _atom_site_fract_x
 _atom_site_fract_y
 _atom_site_fract_z
 _atom_site_occupancy
  Li  Li0  1  0.84480600  0.00001600  0.75517200  1
  Li  Li1  1  0.67346800  0.75494400  0.50510800  1
  Li  Li2  1  0.67167200  0.75190500  0.00355300  1
  Li  Li3  1  0.32765500  0.74666500  0.75448400  1
  Li  Li4  1  0.32652900  0.74977200  0.25465200  1
  Li  Li5  1  0.15502300  0.49957400  0.00363700  1
  Li  Li6  1  0.15628800  0.50015900  0.50522900  1
  Li  Li7  1  0.32690300  0.25049000  0.25498400  1
  Li  Li8  1  0.32626800  0.25320800  0.75404800  1
  Li  Li9  1  0.67394200  0.24645400  0.50598300  1
  Cu  Cu10  1  0.82581500  0.00223300  0.25370200  1
  Cu  Cu11  1  0.66472600  0.24437800  0.00259000  1
  P  P12  1  0.17813100  0.99565400  0.99797200  1
  P  P13  1  0.17868700  0.99992500  0.50323900  1
  P  P14  1  0.82625200  0.50181600  0.74752500  1
  P  P15  1  0.82834000  0.50294700  0.25312700  1
  O  O16  1  0.19326500  0.00001200  0.34640400  1
  O  O17  1  0.90111300  0.00005100  0.55186000  1
  O  O18  1  0.18632500  0.00010500  0.84194200  1
  O  O19  1  0.89878900  0.98421800  0.04392400  1
  O  O20  1  0.31407500  0.79310900  0.55571700  1
  O  O21  1  0.31784600  0.79274900  0.05175100  1
  O  O22  1  0.68752900  0.70520100  0.80207000  1
  O  O23  1  0.68232600  0.70326100  0.30757700  1
  O  O24  1  0.82704600  0.50955600  0.09653600  1
  O  O25  1  0.10382700  0.50096000  0.30316600  1
  O  O26  1  0.82259700  0.50380400  0.59124800  1
  O  O27  1  0.10145800  0.49985800  0.79986400  1
  O  O28  1  0.68407800  0.30082400  0.30612200  1
  O  O29  1  0.68668700  0.29248500  0.79365600  1
  O  O30  1  0.31343200  0.20669100  0.55511900  1
  O  O31  1  0.29510300  0.20697600  0.05544900  1
