# generated using pymatgen
data_Li2VCr(P2O7)2
_symmetry_space_group_name_H-M   'P 1'
_cell_length_a   9.54961844
_cell_length_b   9.54903449
_cell_length_c   7.01796106
_cell_angle_alpha   99.44045763
_cell_angle_beta   99.45246923
_cell_angle_gamma   118.72051285
_symmetry_Int_Tables_number   1
_chemical_formula_structural   Li2VCr(P2O7)2
_chemical_formula_sum   'Li4 V2 Cr2 P8 O28'
_cell_volume   531.33319862
_cell_formula_units_Z   2
loop_
 _symmetry_equiv_pos_site_id
 _symmetry_equiv_pos_as_xyz
  1  'x, y, z'
loop_
 _atom_site_type_symbol
 _atom_site_label
 _atom_site_symmetry_multiplicity
 _atom_site_fract_x
 _atom_site_fract_y
 _atom_site_fract_z
 _atom_site_occupancy
  Li  Li0  1  0.15645492  0.01970017  0.67709366  1
  Li  Li1  1  0.73050949  0.09376370  0.32247526  1
  Li  Li2  1  0.23003391  0.59340961  0.32293668  1
  Li  Li3  1  0.65632470  0.51966605  0.67729585  1
  V  V4  1  0.85863729  0.35779552  0.72930507  1
  V  V5  1  0.89250910  0.89163207  0.27096028  1
  Cr  Cr6  1  0.39269289  0.39238789  0.27239783  1
  Cr  Cr7  1  0.35738166  0.85705259  0.72746089  1
  P  P8  1  0.11053406  0.29040579  0.52114015  1
  P  P9  1  0.75090113  0.03566576  0.91438978  1
  P  P10  1  0.25306145  0.53620957  0.91456061  1
  P  P11  1  0.45940335  0.13984180  0.47769457  1
  P  P12  1  0.60924041  0.78975476  0.52269204  1
  P  P13  1  0.71289133  0.49739866  0.08631187  1
  P  P14  1  0.21521147  0.99859411  0.08479366  1
  P  P15  1  0.96056347  0.64033057  0.47848577  1
  O  O16  1  0.07470687  0.11164903  0.48185106  1
  O  O17  1  0.35944902  0.03865270  0.60643480  1
  O  O18  1  0.58287715  0.01755443  0.91639673  1
  O  O19  1  0.08495490  0.51887922  0.91911548  1
  O  O20  1  0.22114485  0.37324325  0.75361761  1
  O  O21  1  0.37674583  0.02864437  0.24615931  1
  O  O22  1  0.23234865  0.16626955  0.08240064  1
  O  O23  1  0.21240097  0.39068040  0.39324471  1
  O  O24  1  0.45291925  0.29890532  0.49102046  1
  O  O25  1  0.13850855  0.67517021  0.51850873  1
  O  O26  1  0.63806502  0.17580590  0.51790577  1
  O  O27  1  0.86388102  0.18721461  0.85107553  1
  O  O28  1  0.36517745  0.68872881  0.85350732  1
  O  O29  1  0.21851885  0.91185073  0.88331225  1
  O  O30  1  0.71665231  0.41275702  0.88482757  1
  O  O31  1  0.33821344  0.53150730  0.11628328  1
  O  O32  1  0.83737188  0.03357999  0.11563483  1
  O  O33  1  0.06289649  0.88565377  0.14720479  1
  O  O34  1  0.56112337  0.38530543  0.14787228  1
  O  O35  1  0.57408180  0.61170470  0.48158502  1
  O  O36  1  0.45054452  0.79689776  0.50879927  1
  O  O37  1  0.95146731  0.29575810  0.50537251  1
  O  O38  1  0.85915894  0.53743695  0.60606704  1
  O  O39  1  0.72117419  0.87335903  0.75348501  1
  O  O40  1  0.87666434  0.52905080  0.24676643  1
  O  O41  1  0.73131888  0.66610030  0.08235206  1
  O  O42  1  0.71119187  0.89059321  0.39406858  1
  O  O43  1  0.95450866  0.79902148  0.49513698  1
