# generated using pymatgen
data_Li2CoSiO4
_symmetry_space_group_name_H-M   'P 1'
_cell_length_a   5.01393600
_cell_length_b   6.18073500
_cell_length_c   10.90044800
_cell_angle_alpha   90.00000000
_cell_angle_beta   90.00000000
_cell_angle_gamma   90.00000000
_symmetry_Int_Tables_number   1
_chemical_formula_structural   Li2CoSiO4
_chemical_formula_sum   'Li8 Co4 Si4 O16'
_cell_volume   337.80280942
_cell_formula_units_Z   4
loop_
 _symmetry_equiv_pos_site_id
 _symmetry_equiv_pos_as_xyz
  1  'x, y, z'
loop_
 _atom_site_type_symbol
 _atom_site_label
 _atom_site_symmetry_multiplicity
 _atom_site_fract_x
 _atom_site_fract_y
 _atom_site_fract_z
 _atom_site_occupancy
  Li  Li0  1  0.31718600  0.99883700  0.58726100  1
  Li  Li1  1  0.68281400  0.00116300  0.41273900  1
  Li  Li2  1  0.18281400  0.99883700  0.08726100  1
  Li  Li3  1  0.31718600  0.50116300  0.58726100  1
  Li  Li4  1  0.18281400  0.50116300  0.08726100  1
  Li  Li5  1  0.81718600  0.49883700  0.91273900  1
  Li  Li6  1  0.68281400  0.49883700  0.41273900  1
  Li  Li7  1  0.81718600  0.00116300  0.91273900  1
  Co  Co8  1  0.17883600  0.75000000  0.33076500  1
  Co  Co9  1  0.32116400  0.75000000  0.83076500  1
  Co  Co10  1  0.67883600  0.25000000  0.16923500  1
  Co  Co11  1  0.82116400  0.25000000  0.66923500  1
  Si  Si12  1  0.67401700  0.75000000  0.16318300  1
  Si  Si13  1  0.82598300  0.75000000  0.66318300  1
  Si  Si14  1  0.32598300  0.25000000  0.83681700  1
  Si  Si15  1  0.17401700  0.25000000  0.33681700  1
  O  O16  1  0.78312200  0.96883700  0.09132100  1
  O  O17  1  0.71687800  0.96883700  0.59132100  1
  O  O18  1  0.34436700  0.75000000  0.16418600  1
  O  O19  1  0.72024400  0.75000000  0.80757500  1
  O  O20  1  0.77975600  0.75000000  0.30757500  1
  O  O21  1  0.15563300  0.75000000  0.66418600  1
  O  O22  1  0.78312200  0.53116300  0.09132100  1
  O  O23  1  0.71687800  0.53116300  0.59132100  1
  O  O24  1  0.21687800  0.46883700  0.90867900  1
  O  O25  1  0.28312200  0.46883700  0.40867900  1
  O  O26  1  0.22024400  0.25000000  0.69242500  1
  O  O27  1  0.84436700  0.25000000  0.33581400  1
  O  O28  1  0.27975600  0.25000000  0.19242500  1
  O  O29  1  0.65563300  0.25000000  0.83581400  1
  O  O30  1  0.21687800  0.03116300  0.90867900  1
  O  O31  1  0.28312200  0.03116300  0.40867900  1
