# generated using pymatgen
data_Li7Mn8(BO3)8
_symmetry_space_group_name_H-M   'P 1'
_cell_length_a   5.24330700
_cell_length_b   9.12870317
_cell_length_c   11.54530007
_cell_angle_alpha   111.10166177
_cell_angle_beta   102.32754776
_cell_angle_gamma   89.29851472
_symmetry_Int_Tables_number   1
_chemical_formula_structural   Li7Mn8(BO3)8
_chemical_formula_sum   'Li7 Mn8 B8 O24'
_cell_volume   502.39999437
_cell_formula_units_Z   1
loop_
 _symmetry_equiv_pos_site_id
 _symmetry_equiv_pos_as_xyz
  1  'x, y, z'
loop_
 _atom_site_type_symbol
 _atom_site_label
 _atom_site_symmetry_multiplicity
 _atom_site_fract_x
 _atom_site_fract_y
 _atom_site_fract_z
 _atom_site_occupancy
  Li  Li0  1  0.96820600  0.96670700  0.09058400  1
  Li  Li1  1  0.72541800  0.75573700  0.33185900  1
  Li  Li2  1  0.47726200  0.45893800  0.06754900  1
  Li  Li3  1  0.70198400  0.71226200  0.58314500  1
  Li  Li4  1  0.23897800  0.26416800  0.34791300  1
  Li  Li5  1  0.19902600  0.21109000  0.58666400  1
  Li  Li6  1  0.02080700  0.99296700  0.83776800  1
  Mn  Mn7  1  0.75006400  0.43433600  0.36724900  1
  Mn  Mn8  1  0.72410900  0.06073800  0.62216800  1
  Mn  Mn9  1  0.46962900  0.14604400  0.11545400  1
  Mn  Mn10  1  0.52769600  0.83710500  0.86804700  1
  Mn  Mn11  1  0.25921500  0.93934200  0.37301600  1
  Mn  Mn12  1  0.00071800  0.64633100  0.12497600  1
  Mn  Mn13  1  0.22846500  0.55348800  0.62769500  1
  Mn  Mn14  1  0.01375100  0.35092300  0.86300800  1
  B  B15  1  0.96857600  0.31813000  0.12930300  1
  B  B16  1  0.76163600  0.10657900  0.37373500  1
  B  B17  1  0.48316000  0.81374000  0.12697800  1
  B  B18  1  0.72003300  0.38623600  0.61389300  1
  B  B19  1  0.52399300  0.18091300  0.87378100  1
  B  B20  1  0.26080100  0.60509300  0.36861400  1
  B  B21  1  0.23118100  0.88802500  0.62629300  1
  B  B22  1  0.04867000  0.69919700  0.89082100  1
  O  O23  1  0.97693200  0.88652300  0.64159500  1
  O  O24  1  0.72160600  0.34832600  0.15632400  1
  O  O25  1  0.89608000  0.28897500  0.65714800  1
  O  O26  1  0.59199800  0.91681000  0.08516400  1
  O  O27  1  0.61142800  0.68608400  0.14100300  1
  O  O28  1  0.82043400  0.50233400  0.57935700  1
  O  O29  1  0.96214500  0.59384000  0.94195400  1
  O  O30  1  0.93146200  0.83855700  0.90386700  1
  O  O31  1  0.66499000  0.98686300  0.40578200  1
  O  O32  1  0.59190800  0.20407900  0.33067500  1
  O  O33  1  0.76104700  0.15095100  0.83363400  1
  O  O34  1  0.52705100  0.63265200  0.38878700  1
  O  O35  1  0.45824800  0.36477100  0.60418500  1
  O  O36  1  0.23561400  0.84246100  0.15962200  1
  O  O37  1  0.40265700  0.78194500  0.65697500  1
  O  O38  1  0.31886700  0.99601100  0.57993800  1
  O  O39  1  0.09308600  0.42230100  0.09061600  1
  O  O40  1  0.09085400  0.18843600  0.14151400  1
  O  O41  1  0.41049500  0.31962400  0.88705600  1
  O  O42  1  0.40538500  0.06622500  0.90498200  1
  O  O43  1  0.15435700  0.49204700  0.40098000  1
  O  O44  1  0.09010200  0.70109900  0.31651400  1
  O  O45  1  0.25090300  0.65706600  0.83031800  1
  O  O46  1  0.02860400  0.12817800  0.38846800  1
