# generated using pymatgen
data_Li5SbS4
_symmetry_space_group_name_H-M   'P 1'
_cell_length_a   6.20361800
_cell_length_b   15.08927300
_cell_length_c   17.61006000
_cell_angle_alpha   90.00000000
_cell_angle_beta   90.00000000
_cell_angle_gamma   90.00000000
_symmetry_Int_Tables_number   1
_chemical_formula_structural   Li5SbS4
_chemical_formula_sum   'Li40 Sb8 S32'
_cell_volume   1648.44400372
_cell_formula_units_Z   8
loop_
 _symmetry_equiv_pos_site_id
 _symmetry_equiv_pos_as_xyz
  1  'x, y, z'
loop_
 _atom_site_type_symbol
 _atom_site_label
 _atom_site_symmetry_multiplicity
 _atom_site_fract_x
 _atom_site_fract_y
 _atom_site_fract_z
 _atom_site_occupancy
  Li  Li0  1  0.89171600  0.91981300  0.41344400  1
  Li  Li1  1  0.60828400  0.91981300  0.91344400  1
  Li  Li2  1  0.32938100  0.85612000  0.74005200  1
  Li  Li3  1  0.17061900  0.85612000  0.24005200  1
  Li  Li4  1  0.34168100  0.83187200  0.49642100  1
  Li  Li5  1  0.15831900  0.83187200  0.99642100  1
  Li  Li6  1  0.53166100  0.77822200  0.33444500  1
  Li  Li7  1  0.96833900  0.77822200  0.83444500  1
  Li  Li8  1  0.46972800  0.78296500  0.12308200  1
  Li  Li9  1  0.03027200  0.78296500  0.62308200  1
  Li  Li10  1  0.96972800  0.71703500  0.12308200  1
  Li  Li11  1  0.53027200  0.71703500  0.62308200  1
  Li  Li12  1  0.03166100  0.72177800  0.33444500  1
  Li  Li13  1  0.46833900  0.72177800  0.83444500  1
  Li  Li14  1  0.84168100  0.66812800  0.49642100  1
  Li  Li15  1  0.65831900  0.66812800  0.99642100  1
  Li  Li16  1  0.67061900  0.64388000  0.24005200  1
  Li  Li17  1  0.82938100  0.64388000  0.74005200  1
  Li  Li18  1  0.10828400  0.58018700  0.91344400  1
  Li  Li19  1  0.39171600  0.58018700  0.41344400  1
  Li  Li20  1  0.89171600  0.41981300  0.08655600  1
  Li  Li21  1  0.60828400  0.41981300  0.58655600  1
  Li  Li22  1  0.17061900  0.35612000  0.25994800  1
  Li  Li23  1  0.32938100  0.35612000  0.75994800  1
  Li  Li24  1  0.34168100  0.33187200  0.00357900  1
  Li  Li25  1  0.15831900  0.33187200  0.50357900  1
  Li  Li26  1  0.53166100  0.27822200  0.16555500  1
  Li  Li27  1  0.96833900  0.27822200  0.66555500  1
  Li  Li28  1  0.46972800  0.28296500  0.37691800  1
  Li  Li29  1  0.03027200  0.28296500  0.87691800  1
  Li  Li30  1  0.96972800  0.21703500  0.37691800  1
  Li  Li31  1  0.53027200  0.21703500  0.87691800  1
  Li  Li32  1  0.46833900  0.22177800  0.66555500  1
  Li  Li33  1  0.03166100  0.22177800  0.16555500  1
  Li  Li34  1  0.84168100  0.16812800  0.00357900  1
  Li  Li35  1  0.65831900  0.16812800  0.50357900  1
  Li  Li36  1  0.67061900  0.14388000  0.25994800  1
  Li  Li37  1  0.82938100  0.14388000  0.75994800  1
  Li  Li38  1  0.10828400  0.08018700  0.58655600  1
  Li  Li39  1  0.39171600  0.08018700  0.08655600  1
  Sb  Sb40  1  0.83706600  0.93481700  0.12476300  1
  Sb  Sb41  1  0.66293400  0.93481700  0.62476300  1
  Sb  Sb42  1  0.33706600  0.56518300  0.12476300  1
  Sb  Sb43  1  0.16293400  0.56518300  0.62476300  1
  Sb  Sb44  1  0.66293400  0.43481700  0.87523700  1
  Sb  Sb45  1  0.83706600  0.43481700  0.37523700  1
  Sb  Sb46  1  0.33706600  0.06518300  0.37523700  1
  Sb  Sb47  1  0.16293400  0.06518300  0.87523700  1
  S  S48  1  0.24311800  0.92640900  0.11600700  1
  S  S49  1  0.25688200  0.92640900  0.61600700  1
  S  S50  1  0.73780900  0.82999400  0.51879600  1
  S  S51  1  0.76219100  0.82999400  0.01879600  1
  S  S52  1  0.78148600  0.81493300  0.22210100  1
  S  S53  1  0.71851400  0.81493300  0.72210100  1
  S  S54  1  0.22019600  0.85408700  0.37172000  1
  S  S55  1  0.27980400  0.85408700  0.87172000  1
  S  S56  1  0.77980400  0.64591300  0.87172000  1
  S  S57  1  0.72019600  0.64591300  0.37172000  1
  S  S58  1  0.28148600  0.68506700  0.22210100  1
  S  S59  1  0.21851400  0.68506700  0.72210100  1
  S  S60  1  0.26219100  0.67000600  0.01879600  1
  S  S61  1  0.23780900  0.67000600  0.51879600  1
  S  S62  1  0.74311800  0.57359100  0.11600700  1
  S  S63  1  0.75688200  0.57359100  0.61600700  1
  S  S64  1  0.25688200  0.42640900  0.88399300  1
  S  S65  1  0.24311800  0.42640900  0.38399300  1
  S  S66  1  0.73780900  0.32999400  0.98120400  1
  S  S67  1  0.76219100  0.32999400  0.48120400  1
  S  S68  1  0.78148600  0.31493300  0.27789900  1
  S  S69  1  0.71851400  0.31493300  0.77789900  1
  S  S70  1  0.22019600  0.35408700  0.12828000  1
  S  S71  1  0.27980400  0.35408700  0.62828000  1
  S  S72  1  0.77980400  0.14591300  0.62828000  1
  S  S73  1  0.72019600  0.14591300  0.12828000  1
  S  S74  1  0.28148600  0.18506700  0.27789900  1
  S  S75  1  0.21851400  0.18506700  0.77789900  1
  S  S76  1  0.26219100  0.17000600  0.48120400  1
  S  S77  1  0.23780900  0.17000600  0.98120400  1
  S  S78  1  0.74311800  0.07359100  0.38399300  1
  S  S79  1  0.75688200  0.07359100  0.88399300  1
