# generated using pymatgen
data_LiSi4NiO10
_symmetry_space_group_name_H-M   'P 1'
_cell_length_a   5.17931200
_cell_length_b   7.81520200
_cell_length_c   11.90438747
_cell_angle_alpha   67.17747858
_cell_angle_beta   90.00000000
_cell_angle_gamma   90.00000000
_symmetry_Int_Tables_number   1
_chemical_formula_structural   LiSi4NiO10
_chemical_formula_sum   'Li2 Si8 Ni2 O20'
_cell_volume   444.13397007
_cell_formula_units_Z   2
loop_
 _symmetry_equiv_pos_site_id
 _symmetry_equiv_pos_as_xyz
  1  'x, y, z'
loop_
 _atom_site_type_symbol
 _atom_site_label
 _atom_site_symmetry_multiplicity
 _atom_site_fract_x
 _atom_site_fract_y
 _atom_site_fract_z
 _atom_site_occupancy
  Li  Li0  1  0.25877700  0.00000000  0.25000000  1
  Li  Li1  1  0.74122300  0.00000000  0.75000000  1
  Si  Si2  1  0.47638500  0.29346600  0.99971300  1
  Si  Si3  1  0.02123300  0.70638900  0.14867300  1
  Si  Si4  1  0.02123300  0.29361100  0.35132700  1
  Si  Si5  1  0.47638500  0.70653400  0.50028700  1
  Si  Si6  1  0.52361500  0.29346600  0.49971300  1
  Si  Si7  1  0.97876700  0.70638900  0.64867300  1
  Si  Si8  1  0.97876700  0.29361100  0.85132700  1
  Si  Si9  1  0.52361500  0.70653400  0.00028700  1
  Ni  Ni10  1  0.75832300  0.00000000  0.25000000  1
  Ni  Ni11  1  0.24167700  0.00000000  0.75000000  1
  O  O12  1  0.50000000  0.50000000  0.00000000  1
  O  O13  1  0.52045300  0.13695600  0.13566500  1
  O  O14  1  0.99695400  0.85935200  0.20923800  1
  O  O15  1  0.81628500  0.74371500  0.03743700  1
  O  O16  1  0.31738700  0.72422800  0.09867200  1
  O  O17  1  0.99695400  0.14064800  0.29076200  1
  O  O18  1  0.52045300  0.86304400  0.36433500  1
  O  O19  1  0.96577700  0.50000000  0.25000000  1
  O  O20  1  0.31738700  0.27577200  0.40132800  1
  O  O21  1  0.18371500  0.74371500  0.53743700  1
  O  O22  1  0.81628500  0.25628500  0.46256300  1
  O  O23  1  0.68261300  0.72422800  0.59867200  1
  O  O24  1  0.50000000  0.50000000  0.50000000  1
  O  O25  1  0.03422300  0.50000000  0.75000000  1
  O  O26  1  0.47954700  0.13695600  0.63566500  1
  O  O27  1  0.00304600  0.85935200  0.70923800  1
  O  O28  1  0.68261300  0.27577200  0.90132800  1
  O  O29  1  0.18371500  0.25628500  0.96256300  1
  O  O30  1  0.00304600  0.14064800  0.79076200  1
  O  O31  1  0.47954700  0.86304400  0.86433500  1
