# generated using pymatgen
data_Li3MnCu3O8
_symmetry_space_group_name_H-M   'P 1'
_cell_length_a   5.93061191
_cell_length_b   5.93061191
_cell_length_c   5.93061238
_cell_angle_alpha   59.34762389
_cell_angle_beta   59.34762389
_cell_angle_gamma   59.34761992
_symmetry_Int_Tables_number   1
_chemical_formula_structural   Li3MnCu3O8
_chemical_formula_sum   'Li3 Mn1 Cu3 O8'
_cell_volume   145.30672438
_cell_formula_units_Z   1
loop_
 _symmetry_equiv_pos_site_id
 _symmetry_equiv_pos_as_xyz
  1  'x, y, z'
loop_
 _atom_site_type_symbol
 _atom_site_label
 _atom_site_symmetry_multiplicity
 _atom_site_fract_x
 _atom_site_fract_y
 _atom_site_fract_z
 _atom_site_occupancy
  Li  Li0  1  0.00000000  0.50000000  0.00000000  1
  Li  Li1  1  0.00000000  0.00000000  0.50000000  1
  Li  Li2  1  0.50000000  0.00000000  0.00000000  1
  Mn  Mn3  1  0.00000000  0.00000000  0.00000000  1
  Cu  Cu4  1  0.50000000  0.00000000  0.50000000  1
  Cu  Cu5  1  0.50000000  0.50000000  0.00000000  1
  Cu  Cu6  1  0.00000000  0.50000000  0.50000000  1
  O  O7  1  0.26031200  0.26031200  0.26031200  1
  O  O8  1  0.76962400  0.24145400  0.76962400  1
  O  O9  1  0.76962400  0.76962400  0.24145400  1
  O  O10  1  0.73968800  0.73968800  0.73968800  1
  O  O11  1  0.24145400  0.76962400  0.76962400  1
  O  O12  1  0.23037600  0.75854600  0.23037600  1
  O  O13  1  0.23037600  0.23037600  0.75854600  1
  O  O14  1  0.75854600  0.23037600  0.23037600  1
