# generated using pymatgen
data_Li5CrP2(O4F)2
_symmetry_space_group_name_H-M   'P 1'
_cell_length_a   10.05718997
_cell_length_b   10.05718997
_cell_length_c   6.50513000
_cell_angle_alpha   90.00000000
_cell_angle_beta   90.00000000
_cell_angle_gamma   119.99999983
_symmetry_Int_Tables_number   1
_chemical_formula_structural   Li5CrP2(O4F)2
_chemical_formula_sum   'Li15 Cr3 P6 O24 F6'
_cell_volume   569.82292795
_cell_formula_units_Z   3
loop_
 _symmetry_equiv_pos_site_id
 _symmetry_equiv_pos_as_xyz
  1  'x, y, z'
loop_
 _atom_site_type_symbol
 _atom_site_label
 _atom_site_symmetry_multiplicity
 _atom_site_fract_x
 _atom_site_fract_y
 _atom_site_fract_z
 _atom_site_occupancy
  Li  Li0  1  0.83422900  0.16768200  0.50349900  1
  Li  Li1  1  0.00000000  0.00000000  0.54697100  1
  Li  Li2  1  0.00000000  0.00000000  0.96628200  1
  Li  Li3  1  0.66666700  0.33333300  0.46303800  1
  Li  Li4  1  0.66666700  0.33333300  0.04452800  1
  Li  Li5  1  0.83231800  0.66654700  0.50349900  1
  Li  Li6  1  0.33345300  0.16577100  0.50349900  1
  Li  Li7  1  0.13428700  0.81618100  0.74142800  1
  Li  Li8  1  0.99027100  0.47326400  0.26781200  1
  Li  Li9  1  0.48299300  0.00972900  0.26781200  1
  Li  Li10  1  0.33333300  0.66666700  0.96704700  1
  Li  Li11  1  0.33333300  0.66666700  0.48658800  1
  Li  Li12  1  0.18381900  0.31810600  0.74142800  1
  Li  Li13  1  0.68189400  0.86571300  0.74142800  1
  Li  Li14  1  0.52673600  0.51700700  0.26781200  1
  Cr  Cr15  1  0.83438600  0.16724800  0.00506800  1
  Cr  Cr16  1  0.83275200  0.66713800  0.00506800  1
  Cr  Cr17  1  0.33286200  0.16561400  0.00506800  1
  P  P18  1  0.70342500  0.85775900  0.26535500  1
  P  P19  1  0.15433400  0.29657500  0.26535500  1
  P  P20  1  0.96413500  0.47771100  0.74536800  1
  P  P21  1  0.14224100  0.84566600  0.26535500  1
  P  P22  1  0.51357500  0.03586500  0.74536800  1
  P  P23  1  0.52228900  0.48642500  0.74536800  1
  O  O24  1  0.68252300  0.06743100  0.76968000  1
  O  O25  1  0.78766500  0.95990800  0.07367800  1
  O  O26  1  0.78514900  0.94590600  0.46250400  1
  O  O27  1  0.98717500  0.26860700  0.23950200  1
  O  O28  1  0.73139300  0.71856700  0.23950200  1
  O  O29  1  0.16075700  0.21485100  0.46250400  1
  O  O30  1  0.17224300  0.21233500  0.07367800  1
  O  O31  1  0.93256900  0.61509200  0.76968000  1
  O  O32  1  0.04009200  0.82775700  0.07367800  1
  O  O33  1  0.05409400  0.83924300  0.46250400  1
  O  O34  1  0.88521600  0.38990500  0.54715300  1
  O  O35  1  0.88021300  0.37457100  0.93594400  1
  O  O36  1  0.28143300  0.01282500  0.23950200  1
  O  O37  1  0.38490800  0.31747700  0.76968000  1
  O  O38  1  0.19620900  0.72717900  0.26538400  1
  O  O39  1  0.13750700  0.53500300  0.74856000  1
  O  O40  1  0.49435800  0.11978700  0.93594400  1
  O  O41  1  0.50468900  0.11478400  0.54715300  1
  O  O42  1  0.39749600  0.86249300  0.74856000  1
  O  O43  1  0.27282100  0.46903000  0.26538400  1
  O  O44  1  0.53097000  0.80379100  0.26538400  1
  O  O45  1  0.46499700  0.60250400  0.74856000  1
  O  O46  1  0.61009500  0.49531100  0.54715300  1
  O  O47  1  0.62542900  0.50564200  0.93594400  1
  F  F48  1  0.69874500  0.17563400  0.22092900  1
  F  F49  1  0.96945300  0.15811300  0.78888900  1
  F  F50  1  0.84188700  0.81134000  0.78888900  1
  F  F51  1  0.82436600  0.52311100  0.22092900  1
  F  F52  1  0.18866000  0.03054700  0.78888900  1
  F  F53  1  0.47688900  0.30125500  0.22092900  1
