# generated using pymatgen
data_Li3Fe2(PO4)3
_symmetry_space_group_name_H-M   'P 1'
_cell_length_a   9.16417137
_cell_length_b   9.16417137
_cell_length_c   16.30304488
_cell_angle_alpha   65.25844216
_cell_angle_beta   65.25844216
_cell_angle_gamma   57.79979176
_symmetry_Int_Tables_number   1
_chemical_formula_structural   Li3Fe2(PO4)3
_chemical_formula_sum   'Li12 Fe8 P12 O48'
_cell_volume   1017.60605741
_cell_formula_units_Z   4
loop_
 _symmetry_equiv_pos_site_id
 _symmetry_equiv_pos_as_xyz
  1  'x, y, z'
loop_
 _atom_site_type_symbol
 _atom_site_label
 _atom_site_symmetry_multiplicity
 _atom_site_fract_x
 _atom_site_fract_y
 _atom_site_fract_z
 _atom_site_occupancy
  Li  Li0  1  0.10489000  0.31723900  0.40150100  1
  Li  Li1  1  0.19954700  0.54057000  0.80459700  1
  Li  Li2  1  0.59407500  0.40592500  0.50000000  1
  Li  Li3  1  0.45943000  0.80045300  0.19540300  1
  Li  Li4  1  0.68276100  0.89511000  0.59849900  1
  Li  Li5  1  0.99615100  0.99645400  0.25466300  1
  Li  Li6  1  0.31844000  0.10197000  0.90288400  1
  Li  Li7  1  0.54599700  0.19726400  0.30471500  1
  Li  Li8  1  0.40348600  0.59651400  0.00000000  1
  Li  Li9  1  0.80273600  0.45400300  0.69528500  1
  Li  Li10  1  0.89803000  0.68156000  0.09711600  1
  Li  Li11  1  0.00354600  0.00384900  0.74533700  1
  Fe  Fe12  1  0.24388000  0.24119100  0.22127000  1
  Fe  Fe13  1  0.64997100  0.15867800  0.91765700  1
  Fe  Fe14  1  0.84132200  0.35002900  0.08234300  1
  Fe  Fe15  1  0.75880900  0.75612000  0.77873000  1
  Fe  Fe16  1  0.24245300  0.24093900  0.72223100  1
  Fe  Fe17  1  0.16178900  0.64548000  0.41738800  1
  Fe  Fe18  1  0.35452000  0.83821100  0.58261200  1
  Fe  Fe19  1  0.75906100  0.75754700  0.27776900  1
  P  P20  1  0.33817700  0.89219000  0.37692300  1
  P  P21  1  0.26057300  0.21796600  0.05844600  1
  P  P22  1  0.62608000  0.18895400  0.72191300  1
  P  P23  1  0.81104600  0.37392000  0.27808700  1
  P  P24  1  0.78203400  0.73942700  0.94155400  1
  P  P25  1  0.10781000  0.66182300  0.62307700  1
  P  P26  1  0.89456900  0.33594900  0.87733000  1
  P  P27  1  0.21676500  0.25670800  0.56026200  1
  P  P28  1  0.18900600  0.62576200  0.22147500  1
  P  P29  1  0.37423800  0.81099400  0.77852500  1
  P  P30  1  0.74329200  0.78323500  0.43973800  1
  P  P31  1  0.66405100  0.10543100  0.12267000  1
  O  O32  1  0.19916300  0.38804500  0.46166500  1
  O  O33  1  0.05701500  0.32774100  0.64235500  1
  O  O34  1  0.86968400  0.18299800  0.87635200  1
  O  O35  1  0.50005100  0.18460700  0.20149600  1
  O  O36  1  0.17291700  0.44375000  0.26690800  1
  O  O37  1  0.60306100  0.20559200  0.03303900  1
  O  O38  1  0.27223400  0.09617100  0.35512800  1
  O  O39  1  0.21127800  0.38410800  0.08689800  1
  O  O40  1  0.63963100  0.27466900  0.78334000  1
  O  O41  1  0.78066300  0.90477300  0.94782000  1
  O  O42  1  0.64405400  0.29832800  0.62171000  1
  O  O43  1  0.39145200  0.20080300  0.95987700  1
  O  O44  1  0.00609600  0.22170200  0.26605300  1
  O  O45  1  0.33201700  0.05764000  0.14041900  1
  O  O46  1  0.77829800  0.99390400  0.73394700  1
  O  O47  1  0.18613600  0.86582700  0.37579300  1
  O  O48  1  0.70167200  0.35594600  0.37829000  1
  O  O49  1  0.18527800  0.49750700  0.70121900  1
  O  O50  1  0.09522700  0.21933700  0.05218000  1
  O  O51  1  0.44430200  0.17217600  0.76807200  1
  O  O52  1  0.20822100  0.59999000  0.53268700  1
  O  O53  1  0.72533100  0.36036900  0.21666000  1
  O  O54  1  0.90382900  0.72776600  0.64487200  1
  O  O55  1  0.61589200  0.78872200  0.91310200  1
  O  O56  1  0.38366200  0.20730400  0.58811100  1
  O  O57  1  0.09880800  0.27010700  0.85550300  1
  O  O58  1  0.27750800  0.63652100  0.28251300  1
  O  O59  1  0.79440800  0.39693900  0.96696100  1
  O  O60  1  0.55625000  0.82708300  0.73309200  1
  O  O61  1  0.90789300  0.77654400  0.44828400  1
  O  O62  1  0.81539300  0.49994900  0.79850400  1
  O  O63  1  0.29453800  0.64684700  0.12035500  1
  O  O64  1  0.81700200  0.13031600  0.12364800  1
  O  O65  1  0.22304300  0.00386900  0.76529300  1
  O  O66  1  0.67225900  0.94298500  0.35764500  1
  O  O67  1  0.99613100  0.77695700  0.23470700  1
  O  O68  1  0.61195500  0.80083700  0.53833500  1
  O  O69  1  0.35315300  0.70546200  0.87964500  1
  O  O70  1  0.22345600  0.09210700  0.55171600  1
  O  O71  1  0.36347900  0.72249200  0.71748700  1
  O  O72  1  0.79269600  0.61633800  0.41188900  1
  O  O73  1  0.72989300  0.90119200  0.14449700  1
  O  O74  1  0.40001000  0.79177900  0.46731300  1
  O  O75  1  0.82782400  0.55569800  0.23192800  1
  O  O76  1  0.50249300  0.81472200  0.29878100  1
  O  O77  1  0.13417300  0.81386400  0.62420700  1
  O  O78  1  0.94236000  0.66798300  0.85958100  1
  O  O79  1  0.79919700  0.60854800  0.04012300  1
