# generated using pymatgen
data_Ba10LiW7O30
_symmetry_space_group_name_H-M   'P 1'
_cell_length_a   5.89751893
_cell_length_b   5.89812100
_cell_length_c   24.94210627
_cell_angle_alpha   89.96826972
_cell_angle_beta   89.96591045
_cell_angle_gamma   60.16787561
_symmetry_Int_Tables_number   1
_chemical_formula_structural   Ba10LiW7O30
_chemical_formula_sum   'Ba10 Li1 W7 O30'
_cell_volume   752.62538685
_cell_formula_units_Z   1
loop_
 _symmetry_equiv_pos_site_id
 _symmetry_equiv_pos_as_xyz
  1  'x, y, z'
loop_
 _atom_site_type_symbol
 _atom_site_label
 _atom_site_symmetry_multiplicity
 _atom_site_fract_x
 _atom_site_fract_y
 _atom_site_fract_z
 _atom_site_occupancy
  Ba  Ba0  1  0.33429800  0.33433500  0.46069600  1
  Ba  Ba1  1  0.33201900  0.33157600  0.03104100  1
  Ba  Ba2  1  0.33327100  0.33337900  0.75950500  1
  Ba  Ba3  1  0.99972700  0.99947400  0.14802100  1
  Ba  Ba4  1  0.00153000  0.00166800  0.35172000  1
  Ba  Ba5  1  0.00006600  0.00013500  0.64945800  1
  Ba  Ba6  1  0.99985600  0.99988100  0.85890400  1
  Ba  Ba7  1  0.66698400  0.66703400  0.25103800  1
  Ba  Ba8  1  0.66716000  0.66725900  0.55097700  1
  Ba  Ba9  1  0.66624100  0.66615700  0.94244200  1
  Li  Li10  1  0.66690400  0.66701500  0.81881400  1
  W  W11  1  0.33419000  0.33425200  0.19628200  1
  W  W12  1  0.33319700  0.33321500  0.89724600  1
  W  W13  1  0.66603900  0.66560800  0.10034500  1
  W  W14  1  0.66816600  0.66836700  0.40032900  1
  W  W15  1  0.66652600  0.66655800  0.70089700  1
  W  W16  1  0.33349600  0.33358200  0.30511400  1
  W  W17  1  0.33350800  0.33358300  0.59992900  1
  O  O18  1  0.99722800  0.50141000  0.64772200  1
  O  O19  1  0.01810700  0.49078800  0.85057100  1
  O  O20  1  0.51056000  0.98329800  0.34719900  1
  O  O21  1  0.50208000  0.99464200  0.15631700  1
  O  O22  1  0.35584200  0.82149600  0.73841000  1
  O  O23  1  0.17702000  0.64384400  0.24775900  1
  O  O24  1  0.35560300  0.82204000  0.06447800  1
  O  O25  1  0.35497600  0.82063500  0.43754600  1
  O  O26  1  0.18203700  0.63768900  0.55819900  1
  O  O27  1  0.18064100  0.63820200  0.94298700  1
  O  O28  1  0.50328300  0.50349800  0.34708800  1
  O  O29  1  0.18013600  0.18012200  0.94295100  1
  O  O30  1  0.82286000  0.82271200  0.06527700  1
  O  O31  1  0.82228600  0.82210700  0.43892500  1
  O  O32  1  0.18126600  0.18136400  0.55817800  1
  O  O33  1  0.50491100  0.50485400  0.15591000  1
  O  O34  1  0.50127700  0.50127500  0.64780900  1
  O  O35  1  0.49111600  0.49112100  0.85060000  1
  O  O36  1  0.82213500  0.82211100  0.73843600  1
  O  O37  1  0.17955500  0.17945200  0.24977600  1
  O  O38  1  0.82226500  0.35541800  0.06442600  1
  O  O39  1  0.82069200  0.35496600  0.43750000  1
  O  O40  1  0.63765800  0.18207800  0.55820300  1
  O  O41  1  0.63825700  0.18059200  0.94298200  1
  O  O42  1  0.82151600  0.35585700  0.73839700  1
  O  O43  1  0.64375500  0.17702200  0.24786100  1
  O  O44  1  0.50143900  0.99714200  0.64771300  1
  O  O45  1  0.49072200  0.01817000  0.85056600  1
  O  O46  1  0.99426000  0.50229000  0.15630400  1
  O  O47  1  0.98359500  0.51047500  0.34715900  1
