# generated using pymatgen
data_LiLa6Mn3O14
_symmetry_space_group_name_H-M   'P 1'
_cell_length_a   5.60092900
_cell_length_b   5.59662300
_cell_length_c   21.28143250
_cell_angle_alpha   74.94203110
_cell_angle_beta   90.00000000
_cell_angle_gamma   90.00000000
_symmetry_Int_Tables_number   1
_chemical_formula_structural   LiLa6Mn3O14
_chemical_formula_sum   'Li2 La12 Mn6 O28'
_cell_volume   644.18822478
_cell_formula_units_Z   2
loop_
 _symmetry_equiv_pos_site_id
 _symmetry_equiv_pos_as_xyz
  1  'x, y, z'
loop_
 _atom_site_type_symbol
 _atom_site_label
 _atom_site_symmetry_multiplicity
 _atom_site_fract_x
 _atom_site_fract_y
 _atom_site_fract_z
 _atom_site_occupancy
  Li  Li0  1  0.99441400  0.14997200  0.59418700  1
  Li  Li1  1  0.00558600  0.14997200  0.09418700  1
  La  La2  1  0.47777500  0.08082400  0.67939200  1
  La  La3  1  0.48615700  0.44341900  0.31770100  1
  La  La4  1  0.51823200  0.25289000  0.50511900  1
  La  La5  1  0.48176800  0.25289000  0.00511900  1
  La  La6  1  0.51384300  0.44341900  0.81770100  1
  La  La7  1  0.52222500  0.08082400  0.17939200  1
  La  La8  1  0.98738100  0.91751200  0.81741600  1
  La  La9  1  0.99027100  0.54963900  0.17916700  1
  La  La10  1  0.99117700  0.76249100  0.00502200  1
  La  La11  1  0.00882300  0.76249100  0.50502200  1
  La  La12  1  0.00972900  0.54963900  0.67916700  1
  La  La13  1  0.01261900  0.91751200  0.31741600  1
  Mn  Mn14  1  0.49502400  0.85179000  0.90215200  1
  Mn  Mn15  1  0.49535400  0.65738600  0.09694600  1
  Mn  Mn16  1  0.50464600  0.65738600  0.59694600  1
  Mn  Mn17  1  0.50497600  0.85179000  0.40215200  1
  Mn  Mn18  1  0.99863300  0.34370800  0.40385600  1
  Mn  Mn19  1  0.00136700  0.34370800  0.90385600  1
  O  O20  1  0.25295900  0.11798600  0.87905700  1
  O  O21  1  0.25198800  0.59999800  0.90080900  1
  O  O22  1  0.26139000  0.42732600  0.58254500  1
  O  O23  1  0.25693800  0.89567600  0.59745100  1
  O  O24  1  0.25565000  0.58336000  0.42041000  1
  O  O25  1  0.25212100  0.09617300  0.40086600  1
  O  O26  1  0.25987200  0.87398200  0.11733200  1
  O  O27  1  0.25678300  0.40911500  0.09730900  1
  O  O28  1  0.44634200  0.80640900  0.99656800  1
  O  O29  1  0.45056200  0.49227700  0.70743300  1
  O  O30  1  0.45468100  0.90499700  0.29694500  1
  O  O31  1  0.54531900  0.90499700  0.79694500  1
  O  O32  1  0.54943800  0.49227700  0.20743300  1
  O  O33  1  0.55365800  0.80640900  0.49656800  1
  O  O34  1  0.74787900  0.09617300  0.90086600  1
  O  O35  1  0.74435000  0.58336000  0.92041000  1
  O  O36  1  0.74012800  0.87398200  0.61733200  1
  O  O37  1  0.74321700  0.40911500  0.59730900  1
  O  O38  1  0.74801200  0.59999800  0.40080900  1
  O  O39  1  0.74704100  0.11798600  0.37905700  1
  O  O40  1  0.74306200  0.89567600  0.09745100  1
  O  O41  1  0.73861000  0.42732600  0.08254500  1
  O  O42  1  0.93414800  0.18338500  0.49959500  1
  O  O43  1  0.94672900  0.50580300  0.79351400  1
  O  O44  1  0.94440200  0.09382900  0.20925500  1
  O  O45  1  0.05559800  0.09382900  0.70925500  1
  O  O46  1  0.05327100  0.50580300  0.29351400  1
  O  O47  1  0.06585200  0.18338500  0.99959500  1
