# generated using pymatgen
data_LiFeP2O7
_symmetry_space_group_name_H-M   'P 1'
_cell_length_a   10.16915000
_cell_length_b   7.12046700
_cell_length_c   8.08470566
_cell_angle_alpha   68.87971842
_cell_angle_beta   90.00000000
_cell_angle_gamma   90.00000000
_symmetry_Int_Tables_number   1
_chemical_formula_structural   LiFeP2O7
_chemical_formula_sum   'Li4 Fe4 P8 O28'
_cell_volume   546.08218370
_cell_formula_units_Z   4
loop_
 _symmetry_equiv_pos_site_id
 _symmetry_equiv_pos_as_xyz
  1  'x, y, z'
loop_
 _atom_site_type_symbol
 _atom_site_label
 _atom_site_symmetry_multiplicity
 _atom_site_fract_x
 _atom_site_fract_y
 _atom_site_fract_z
 _atom_site_occupancy
  Li  Li0  1  0.84342800  0.89664500  0.55241500  1
  Li  Li1  1  0.65657200  0.89664500  0.05241500  1
  Li  Li2  1  0.34342800  0.10335500  0.94758500  1
  Li  Li3  1  0.15657200  0.10335500  0.44758500  1
  Fe  Fe4  1  0.39385800  0.76441700  0.75530400  1
  Fe  Fe5  1  0.10614200  0.76441700  0.25530400  1
  Fe  Fe6  1  0.89385800  0.23558300  0.74469600  1
  Fe  Fe7  1  0.60614200  0.23558300  0.24469600  1
  P  P8  1  0.09031000  0.86099500  0.81328800  1
  P  P9  1  0.40969000  0.86099500  0.31328800  1
  P  P10  1  0.14660400  0.53051900  0.70404400  1
  P  P11  1  0.64660400  0.46948100  0.79595600  1
  P  P12  1  0.35339600  0.53051900  0.20404400  1
  P  P13  1  0.85339600  0.46948100  0.29595600  1
  P  P14  1  0.59031000  0.13900500  0.68671200  1
  P  P15  1  0.90969000  0.13900500  0.18671200  1
  O  O16  1  0.46933500  0.02573500  0.79030900  1
  O  O17  1  0.21654100  0.93835200  0.70349700  1
  O  O18  1  0.03066500  0.02573500  0.29030900  1
  O  O19  1  0.39877000  0.86832600  0.49697500  1
  O  O20  1  0.28345900  0.93835200  0.20349700  1
  O  O21  1  0.07095800  0.62971600  0.83118900  1
  O  O22  1  0.58068800  0.67297000  0.75691700  1
  O  O23  1  0.10123000  0.86832600  0.99697500  1
  O  O24  1  0.12382200  0.67575700  0.51427500  1
  O  O25  1  0.29159800  0.50936500  0.76194500  1
  O  O26  1  0.42904200  0.62971600  0.33118900  1
  O  O27  1  0.91931200  0.67297000  0.25691700  1
  O  O28  1  0.37617800  0.67575700  0.01427500  1
  O  O29  1  0.79159800  0.49063500  0.73805500  1
  O  O30  1  0.20840200  0.50936500  0.26194500  1
  O  O31  1  0.62382200  0.32424300  0.98572500  1
  O  O32  1  0.08068800  0.32703000  0.74308300  1
  O  O33  1  0.57095800  0.37028400  0.66881100  1
  O  O34  1  0.70840200  0.49063500  0.23805500  1
  O  O35  1  0.87617800  0.32424300  0.48572500  1
  O  O36  1  0.89877000  0.13167400  0.00302500  1
  O  O37  1  0.41931200  0.32703000  0.24308300  1
  O  O38  1  0.92904200  0.37028400  0.16881100  1
  O  O39  1  0.71654100  0.06164800  0.79650300  1
  O  O40  1  0.60123000  0.13167400  0.50302500  1
  O  O41  1  0.96933500  0.97426500  0.70969100  1
  O  O42  1  0.78345900  0.06164800  0.29650300  1
  O  O43  1  0.53066500  0.97426500  0.20969100  1
