# generated using pymatgen
data_Li2Fe2C2O7
_symmetry_space_group_name_H-M   'P 1'
_cell_length_a   6.60875700
_cell_length_b   9.11094600
_cell_length_c   10.70430407
_cell_angle_alpha   78.30365066
_cell_angle_beta   90.00000000
_cell_angle_gamma   90.00000000
_symmetry_Int_Tables_number   1
_chemical_formula_structural   Li2Fe2C2O7
_chemical_formula_sum   'Li8 Fe8 C8 O28'
_cell_volume   631.14470696
_cell_formula_units_Z   4
loop_
 _symmetry_equiv_pos_site_id
 _symmetry_equiv_pos_as_xyz
  1  'x, y, z'
loop_
 _atom_site_type_symbol
 _atom_site_label
 _atom_site_symmetry_multiplicity
 _atom_site_fract_x
 _atom_site_fract_y
 _atom_site_fract_z
 _atom_site_occupancy
  Li  Li0  1  0.20611300  0.95171900  0.51544900  1
  Li  Li1  1  0.29388700  0.95171900  0.01544900  1
  Li  Li2  1  0.18760300  0.37511300  0.57858000  1
  Li  Li3  1  0.68760300  0.62488700  0.92142000  1
  Li  Li4  1  0.31239700  0.37511300  0.07858000  1
  Li  Li5  1  0.81239700  0.62488700  0.42142000  1
  Li  Li6  1  0.70611300  0.04828100  0.98455100  1
  Li  Li7  1  0.79388700  0.04828100  0.48455100  1
  Fe  Fe8  1  0.10284500  0.97866500  0.75974900  1
  Fe  Fe9  1  0.42055300  0.71633600  0.67502100  1
  Fe  Fe10  1  0.39715500  0.97866500  0.25974900  1
  Fe  Fe11  1  0.07944700  0.71633600  0.17502100  1
  Fe  Fe12  1  0.92055300  0.28366400  0.82497900  1
  Fe  Fe13  1  0.60284500  0.02133500  0.74025100  1
  Fe  Fe14  1  0.57944700  0.28366400  0.32497900  1
  Fe  Fe15  1  0.89715500  0.02133500  0.24025100  1
  C  C16  1  0.80494900  0.78187600  0.64338600  1
  C  C17  1  0.75430900  0.32742900  0.55164000  1
  C  C18  1  0.25430900  0.67257100  0.94836000  1
  C  C19  1  0.69505100  0.78187600  0.14338600  1
  C  C20  1  0.30494900  0.21812400  0.85661400  1
  C  C21  1  0.74569100  0.32742900  0.05164000  1
  C  C22  1  0.24569100  0.67257100  0.44836000  1
  C  C23  1  0.19505100  0.21812400  0.35661400  1
  O  O24  1  0.35870200  0.93743200  0.67131300  1
  O  O25  1  0.95716900  0.86998800  0.60406600  1
  O  O26  1  0.71484800  0.70639200  0.57073100  1
  O  O27  1  0.27510300  0.58872800  0.56196000  1
  O  O28  1  0.72970400  0.77969600  0.75716700  1
  O  O29  1  0.17438100  0.80540100  0.92489300  1
  O  O30  1  0.36564600  0.62134900  0.86740100  1
  O  O31  1  0.86564600  0.37865100  0.63259900  1
  O  O32  1  0.14129800  0.93743200  0.17131300  1
  O  O33  1  0.54283100  0.86998800  0.10406600  1
  O  O34  1  0.67438100  0.19459900  0.57510700  1
  O  O35  1  0.78515200  0.70639200  0.07073100  1
  O  O36  1  0.22489700  0.58872800  0.06196000  1
  O  O37  1  0.77029600  0.77969600  0.25716700  1
  O  O38  1  0.22970400  0.22030400  0.74283300  1
  O  O39  1  0.77510300  0.41127200  0.93804000  1
  O  O40  1  0.21484800  0.29360800  0.92926900  1
  O  O41  1  0.32561900  0.80540100  0.42489300  1
  O  O42  1  0.45716900  0.13001200  0.89593400  1
  O  O43  1  0.85870200  0.06256800  0.82868700  1
  O  O44  1  0.13435400  0.62134900  0.36740100  1
  O  O45  1  0.63435400  0.37865100  0.13259900  1
  O  O46  1  0.82561900  0.19459900  0.07510700  1
  O  O47  1  0.27029600  0.22030400  0.24283300  1
  O  O48  1  0.72489700  0.41127200  0.43804000  1
  O  O49  1  0.28515200  0.29360800  0.42926900  1
  O  O50  1  0.04283100  0.13001200  0.39593400  1
  O  O51  1  0.64129800  0.06256800  0.32868700  1
