# generated using pymatgen
data_Li3VSiCO7
_symmetry_space_group_name_H-M   'P 1'
_cell_length_a   6.48682902
_cell_length_b   10.12094134
_cell_length_c   8.39574445
_cell_angle_alpha   85.21155712
_cell_angle_beta   90.00066453
_cell_angle_gamma   89.99006966
_symmetry_Int_Tables_number   1
_chemical_formula_structural   Li3VSiCO7
_chemical_formula_sum   'Li12 V4 Si4 C4 O28'
_cell_volume   549.28039875
_cell_formula_units_Z   4
loop_
 _symmetry_equiv_pos_site_id
 _symmetry_equiv_pos_as_xyz
  1  'x, y, z'
loop_
 _atom_site_type_symbol
 _atom_site_label
 _atom_site_symmetry_multiplicity
 _atom_site_fract_x
 _atom_site_fract_y
 _atom_site_fract_z
 _atom_site_occupancy
  Li  Li0  1  0.25000200  0.38756000  0.10871700  1
  Li  Li1  1  0.24996000  0.88707800  0.10870400  1
  Li  Li2  1  0.75002500  0.11292400  0.89120500  1
  Li  Li3  1  0.74991100  0.61327300  0.89113500  1
  Li  Li4  1  0.03617800  0.12224000  0.29186700  1
  Li  Li5  1  0.03671200  0.62173100  0.29207300  1
  Li  Li6  1  0.46334900  0.12201200  0.29212600  1
  Li  Li7  1  0.46340300  0.62173600  0.29203700  1
  Li  Li8  1  0.53631800  0.37747300  0.70785100  1
  Li  Li9  1  0.53641000  0.87757100  0.70795200  1
  Li  Li10  1  0.96362100  0.37753200  0.70777900  1
  Li  Li11  1  0.96358400  0.87753700  0.70798200  1
  V  V12  1  0.74998700  0.90324700  0.31990500  1
  V  V13  1  0.25006400  0.59660500  0.68007700  1
  V  V14  1  0.75000200  0.40336400  0.31980400  1
  V  V15  1  0.24990200  0.09668300  0.68033000  1
  Si  Si16  1  0.25005900  0.35701200  0.42048700  1
  Si  Si17  1  0.24999700  0.85707400  0.42048500  1
  Si  Si18  1  0.74993800  0.14290400  0.57957100  1
  Si  Si19  1  0.75007100  0.64259200  0.57962800  1
  C  C20  1  0.75014200  0.35022800  0.02961900  1
  C  C21  1  0.74996600  0.84996000  0.02989400  1
  C  C22  1  0.25000200  0.15034800  0.97018800  1
  C  C23  1  0.24998500  0.65017000  0.97011900  1
  O  O24  1  0.25015400  0.18340900  0.11484300  1
  O  O25  1  0.24998400  0.68297900  0.11490800  1
  O  O26  1  0.74995100  0.31667500  0.88516200  1
  O  O27  1  0.74994100  0.81705100  0.88510700  1
  O  O28  1  0.74969900  0.47307000  0.06464400  1
  O  O29  1  0.74995100  0.97273700  0.06546700  1
  O  O30  1  0.24995600  0.02753400  0.93476300  1
  O  O31  1  0.24999600  0.52741000  0.93441200  1
  O  O32  1  0.75078600  0.26028800  0.15120900  1
  O  O33  1  0.75001800  0.75982300  0.15104900  1
  O  O34  1  0.24989200  0.24037100  0.84885100  1
  O  O35  1  0.24998700  0.74035700  0.84904200  1
  O  O36  1  0.24981700  0.19377300  0.44931300  1
  O  O37  1  0.24998700  0.69387900  0.44958500  1
  O  O38  1  0.75004900  0.30611500  0.55098300  1
  O  O39  1  0.75001600  0.80578800  0.55037200  1
  O  O40  1  0.74985200  0.08172400  0.40522200  1
  O  O41  1  0.75000900  0.58114000  0.40545300  1
  O  O42  1  0.25007400  0.41842400  0.59473200  1
  O  O43  1  0.25000300  0.91814400  0.59484200  1
  O  O44  1  0.05597800  0.41049500  0.30475500  1
  O  O45  1  0.05578300  0.91006100  0.30475000  1
  O  O46  1  0.44438000  0.41019600  0.30481400  1
  O  O47  1  0.44420300  0.91000200  0.30475200  1
  O  O48  1  0.55569500  0.09004300  0.69532500  1
  O  O49  1  0.55582400  0.58987000  0.69538500  1
  O  O50  1  0.94416000  0.08994100  0.69531500  1
  O  O51  1  0.94426500  0.58984700  0.69540800  1
