# generated using pymatgen
data_Li6AlFeO6
_symmetry_space_group_name_H-M   'P 1'
_cell_length_a   5.40786706
_cell_length_b   9.36257997
_cell_length_c   9.78452429
_cell_angle_alpha   89.99660567
_cell_angle_beta   89.97225290
_cell_angle_gamma   90.00699097
_symmetry_Int_Tables_number   1
_chemical_formula_structural   Li6AlFeO6
_chemical_formula_sum   'Li24 Al4 Fe4 O24'
_cell_volume   495.40593808
_cell_formula_units_Z   4
loop_
 _symmetry_equiv_pos_site_id
 _symmetry_equiv_pos_as_xyz
  1  'x, y, z'
loop_
 _atom_site_type_symbol
 _atom_site_label
 _atom_site_symmetry_multiplicity
 _atom_site_fract_x
 _atom_site_fract_y
 _atom_site_fract_z
 _atom_site_occupancy
  Li  Li0  1  0.85084700  0.46891100  0.42539800  1
  Li  Li1  1  0.35084400  0.96891000  0.42540700  1
  Li  Li2  1  0.85096400  0.53141100  0.92409300  1
  Li  Li3  1  0.35096700  0.03140900  0.92408200  1
  Li  Li4  1  0.37754500  0.31067700  0.92541100  1
  Li  Li5  1  0.87754300  0.81068500  0.92540500  1
  Li  Li6  1  0.15748500  0.46886800  0.07710000  1
  Li  Li7  1  0.65748600  0.96886600  0.07708900  1
  Li  Li8  1  0.78553800  0.84199500  0.42577900  1
  Li  Li9  1  0.28554000  0.34199800  0.42577600  1
  Li  Li10  1  0.15912900  0.53071600  0.57724200  1
  Li  Li11  1  0.65912600  0.03071600  0.57725300  1
  Li  Li12  1  0.63252000  0.30974400  0.57810500  1
  Li  Li13  1  0.13252100  0.80975200  0.57811100  1
  Li  Li14  1  0.37903900  0.68945900  0.42352400  1
  Li  Li15  1  0.87904200  0.18946800  0.42353100  1
  Li  Li16  1  0.28482300  0.65761600  0.92476600  1
  Li  Li17  1  0.78482500  0.15761200  0.92476100  1
  Li  Li18  1  0.72477200  0.34201400  0.07725500  1
  Li  Li19  1  0.22477400  0.84201000  0.07725100  1
  Li  Li20  1  0.63095300  0.68899700  0.07899200  1
  Li  Li21  1  0.13095200  0.18900500  0.07898400  1
  Li  Li22  1  0.22534000  0.15728900  0.57784900  1
  Li  Li23  1  0.72534400  0.65729300  0.57784300  1
  Al  Al24  1  0.50539200  0.83273400  0.75139300  1
  Al  Al25  1  0.00539300  0.33272200  0.75139300  1
  Al  Al26  1  0.00429200  0.66620900  0.25140600  1
  Al  Al27  1  0.50428900  0.16622000  0.25140500  1
  Fe  Fe28  1  0.00419100  0.99909400  0.25122700  1
  Fe  Fe29  1  0.50487100  0.49921300  0.75108200  1
  Fe  Fe30  1  0.50419300  0.49909200  0.25123000  1
  Fe  Fe31  1  0.00487200  0.99921400  0.75108200  1
  O  O32  1  0.82663100  0.52730000  0.13464500  1
  O  O33  1  0.32662300  0.02730800  0.13464300  1
  O  O34  1  0.82756900  0.47169700  0.63461100  1
  O  O35  1  0.32757500  0.97170600  0.63461400  1
  O  O36  1  0.38473400  0.32496300  0.13472400  1
  O  O37  1  0.88474300  0.82496300  0.13472200  1
  O  O38  1  0.18271800  0.52739100  0.36833900  1
  O  O39  1  0.68272300  0.02740000  0.36834000  1
  O  O40  1  0.18218300  0.47201400  0.86771800  1
  O  O41  1  0.68217600  0.97202200  0.86771600  1
  O  O42  1  0.80311000  0.85198500  0.63474100  1
  O  O43  1  0.30310800  0.35198300  0.63474100  1
  O  O44  1  0.38626600  0.67421400  0.63453400  1
  O  O45  1  0.88626000  0.17421300  0.63453600  1
  O  O46  1  0.70671700  0.35216500  0.86774300  1
  O  O47  1  0.20671400  0.85216600  0.86774400  1
  O  O48  1  0.30166000  0.64701300  0.13491600  1
  O  O49  1  0.80165900  0.14701500  0.13491500  1
  O  O50  1  0.62429800  0.32495600  0.36797200  1
  O  O51  1  0.12428900  0.82495400  0.36797400  1
  O  O52  1  0.20757700  0.14729900  0.36771000  1
  O  O53  1  0.70757500  0.64729600  0.36770900  1
  O  O54  1  0.62400600  0.67463500  0.86806800  1
  O  O55  1  0.12401400  0.17463300  0.86806700  1
