# generated using pymatgen
data_Li2CuBiO4
_symmetry_space_group_name_H-M   'P 1'
_cell_length_a   5.59373413
_cell_length_b   5.59373413
_cell_length_c   5.59373413
_cell_angle_alpha   134.23035197
_cell_angle_beta   134.23035197
_cell_angle_gamma   66.72843988
_symmetry_Int_Tables_number   1
_chemical_formula_structural   Li2CuBiO4
_chemical_formula_sum   'Li2 Cu1 Bi1 O4'
_cell_volume   88.42653045
_cell_formula_units_Z   1
loop_
 _symmetry_equiv_pos_site_id
 _symmetry_equiv_pos_as_xyz
  1  'x, y, z'
loop_
 _atom_site_type_symbol
 _atom_site_label
 _atom_site_symmetry_multiplicity
 _atom_site_fract_x
 _atom_site_fract_y
 _atom_site_fract_z
 _atom_site_occupancy
  Li  Li0  1  0.25000000  0.75000000  0.50000000  1
  Li  Li1  1  0.50000000  0.50000000  0.00000000  1
  Cu  Cu2  1  0.75000000  0.25000000  0.50000000  1
  Bi  Bi3  1  0.00000000  0.00000000  0.00000000  1
  O  O4  1  0.99793700  0.49793700  0.50000000  1
  O  O5  1  0.23831200  0.23831200  0.00000000  1
  O  O6  1  0.76168800  0.76168800  0.00000000  1
  O  O7  1  0.50206300  0.00206300  0.50000000  1
