# generated using pymatgen
data_Li5Fe2P2(CO7)2
_symmetry_space_group_name_H-M   'P 1'
_cell_length_a   6.50010600
_cell_length_b   9.41605800
_cell_length_c   10.11673623
_cell_angle_alpha   63.02539759
_cell_angle_beta   90.00000000
_cell_angle_gamma   90.00000000
_symmetry_Int_Tables_number   1
_chemical_formula_structural   Li5Fe2P2(CO7)2
_chemical_formula_sum   'Li10 Fe4 P4 C4 O28'
_cell_volume   551.83457813
_cell_formula_units_Z   2
loop_
 _symmetry_equiv_pos_site_id
 _symmetry_equiv_pos_as_xyz
  1  'x, y, z'
loop_
 _atom_site_type_symbol
 _atom_site_label
 _atom_site_symmetry_multiplicity
 _atom_site_fract_x
 _atom_site_fract_y
 _atom_site_fract_z
 _atom_site_occupancy
  Li  Li0  1  0.24493700  0.10639400  0.55922100  1
  Li  Li1  1  0.24732400  0.08843600  0.07487800  1
  Li  Li2  1  0.45896800  0.27993000  0.72684300  1
  Li  Li3  1  0.48657200  0.26981800  0.23977800  1
  Li  Li4  1  0.01207900  0.26956800  0.24311300  1
  Li  Li5  1  0.51207900  0.73043200  0.75688700  1
  Li  Li6  1  0.98657200  0.73018200  0.76022200  1
  Li  Li7  1  0.95896800  0.72007000  0.27315700  1
  Li  Li8  1  0.74732400  0.91156400  0.92512200  1
  Li  Li9  1  0.74493700  0.89360600  0.44077900  1
  Fe  Fe10  1  0.75662500  0.33052800  0.92966200  1
  Fe  Fe11  1  0.75252700  0.33181800  0.44623700  1
  Fe  Fe12  1  0.25252700  0.66818200  0.55376300  1
  Fe  Fe13  1  0.25662500  0.66947200  0.07033800  1
  P  P14  1  0.25300600  0.41595500  0.93613400  1
  P  P15  1  0.25271700  0.41460100  0.42514700  1
  P  P16  1  0.75271700  0.58539900  0.57485300  1
  P  P17  1  0.75300600  0.58404500  0.06386600  1
  C  C18  1  0.73859200  0.03046100  0.63355800  1
  C  C19  1  0.75756800  0.04571100  0.13319700  1
  C  C20  1  0.25756800  0.95428900  0.86680300  1
  C  C21  1  0.23859200  0.96953900  0.36644200  1
  O  O22  1  0.75422200  0.07991300  0.99224400  1
  O  O23  1  0.75290000  0.06659200  0.49343000  1
  O  O24  1  0.27747700  0.09332700  0.76229200  1
  O  O25  1  0.71808000  0.14432700  0.67066000  1
  O  O26  1  0.24647300  0.11707200  0.26378700  1
  O  O27  1  0.74210700  0.17122800  0.15863100  1
  O  O28  1  0.06216400  0.30968800  0.95377700  1
  O  O29  1  0.43606600  0.30586500  0.94196300  1
  O  O30  1  0.06738400  0.30365000  0.43760700  1
  O  O31  1  0.43950400  0.31877500  0.41164400  1
  O  O32  1  0.72455400  0.42125000  0.71397900  1
  O  O33  1  0.27852400  0.44173800  0.56308300  1
  O  O34  1  0.75531300  0.42409300  0.20447500  1
  O  O35  1  0.26233000  0.45076400  0.07456000  1
  O  O36  1  0.76233000  0.54923600  0.92544000  1
  O  O37  1  0.25531300  0.57590700  0.79552500  1
  O  O38  1  0.77852400  0.55826200  0.43691700  1
  O  O39  1  0.22455400  0.57875000  0.28602100  1
  O  O40  1  0.56738400  0.69635000  0.56239300  1
  O  O41  1  0.93950400  0.68122500  0.58835600  1
  O  O42  1  0.93606600  0.69413500  0.05803700  1
  O  O43  1  0.56216400  0.69031200  0.04622300  1
  O  O44  1  0.24210700  0.82877200  0.84136900  1
  O  O45  1  0.74647300  0.88292800  0.73621300  1
  O  O46  1  0.21808000  0.85567300  0.32934000  1
  O  O47  1  0.77747700  0.90667300  0.23770800  1
  O  O48  1  0.25290000  0.93340800  0.50657000  1
  O  O49  1  0.25422200  0.92008700  0.00775600  1
