# generated using pymatgen
data_Li2MnSiCO7
_symmetry_space_group_name_H-M   'P 1'
_cell_length_a   8.09609042
_cell_length_b   8.09699586
_cell_length_c   9.53100218
_cell_angle_alpha   107.09093160
_cell_angle_beta   107.08863946
_cell_angle_gamma   102.58543568
_symmetry_Int_Tables_number   1
_chemical_formula_structural   Li2MnSiCO7
_chemical_formula_sum   'Li8 Mn4 Si4 C4 O28'
_cell_volume   538.25607934
_cell_formula_units_Z   4
loop_
 _symmetry_equiv_pos_site_id
 _symmetry_equiv_pos_as_xyz
  1  'x, y, z'
loop_
 _atom_site_type_symbol
 _atom_site_label
 _atom_site_symmetry_multiplicity
 _atom_site_fract_x
 _atom_site_fract_y
 _atom_site_fract_z
 _atom_site_occupancy
  Li  Li0  1  0.47403000  0.97835200  0.23588500  1
  Li  Li1  1  0.97393900  0.47834000  0.23581600  1
  Li  Li2  1  0.22833300  0.22387900  0.23585500  1
  Li  Li3  1  0.72831500  0.72390500  0.23585400  1
  Li  Li4  1  0.02600100  0.52159500  0.76410800  1
  Li  Li5  1  0.52610500  0.02166400  0.76415900  1
  Li  Li6  1  0.27168500  0.27609100  0.76414300  1
  Li  Li7  1  0.77168300  0.77607300  0.76415300  1
  Mn  Mn8  1  0.44527800  0.69540200  0.34013900  1
  Mn  Mn9  1  0.05470200  0.80463100  0.65992200  1
  Mn  Mn10  1  0.94533100  0.19550700  0.34012200  1
  Mn  Mn11  1  0.55453200  0.30446200  0.65967600  1
  Si  Si12  1  0.69653400  0.44654500  0.42494800  1
  Si  Si13  1  0.19645400  0.94645600  0.42492300  1
  Si  Si14  1  0.80346000  0.05346900  0.57505500  1
  Si  Si15  1  0.30351800  0.55355700  0.57510100  1
  C  C16  1  0.76823600  0.01825200  0.05581100  1
  C  C17  1  0.26815700  0.51815600  0.05573500  1
  C  C18  1  0.73177900  0.48174100  0.94417100  1
  C  C19  1  0.23187100  0.98183100  0.94427900  1
  O  O20  1  0.32200800  0.07197200  0.09030900  1
  O  O21  1  0.82190900  0.57188500  0.09021600  1
  O  O22  1  0.17806500  0.42802500  0.90970300  1
  O  O23  1  0.67814200  0.92809500  0.90978100  1
  O  O24  1  0.91434300  0.16442100  0.11433100  1
  O  O25  1  0.41427400  0.66431500  0.11428000  1
  O  O26  1  0.58567000  0.33559300  0.88565800  1
  O  O27  1  0.08574400  0.83569100  0.88576800  1
  O  O28  1  0.72698600  0.97700300  0.16834900  1
  O  O29  1  0.22688400  0.47689200  0.16825700  1
  O  O30  1  0.77302300  0.52301600  0.83164300  1
  O  O31  1  0.27311000  0.02307900  0.83173700  1
  O  O32  1  0.65339600  0.90346000  0.39941400  1
  O  O33  1  0.15348800  0.40358700  0.39943100  1
  O  O34  1  0.84659600  0.59652600  0.60060700  1
  O  O35  1  0.34651500  0.09644300  0.60056500  1
  O  O36  1  0.54987900  0.29948300  0.45755400  1
  O  O37  1  0.04990500  0.79950400  0.45769000  1
  O  O38  1  0.95010000  0.20051000  0.54242600  1
  O  O39  1  0.45012200  0.70051800  0.54238700  1
  O  O40  1  0.59395500  0.54689200  0.31844400  1
  O  O41  1  0.09400100  0.04695100  0.31850100  1
  O  O42  1  0.79689200  0.34413500  0.31834000  1
  O  O43  1  0.29677600  0.84402500  0.31828200  1
  O  O44  1  0.70309100  0.15590300  0.68162900  1
  O  O45  1  0.20318600  0.65596600  0.68174100  1
  O  O46  1  0.90601600  0.95312900  0.68158300  1
  O  O47  1  0.40597900  0.45307200  0.68152000  1
