# generated using pymatgen
data_Li4Ti3V3Cr2O16
_symmetry_space_group_name_H-M   'P 1'
_cell_length_a   5.92474977
_cell_length_b   5.92474977
_cell_length_c   9.62822388
_cell_angle_alpha   89.88250441
_cell_angle_beta   89.88250441
_cell_angle_gamma   59.56306332
_symmetry_Int_Tables_number   1
_chemical_formula_structural   Li4Ti3V3Cr2O16
_chemical_formula_sum   'Li4 Ti3 V3 Cr2 O16'
_cell_volume   291.39802138
_cell_formula_units_Z   1
loop_
 _symmetry_equiv_pos_site_id
 _symmetry_equiv_pos_as_xyz
  1  'x, y, z'
loop_
 _atom_site_type_symbol
 _atom_site_label
 _atom_site_symmetry_multiplicity
 _atom_site_fract_x
 _atom_site_fract_y
 _atom_site_fract_z
 _atom_site_occupancy
  Li  Li0  1  0.66867300  0.66867300  0.10694100  1
  Li  Li1  1  0.99779300  0.99779300  0.00553300  1
  Li  Li2  1  0.00067500  0.00067500  0.50267400  1
  Li  Li3  1  0.33364800  0.33364800  0.60762700  1
  Ti  Ti4  1  0.34008000  0.83455700  0.78441600  1
  Ti  Ti5  1  0.83455700  0.34008000  0.78441600  1
  Ti  Ti6  1  0.16812900  0.16812900  0.27904500  1
  V  V7  1  0.83093300  0.83093300  0.79078500  1
  V  V8  1  0.65402200  0.18086400  0.29144300  1
  V  V9  1  0.18086400  0.65402200  0.29144300  1
  Cr  Cr10  1  0.66836200  0.66836200  0.51406600  1
  Cr  Cr11  1  0.33526600  0.33526600  0.01458200  1
  O  O12  1  0.33193400  0.83342500  0.39555500  1
  O  O13  1  0.52144800  0.52144800  0.66098300  1
  O  O14  1  0.65587600  0.65587600  0.89877200  1
  O  O15  1  0.00540600  0.00540600  0.68828700  1
  O  O16  1  0.00119500  0.00119500  0.19079200  1
  O  O17  1  0.83342500  0.33193400  0.39555500  1
  O  O18  1  0.51376100  0.96110200  0.66064400  1
  O  O19  1  0.96110200  0.51376100  0.66064400  1
  O  O20  1  0.16437300  0.16437300  0.89656500  1
  O  O21  1  0.83806400  0.83806400  0.39419700  1
  O  O22  1  0.04060300  0.47733100  0.16126000  1
  O  O23  1  0.47733100  0.04060300  0.16126000  1
  O  O24  1  0.32357000  0.32357000  0.40242800  1
  O  O25  1  0.16798100  0.67096200  0.89563500  1
  O  O26  1  0.48144700  0.48144700  0.16122900  1
  O  O27  1  0.67096200  0.16798100  0.89563500  1
