# generated using pymatgen
data_Li4VP2O9
_symmetry_space_group_name_H-M   'P 1'
_cell_length_a   8.07432219
_cell_length_b   8.07432219
_cell_length_c   7.23506900
_cell_angle_alpha   90.00000000
_cell_angle_beta   90.00000000
_cell_angle_gamma   130.25825788
_symmetry_Int_Tables_number   1
_chemical_formula_structural   Li4VP2O9
_chemical_formula_sum   'Li8 V2 P4 O18'
_cell_volume   359.96366803
_cell_formula_units_Z   2
loop_
 _symmetry_equiv_pos_site_id
 _symmetry_equiv_pos_as_xyz
  1  'x, y, z'
loop_
 _atom_site_type_symbol
 _atom_site_label
 _atom_site_symmetry_multiplicity
 _atom_site_fract_x
 _atom_site_fract_y
 _atom_site_fract_z
 _atom_site_occupancy
  Li  Li0  1  0.38531200  0.61468800  0.22761800  1
  Li  Li1  1  0.88531200  0.11468800  0.77238200  1
  Li  Li2  1  0.50000000  0.00000000  0.00000000  1
  Li  Li3  1  0.00000000  0.50000000  0.00000000  1
  Li  Li4  1  0.61468800  0.38531200  0.77238200  1
  Li  Li5  1  0.11468800  0.88531200  0.22761800  1
  Li  Li6  1  0.75000000  0.75000000  0.50000000  1
  Li  Li7  1  0.25000000  0.25000000  0.50000000  1
  V  V8  1  0.50000000  0.00000000  0.50000000  1
  V  V9  1  0.00000000  0.50000000  0.50000000  1
  P  P10  1  0.38816600  0.61183400  0.77148700  1
  P  P11  1  0.88816600  0.11183400  0.22851300  1
  P  P12  1  0.61183400  0.38816600  0.22851300  1
  P  P13  1  0.11183400  0.88816600  0.77148700  1
  O  O14  1  0.98896300  0.01103700  0.28282900  1
  O  O15  1  0.48896300  0.51103700  0.71717100  1
  O  O16  1  0.85654300  0.14345700  0.02572600  1
  O  O17  1  0.35654300  0.64345700  0.97427400  1
  O  O18  1  0.04019300  0.34529700  0.31757900  1
  O  O19  1  0.15470300  0.45980700  0.68242100  1
  O  O20  1  0.65470300  0.95980700  0.31757900  1
  O  O21  1  0.54019300  0.84529700  0.68242100  1
  O  O22  1  0.75000000  0.25000000  0.59832600  1
  O  O23  1  0.25000000  0.75000000  0.40167400  1
  O  O24  1  0.84529700  0.54019300  0.31757900  1
  O  O25  1  0.95980700  0.65470300  0.68242100  1
  O  O26  1  0.34529700  0.04019300  0.68242100  1
  O  O27  1  0.45980700  0.15470300  0.31757900  1
  O  O28  1  0.14345700  0.85654300  0.97427400  1
  O  O29  1  0.64345700  0.35654300  0.02572600  1
  O  O30  1  0.51103700  0.48896300  0.28282900  1
  O  O31  1  0.01103700  0.98896300  0.71717100  1
