# generated using pymatgen
data_Li2Cr(CO3)3
_symmetry_space_group_name_H-M   'P 1'
_cell_length_a   6.01877394
_cell_length_b   6.01877394
_cell_length_c   9.58374200
_cell_angle_alpha   90.00000000
_cell_angle_beta   90.00000000
_cell_angle_gamma   107.21502262
_symmetry_Int_Tables_number   1
_chemical_formula_structural   Li2Cr(CO3)3
_chemical_formula_sum   'Li4 Cr2 C6 O18'
_cell_volume   331.62392310
_cell_formula_units_Z   2
loop_
 _symmetry_equiv_pos_site_id
 _symmetry_equiv_pos_as_xyz
  1  'x, y, z'
loop_
 _atom_site_type_symbol
 _atom_site_label
 _atom_site_symmetry_multiplicity
 _atom_site_fract_x
 _atom_site_fract_y
 _atom_site_fract_z
 _atom_site_occupancy
  Li  Li0  1  0.08284700  0.08284700  0.00000000  1
  Li  Li1  1  0.19265000  0.85203600  0.25000000  1
  Li  Li2  1  0.08284700  0.08284700  0.50000000  1
  Li  Li3  1  0.85203600  0.19265000  0.75000000  1
  Cr  Cr4  1  0.79871300  0.29549000  0.25000000  1
  Cr  Cr5  1  0.29549000  0.79871300  0.75000000  1
  C  C6  1  0.10801000  0.56944800  0.01917500  1
  C  C7  1  0.68961400  0.78490900  0.25000000  1
  C  C8  1  0.10801000  0.56944800  0.48082500  1
  C  C9  1  0.56944800  0.10801000  0.51917500  1
  C  C10  1  0.78490900  0.68961400  0.75000000  1
  C  C11  1  0.56944800  0.10801000  0.98082500  1
  O  O12  1  0.08109000  0.76062800  0.06108400  1
  O  O13  1  0.05223000  0.38529300  0.10001300  1
  O  O14  1  0.54562200  0.19212400  0.10313500  1
  O  O15  1  0.76581300  0.60463600  0.25000000  1
  O  O16  1  0.47483100  0.75491700  0.25000000  1
  O  O17  1  0.85180600  0.98552000  0.25000000  1
  O  O18  1  0.54562200  0.19212400  0.39686500  1
  O  O19  1  0.05223000  0.38529300  0.39998700  1
  O  O20  1  0.08109000  0.76062800  0.43891600  1
  O  O21  1  0.76062800  0.08109000  0.56108400  1
  O  O22  1  0.38529300  0.05223000  0.60001300  1
  O  O23  1  0.19212400  0.54562200  0.60313500  1
  O  O24  1  0.75491700  0.47483100  0.75000000  1
  O  O25  1  0.98552000  0.85180600  0.75000000  1
  O  O26  1  0.60463600  0.76581300  0.75000000  1
  O  O27  1  0.19212400  0.54562200  0.89686500  1
  O  O28  1  0.38529300  0.05223000  0.89998700  1
  O  O29  1  0.76062800  0.08109000  0.93891600  1
