# generated using pymatgen
data_Li3Mg2Fe19O32
_symmetry_space_group_name_H-M   'P 1'
_cell_length_a   5.99556313
_cell_length_b   5.99556313
_cell_length_c   19.97600920
_cell_angle_alpha   81.70479254
_cell_angle_beta   81.70479254
_cell_angle_gamma   60.49564838
_symmetry_Int_Tables_number   1
_chemical_formula_structural   Li3Mg2Fe19O32
_chemical_formula_sum   'Li3 Mg2 Fe19 O32'
_cell_volume   616.17474256
_cell_formula_units_Z   1
loop_
 _symmetry_equiv_pos_site_id
 _symmetry_equiv_pos_as_xyz
  1  'x, y, z'
loop_
 _atom_site_type_symbol
 _atom_site_label
 _atom_site_symmetry_multiplicity
 _atom_site_fract_x
 _atom_site_fract_y
 _atom_site_fract_z
 _atom_site_occupancy
  Li  Li0  1  0.87070400  0.87070400  0.37650100  1
  Li  Li1  1  0.12326900  0.12326900  0.62458100  1
  Li  Li2  1  0.37339800  0.37339800  0.87353500  1
  Mg  Mg3  1  0.15778200  0.15778200  0.02720400  1
  Mg  Mg4  1  0.39897100  0.39897100  0.28518700  1
  Fe  Fe5  1  0.62266400  0.62266400  0.12561800  1
  Fe  Fe6  1  0.49871100  0.49871100  0.99924700  1
  Fe  Fe7  1  0.09313800  0.09313800  0.22288200  1
  Fe  Fe8  1  0.12838300  0.62463100  0.12567300  1
  Fe  Fe9  1  0.62463100  0.12838300  0.12567300  1
  Fe  Fe10  1  0.74947500  0.74947500  0.25744400  1
  Fe  Fe11  1  0.34928800  0.34928800  0.47055400  1
  Fe  Fe12  1  0.62400600  0.12270700  0.62474500  1
  Fe  Fe13  1  0.37569500  0.87276000  0.37654200  1
  Fe  Fe14  1  0.87276000  0.37569500  0.37654200  1
  Fe  Fe15  1  0.12270700  0.62400600  0.62474500  1
  Fe  Fe16  1  0.64634300  0.64634300  0.53166000  1
  Fe  Fe17  1  0.99743000  0.99743000  0.49998400  1
  Fe  Fe18  1  0.25045300  0.25045300  0.74886700  1
  Fe  Fe19  1  0.59952200  0.59952200  0.72033200  1
  Fe  Fe20  1  0.88024200  0.37281100  0.87363800  1
  Fe  Fe21  1  0.37281100  0.88024200  0.87363800  1
  Fe  Fe22  1  0.89926600  0.89926600  0.77826900  1
  Fe  Fe23  1  0.84996500  0.84996500  0.96759200  1
  O  O24  1  0.32574100  0.78548800  0.06610700  1
  O  O25  1  0.78548800  0.32574100  0.06610700  1
  O  O26  1  0.43862200  0.43862200  0.18157800  1
  O  O27  1  0.32489700  0.32489700  0.06574700  1
  O  O28  1  0.57034200  0.57034200  0.31656000  1
  O  O29  1  0.06226100  0.06226100  0.31816100  1
  O  O30  1  0.92778600  0.92778600  0.18576600  1
  O  O31  1  0.81200000  0.81200000  0.06913400  1
  O  O32  1  0.18489900  0.70525300  0.43782000  1
  O  O33  1  0.92688200  0.45780600  0.18471100  1
  O  O34  1  0.70525300  0.18489900  0.43782000  1
  O  O35  1  0.45780600  0.92688200  0.18471100  1
  O  O36  1  0.02951100  0.56179500  0.31403700  1
  O  O37  1  0.56179500  0.02951100  0.31403700  1
  O  O38  1  0.81717100  0.81717100  0.56473200  1
  O  O39  1  0.68096900  0.68096900  0.43479900  1
  O  O40  1  0.31483500  0.31483500  0.56819500  1
  O  O41  1  0.17895800  0.17895800  0.43687400  1
  O  O42  1  0.43448400  0.95727500  0.68750200  1
  O  O43  1  0.95727500  0.43448400  0.68750200  1
  O  O44  1  0.06351700  0.54302000  0.81163600  1
  O  O45  1  0.81417700  0.28673200  0.56330400  1
  O  O46  1  0.54302000  0.06351700  0.81163600  1
  O  O47  1  0.28673200  0.81417700  0.56330400  1
  O  O48  1  0.18292100  0.18292100  0.92764300  1
  O  O49  1  0.93192700  0.93192700  0.68142100  1
  O  O50  1  0.06842500  0.06842500  0.81258400  1
  O  O51  1  0.56622600  0.56622600  0.81826300  1
  O  O52  1  0.42992300  0.42992300  0.68577300  1
  O  O53  1  0.68024400  0.68024400  0.93660000  1
  O  O54  1  0.20776800  0.68621700  0.93936500  1
  O  O55  1  0.68621700  0.20776800  0.93936500  1
