# generated using pymatgen
data_Li3Co2(CO3)4
_symmetry_space_group_name_H-M   'P 1'
_cell_length_a   9.71895500
_cell_length_b   7.03480100
_cell_length_c   8.57854643
_cell_angle_alpha   69.67672306
_cell_angle_beta   90.00000000
_cell_angle_gamma   90.00000000
_symmetry_Int_Tables_number   1
_chemical_formula_structural   Li3Co2(CO3)4
_chemical_formula_sum   'Li6 Co4 C8 O24'
_cell_volume   550.01077771
_cell_formula_units_Z   2
loop_
 _symmetry_equiv_pos_site_id
 _symmetry_equiv_pos_as_xyz
  1  'x, y, z'
loop_
 _atom_site_type_symbol
 _atom_site_label
 _atom_site_symmetry_multiplicity
 _atom_site_fract_x
 _atom_site_fract_y
 _atom_site_fract_z
 _atom_site_occupancy
  Li  Li0  1  0.60497100  0.74786600  0.59948400  1
  Li  Li1  1  0.18075400  0.31995100  0.81598000  1
  Li  Li2  1  0.88472700  0.25226400  0.09324400  1
  Li  Li3  1  0.10497100  0.25213400  0.40051600  1
  Li  Li4  1  0.38472700  0.74773600  0.90675600  1
  Li  Li5  1  0.68075400  0.68004900  0.18402000  1
  Co  Co6  1  0.13995600  0.80517100  0.67511200  1
  Co  Co7  1  0.63995600  0.19482900  0.32488800  1
  Co  Co8  1  0.36840400  0.29638400  0.19614700  1
  Co  Co9  1  0.86840400  0.70361600  0.80385300  1
  C  C10  1  0.98490400  0.48417000  0.60247900  1
  C  C11  1  0.51980800  0.97552900  0.11935900  1
  C  C12  1  0.38466600  0.99136400  0.52591800  1
  C  C13  1  0.88466600  0.00863600  0.47408200  1
  C  C14  1  0.11421500  0.48888200  0.02734700  1
  C  C15  1  0.61421500  0.51111800  0.97265300  1
  C  C16  1  0.48490400  0.51583000  0.39752100  1
  C  C17  1  0.01980800  0.02447100  0.88064100  1
  O  O18  1  0.10556800  0.55448300  0.62616800  1
  O  O19  1  0.87835100  0.52322600  0.68340700  1
  O  O20  1  0.47208200  0.62251200  0.48605200  1
  O  O21  1  0.41154000  0.09282200  0.10679800  1
  O  O22  1  0.62732400  0.99310200  0.20251000  1
  O  O23  1  0.01844200  0.15830000  0.94976000  1
  O  O24  1  0.34413700  0.85864100  0.66496200  1
  O  O25  1  0.01465400  0.97603200  0.49681300  1
  O  O26  1  0.79427200  0.91302600  0.58539300  1
  O  O27  1  0.29427200  0.08697400  0.41460700  1
  O  O28  1  0.51465400  0.02396800  0.50318700  1
  O  O29  1  0.84413700  0.14135900  0.33503800  1
  O  O30  1  0.16459900  0.35563200  0.16318400  1
  O  O31  1  0.48260800  0.48666200  0.98443100  1
  O  O32  1  0.69885400  0.41856000  0.09075800  1
  O  O33  1  0.19885400  0.58144000  0.90924200  1
  O  O34  1  0.98260800  0.51333800  0.01556900  1
  O  O35  1  0.66459900  0.64436800  0.83681600  1
  O  O36  1  0.97208200  0.37748800  0.51394800  1
  O  O37  1  0.37835100  0.47677400  0.31659300  1
  O  O38  1  0.60556800  0.44551700  0.37383200  1
  O  O39  1  0.51844200  0.84170000  0.05024000  1
  O  O40  1  0.12732400  0.00689800  0.79749000  1
  O  O41  1  0.91154000  0.90717800  0.89320200  1
