# generated using pymatgen
data_LiBH2C4O9
_symmetry_space_group_name_H-M   'P 1'
_cell_length_a   5.65596400
_cell_length_b   16.07750800
_cell_length_c   16.26743200
_cell_angle_alpha   90.00000000
_cell_angle_beta   90.00000000
_cell_angle_gamma   90.00000000
_symmetry_Int_Tables_number   1
_chemical_formula_structural   LiBH2C4O9
_chemical_formula_sum   'Li8 B8 H16 C32 O72'
_cell_volume   1479.25951305
_cell_formula_units_Z   8
loop_
 _symmetry_equiv_pos_site_id
 _symmetry_equiv_pos_as_xyz
  1  'x, y, z'
loop_
 _atom_site_type_symbol
 _atom_site_label
 _atom_site_symmetry_multiplicity
 _atom_site_fract_x
 _atom_site_fract_y
 _atom_site_fract_z
 _atom_site_occupancy
  Li  Li0  1  0.37681600  0.75176100  0.15442800  1
  Li  Li1  1  0.62318400  0.74823900  0.65442800  1
  Li  Li2  1  0.12318400  0.25176100  0.84557200  1
  Li  Li3  1  0.87681600  0.24823900  0.34557200  1
  Li  Li4  1  0.62318400  0.24823900  0.84557200  1
  Li  Li5  1  0.37681600  0.25176100  0.34557200  1
  Li  Li6  1  0.87681600  0.74823900  0.15442800  1
  Li  Li7  1  0.12318400  0.75176100  0.65442800  1
  B  B8  1  0.28084300  0.55749400  0.91021600  1
  B  B9  1  0.71915700  0.94250600  0.41021600  1
  B  B10  1  0.21915700  0.05749400  0.08978400  1
  B  B11  1  0.78084300  0.44250600  0.58978400  1
  B  B12  1  0.71915700  0.44250600  0.08978400  1
  B  B13  1  0.28084300  0.05749400  0.58978400  1
  B  B14  1  0.78084300  0.94250600  0.91021600  1
  B  B15  1  0.21915700  0.55749400  0.41021600  1
  H  H16  1  0.63290700  0.77158100  0.29075100  1
  H  H17  1  0.36709300  0.72841900  0.79075100  1
  H  H18  1  0.86709300  0.27158100  0.70924900  1
  H  H19  1  0.13290700  0.22841900  0.20924900  1
  H  H20  1  0.36709300  0.22841900  0.70924900  1
  H  H21  1  0.63290700  0.27158100  0.20924900  1
  H  H22  1  0.13290700  0.72841900  0.29075100  1
  H  H23  1  0.86709300  0.77158100  0.79075100  1
  H  H24  1  0.66354900  0.85420400  0.23805700  1
  H  H25  1  0.33645100  0.64579600  0.73805700  1
  H  H26  1  0.83645100  0.35420400  0.76194300  1
  H  H27  1  0.16354900  0.14579600  0.26194300  1
  H  H28  1  0.33645100  0.14579600  0.76194300  1
  H  H29  1  0.66354900  0.35420400  0.26194300  1
  H  H30  1  0.16354900  0.64579600  0.23805700  1
  H  H31  1  0.83645100  0.85420400  0.73805700  1
  C  C32  1  0.14692300  0.65435000  0.00394200  1
  C  C33  1  0.85307700  0.84565000  0.50394200  1
  C  C34  1  0.35307700  0.15435000  0.99605800  1
  C  C35  1  0.64692300  0.34565000  0.49605800  1
  C  C36  1  0.85307700  0.34565000  0.99605800  1
  C  C37  1  0.14692300  0.15435000  0.49605800  1
  C  C38  1  0.64692300  0.84565000  0.00394200  1
  C  C39  1  0.35307700  0.65435000  0.50394200  1
  C  C40  1  0.01961000  0.66724800  0.92081300  1
  C  C41  1  0.98039000  0.83275200  0.42081300  1
  C  C42  1  0.48039000  0.16724800  0.07918700  1
  C  C43  1  0.51961000  0.33275200  0.57918700  1
  C  C44  1  0.98039000  0.33275200  0.07918700  1
  C  C45  1  0.01961000  0.16724800  0.57918700  1
  C  C46  1  0.51961000  0.83275200  0.92081300  1
  C  C47  1  0.48039000  0.66724800  0.42081300  1
  C  C48  1  0.37536900  0.42587900  0.86687900  1
  C  C49  1  0.62463100  0.07412100  0.36687900  1
  C  C50  1  0.12463100  0.92587900  0.13312100  1
  C  C51  1  0.87536900  0.57412100  0.63312100  1
  C  C52  1  0.62463100  0.57412100  0.13312100  1
  C  C53  1  0.37536900  0.92587900  0.63312100  1
  C  C54  1  0.87536900  0.07412100  0.86687900  1
  C  C55  1  0.12463100  0.42587900  0.36687900  1
  C  C56  1  0.56873500  0.48689700  0.83806200  1
  C  C57  1  0.43126500  0.01310300  0.33806200  1
  C  C58  1  0.93126500  0.98689700  0.16193800  1
  C  C59  1  0.06873500  0.51310300  0.66193800  1
  C  C60  1  0.43126500  0.51310300  0.16193800  1
  C  C61  1  0.56873500  0.98689700  0.66193800  1
  C  C62  1  0.06873500  0.01310300  0.83806200  1
  C  C63  1  0.93126500  0.48689700  0.33806200  1
  O  O64  1  0.51114400  0.56195600  0.86680900  1
  O  O65  1  0.48885600  0.93804400  0.36680900  1
  O  O66  1  0.98885600  0.06195600  0.13319100  1
  O  O67  1  0.01114400  0.43804400  0.63319100  1
  O  O68  1  0.48885600  0.43804400  0.13319100  1
  O  O69  1  0.51114400  0.06195600  0.63319100  1
  O  O70  1  0.01114400  0.93804400  0.86680900  1
  O  O71  1  0.98885600  0.56195600  0.36680900  1
  O  O72  1  0.12212400  0.69602500  0.06599700  1
  O  O73  1  0.87787600  0.80397500  0.56599700  1
  O  O74  1  0.37787600  0.19602500  0.93400300  1
  O  O75  1  0.62212400  0.30397500  0.43400300  1
  O  O76  1  0.87787600  0.30397500  0.93400300  1
  O  O77  1  0.12212400  0.19602500  0.43400300  1
  O  O78  1  0.62212400  0.80397500  0.06599700  1
  O  O79  1  0.37787600  0.69602500  0.56599700  1
  O  O80  1  0.37023300  0.35128600  0.85242300  1
  O  O81  1  0.62976700  0.14871400  0.35242300  1
  O  O82  1  0.12976700  0.85128600  0.14757700  1
  O  O83  1  0.87023300  0.64871400  0.64757700  1
  O  O84  1  0.62976700  0.64871400  0.14757700  1
  O  O85  1  0.37023300  0.85128600  0.64757700  1
  O  O86  1  0.87023300  0.14871400  0.85242300  1
  O  O87  1  0.12976700  0.35128600  0.35242300  1
  O  O88  1  0.29507500  0.59069200  0.99566900  1
  O  O89  1  0.70492500  0.90930800  0.49566900  1
  O  O90  1  0.20492500  0.09069200  0.00433100  1
  O  O91  1  0.79507500  0.40930800  0.50433100  1
  O  O92  1  0.70492500  0.40930800  0.00433100  1
  O  O93  1  0.29507500  0.09069200  0.50433100  1
  O  O94  1  0.79507500  0.90930800  0.99566900  1
  O  O95  1  0.20492500  0.59069200  0.49566900  1
  O  O96  1  0.87943500  0.72215400  0.90389600  1
  O  O97  1  0.12056500  0.77784600  0.40389600  1
  O  O98  1  0.62056500  0.22215400  0.09610400  1
  O  O99  1  0.37943500  0.27784600  0.59610400  1
  O  O100  1  0.12056500  0.27784600  0.09610400  1
  O  O101  1  0.87943500  0.22215400  0.59610400  1
  O  O102  1  0.37943500  0.77784600  0.90389600  1
  O  O103  1  0.62056500  0.72215400  0.40389600  1
  O  O104  1  0.74116300  0.46952100  0.79678700  1
  O  O105  1  0.25883700  0.03047900  0.29678700  1
  O  O106  1  0.75883700  0.96952100  0.20321300  1
  O  O107  1  0.24116300  0.53047900  0.70321300  1
  O  O108  1  0.25883700  0.53047900  0.20321300  1
  O  O109  1  0.74116300  0.96952100  0.70321300  1
  O  O110  1  0.24116300  0.03047900  0.79678700  1
  O  O111  1  0.75883700  0.46952100  0.29678700  1
  O  O112  1  0.21512800  0.46777700  0.90947800  1
  O  O113  1  0.78487200  0.03222300  0.40947800  1
  O  O114  1  0.28487200  0.96777700  0.09052200  1
  O  O115  1  0.71512800  0.53222300  0.59052200  1
  O  O116  1  0.78487200  0.53222300  0.09052200  1
  O  O117  1  0.21512800  0.96777700  0.59052200  1
  O  O118  1  0.71512800  0.03222300  0.90947800  1
  O  O119  1  0.28487200  0.46777700  0.40947800  1
  O  O120  1  0.09949100  0.60958000  0.86927900  1
  O  O121  1  0.90050900  0.89042000  0.36927900  1
  O  O122  1  0.40050900  0.10958000  0.13072100  1
  O  O123  1  0.59949100  0.39042000  0.63072100  1
  O  O124  1  0.90050900  0.39042000  0.13072100  1
  O  O125  1  0.09949100  0.10958000  0.63072100  1
  O  O126  1  0.59949100  0.89042000  0.86927900  1
  O  O127  1  0.40050900  0.60958000  0.36927900  1
  O  O128  1  0.62728500  0.79446400  0.23474900  1
  O  O129  1  0.37271500  0.70553600  0.73474900  1
  O  O130  1  0.87271500  0.29446400  0.76525100  1
  O  O131  1  0.12728500  0.20553600  0.26525100  1
  O  O132  1  0.37271500  0.20553600  0.76525100  1
  O  O133  1  0.62728500  0.29446400  0.26525100  1
  O  O134  1  0.12728500  0.70553600  0.23474900  1
  O  O135  1  0.87271500  0.79446400  0.73474900  1
