# generated using pymatgen
data_Li2CoBO4
_symmetry_space_group_name_H-M   'P 1'
_cell_length_a   5.10600400
_cell_length_b   6.42507600
_cell_length_c   10.68289642
_cell_angle_alpha   84.81155965
_cell_angle_beta   90.00000000
_cell_angle_gamma   90.00000000
_symmetry_Int_Tables_number   1
_chemical_formula_structural   Li2CoBO4
_chemical_formula_sum   'Li8 Co4 B4 O16'
_cell_volume   349.03206871
_cell_formula_units_Z   4
loop_
 _symmetry_equiv_pos_site_id
 _symmetry_equiv_pos_as_xyz
  1  'x, y, z'
loop_
 _atom_site_type_symbol
 _atom_site_label
 _atom_site_symmetry_multiplicity
 _atom_site_fract_x
 _atom_site_fract_y
 _atom_site_fract_z
 _atom_site_occupancy
  Li  Li0  1  0.65245800  0.89961500  0.79241700  1
  Li  Li1  1  0.84754200  0.89961500  0.29241700  1
  Li  Li2  1  0.82774300  0.78260600  0.57066500  1
  Li  Li3  1  0.67225700  0.78260600  0.07066500  1
  Li  Li4  1  0.32774300  0.21739400  0.92933500  1
  Li  Li5  1  0.17225700  0.21739400  0.42933500  1
  Li  Li6  1  0.15245800  0.10038500  0.70758300  1
  Li  Li7  1  0.34754200  0.10038500  0.20758300  1
  Co  Co8  1  0.84024500  0.49707000  0.84589100  1
  Co  Co9  1  0.34024500  0.50293000  0.65410900  1
  Co  Co10  1  0.65975500  0.49707000  0.34589100  1
  Co  Co11  1  0.15975500  0.50293000  0.15410900  1
  B  B12  1  0.17634400  0.80389900  0.93699300  1
  B  B13  1  0.32365600  0.80389900  0.43699300  1
  B  B14  1  0.67634400  0.19610100  0.56300700  1
  B  B15  1  0.82365600  0.19610100  0.06300700  1
  O  O16  1  0.30143200  0.94457800  0.85640400  1
  O  O17  1  0.19856800  0.94457800  0.35640400  1
  O  O18  1  0.90955200  0.75209600  0.92307900  1
  O  O19  1  0.59044800  0.75209600  0.42307900  1
  O  O20  1  0.19316000  0.70751400  0.54196200  1
  O  O21  1  0.65885800  0.61235400  0.71168200  1
  O  O22  1  0.30684000  0.70751400  0.04196200  1
  O  O23  1  0.84114200  0.61235400  0.21168200  1
  O  O24  1  0.15885800  0.38764600  0.78831800  1
  O  O25  1  0.69316000  0.29248600  0.95803800  1
  O  O26  1  0.34114200  0.38764600  0.28831800  1
  O  O27  1  0.80684000  0.29248600  0.45803800  1
  O  O28  1  0.40955200  0.24790400  0.57692100  1
  O  O29  1  0.09044800  0.24790400  0.07692100  1
  O  O30  1  0.80143200  0.05542200  0.64359600  1
  O  O31  1  0.69856800  0.05542200  0.14359600  1
