# generated using pymatgen
data_NaLiP2(H4O5)2
_symmetry_space_group_name_H-M   'P 1'
_cell_length_a   15.27945674
_cell_length_b   15.27945674
_cell_length_c   15.27945717
_cell_angle_alpha   40.53497803
_cell_angle_beta   40.53497803
_cell_angle_gamma   40.53497805
_symmetry_Int_Tables_number   1
_chemical_formula_structural   NaLiP2(H4O5)2
_chemical_formula_sum   'Na6 Li6 P12 H48 O60'
_cell_volume   1359.00157274
_cell_formula_units_Z   6
loop_
 _symmetry_equiv_pos_site_id
 _symmetry_equiv_pos_as_xyz
  1  'x, y, z'
loop_
 _atom_site_type_symbol
 _atom_site_label
 _atom_site_symmetry_multiplicity
 _atom_site_fract_x
 _atom_site_fract_y
 _atom_site_fract_z
 _atom_site_occupancy
  Na  Na0  1  0.36756700  0.36756700  0.36756700  1
  Na  Na1  1  0.86756700  0.86756700  0.86756700  1
  Na  Na2  1  0.63243300  0.63243300  0.63243300  1
  Na  Na3  1  0.13243300  0.13243300  0.13243300  1
  Na  Na4  1  0.25000000  0.25000000  0.25000000  1
  Na  Na5  1  0.75000000  0.75000000  0.75000000  1
  Li  Li6  1  0.75563500  0.74436500  0.25000000  1
  Li  Li7  1  0.25000000  0.75563500  0.74436500  1
  Li  Li8  1  0.74436500  0.25000000  0.75563500  1
  Li  Li9  1  0.75000000  0.24436500  0.25563500  1
  Li  Li10  1  0.25563500  0.75000000  0.24436500  1
  Li  Li11  1  0.24436500  0.25563500  0.75000000  1
  P  P12  1  0.20155300  0.71647100  0.12169000  1
  P  P13  1  0.12169000  0.20155300  0.71647100  1
  P  P14  1  0.71647100  0.12169000  0.20155300  1
  P  P15  1  0.62169000  0.21647100  0.70155300  1
  P  P16  1  0.70155300  0.62169000  0.21647100  1
  P  P17  1  0.21647100  0.70155300  0.62169000  1
  P  P18  1  0.79844700  0.28352900  0.87831000  1
  P  P19  1  0.87831000  0.79844700  0.28352900  1
  P  P20  1  0.28352900  0.87831000  0.79844700  1
  P  P21  1  0.37831000  0.78352900  0.29844700  1
  P  P22  1  0.29844700  0.37831000  0.78352900  1
  P  P23  1  0.78352900  0.29844700  0.37831000  1
  H  H24  1  0.03543000  0.74561700  0.00076300  1
  H  H25  1  0.00076300  0.03543000  0.74561700  1
  H  H26  1  0.74561700  0.00076300  0.03543000  1
  H  H27  1  0.50076300  0.24561700  0.53543000  1
  H  H28  1  0.53543000  0.50076300  0.24561700  1
  H  H29  1  0.24561700  0.53543000  0.50076300  1
  H  H30  1  0.96457000  0.25438300  0.99923700  1
  H  H31  1  0.99923700  0.96457000  0.25438300  1
  H  H32  1  0.25438300  0.99923700  0.96457000  1
  H  H33  1  0.49923700  0.75438300  0.46457000  1
  H  H34  1  0.46457000  0.49923700  0.75438300  1
  H  H35  1  0.75438300  0.46457000  0.49923700  1
  H  H36  1  0.90859400  0.38560900  0.01009600  1
  H  H37  1  0.01009600  0.90859400  0.38560900  1
  H  H38  1  0.38560900  0.01009600  0.90859400  1
  H  H39  1  0.51009600  0.88560900  0.40859400  1
  H  H40  1  0.40859400  0.51009600  0.88560900  1
  H  H41  1  0.88560900  0.40859400  0.51009600  1
  H  H42  1  0.09140600  0.61439100  0.98990400  1
  H  H43  1  0.98990400  0.09140600  0.61439100  1
  H  H44  1  0.61439100  0.98990400  0.09140600  1
  H  H45  1  0.48990400  0.11439100  0.59140600  1
  H  H46  1  0.59140600  0.48990400  0.11439100  1
  H  H47  1  0.11439100  0.59140600  0.48990400  1
  H  H48  1  0.55784000  0.88340800  0.65460100  1
  H  H49  1  0.65460100  0.55784000  0.88340800  1
  H  H50  1  0.88340800  0.65460100  0.55784000  1
  H  H51  1  0.15460100  0.38340800  0.05784000  1
  H  H52  1  0.05784000  0.15460100  0.38340800  1
  H  H53  1  0.38340800  0.05784000  0.15460100  1
  H  H54  1  0.44216000  0.11659200  0.34539900  1
  H  H55  1  0.34539900  0.44216000  0.11659200  1
  H  H56  1  0.11659200  0.34539900  0.44216000  1
  H  H57  1  0.84539900  0.61659200  0.94216000  1
  H  H58  1  0.94216000  0.84539900  0.61659200  1
  H  H59  1  0.61659200  0.94216000  0.84539900  1
  H  H60  1  0.00537700  0.44971300  0.17718000  1
  H  H61  1  0.17718000  0.00537700  0.44971300  1
  H  H62  1  0.44971300  0.17718000  0.00537700  1
  H  H63  1  0.67718000  0.94971300  0.50537700  1
  H  H64  1  0.50537700  0.67718000  0.94971300  1
  H  H65  1  0.94971300  0.50537700  0.67718000  1
  H  H66  1  0.99462300  0.55028700  0.82282000  1
  H  H67  1  0.82282000  0.99462300  0.55028700  1
  H  H68  1  0.55028700  0.82282000  0.99462300  1
  H  H69  1  0.32282000  0.05028700  0.49462300  1
  H  H70  1  0.49462300  0.32282000  0.05028700  1
  H  H71  1  0.05028700  0.49462300  0.32282000  1
  O  O72  1  0.72199500  0.22385500  0.91789500  1
  O  O73  1  0.91789500  0.72199500  0.22385500  1
  O  O74  1  0.22385500  0.91789500  0.72199500  1
  O  O75  1  0.41789500  0.72385500  0.22199500  1
  O  O76  1  0.22199500  0.41789500  0.72385500  1
  O  O77  1  0.72385500  0.22199500  0.41789500  1
  O  O78  1  0.27800500  0.77614500  0.08210500  1
  O  O79  1  0.08210500  0.27800500  0.77614500  1
  O  O80  1  0.77614500  0.08210500  0.27800500  1
  O  O81  1  0.58210500  0.27614500  0.77800500  1
  O  O82  1  0.77800500  0.58210500  0.27614500  1
  O  O83  1  0.27614500  0.77800500  0.58210500  1
  O  O84  1  0.70143900  0.47454400  0.28209700  1
  O  O85  1  0.28209700  0.70143900  0.47454400  1
  O  O86  1  0.47454400  0.28209700  0.70143900  1
  O  O87  1  0.78209700  0.97454400  0.20143900  1
  O  O88  1  0.20143900  0.78209700  0.97454400  1
  O  O89  1  0.97454400  0.20143900  0.78209700  1
  O  O90  1  0.29856100  0.52545600  0.71790300  1
  O  O91  1  0.71790300  0.29856100  0.52545600  1
  O  O92  1  0.52545600  0.71790300  0.29856100  1
  O  O93  1  0.21790300  0.02545600  0.79856100  1
  O  O94  1  0.79856100  0.21790300  0.02545600  1
  O  O95  1  0.02545600  0.79856100  0.21790300  1
  O  O96  1  0.20153700  0.25249300  0.55082200  1
  O  O97  1  0.55082200  0.20153700  0.25249300  1
  O  O98  1  0.25249300  0.55082200  0.20153700  1
  O  O99  1  0.05082200  0.75249300  0.70153700  1
  O  O100  1  0.70153700  0.05082200  0.75249300  1
  O  O101  1  0.75249300  0.70153700  0.05082200  1
  O  O102  1  0.79846300  0.74750700  0.44917800  1
  O  O103  1  0.44917800  0.79846300  0.74750700  1
  O  O104  1  0.74750700  0.44917800  0.79846300  1
  O  O105  1  0.94917800  0.24750700  0.29846300  1
  O  O106  1  0.29846300  0.94917800  0.24750700  1
  O  O107  1  0.24750700  0.29846300  0.94917800  1
  O  O108  1  0.06832800  0.92963300  0.27815100  1
  O  O109  1  0.27815100  0.06832800  0.92963300  1
  O  O110  1  0.92963300  0.27815100  0.06832800  1
  O  O111  1  0.77815100  0.42963300  0.56832800  1
  O  O112  1  0.56832800  0.77815100  0.42963300  1
  O  O113  1  0.42963300  0.56832800  0.77815100  1
  O  O114  1  0.93167200  0.07036700  0.72184900  1
  O  O115  1  0.72184900  0.93167200  0.07036700  1
  O  O116  1  0.07036700  0.72184900  0.93167200  1
  O  O117  1  0.22184900  0.57036700  0.43167200  1
  O  O118  1  0.43167200  0.22184900  0.57036700  1
  O  O119  1  0.57036700  0.43167200  0.22184900  1
  O  O120  1  0.88998400  0.88975300  0.56689300  1
  O  O121  1  0.56689300  0.88998400  0.88975300  1
  O  O122  1  0.88975300  0.56689300  0.88998400  1
  O  O123  1  0.06689300  0.38975300  0.38998400  1
  O  O124  1  0.38998400  0.06689300  0.38975300  1
  O  O125  1  0.38975300  0.38998400  0.06689300  1
  O  O126  1  0.11001600  0.11024700  0.43310700  1
  O  O127  1  0.43310700  0.11001600  0.11024700  1
  O  O128  1  0.11024700  0.43310700  0.11001600  1
  O  O129  1  0.93310700  0.61024700  0.61001600  1
  O  O130  1  0.61001600  0.93310700  0.61024700  1
  O  O131  1  0.61024700  0.61001600  0.93310700  1
