# generated using pymatgen
data_Li3Cr(Si2O5)3
_symmetry_space_group_name_H-M   'P 1'
_cell_length_a   11.09501917
_cell_length_b   11.09501917
_cell_length_c   10.16776200
_cell_angle_alpha   90.00000000
_cell_angle_beta   90.00000000
_cell_angle_gamma   100.97609292
_symmetry_Int_Tables_number   1
_chemical_formula_structural   Li3Cr(Si2O5)3
_chemical_formula_sum   'Li12 Cr4 Si24 O60'
_cell_volume   1228.74919661
_cell_formula_units_Z   4
loop_
 _symmetry_equiv_pos_site_id
 _symmetry_equiv_pos_as_xyz
  1  'x, y, z'
loop_
 _atom_site_type_symbol
 _atom_site_label
 _atom_site_symmetry_multiplicity
 _atom_site_fract_x
 _atom_site_fract_y
 _atom_site_fract_z
 _atom_site_occupancy
  Li  Li0  1  0.24111000  0.24111000  0.00000000  1
  Li  Li1  1  0.01227400  0.48772600  0.25000000  1
  Li  Li2  1  0.48772600  0.01227400  0.75000000  1
  Li  Li3  1  0.25889000  0.25889000  0.50000000  1
  Li  Li4  1  0.57067500  0.42932500  0.26218600  1
  Li  Li5  1  0.42932500  0.57067500  0.73781400  1
  Li  Li6  1  0.92932500  0.07067500  0.76218600  1
  Li  Li7  1  0.07067500  0.92932500  0.23781400  1
  Li  Li8  1  0.74111000  0.74111000  0.50000000  1
  Li  Li9  1  0.98772600  0.51227400  0.75000000  1
  Li  Li10  1  0.51227400  0.98772600  0.25000000  1
  Li  Li11  1  0.75889000  0.75889000  0.00000000  1
  Cr  Cr12  1  0.33942200  0.16057800  0.25000000  1
  Cr  Cr13  1  0.16057800  0.33942200  0.75000000  1
  Cr  Cr14  1  0.66057800  0.83942200  0.75000000  1
  Cr  Cr15  1  0.83942200  0.66057800  0.25000000  1
  Si  Si16  1  0.04174100  0.18843000  0.19743400  1
  Si  Si17  1  0.18843000  0.04174100  0.80256600  1
  Si  Si18  1  0.45825900  0.31157000  0.69743400  1
  Si  Si19  1  0.31157000  0.45825900  0.30256600  1
  Si  Si20  1  0.25824400  0.51918200  0.01277100  1
  Si  Si21  1  0.75824400  0.01918200  0.48722900  1
  Si  Si22  1  0.01918200  0.75824400  0.51277100  1
  Si  Si23  1  0.51918200  0.25824400  0.98722900  1
  Si  Si24  1  0.57649900  0.20215400  0.45553300  1
  Si  Si25  1  0.07649900  0.70215400  0.04446700  1
  Si  Si26  1  0.70215400  0.07649900  0.95553300  1
  Si  Si27  1  0.20215400  0.57649900  0.54446700  1
  Si  Si28  1  0.79784600  0.42350100  0.45553300  1
  Si  Si29  1  0.29784600  0.92350100  0.04446700  1
  Si  Si30  1  0.92350100  0.29784600  0.95553300  1
  Si  Si31  1  0.42350100  0.79784600  0.54446700  1
  Si  Si32  1  0.48081800  0.74175600  0.01277100  1
  Si  Si33  1  0.98081800  0.24175600  0.48722900  1
  Si  Si34  1  0.24175600  0.98081800  0.51277100  1
  Si  Si35  1  0.74175600  0.48081800  0.98722900  1
  Si  Si36  1  0.68843000  0.54174100  0.69743400  1
  Si  Si37  1  0.54174100  0.68843000  0.30256600  1
  Si  Si38  1  0.95825900  0.81157000  0.80256600  1
  Si  Si39  1  0.81157000  0.95825900  0.19743400  1
  O  O40  1  0.01097300  0.27846300  0.07994100  1
  O  O41  1  0.27846300  0.01097300  0.92005900  1
  O  O42  1  0.26522300  0.02708800  0.66718400  1
  O  O43  1  0.02708800  0.26522300  0.33281600  1
  O  O44  1  0.17218300  0.15234800  0.16822200  1
  O  O45  1  0.15234800  0.17218300  0.83177800  1
  O  O46  1  0.25343000  0.09509700  0.41598100  1
  O  O47  1  0.09509700  0.25343000  0.58401900  1
  O  O48  1  0.50541200  0.14813200  0.32525500  1
  O  O49  1  0.00541200  0.64813200  0.17474500  1
  O  O50  1  0.14813200  0.50541200  0.67474500  1
  O  O51  1  0.64813200  0.00541200  0.82525500  1
  O  O52  1  0.40490300  0.24657000  0.08401900  1
  O  O53  1  0.24657000  0.40490300  0.91598100  1
  O  O54  1  0.32781700  0.34765200  0.66822200  1
  O  O55  1  0.34765200  0.32781700  0.33177800  1
  O  O56  1  0.47291200  0.23477700  0.83281600  1
  O  O57  1  0.23477700  0.47291200  0.16718400  1
  O  O58  1  0.48902700  0.22153700  0.57994100  1
  O  O59  1  0.22153700  0.48902700  0.42005900  1
  O  O60  1  0.60780000  0.15876400  0.01519400  1
  O  O61  1  0.65876400  0.10780000  0.51519400  1
  O  O62  1  0.10780000  0.65876400  0.48480600  1
  O  O63  1  0.15876400  0.60780000  0.98480600  1
  O  O64  1  0.39646600  0.60353400  0.99385000  1
  O  O65  1  0.66163300  0.33836700  0.41764900  1
  O  O66  1  0.05737800  0.94262200  0.79634100  1
  O  O67  1  0.94262200  0.05737800  0.20365900  1
  O  O68  1  0.89646600  0.10353400  0.50615000  1
  O  O69  1  0.83836700  0.16163300  0.91764900  1
  O  O70  1  0.55737800  0.44262200  0.70365900  1
  O  O71  1  0.60353400  0.39646600  0.00615000  1
  O  O72  1  0.44262200  0.55737800  0.29634100  1
  O  O73  1  0.10353400  0.89646600  0.49385000  1
  O  O74  1  0.33836700  0.66163300  0.58235100  1
  O  O75  1  0.16163300  0.83836700  0.08235100  1
  O  O76  1  0.34123600  0.89220000  0.48480600  1
  O  O77  1  0.89220000  0.34123600  0.51519400  1
  O  O78  1  0.84123600  0.39220000  0.01519400  1
  O  O79  1  0.39220000  0.84123600  0.98480600  1
  O  O80  1  0.51097300  0.77846300  0.42005900  1
  O  O81  1  0.77846300  0.51097300  0.57994100  1
  O  O82  1  0.76522300  0.52708800  0.83281600  1
  O  O83  1  0.52708800  0.76522300  0.16718400  1
  O  O84  1  0.67218300  0.65234800  0.33177800  1
  O  O85  1  0.65234800  0.67218300  0.66822200  1
  O  O86  1  0.75343000  0.59509700  0.08401900  1
  O  O87  1  0.59509700  0.75343000  0.91598100  1
  O  O88  1  0.99458800  0.35186800  0.82525500  1
  O  O89  1  0.85186800  0.49458800  0.32525500  1
  O  O90  1  0.35186800  0.99458800  0.17474500  1
  O  O91  1  0.49458800  0.85186800  0.67474500  1
  O  O92  1  0.90490300  0.74657000  0.41598100  1
  O  O93  1  0.74657000  0.90490300  0.58401900  1
  O  O94  1  0.84765200  0.82781700  0.16822200  1
  O  O95  1  0.82781700  0.84765200  0.83177800  1
  O  O96  1  0.97291200  0.73477700  0.66718400  1
  O  O97  1  0.73477700  0.97291200  0.33281600  1
  O  O98  1  0.98902700  0.72153700  0.92005900  1
  O  O99  1  0.72153700  0.98902700  0.07994100  1
