# generated using pymatgen
data_LiMnPO4
_symmetry_space_group_name_H-M   'P 1'
_cell_length_a   5.23712107
_cell_length_b   9.07145564
_cell_length_c   9.70901445
_cell_angle_alpha   89.96138259
_cell_angle_beta   90.01232612
_cell_angle_gamma   89.99921936
_symmetry_Int_Tables_number   1
_chemical_formula_structural   LiMnPO4
_chemical_formula_sum   'Li4 Mn4 P4 O16'
_cell_volume   461.25876695
_cell_formula_units_Z   4
loop_
 _symmetry_equiv_pos_site_id
 _symmetry_equiv_pos_as_xyz
  1  'x, y, z'
loop_
 _atom_site_type_symbol
 _atom_site_label
 _atom_site_symmetry_multiplicity
 _atom_site_fract_x
 _atom_site_fract_y
 _atom_site_fract_z
 _atom_site_occupancy
  Li  Li0  1  0.49976200  0.49994800  0.23482800  1
  Li  Li1  1  0.99974000  0.99989400  0.23482100  1
  Li  Li2  1  0.00004900  0.99999100  0.73481400  1
  Li  Li3  1  0.50001100  0.49995000  0.73480300  1
  Mn  Mn4  1  0.49974500  0.83328900  0.12323600  1
  Mn  Mn5  1  0.50022500  0.16673500  0.62325700  1
  Mn  Mn6  1  0.99976100  0.33328200  0.12333000  1
  Mn  Mn7  1  0.00007200  0.66672200  0.62337900  1
  P  P8  1  0.00009700  0.33341800  0.76049900  1
  P  P9  1  0.50004600  0.83339200  0.76040400  1
  P  P10  1  0.50006100  0.16663800  0.26037900  1
  P  P11  1  0.00009700  0.66658700  0.26046600  1
  O  O12  1  0.00085400  0.33371900  0.91755500  1
  O  O13  1  0.50078200  0.83365600  0.91747300  1
  O  O14  1  0.50039400  0.16645800  0.41750600  1
  O  O15  1  0.00030800  0.66638200  0.41759000  1
  O  O16  1  0.86759500  0.19098000  0.70505800  1
  O  O17  1  0.36753900  0.69095200  0.70481600  1
  O  O18  1  0.85271200  0.47075600  0.70435000  1
  O  O19  1  0.35270000  0.97075100  0.70428200  1
  O  O20  1  0.22034800  0.16190800  0.20462200  1
  O  O21  1  0.72042100  0.66195600  0.20465700  1
  O  O22  1  0.27953700  0.33794200  0.70420700  1
  O  O23  1  0.77952400  0.83802100  0.70413800  1
  O  O24  1  0.64698400  0.02932300  0.20423700  1
  O  O25  1  0.14710100  0.52925600  0.20434000  1
  O  O26  1  0.63201200  0.30905200  0.20415200  1
  O  O27  1  0.13211900  0.80904100  0.20444000  1
