# generated using pymatgen
data_Li3Cu2F7
_symmetry_space_group_name_H-M   'P 1'
_cell_length_a   8.63907700
_cell_length_b   7.08861400
_cell_length_c   8.93681542
_cell_angle_alpha   77.39488817
_cell_angle_beta   90.00000000
_cell_angle_gamma   90.00000000
_symmetry_Int_Tables_number   1
_chemical_formula_structural   Li3Cu2F7
_chemical_formula_sum   'Li12 Cu8 F28'
_cell_volume   534.09138858
_cell_formula_units_Z   4
loop_
 _symmetry_equiv_pos_site_id
 _symmetry_equiv_pos_as_xyz
  1  'x, y, z'
loop_
 _atom_site_type_symbol
 _atom_site_label
 _atom_site_symmetry_multiplicity
 _atom_site_fract_x
 _atom_site_fract_y
 _atom_site_fract_z
 _atom_site_occupancy
  Li  Li0  1  0.69091300  0.93597100  0.95371500  1
  Li  Li1  1  0.80908700  0.93597100  0.45371500  1
  Li  Li2  1  0.16693200  0.77243300  0.85997300  1
  Li  Li3  1  0.84594800  0.71104100  0.80455400  1
  Li  Li4  1  0.33306800  0.77243300  0.35997300  1
  Li  Li5  1  0.65405200  0.71104100  0.30455400  1
  Li  Li6  1  0.34594800  0.28895900  0.69544600  1
  Li  Li7  1  0.66693200  0.22756700  0.64002700  1
  Li  Li8  1  0.15405200  0.28895900  0.19544600  1
  Li  Li9  1  0.83306800  0.22756700  0.14002700  1
  Li  Li10  1  0.19091300  0.06402900  0.54628500  1
  Li  Li11  1  0.30908700  0.06402900  0.04628500  1
  Cu  Cu12  1  0.49509000  0.81349000  0.65864100  1
  Cu  Cu13  1  0.00491000  0.81349000  0.15864100  1
  Cu  Cu14  1  0.07258600  0.62947200  0.57887500  1
  Cu  Cu15  1  0.42741400  0.62947200  0.07887500  1
  Cu  Cu16  1  0.57258600  0.37052800  0.92112500  1
  Cu  Cu17  1  0.92741400  0.37052800  0.42112500  1
  Cu  Cu18  1  0.99509000  0.18651000  0.84135900  1
  Cu  Cu19  1  0.50491000  0.18651000  0.34135900  1
  F  F20  1  0.67340500  0.92895300  0.73487000  1
  F  F21  1  0.92127300  0.84559800  0.95397900  1
  F  F22  1  0.95227900  0.84034700  0.61176200  1
  F  F23  1  0.82659500  0.92895300  0.23487000  1
  F  F24  1  0.39272100  0.74083600  0.85423500  1
  F  F25  1  0.57872700  0.84559800  0.45397900  1
  F  F26  1  0.29169000  0.79973500  0.57050900  1
  F  F27  1  0.54772100  0.84034700  0.11176200  1
  F  F28  1  0.68902400  0.58552700  0.94460400  1
  F  F29  1  0.10727900  0.74083600  0.35423500  1
  F  F30  1  0.20831000  0.79973500  0.07050900  1
  F  F31  1  0.05512900  0.54749200  0.79966100  1
  F  F32  1  0.81097600  0.58552700  0.44460400  1
  F  F33  1  0.55512900  0.45250800  0.70033900  1
  F  F34  1  0.44487100  0.54749200  0.29966100  1
  F  F35  1  0.18902400  0.41447300  0.55539600  1
  F  F36  1  0.94487100  0.45250800  0.20033900  1
  F  F37  1  0.79169000  0.20026500  0.92949100  1
  F  F38  1  0.89272100  0.25916400  0.64576500  1
  F  F39  1  0.31097600  0.41447300  0.05539600  1
  F  F40  1  0.45227900  0.15965300  0.88823800  1
  F  F41  1  0.70831000  0.20026500  0.42949100  1
  F  F42  1  0.42127300  0.15440200  0.54602100  1
  F  F43  1  0.60727900  0.25916400  0.14576500  1
  F  F44  1  0.17340500  0.07104700  0.76513000  1
  F  F45  1  0.04772100  0.15965300  0.38823800  1
  F  F46  1  0.07872700  0.15440200  0.04602100  1
  F  F47  1  0.32659500  0.07104700  0.26513000  1
