# generated using pymatgen
data_K2LiFeO3
_symmetry_space_group_name_H-M   'P 1'
_cell_length_a   6.07419200
_cell_length_b   9.04702740
_cell_length_c   9.04703048
_cell_angle_alpha   85.52570978
_cell_angle_beta   109.61644310
_cell_angle_gamma   70.38349366
_symmetry_Int_Tables_number   1
_chemical_formula_structural   K2LiFeO3
_chemical_formula_sum   'K8 Li4 Fe4 O12'
_cell_volume   430.81849413
_cell_formula_units_Z   4
loop_
 _symmetry_equiv_pos_site_id
 _symmetry_equiv_pos_as_xyz
  1  'x, y, z'
loop_
 _atom_site_type_symbol
 _atom_site_label
 _atom_site_symmetry_multiplicity
 _atom_site_fract_x
 _atom_site_fract_y
 _atom_site_fract_z
 _atom_site_occupancy
  K  K0  1  0.25000700  0.25000000  0.74999800  1
  K  K1  1  0.24999900  0.74999900  0.25000000  1
  K  K2  1  0.74999300  0.25000200  0.74999900  1
  K  K3  1  0.75000200  0.74999900  0.24999900  1
  K  K4  1  0.75000200  0.33001000  0.33001200  1
  K  K5  1  0.75000000  0.83001200  0.83001200  1
  K  K6  1  0.24999900  0.16998700  0.16998800  1
  K  K7  1  0.24999900  0.66998500  0.66998700  1
  Li  Li8  1  0.25000000  0.50000000  0.00000000  1
  Li  Li9  1  0.25000000  0.00000000  0.50000000  1
  Li  Li10  1  0.75000000  0.49999900  0.99999900  1
  Li  Li11  1  0.75000000  0.99999900  0.49999900  1
  Fe  Fe12  1  0.74999800  0.58916600  0.58916200  1
  Fe  Fe13  1  0.25000100  0.91085000  0.91085200  1
  Fe  Fe14  1  0.75000200  0.08915400  0.08915700  1
  Fe  Fe15  1  0.25000000  0.41084300  0.41084200  1
  O  O16  1  0.99998900  0.00000400  0.00000400  1
  O  O17  1  0.00001100  0.49999500  0.49999500  1
  O  O18  1  0.50001100  0.00000400  0.00000400  1
  O  O19  1  0.49998800  0.49999500  0.49999400  1
  O  O20  1  0.40003600  0.68481800  0.98488400  1
  O  O21  1  0.40002600  0.18483100  0.48487700  1
  O  O22  1  0.90003600  0.51511500  0.81518100  1
  O  O23  1  0.90002700  0.01512100  0.31516900  1
  O  O24  1  0.59997400  0.31516800  0.01512100  1
  O  O25  1  0.59996400  0.81518100  0.51511500  1
  O  O26  1  0.09997300  0.48487700  0.18483100  1
  O  O27  1  0.09996300  0.98488500  0.68481800  1
