# generated using pymatgen
data_Li6Ti3V(PO4)6
_symmetry_space_group_name_H-M   'P 1'
_cell_length_a   8.54161900
_cell_length_b   8.59009355
_cell_length_c   8.59352238
_cell_angle_alpha   62.63508254
_cell_angle_beta   62.80443221
_cell_angle_gamma   62.75838589
_symmetry_Int_Tables_number   1
_chemical_formula_structural   Li6Ti3V(PO4)6
_chemical_formula_sum   'Li6 Ti3 V1 P6 O24'
_cell_volume   472.95745727
_cell_formula_units_Z   1
loop_
 _symmetry_equiv_pos_site_id
 _symmetry_equiv_pos_as_xyz
  1  'x, y, z'
loop_
 _atom_site_type_symbol
 _atom_site_label
 _atom_site_symmetry_multiplicity
 _atom_site_fract_x
 _atom_site_fract_y
 _atom_site_fract_z
 _atom_site_occupancy
  Li  Li0  1  0.02533600  0.00247300  0.99420100  1
  Li  Li1  1  0.75459100  0.14672400  0.34692200  1
  Li  Li2  1  0.47192600  0.50601100  0.49630900  1
  Li  Li3  1  0.22990000  0.83796500  0.65838500  1
  Li  Li4  1  0.66138600  0.23091200  0.83624100  1
  Li  Li5  1  0.83526000  0.66115300  0.23072700  1
  Ti  Ti6  1  0.14611700  0.14553700  0.13701900  1
  Ti  Ti7  1  0.35373400  0.36149100  0.35385600  1
  Ti  Ti8  1  0.64745300  0.64935800  0.64947900  1
  V  V9  1  0.85585900  0.85418500  0.85417100  1
  P  P10  1  0.05435700  0.75335000  0.44744800  1
  P  P11  1  0.44873400  0.05649100  0.74984200  1
  P  P12  1  0.75157700  0.45051400  0.05341300  1
  P  P13  1  0.25329000  0.54219800  0.95517500  1
  P  P14  1  0.54392700  0.95883800  0.25300400  1
  P  P15  1  0.95319900  0.25304400  0.53884300  1
  O  O16  1  0.11981800  0.31172400  0.48873100  1
  O  O17  1  0.32101000  0.49764000  0.11294300  1
  O  O18  1  0.05103100  0.92021900  0.26553400  1
  O  O19  1  0.51864500  0.11606300  0.31186700  1
  O  O20  1  0.24177300  0.59747800  0.41518700  1
  O  O21  1  0.03683300  0.80394100  0.60520700  1
  O  O22  1  0.26018700  0.07198900  0.90666900  1
  O  O23  1  0.43372000  0.23933000  0.58428200  1
  O  O24  1  0.59759000  0.41860900  0.24553100  1
  O  O25  1  0.19300700  0.38158900  0.99207500  1
  O  O26  1  0.09684200  0.73055200  0.94020200  1
  O  O27  1  0.37471500  0.00226700  0.20102800  1
  O  O28  1  0.60732000  0.03418500  0.80401400  1
  O  O29  1  0.90506800  0.25700800  0.07272000  1
  O  O30  1  0.80718700  0.60555200  0.03296200  1
  O  O31  1  0.40972800  0.56378000  0.76424200  1
  O  O32  1  0.56098600  0.76937100  0.41156000  1
  O  O33  1  0.72979800  0.93749600  0.09431000  1
  O  O34  1  0.97322000  0.19973500  0.37973400  1
  O  O35  1  0.76539800  0.41234500  0.56592200  1
  O  O36  1  0.48703300  0.89000200  0.69472000  1
  O  O37  1  0.94176700  0.09513400  0.72594400  1
  O  O38  1  0.69326700  0.48780800  0.89057200  1
  O  O39  1  0.88741700  0.69494100  0.49001500  1
