# generated using pymatgen
data_Na2LiMnPCO7
_symmetry_space_group_name_H-M   'P 1'
_cell_length_a   6.78466200
_cell_length_b   8.86306137
_cell_length_c   10.24859200
_cell_angle_alpha   90.80088462
_cell_angle_beta   90.18648598
_cell_angle_gamma   90.77623622
_symmetry_Int_Tables_number   1
_chemical_formula_structural   Na2LiMnPCO7
_chemical_formula_sum   'Na8 Li4 Mn4 P4 C4 O28'
_cell_volume   616.15689714
_cell_formula_units_Z   4
loop_
 _symmetry_equiv_pos_site_id
 _symmetry_equiv_pos_as_xyz
  1  'x, y, z'
loop_
 _atom_site_type_symbol
 _atom_site_label
 _atom_site_symmetry_multiplicity
 _atom_site_fract_x
 _atom_site_fract_y
 _atom_site_fract_z
 _atom_site_occupancy
  Na  Na0  1  0.24129900  0.91670600  0.87923000  1
  Na  Na1  1  0.24427700  0.91704600  0.37835500  1
  Na  Na2  1  0.99881200  0.74456200  0.62395800  1
  Na  Na3  1  0.49988700  0.74318600  0.62283200  1
  Na  Na4  1  0.50105400  0.74484800  0.12591700  1
  Na  Na5  1  0.50110200  0.25479700  0.87510000  1
  Na  Na6  1  0.50200200  0.25563800  0.37727100  1
  Na  Na7  1  0.99874400  0.25401700  0.37638100  1
  Li  Li8  1  0.02629800  0.72504400  0.11596000  1
  Li  Li9  1  0.97739400  0.27165500  0.88337000  1
  Li  Li10  1  0.76015800  0.09188500  0.62804900  1
  Li  Li11  1  0.76499700  0.08863200  0.12543700  1
  Mn  Mn12  1  0.75189200  0.64011200  0.88993100  1
  Mn  Mn13  1  0.75212300  0.63695100  0.38719700  1
  Mn  Mn14  1  0.24737900  0.35804800  0.61301800  1
  Mn  Mn15  1  0.24646700  0.35616100  0.11012500  1
  P  P16  1  0.24476600  0.58561300  0.85481300  1
  P  P17  1  0.24611800  0.59071500  0.35111700  1
  P  P18  1  0.75317200  0.40354700  0.64979700  1
  P  P19  1  0.75333500  0.40870700  0.14558700  1
  C  C20  1  0.75902900  0.95604300  0.86736200  1
  C  C21  1  0.75124600  0.94821200  0.36349000  1
  C  C22  1  0.24916200  0.05822600  0.63419300  1
  C  C23  1  0.24011200  0.05190100  0.13176100  1
  O  O24  1  0.25331500  0.91334200  0.64502800  1
  O  O25  1  0.22586400  0.90652300  0.14058900  1
  O  O26  1  0.74791500  0.91668600  0.98911300  1
  O  O27  1  0.75269600  0.91353500  0.48713900  1
  O  O28  1  0.75243500  0.85208400  0.77512700  1
  O  O29  1  0.75511700  0.84269000  0.27381900  1
  O  O30  1  0.06859100  0.68345300  0.90222500  1
  O  O31  1  0.43542700  0.67098400  0.89996500  1
  O  O32  1  0.06741200  0.68169600  0.40150700  1
  O  O33  1  0.43476400  0.68408600  0.38762800  1
  O  O34  1  0.24370400  0.57401500  0.70251200  1
  O  O35  1  0.74743500  0.56362500  0.58950700  1
  O  O36  1  0.23081100  0.57544500  0.19837400  1
  O  O37  1  0.76935600  0.57153600  0.09020800  1
  O  O38  1  0.23031200  0.42239700  0.90819700  1
  O  O39  1  0.76912100  0.42329700  0.80182400  1
  O  O40  1  0.25266500  0.43004800  0.40903000  1
  O  O41  1  0.75615600  0.42386800  0.29749100  1
  O  O42  1  0.56603800  0.30797000  0.61463700  1
  O  O43  1  0.92941000  0.30819800  0.60097300  1
  O  O44  1  0.56269500  0.32309900  0.10208600  1
  O  O45  1  0.92636000  0.30625300  0.09950100  1
  O  O46  1  0.24622400  0.14516500  0.73741800  1
  O  O47  1  0.24533900  0.13753400  0.23654800  1
  O  O48  1  0.24741100  0.11972800  0.51910000  1
  O  O49  1  0.24993100  0.11659500  0.01863400  1
  O  O50  1  0.77624800  0.09632200  0.83444000  1
  O  O51  1  0.74642200  0.08757300  0.32712500  1
