# generated using pymatgen
data_Li4MnCu3(PO4)4
_symmetry_space_group_name_H-M   'P 1'
_cell_length_a   4.76839059
_cell_length_b   10.07679575
_cell_length_c   6.15863400
_cell_angle_alpha   90.00000000
_cell_angle_beta   90.00000000
_cell_angle_gamma   89.07953538
_symmetry_Int_Tables_number   1
_chemical_formula_structural   Li4MnCu3(PO4)4
_chemical_formula_sum   'Li4 Mn1 Cu3 P4 O16'
_cell_volume   295.88478139
_cell_formula_units_Z   1
loop_
 _symmetry_equiv_pos_site_id
 _symmetry_equiv_pos_as_xyz
  1  'x, y, z'
loop_
 _atom_site_type_symbol
 _atom_site_label
 _atom_site_symmetry_multiplicity
 _atom_site_fract_x
 _atom_site_fract_y
 _atom_site_fract_z
 _atom_site_occupancy
  Li  Li0  1  0.99768300  0.99300900  0.99989600  1
  Li  Li1  1  0.99768300  0.99300900  0.50010400  1
  Li  Li2  1  0.50112900  0.50425000  0.49856300  1
  Li  Li3  1  0.50112900  0.50425000  0.00143700  1
  Mn  Mn4  1  0.97021900  0.28143600  0.25000000  1
  Cu  Cu5  1  0.05324000  0.71339500  0.75000000  1
  Cu  Cu6  1  0.44188400  0.21231600  0.75000000  1
  Cu  Cu7  1  0.55296200  0.78586800  0.25000000  1
  P  P8  1  0.08500300  0.60120700  0.25000000  1
  P  P9  1  0.42165000  0.08966300  0.25000000  1
  P  P10  1  0.57524900  0.90413700  0.75000000  1
  P  P11  1  0.91703000  0.40520000  0.75000000  1
  O  O12  1  0.20469200  0.45612400  0.25000000  1
  O  O13  1  0.21785600  0.66894400  0.04713000  1
  O  O14  1  0.21785600  0.66894400  0.45287000  1
  O  O15  1  0.24177300  0.39300300  0.75000000  1
  O  O16  1  0.25055300  0.89714300  0.75000000  1
  O  O17  1  0.28009400  0.16174100  0.05086700  1
  O  O18  1  0.28009400  0.16174100  0.44913300  1
  O  O19  1  0.30595200  0.94513400  0.25000000  1
  O  O20  1  0.68003100  0.05109600  0.75000000  1
  O  O21  1  0.71505200  0.83675500  0.54832400  1
  O  O22  1  0.71505200  0.83675500  0.95167600  1
  O  O23  1  0.74193200  0.09342200  0.25000000  1
  O  O24  1  0.75991000  0.60620700  0.25000000  1
  O  O25  1  0.78016900  0.34068900  0.54655200  1
  O  O26  1  0.78016900  0.34068900  0.95344800  1
  O  O27  1  0.81395600  0.55386800  0.75000000  1
