# generated using pymatgen
data_LiMn2O3F
_symmetry_space_group_name_H-M   'P 1'
_cell_length_a   5.84175890
_cell_length_b   6.13683622
_cell_length_c   8.77417126
_cell_angle_alpha   90.00009260
_cell_angle_beta   90.00137153
_cell_angle_gamma   89.61487193
_symmetry_Int_Tables_number   1
_chemical_formula_structural   LiMn2O3F
_chemical_formula_sum   'Li4 Mn8 O12 F4'
_cell_volume   314.54621113
_cell_formula_units_Z   4
loop_
 _symmetry_equiv_pos_site_id
 _symmetry_equiv_pos_as_xyz
  1  'x, y, z'
loop_
 _atom_site_type_symbol
 _atom_site_label
 _atom_site_symmetry_multiplicity
 _atom_site_fract_x
 _atom_site_fract_y
 _atom_site_fract_z
 _atom_site_occupancy
  Li  Li0  1  0.97009700  0.99957800  0.02118800  1
  Li  Li1  1  0.47010900  0.99957800  0.22881000  1
  Li  Li2  1  0.52989500  0.50042200  0.52119200  1
  Li  Li3  1  0.02990200  0.50042200  0.72881300  1
  Mn  Mn4  1  0.74744500  0.00038600  0.63525900  1
  Mn  Mn5  1  0.25256200  0.49961800  0.11475200  1
  Mn  Mn6  1  0.00000500  0.24999500  0.37500400  1
  Mn  Mn7  1  0.99999200  0.75000500  0.37500200  1
  Mn  Mn8  1  0.75255400  0.49961000  0.13524700  1
  Mn  Mn9  1  0.24744500  0.00038800  0.61476000  1
  Mn  Mn10  1  0.49999800  0.25000200  0.87500500  1
  Mn  Mn11  1  0.49998800  0.74999700  0.87499800  1
  O  O12  1  0.79903000  0.50151100  0.38208300  1
  O  O13  1  0.20097400  0.99848800  0.36792300  1
  O  O14  1  0.29904700  0.50150900  0.86791200  1
  O  O15  1  0.70095000  0.99848700  0.88209500  1
  O  O16  1  0.50660100  0.28554500  0.10115900  1
  O  O17  1  0.00416500  0.71377100  0.14871500  1
  O  O18  1  0.50418600  0.71375700  0.10127400  1
  O  O19  1  0.99340100  0.21445600  0.60116800  1
  O  O20  1  0.00658400  0.28553900  0.14883000  1
  O  O21  1  0.49341800  0.21446200  0.64884000  1
  O  O22  1  0.49583000  0.78623100  0.64872400  1
  O  O23  1  0.99582100  0.78624500  0.60128300  1
  F  F24  1  0.72089500  0.00278000  0.37097800  1
  F  F25  1  0.27908800  0.49725800  0.37900500  1
  F  F26  1  0.22090900  0.00274100  0.87900900  1
  F  F27  1  0.77911000  0.49722100  0.87097300  1
