# generated using pymatgen
data_Li4CrNi3(PO4)4
_symmetry_space_group_name_H-M   'P 1'
_cell_length_a   6.03890100
_cell_length_b   4.74221200
_cell_length_c   10.16160060
_cell_angle_alpha   89.50736731
_cell_angle_beta   90.00000000
_cell_angle_gamma   90.00000000
_symmetry_Int_Tables_number   1
_chemical_formula_structural   Li4CrNi3(PO4)4
_chemical_formula_sum   'Li4 Cr1 Ni3 P4 O16'
_cell_volume   290.99460894
_cell_formula_units_Z   1
loop_
 _symmetry_equiv_pos_site_id
 _symmetry_equiv_pos_as_xyz
  1  'x, y, z'
loop_
 _atom_site_type_symbol
 _atom_site_label
 _atom_site_symmetry_multiplicity
 _atom_site_fract_x
 _atom_site_fract_y
 _atom_site_fract_z
 _atom_site_occupancy
  Li  Li0  1  0.24774100  0.00604600  0.00216300  1
  Li  Li1  1  0.75225900  0.00604600  0.00216300  1
  Li  Li2  1  0.75383900  0.49833800  0.49776100  1
  Li  Li3  1  0.24616100  0.49833800  0.49776100  1
  Cr  Cr4  1  0.50000000  0.95840200  0.71894800  1
  Ni  Ni5  1  0.00000000  0.01868400  0.27589400  1
  Ni  Ni6  1  0.00000000  0.48065200  0.77696600  1
  Ni  Ni7  1  0.50000000  0.52014000  0.22348300  1
  P  P8  1  0.50000000  0.08208500  0.40492300  1
  P  P9  1  0.50000000  0.41767600  0.90641300  1
  P  P10  1  0.00000000  0.58533200  0.09412500  1
  P  P11  1  0.00000000  0.91568100  0.59279000  1
  O  O12  1  0.50000000  0.19789300  0.54771300  1
  O  O13  1  0.29481000  0.22220100  0.33479300  1
  O  O14  1  0.70519000  0.22220100  0.33479300  1
  O  O15  1  0.00000000  0.23944900  0.59852300  1
  O  O16  1  0.00000000  0.26115800  0.10085100  1
  O  O17  1  0.29183300  0.28518400  0.83890900  1
  O  O18  1  0.70816700  0.28518400  0.83890900  1
  O  O19  1  0.50000000  0.30238200  0.05073900  1
  O  O20  1  0.00000000  0.70410500  0.95136900  1
  O  O21  1  0.79582300  0.72434300  0.16596900  1
  O  O22  1  0.20417700  0.72434300  0.16596900  1
  O  O23  1  0.50000000  0.74277600  0.89905300  1
  O  O24  1  0.50000000  0.75786600  0.40091000  1
  O  O25  1  0.80036100  0.77127200  0.66423800  1
  O  O26  1  0.19963900  0.77127200  0.66423800  1
  O  O27  1  0.00000000  0.80095400  0.44963100  1
