# generated using pymatgen
data_NaLi2MnPCO7
_symmetry_space_group_name_H-M   'P 1'
_cell_length_a   6.71940200
_cell_length_b   8.66575225
_cell_length_c   10.13029462
_cell_angle_alpha   91.44692494
_cell_angle_beta   90.03571126
_cell_angle_gamma   90.18515574
_symmetry_Int_Tables_number   1
_chemical_formula_structural   NaLi2MnPCO7
_chemical_formula_sum   'Na4 Li8 Mn4 P4 C4 O28'
_cell_volume   589.68230249
_cell_formula_units_Z   4
loop_
 _symmetry_equiv_pos_site_id
 _symmetry_equiv_pos_as_xyz
  1  'x, y, z'
loop_
 _atom_site_type_symbol
 _atom_site_label
 _atom_site_symmetry_multiplicity
 _atom_site_fract_x
 _atom_site_fract_y
 _atom_site_fract_z
 _atom_site_occupancy
  Na  Na0  1  0.23955200  0.91506200  0.37695900  1
  Na  Na1  1  0.99824300  0.75163000  0.62861000  1
  Na  Na2  1  0.50185500  0.74886100  0.12510500  1
  Na  Na3  1  0.50038300  0.24949800  0.37443100  1
  Li  Li4  1  0.25408100  0.92149300  0.87176700  1
  Li  Li5  1  0.47115400  0.72678300  0.61729300  1
  Li  Li6  1  0.02761600  0.72465300  0.11106200  1
  Li  Li7  1  0.52410500  0.26476000  0.88324500  1
  Li  Li8  1  0.97444900  0.26488200  0.88306700  1
  Li  Li9  1  0.97177000  0.27406300  0.38901200  1
  Li  Li10  1  0.74341100  0.08808400  0.63084600  1
  Li  Li11  1  0.77381000  0.09031200  0.12525600  1
  Mn  Mn12  1  0.75338900  0.64616300  0.88658900  1
  Mn  Mn13  1  0.74525400  0.63905100  0.38989100  1
  Mn  Mn14  1  0.24363100  0.35345500  0.61566400  1
  Mn  Mn15  1  0.25053900  0.35104300  0.10623700  1
  P  P16  1  0.25650500  0.59286500  0.85163100  1
  P  P17  1  0.23728600  0.58334600  0.35371700  1
  P  P18  1  0.74270400  0.40583000  0.64930400  1
  P  P19  1  0.76038400  0.40672000  0.14097200  1
  C  C20  1  0.74929900  0.96226000  0.86675100  1
  C  C21  1  0.76121200  0.95663300  0.36421800  1
  C  C22  1  0.25949300  0.05083800  0.64382400  1
  C  C23  1  0.24040800  0.04175300  0.12824800  1
  O  O24  1  0.28249300  0.90373200  0.66264900  1
  O  O25  1  0.21697700  0.89589800  0.14913700  1
  O  O26  1  0.74774700  0.92035800  0.98843100  1
  O  O27  1  0.75650300  0.92066000  0.48848700  1
  O  O28  1  0.75364700  0.85901300  0.77105700  1
  O  O29  1  0.74339700  0.84872300  0.27323900  1
  O  O30  1  0.07224800  0.69007400  0.89619700  1
  O  O31  1  0.43936700  0.68653800  0.90182600  1
  O  O32  1  0.05869200  0.68111400  0.40451900  1
  O  O33  1  0.42744400  0.67279900  0.40100300  1
  O  O34  1  0.26329300  0.58073300  0.69720000  1
  O  O35  1  0.72906700  0.57339200  0.59738800  1
  O  O36  1  0.23306300  0.57401200  0.19922400  1
  O  O37  1  0.77163100  0.57439300  0.09011600  1
  O  O38  1  0.25029900  0.42485700  0.90273200  1
  O  O39  1  0.75505700  0.41822700  0.80381800  1
  O  O40  1  0.23095300  0.41648700  0.40551900  1
  O  O41  1  0.76880400  0.41771000  0.29529300  1
  O  O42  1  0.56142200  0.30486900  0.60775700  1
  O  O43  1  0.92591800  0.31593700  0.59432400  1
  O  O44  1  0.56899500  0.31887600  0.09564800  1
  O  O45  1  0.93355600  0.30378200  0.08704600  1
  O  O46  1  0.24023000  0.14407400  0.74557300  1
  O  O47  1  0.25388400  0.13922600  0.22824300  1
  O  O48  1  0.25402600  0.10605100  0.52619600  1
  O  O49  1  0.25128000  0.09233000  0.00900300  1
  O  O50  1  0.74682800  0.10768500  0.83603700  1
  O  O51  1  0.78264300  0.09841000  0.32864300  1
