# generated using pymatgen
data_LiCr(Si2O5)2
_symmetry_space_group_name_H-M   'P 1'
_cell_length_a   7.09060700
_cell_length_b   7.41969276
_cell_length_c   9.62853389
_cell_angle_alpha   99.07231031
_cell_angle_beta   103.50454946
_cell_angle_gamma   116.68987926
_symmetry_Int_Tables_number   1
_chemical_formula_structural   LiCr(Si2O5)2
_chemical_formula_sum   'Li2 Cr2 Si8 O20'
_cell_volume   419.49032311
_cell_formula_units_Z   2
loop_
 _symmetry_equiv_pos_site_id
 _symmetry_equiv_pos_as_xyz
  1  'x, y, z'
loop_
 _atom_site_type_symbol
 _atom_site_label
 _atom_site_symmetry_multiplicity
 _atom_site_fract_x
 _atom_site_fract_y
 _atom_site_fract_z
 _atom_site_occupancy
  Li  Li0  1  0.82600800  0.33245500  0.43059100  1
  Li  Li1  1  0.60446000  0.73820200  0.95602100  1
  Cr  Cr2  1  0.25328600  0.32024200  0.42975900  1
  Cr  Cr3  1  0.74606900  0.68504000  0.57276400  1
  Si  Si4  1  0.90610300  0.28107700  0.13833100  1
  Si  Si5  1  0.23972800  0.95121900  0.19271300  1
  Si  Si6  1  0.79179000  0.60567700  0.23417200  1
  Si  Si7  1  0.39449700  0.64300100  0.24619700  1
  Si  Si8  1  0.60938300  0.35918800  0.75208300  1
  Si  Si9  1  0.19570500  0.38511000  0.75959700  1
  Si  Si10  1  0.75890100  0.04919000  0.81007700  1
  Si  Si11  1  0.09617300  0.72706500  0.85866200  1
  O  O12  1  0.21406500  0.91908700  0.01484700  1
  O  O13  1  0.99465000  0.79689800  0.20401700  1
  O  O14  1  0.73819200  0.37846500  0.12977900  1
  O  O15  1  0.57855500  0.64319500  0.16870000  1
  O  O16  1  0.14518700  0.45943300  0.13181000  1
  O  O17  1  0.41668200  0.87533400  0.26693900  1
  O  O18  1  0.95142700  0.22717500  0.29453400  1
  O  O19  1  0.33556900  0.19279200  0.28151900  1
  O  O20  1  0.83941300  0.60519000  0.40604900  1
  O  O21  1  0.44353700  0.60368100  0.41186500  1
  O  O22  1  0.56384800  0.39500300  0.58410300  1
  O  O23  1  0.11292000  0.34240300  0.58080900  1
  O  O24  1  0.66710100  0.80371000  0.73465700  1
  O  O25  1  0.04079600  0.78705000  0.70705500  1
  O  O26  1  0.58451400  0.12727200  0.73773200  1
  O  O27  1  0.86076100  0.53883100  0.86574400  1
  O  O28  1  0.43450000  0.38910500  0.82469700  1
  O  O29  1  0.26319900  0.62442800  0.85785800  1
  O  O30  1  0.00387500  0.20442000  0.80211300  1
  O  O31  1  0.78340100  0.07045900  0.98978600  1
