# generated using pymatgen
data_Li2V3CoO8
_symmetry_space_group_name_H-M   'P 1'
_cell_length_a   8.43632003
_cell_length_b   8.39220009
_cell_length_c   8.40377311
_cell_angle_alpha   90.05831250
_cell_angle_beta   90.01007050
_cell_angle_gamma   90.00069843
_symmetry_Int_Tables_number   1
_chemical_formula_structural   Li2V3CoO8
_chemical_formula_sum   'Li8 V12 Co4 O32'
_cell_volume   594.98081683
_cell_formula_units_Z   4
loop_
 _symmetry_equiv_pos_site_id
 _symmetry_equiv_pos_as_xyz
  1  'x, y, z'
loop_
 _atom_site_type_symbol
 _atom_site_label
 _atom_site_symmetry_multiplicity
 _atom_site_fract_x
 _atom_site_fract_y
 _atom_site_fract_z
 _atom_site_occupancy
  Li  Li0  1  0.12509500  0.87459200  0.37498500  1
  Li  Li1  1  0.25260700  0.75246500  0.74734400  1
  Li  Li2  1  0.25061200  0.24915600  0.25177900  1
  Li  Li3  1  0.37434100  0.12606800  0.87528500  1
  Li  Li4  1  0.62681300  0.62501500  0.62561700  1
  Li  Li5  1  0.74971700  0.74886600  0.24961200  1
  Li  Li6  1  0.74902000  0.24849200  0.74933800  1
  Li  Li7  1  0.87183000  0.37492600  0.12810900  1
  V  V8  1  0.12065200  0.62883400  0.12464500  1
  V  V9  1  0.12665500  0.37875600  0.88111700  1
  V  V10  1  0.12314200  0.12289200  0.62492000  1
  V  V11  1  0.37774100  0.87805100  0.12107700  1
  V  V12  1  0.37771100  0.62391500  0.37683300  1
  V  V13  1  0.37840500  0.37822700  0.62484900  1
  V  V14  1  0.62320800  0.87281900  0.87509000  1
  V  V15  1  0.62278800  0.12319700  0.12087300  1
  V  V16  1  0.62314700  0.37729600  0.37752600  1
  V  V17  1  0.87743900  0.61718900  0.87655000  1
  V  V18  1  0.87863300  0.87446700  0.62111000  1
  V  V19  1  0.87795900  0.12275100  0.37656000  1
  Co  Co20  1  0.99763700  0.50026400  0.49911400  1
  Co  Co21  1  0.50101800  0.49821300  0.00092500  1
  Co  Co22  1  0.49903500  0.99989700  0.50035300  1
  Co  Co23  1  0.99834600  0.00101600  0.00050400  1
  O  O24  1  0.10460300  0.13421500  0.39935600  1
  O  O25  1  0.10200000  0.89388100  0.63123500  1
  O  O26  1  0.11375700  0.61634500  0.88360700  1
  O  O27  1  0.13383200  0.39435000  0.09881500  1
  O  O28  1  0.12106000  0.14305100  0.85689400  1
  O  O29  1  0.13439300  0.36788400  0.64199700  1
  O  O30  1  0.14386500  0.61768800  0.35564700  1
  O  O31  1  0.14290600  0.85822000  0.12004900  1
  O  O32  1  0.35454400  0.14356000  0.61809600  1
  O  O33  1  0.36262100  0.37702500  0.85622600  1
  O  O34  1  0.36366400  0.63549800  0.13514600  1
  O  O35  1  0.37939400  0.85590100  0.35748400  1
  O  O36  1  0.36852500  0.60233200  0.60553500  1
  O  O37  1  0.38560200  0.38491600  0.38519400  1
  O  O38  1  0.39738600  0.10455600  0.13476300  1
  O  O39  1  0.39453800  0.86896400  0.89718400  1
  O  O40  1  0.60500700  0.36606100  0.60193500  1
  O  O41  1  0.60121500  0.60510200  0.36662700  1
  O  O42  1  0.61375900  0.88432800  0.11484200  1
  O  O43  1  0.63437100  0.10146000  0.89681400  1
  O  O44  1  0.62151700  0.35603300  0.14156200  1
  O  O45  1  0.63613900  0.13534700  0.36308300  1
  O  O46  1  0.64312500  0.88332300  0.64498400  1
  O  O47  1  0.64188100  0.64368300  0.87893900  1
  O  O48  1  0.85515300  0.35813800  0.37957900  1
  O  O49  1  0.85944000  0.12128400  0.14420900  1
  O  O50  1  0.86627400  0.85863900  0.86458400  1
  O  O51  1  0.87548400  0.64467200  0.63567100  1
  O  O52  1  0.86628200  0.89810500  0.39409100  1
  O  O53  1  0.88611900  0.11507100  0.61534800  1
  O  O54  1  0.88971900  0.40041700  0.86821400  1
  O  O55  1  0.89827200  0.63266200  0.10825500  1
