# generated using pymatgen
data_Na3Li3Fe2P2(CO7)2
_symmetry_space_group_name_H-M   'P 1'
_cell_length_a   6.70825957
_cell_length_b   10.21915307
_cell_length_c   8.72359361
_cell_angle_alpha   87.98710306
_cell_angle_beta   91.72084386
_cell_angle_gamma   89.48022962
_symmetry_Int_Tables_number   1
_chemical_formula_structural   Na3Li3Fe2P2(CO7)2
_chemical_formula_sum   'Na6 Li6 Fe4 P4 C4 O28'
_cell_volume   597.35691685
_cell_formula_units_Z   2
loop_
 _symmetry_equiv_pos_site_id
 _symmetry_equiv_pos_as_xyz
  1  'x, y, z'
loop_
 _atom_site_type_symbol
 _atom_site_label
 _atom_site_symmetry_multiplicity
 _atom_site_fract_x
 _atom_site_fract_y
 _atom_site_fract_z
 _atom_site_occupancy
  Na  Na0  1  0.26092900  0.38026600  0.08755800  1
  Na  Na1  1  0.26093900  0.88080700  0.08744600  1
  Na  Na2  1  0.98667800  0.12579200  0.24760800  1
  Na  Na3  1  0.98741400  0.62631900  0.24817000  1
  Na  Na4  1  0.50468200  0.37310000  0.74653700  1
  Na  Na5  1  0.50452900  0.87401500  0.74644500  1
  Li  Li6  1  0.45312900  0.11035200  0.29363000  1
  Li  Li7  1  0.45299100  0.61058000  0.29418200  1
  Li  Li8  1  0.97884500  0.37892500  0.72338400  1
  Li  Li9  1  0.97892700  0.87970500  0.72296800  1
  Li  Li10  1  0.76396400  0.12191700  0.89094600  1
  Li  Li11  1  0.76370300  0.62204200  0.89129000  1
  Fe  Fe12  1  0.74130200  0.89006300  0.35330300  1
  Fe  Fe13  1  0.24481800  0.60994700  0.65430300  1
  Fe  Fe14  1  0.74130200  0.39008100  0.35291300  1
  Fe  Fe15  1  0.24441800  0.11094200  0.65299600  1
  P  P16  1  0.24168000  0.35571700  0.41946500  1
  P  P17  1  0.24201400  0.85569600  0.41985900  1
  P  P18  1  0.74832400  0.14452000  0.58792300  1
  P  P19  1  0.74846900  0.64422200  0.58798800  1
  C  C20  1  0.76498200  0.36531400  0.03904200  1
  C  C21  1  0.76505700  0.86544500  0.03914000  1
  C  C22  1  0.26333600  0.13782500  0.95121500  1
  C  C23  1  0.26397500  0.63799000  0.95195800  1
  O  O24  1  0.27411200  0.14508700  0.09929800  1
  O  O25  1  0.27467500  0.64577700  0.09995400  1
  O  O26  1  0.76917300  0.48984200  0.06205200  1
  O  O27  1  0.76925500  0.99001800  0.06207800  1
  O  O28  1  0.73401400  0.28326500  0.15441700  1
  O  O29  1  0.73443100  0.78342400  0.15456700  1
  O  O30  1  0.05663800  0.39272900  0.31572600  1
  O  O31  1  0.05671700  0.89231600  0.31606900  1
  O  O32  1  0.42431400  0.41259400  0.33433500  1
  O  O33  1  0.42439300  0.91262000  0.33432500  1
  O  O34  1  0.26259400  0.20232600  0.43553900  1
  O  O35  1  0.26337900  0.70246200  0.43655000  1
  O  O36  1  0.72764000  0.08753200  0.42512500  1
  O  O37  1  0.72812600  0.58741800  0.42512600  1
  O  O38  1  0.22730800  0.40956800  0.58230800  1
  O  O39  1  0.22744900  0.91035100  0.58229300  1
  O  O40  1  0.77373500  0.29609200  0.56971000  1
  O  O41  1  0.77308200  0.79585600  0.57009700  1
  O  O42  1  0.56529900  0.11385000  0.68794200  1
  O  O43  1  0.56541100  0.61285300  0.68784400  1
  O  O44  1  0.92871500  0.08461100  0.68393200  1
  O  O45  1  0.92921600  0.58462000  0.68403400  1
  O  O46  1  0.24365100  0.24250000  0.86237000  1
  O  O47  1  0.24448800  0.74242100  0.86261600  1
  O  O48  1  0.26920300  0.02514400  0.88625700  1
  O  O49  1  0.26965600  0.52503300  0.88754900  1
  O  O50  1  0.78858600  0.31897400  0.90380300  1
  O  O51  1  0.78833500  0.81913700  0.90381600  1
