# generated using pymatgen
data_Li4Ti3Co3(NiO8)2
_symmetry_space_group_name_H-M   'P 1'
_cell_length_a   5.76414917
_cell_length_b   5.81190668
_cell_length_c   9.64508379
_cell_angle_alpha   89.91858096
_cell_angle_beta   90.20562547
_cell_angle_gamma   120.26417690
_symmetry_Int_Tables_number   1
_chemical_formula_structural   Li4Ti3Co3(NiO8)2
_chemical_formula_sum   'Li4 Ti3 Co3 Ni2 O16'
_cell_volume   279.07785237
_cell_formula_units_Z   1
loop_
 _symmetry_equiv_pos_site_id
 _symmetry_equiv_pos_as_xyz
  1  'x, y, z'
loop_
 _atom_site_type_symbol
 _atom_site_label
 _atom_site_symmetry_multiplicity
 _atom_site_fract_x
 _atom_site_fract_y
 _atom_site_fract_z
 _atom_site_occupancy
  Li  Li0  1  0.34752000  0.67335500  0.89023100  1
  Li  Li1  1  0.97192300  0.98694800  0.99600800  1
  Li  Li2  1  0.97782700  0.98949800  0.49917300  1
  Li  Li3  1  0.68142900  0.33996300  0.39681300  1
  Ti  Ti4  1  0.17447000  0.83389300  0.21526100  1
  Ti  Ti5  1  0.17771100  0.34035700  0.21515300  1
  Ti  Ti6  1  0.34416900  0.17299300  0.71460600  1
  Co  Co7  1  0.66118700  0.83141600  0.21296700  1
  Co  Co8  1  0.83401500  0.66372100  0.71367900  1
  Co  Co9  1  0.83313000  0.16943800  0.71364500  1
  Ni  Ni10  1  0.32979300  0.66507100  0.49140600  1
  Ni  Ni11  1  0.66503800  0.33237000  0.98669600  1
  O  O12  1  0.15216100  0.83583400  0.60589200  1
  O  O13  1  0.03949100  0.51927300  0.33214500  1
  O  O14  1  0.33050200  0.66614300  0.10041100  1
  O  O15  1  0.99173700  0.99582200  0.31380800  1
  O  O16  1  0.99343700  0.99633400  0.81139800  1
  O  O17  1  0.15123200  0.31652200  0.60574700  1
  O  O18  1  0.49521500  0.96907700  0.33278200  1
  O  O19  1  0.49526900  0.52524000  0.33280000  1
  O  O20  1  0.31772900  0.15922200  0.10185100  1
  O  O21  1  0.67724500  0.83908900  0.61607500  1
  O  O22  1  0.52932300  0.49107700  0.83226700  1
  O  O23  1  0.53020400  0.03797000  0.83201400  1
  O  O24  1  0.67477000  0.33752600  0.60529000  1
  O  O25  1  0.82702300  0.67733800  0.10876200  1
  O  O26  1  0.96900800  0.48402200  0.82205100  1
  O  O27  1  0.82743800  0.15078500  0.10891000  1
