# generated using pymatgen
data_Li11Fe6F29
_symmetry_space_group_name_H-M   'P 1'
_cell_length_a   14.16877935
_cell_length_b   14.16877935
_cell_length_c   7.45014231
_cell_angle_alpha   89.61345980
_cell_angle_beta   89.61345980
_cell_angle_gamma   22.59053459
_symmetry_Int_Tables_number   1
_chemical_formula_structural   Li11Fe6F29
_chemical_formula_sum   'Li11 Fe6 F29'
_cell_volume   574.52887819
_cell_formula_units_Z   1
loop_
 _symmetry_equiv_pos_site_id
 _symmetry_equiv_pos_as_xyz
  1  'x, y, z'
loop_
 _atom_site_type_symbol
 _atom_site_label
 _atom_site_symmetry_multiplicity
 _atom_site_fract_x
 _atom_site_fract_y
 _atom_site_fract_z
 _atom_site_occupancy
  Li  Li0  1  0.44060700  0.44060700  0.45458700  1
  Li  Li1  1  0.90586900  0.90586900  0.59912600  1
  Li  Li2  1  0.32329700  0.32329700  0.94819700  1
  Li  Li3  1  0.34434900  0.34434900  0.41845200  1
  Li  Li4  1  0.77250700  0.77250700  0.08340300  1
  Li  Li5  1  0.22749300  0.22749300  0.91659700  1
  Li  Li6  1  0.65565100  0.65565100  0.58154800  1
  Li  Li7  1  0.67670300  0.67670300  0.05180300  1
  Li  Li8  1  0.09413100  0.09413100  0.40087400  1
  Li  Li9  1  0.55939300  0.55939300  0.54541300  1
  Li  Li10  1  0.00000000  0.00000000  0.00000000  1
  Fe  Fe11  1  0.43692600  0.43692600  0.84121200  1
  Fe  Fe12  1  0.90251200  0.90251200  0.19418500  1
  Fe  Fe13  1  0.76890700  0.76890700  0.68079900  1
  Fe  Fe14  1  0.23109300  0.23109300  0.31920100  1
  Fe  Fe15  1  0.09748800  0.09748800  0.80581500  1
  Fe  Fe16  1  0.56307400  0.56307400  0.15878800  1
  F  F17  1  0.22251000  0.68250800  0.65573000  1
  F  F18  1  0.68250800  0.22251000  0.65573000  1
  F  F19  1  0.97012700  0.97012700  0.22740900  1
  F  F20  1  0.15857700  0.67617600  0.00259700  1
  F  F21  1  0.67617600  0.15857700  0.00259700  1
  F  F22  1  0.37048800  0.37048800  0.75990200  1
  F  F23  1  0.14882500  0.63868000  0.37553700  1
  F  F24  1  0.63868000  0.14882500  0.37553700  1
  F  F25  1  0.83708300  0.83708300  0.12964700  1
  F  F26  1  0.83454100  0.83454100  0.61569100  1
  F  F27  1  0.03030800  0.52704100  0.86238700  1
  F  F28  1  0.52704100  0.03030800  0.86238700  1
  F  F29  1  0.29943300  0.29943300  0.22957100  1
  F  F30  1  0.00000000  0.50000000  0.50000000  1
  F  F31  1  0.50000000  0.00000000  0.50000000  1
  F  F32  1  0.70056700  0.70056700  0.77042900  1
  F  F33  1  0.47295900  0.96969200  0.13761300  1
  F  F34  1  0.96969200  0.47295900  0.13761300  1
  F  F35  1  0.16545900  0.16545900  0.38430900  1
  F  F36  1  0.16291700  0.16291700  0.87035300  1
  F  F37  1  0.85117500  0.36132000  0.62446300  1
  F  F38  1  0.36132000  0.85117500  0.62446300  1
  F  F39  1  0.62951200  0.62951200  0.24009800  1
  F  F40  1  0.84142300  0.32382400  0.99740300  1
  F  F41  1  0.32382400  0.84142300  0.99740300  1
  F  F42  1  0.02987300  0.02987300  0.77259100  1
  F  F43  1  0.77749000  0.31749200  0.34427000  1
  F  F44  1  0.31749200  0.77749000  0.34427000  1
  F  F45  1  0.50000000  0.50000000  0.00000000  1
