# generated using pymatgen
data_Li3V2(PO4)3
_symmetry_space_group_name_H-M   'P 1'
_cell_length_a   8.79102100
_cell_length_b   8.56103800
_cell_length_c   14.72268572
_cell_angle_alpha   55.08492776
_cell_angle_beta   90.00000000
_cell_angle_gamma   90.00000000
_symmetry_Int_Tables_number   1
_chemical_formula_structural   Li3V2(PO4)3
_chemical_formula_sum   'Li12 V8 P12 O48'
_cell_volume   908.58872903
_cell_formula_units_Z   4
loop_
 _symmetry_equiv_pos_site_id
 _symmetry_equiv_pos_as_xyz
  1  'x, y, z'
loop_
 _atom_site_type_symbol
 _atom_site_label
 _atom_site_symmetry_multiplicity
 _atom_site_fract_x
 _atom_site_fract_y
 _atom_site_fract_z
 _atom_site_occupancy
  Li  Li0  1  0.91302200  0.38884800  0.69057000  1
  Li  Li1  1  0.48789500  0.71949300  0.34641300  1
  Li  Li2  1  0.22040400  0.00190100  0.17796700  1
  Li  Li3  1  0.72040400  0.99809900  0.32203300  1
  Li  Li4  1  0.41302200  0.61115200  0.80943000  1
  Li  Li5  1  0.98789500  0.28050700  0.15358700  1
  Li  Li6  1  0.01210500  0.71949300  0.84641300  1
  Li  Li7  1  0.58697800  0.38884800  0.19057000  1
  Li  Li8  1  0.27959600  0.00190100  0.67796700  1
  Li  Li9  1  0.77959600  0.99809900  0.82203300  1
  Li  Li10  1  0.51210500  0.28050700  0.65358700  1
  Li  Li11  1  0.08697800  0.61115200  0.30943000  1
  V  V12  1  0.97196900  0.35018100  0.89477200  1
  V  V13  1  0.47196900  0.64981900  0.60522800  1
  V  V14  1  0.03416600  0.86434300  0.39138200  1
  V  V15  1  0.53416600  0.13565700  0.10861800  1
  V  V16  1  0.46583400  0.86434300  0.89138200  1
  V  V17  1  0.96583400  0.13565700  0.60861800  1
  V  V18  1  0.52803100  0.35018100  0.39477200  1
  V  V19  1  0.02803100  0.64981900  0.10522800  1
  P  P20  1  0.75119800  0.54826300  0.49074900  1
  P  P21  1  0.61742400  0.26548300  0.84812900  1
  P  P22  1  0.88934800  0.96749600  0.14690600  1
  P  P23  1  0.11742400  0.73451700  0.65187100  1
  P  P24  1  0.38934800  0.03250400  0.35309400  1
  P  P25  1  0.25119800  0.45173700  0.00925100  1
  P  P26  1  0.74880200  0.54826300  0.99074900  1
  P  P27  1  0.61065200  0.96749600  0.64690600  1
  P  P28  1  0.88257600  0.26548300  0.34812900  1
  P  P29  1  0.11065200  0.03250400  0.85309400  1
  P  P30  1  0.38257600  0.73451700  0.15187100  1
  P  P31  1  0.24880200  0.45173700  0.50925100  1
  O  O32  1  0.12798700  0.60653200  0.44490800  1
  O  O33  1  0.11008100  0.15501700  0.89781800  1
  O  O34  1  0.33369200  0.45568600  0.60018300  1
  O  O35  1  0.42168600  0.86925100  0.18903400  1
  O  O36  1  0.63954800  0.51541200  0.58215500  1
  O  O37  1  0.79392300  0.29145000  0.83096400  1
  O  O38  1  0.57930300  0.16767400  0.97020000  1
  O  O39  1  0.00616300  0.88248600  0.24545400  1
  O  O40  1  0.73092200  0.98431700  0.18701200  1
  O  O41  1  0.82288900  0.75071900  0.43358700  1
  O  O42  1  0.52897700  0.45491700  0.77543200  1
  O  O43  1  0.02897700  0.54508300  0.72456800  1
  O  O44  1  0.94970200  0.17462000  0.06125900  1
  O  O45  1  0.44970200  0.82538000  0.43874100  1
  O  O46  1  0.32288900  0.24928100  0.06641300  1
  O  O47  1  0.23092200  0.01568300  0.31298800  1
  O  O48  1  0.07930300  0.83232600  0.52980000  1
  O  O49  1  0.50616300  0.11751400  0.25454600  1
  O  O50  1  0.29392300  0.70855000  0.66903600  1
  O  O51  1  0.13954800  0.48458800  0.91784500  1
  O  O52  1  0.83369200  0.54431400  0.89981700  1
  O  O53  1  0.61008100  0.84498300  0.60218200  1
  O  O54  1  0.92168600  0.13074900  0.31096600  1
  O  O55  1  0.62798700  0.39346800  0.05509200  1
  O  O56  1  0.37201300  0.60653200  0.94490800  1
  O  O57  1  0.07831400  0.86925100  0.68903400  1
  O  O58  1  0.38991900  0.15501700  0.39781700  1
  O  O59  1  0.16630800  0.45568600  0.10018300  1
  O  O60  1  0.86045200  0.51541200  0.08215500  1
  O  O61  1  0.70607700  0.29145000  0.33096400  1
  O  O62  1  0.49383700  0.88248600  0.74545400  1
  O  O63  1  0.92069700  0.16767400  0.47020000  1
  O  O64  1  0.76907800  0.98431700  0.68701200  1
  O  O65  1  0.67711100  0.75071900  0.93358700  1
  O  O66  1  0.55029800  0.17462000  0.56125900  1
  O  O67  1  0.05029800  0.82538000  0.93874100  1
  O  O68  1  0.97102300  0.45491700  0.27543200  1
  O  O69  1  0.47102300  0.54508300  0.22456800  1
  O  O70  1  0.17711100  0.24928100  0.56641300  1
  O  O71  1  0.26907800  0.01568300  0.81298800  1
  O  O72  1  0.99383700  0.11751400  0.75454600  1
  O  O73  1  0.42069700  0.83232600  0.02980000  1
  O  O74  1  0.20607700  0.70855000  0.16903600  1
  O  O75  1  0.36045200  0.48458800  0.41784500  1
  O  O76  1  0.57831400  0.13074900  0.81096600  1
  O  O77  1  0.66630800  0.54431400  0.39981700  1
  O  O78  1  0.88991900  0.84498300  0.10218200  1
  O  O79  1  0.87201300  0.39346800  0.55509200  1
