# generated using pymatgen
data_Li6Co11(OF12)2
_symmetry_space_group_name_H-M   'P 1'
_cell_length_a   8.10264200
_cell_length_b   8.21026827
_cell_length_c   8.75538327
_cell_angle_alpha   107.99160946
_cell_angle_beta   106.16857973
_cell_angle_gamma   90.09063746
_symmetry_Int_Tables_number   1
_chemical_formula_structural   Li6Co11(OF12)2
_chemical_formula_sum   'Li6 Co11 O2 F24'
_cell_volume   529.60671103
_cell_formula_units_Z   1
loop_
 _symmetry_equiv_pos_site_id
 _symmetry_equiv_pos_as_xyz
  1  'x, y, z'
loop_
 _atom_site_type_symbol
 _atom_site_label
 _atom_site_symmetry_multiplicity
 _atom_site_fract_x
 _atom_site_fract_y
 _atom_site_fract_z
 _atom_site_occupancy
  Li  Li0  1  0.42376300  0.09200200  0.23966900  1
  Li  Li1  1  0.07873900  0.21064600  0.45517400  1
  Li  Li2  1  0.29696500  0.57611200  0.93279800  1
  Li  Li3  1  0.69619600  0.37659800  0.09239700  1
  Li  Li4  1  0.92765800  0.80916000  0.55326900  1
  Li  Li5  1  0.57377000  0.89930400  0.74306300  1
  Co  Co6  1  0.27574200  0.11537200  0.85091200  1
  Co  Co7  1  0.86603500  0.23033100  0.75323600  1
  Co  Co8  1  0.00741500  0.00568500  0.99517100  1
  Co  Co9  1  0.48486400  0.29561400  0.68798200  1
  Co  Co10  1  0.70277400  0.41866200  0.50800200  1
  Co  Co11  1  0.14218200  0.35158800  0.14684900  1
  Co  Co12  1  0.88153600  0.61965300  0.85607100  1
  Co  Co13  1  0.27333800  0.62793300  0.55760000  1
  Co  Co14  1  0.52449900  0.70887800  0.32091900  1
  Co  Co15  1  0.12865900  0.78992400  0.23897000  1
  Co  Co16  1  0.73541100  0.86842200  0.15560200  1
  O  O17  1  0.23042700  0.13379400  0.06470000  1
  O  O18  1  0.71540900  0.42592400  0.74526800  1
  F  F19  1  0.98990900  0.00723100  0.75398200  1
  F  F20  1  0.63500200  0.08499600  0.68328300  1
  F  F21  1  0.62036400  0.07391900  0.16838500  1
  F  F22  1  0.25038000  0.15445500  0.62418900  1
  F  F23  1  0.88452800  0.24652600  0.52902700  1
  F  F24  1  0.48510300  0.29255500  0.92618600  1
  F  F25  1  0.10900600  0.37940000  0.89223100  1
  F  F26  1  0.47069500  0.28545000  0.44085000  1
  F  F27  1  0.88665600  0.25326400  0.01962100  1
  F  F28  1  0.13436600  0.40257800  0.38535100  1
  F  F29  1  0.66423200  0.49247000  0.30440300  1
  F  F30  1  0.34355100  0.51267600  0.72568300  1
  F  F31  1  0.91272300  0.62270800  0.63575900  1
  F  F32  1  0.11539800  0.75797900  0.98832200  1
  F  F33  1  0.27422200  0.57869500  0.22047300  1
  F  F34  1  0.51400400  0.68846000  0.54513400  1
  F  F35  1  0.88189100  0.65461700  0.10982500  1
  F  F36  1  0.77378400  0.85966500  0.91347500  1
  F  F37  1  0.51878500  0.69243400  0.08378200  1
  F  F38  1  0.10705900  0.76562400  0.45170400  1
  F  F39  1  0.75092600  0.85237300  0.38689800  1
  F  F40  1  0.35033900  0.87480300  0.76320000  1
  F  F41  1  0.36595100  0.90614500  0.31759900  1
  F  F42  1  0.99574500  0.00537500  0.23298700  1
