# generated using pymatgen
data_LiCoP2O7
_symmetry_space_group_name_H-M   'P 1'
_cell_length_a   6.38736298
_cell_length_b   10.57256037
_cell_length_c   9.21250789
_cell_angle_alpha   65.27356078
_cell_angle_beta   107.12389183
_cell_angle_gamma   93.93978021
_symmetry_Int_Tables_number   1
_chemical_formula_structural   LiCoP2O7
_chemical_formula_sum   'Li4 Co4 P8 O28'
_cell_volume   538.97448963
_cell_formula_units_Z   4
loop_
 _symmetry_equiv_pos_site_id
 _symmetry_equiv_pos_as_xyz
  1  'x, y, z'
loop_
 _atom_site_type_symbol
 _atom_site_label
 _atom_site_symmetry_multiplicity
 _atom_site_fract_x
 _atom_site_fract_y
 _atom_site_fract_z
 _atom_site_occupancy
  Li  Li0  1  0.01342414  0.51277823  0.15460275  1
  Li  Li1  1  0.33948393  0.58664400  0.94148396  1
  Li  Li2  1  0.55933271  0.01704622  0.50987004  1
  Li  Li3  1  0.93470336  0.05498690  0.93040831  1
  Co  Co4  1  0.28750215  0.22898308  0.89625748  1
  Co  Co5  1  0.36854820  0.25544365  0.49479372  1
  Co  Co6  1  0.63466722  0.74740758  0.49395839  1
  Co  Co7  1  0.71773264  0.78626575  0.09595806  1
  P  P8  1  0.10877285  0.70297350  0.43365032  1
  P  P9  1  0.31108037  0.96156638  0.80579878  1
  P  P10  1  0.08194792  0.21191336  0.18196500  1
  P  P11  1  0.41184883  0.46777568  0.68885891  1
  P  P12  1  0.57745411  0.54007028  0.29840659  1
  P  P13  1  0.92696675  0.80302364  0.81546693  1
  P  P14  1  0.69667726  0.04844827  0.19118056  1
  P  P15  1  0.88558382  0.29838097  0.54607615  1
  O  O16  1  0.04745836  0.66123775  0.92027985  1
  O  O17  1  0.08395642  0.91335579  0.71674240  1
  O  O18  1  0.04933894  0.29336674  0.45780976  1
  O  O19  1  0.99797313  0.70991276  0.25712367  1
  O  O20  1  0.26067905  0.03554674  0.90378101  1
  O  O21  1  0.19444363  0.54132636  0.53771471  1
  O  O22  1  0.35643290  0.44168726  0.84998705  1
  O  O23  1  0.44712053  0.82187921  0.92447808  1
  O  O24  1  0.31160353  0.78718029  0.44848730  1
  O  O25  1  0.11564167  0.15783611  0.05894149  1
  O  O26  1  0.40996177  0.05213511  0.66717046  1
  O  O27  1  0.29833576  0.18383581  0.32851424  1
  O  O28  1  0.43087513  0.31994999  0.69095606  1
  O  O29  1  0.37260711  0.45947486  0.32133172  1
  O  O30  1  0.60196522  0.55672813  0.65404337  1
  O  O31  1  0.56671295  0.68823607  0.29517666  1
  O  O32  1  0.71859496  0.81816987  0.67170088  1
  O  O33  1  0.60892437  0.95799627  0.33557772  1
  O  O34  1  0.69048904  0.20791308  0.52613806  1
  O  O35  1  0.87319124  0.87063105  0.92085765  1
  O  O36  1  0.55356274  0.18282265  0.06717645  1
  O  O37  1  0.78008397  0.45757451  0.45794554  1
  O  O38  1  0.63304452  0.56481350  0.13707152  1
  O  O39  1  0.74718025  0.97384586  0.09206202  1
  O  O40  1  0.99218038  0.27018487  0.73024237  1
  O  O41  1  0.94568005  0.73337458  0.50942754  1
  O  O42  1  0.92322571  0.09951086  0.27475695  1
  O  O43  1  0.98594639  0.35753045  0.10467350  1
