# generated using pymatgen
data_Li2CoSn(PO4)2
_symmetry_space_group_name_H-M   'P 1'
_cell_length_a   7.81655285
_cell_length_b   7.82224357
_cell_length_c   11.46113204
_cell_angle_alpha   88.17602593
_cell_angle_beta   88.15498739
_cell_angle_gamma   102.77848497
_symmetry_Int_Tables_number   1
_chemical_formula_structural   Li2CoSn(PO4)2
_chemical_formula_sum   'Li8 Co4 Sn4 P8 O32'
_cell_volume   682.51161854
_cell_formula_units_Z   4
loop_
 _symmetry_equiv_pos_site_id
 _symmetry_equiv_pos_as_xyz
  1  'x, y, z'
loop_
 _atom_site_type_symbol
 _atom_site_label
 _atom_site_symmetry_multiplicity
 _atom_site_fract_x
 _atom_site_fract_y
 _atom_site_fract_z
 _atom_site_occupancy
  Li  Li0  1  0.99997100  0.99998100  0.99999400  1
  Li  Li1  1  0.50004500  0.50004500  0.99998800  1
  Li  Li2  1  0.25275400  0.75137600  0.99891300  1
  Li  Li3  1  0.74717700  0.24860100  0.00107900  1
  Li  Li4  1  0.25037800  0.24975600  0.50012000  1
  Li  Li5  1  0.74962800  0.75023200  0.49988900  1
  Li  Li6  1  0.49999300  0.99997900  0.50000600  1
  Li  Li7  1  0.99997100  0.50001800  0.49999800  1
  Co  Co8  1  0.11260900  0.86195200  0.30176800  1
  Co  Co9  1  0.88733800  0.13795600  0.69819000  1
  Co  Co10  1  0.61157400  0.36192700  0.30139600  1
  Co  Co11  1  0.38814500  0.63802300  0.69850200  1
  Sn  Sn12  1  0.62417700  0.87309000  0.22163600  1
  Sn  Sn13  1  0.12704700  0.37737100  0.22187400  1
  Sn  Sn14  1  0.37568100  0.12676700  0.77836600  1
  Sn  Sn15  1  0.87305300  0.62272600  0.77809700  1
  P  P16  1  0.30686700  0.05656900  0.11277000  1
  P  P17  1  0.80636500  0.55643500  0.11299400  1
  P  P18  1  0.69313600  0.94344500  0.88724400  1
  P  P19  1  0.19367500  0.44351400  0.88700700  1
  P  P20  1  0.83595600  0.08556900  0.42158600  1
  P  P21  1  0.33555400  0.58605800  0.42406600  1
  P  P22  1  0.16404300  0.91444000  0.57834300  1
  P  P23  1  0.66445100  0.41397500  0.57600400  1
  O  O24  1  0.74342900  0.99247200  0.01395300  1
  O  O25  1  0.24268900  0.49449700  0.01356300  1
  O  O26  1  0.25652400  0.00757300  0.98606900  1
  O  O27  1  0.75740800  0.50542300  0.98643400  1
  O  O28  1  0.46494200  0.21014600  0.12130200  1
  O  O29  1  0.95943500  0.71467100  0.12185600  1
  O  O30  1  0.53522300  0.78972700  0.87871400  1
  O  O31  1  0.04036500  0.28552900  0.87813400  1
  O  O32  1  0.49364300  0.74422000  0.41622300  1
  O  O33  1  0.99410200  0.24346500  0.41390300  1
  O  O34  1  0.50637200  0.25581100  0.58382600  1
  O  O35  1  0.00587700  0.75654100  0.58604000  1
  O  O36  1  0.23010700  0.98097700  0.45168400  1
  O  O37  1  0.73191800  0.48016800  0.44952800  1
  O  O38  1  0.76988000  0.01906700  0.54824000  1
  O  O39  1  0.26814700  0.51985500  0.55053700  1
  O  O40  1  0.13468000  0.08602600  0.17771200  1
  O  O41  1  0.62958200  0.57981900  0.17603000  1
  O  O42  1  0.33084100  0.88053100  0.17618100  1
  O  O43  1  0.83602000  0.38443300  0.17807400  1
  O  O44  1  0.66902300  0.11940000  0.82381100  1
  O  O45  1  0.16448900  0.61585500  0.82205000  1
  O  O46  1  0.86544500  0.91414900  0.82234100  1
  O  O47  1  0.37021400  0.41971800  0.82390700  1
  O  O48  1  0.67020700  0.12643400  0.36017000  1
  O  O49  1  0.17077900  0.62794700  0.36250400  1
  O  O50  1  0.87712200  0.91983500  0.36029500  1
  O  O51  1  0.37757600  0.42119800  0.36296400  1
  O  O52  1  0.12283500  0.08015400  0.63963700  1
  O  O53  1  0.62255300  0.57893100  0.63717700  1
  O  O54  1  0.32972700  0.87353300  0.63974400  1
  O  O55  1  0.82925700  0.37208900  0.63756900  1
