# generated using pymatgen
data_CsLiMnP3HO10
_symmetry_space_group_name_H-M   'P 1'
_cell_length_a   7.78807021
_cell_length_b   18.95281757
_cell_length_c   7.78888742
_cell_angle_alpha   97.00787532
_cell_angle_beta   70.26033245
_cell_angle_gamma   81.37753750
_symmetry_Int_Tables_number   1
_chemical_formula_structural   CsLiMnP3HO10
_chemical_formula_sum   'Cs4 Li4 Mn4 P12 H4 O40'
_cell_volume   1051.32370781
_cell_formula_units_Z   4
loop_
 _symmetry_equiv_pos_site_id
 _symmetry_equiv_pos_as_xyz
  1  'x, y, z'
loop_
 _atom_site_type_symbol
 _atom_site_label
 _atom_site_symmetry_multiplicity
 _atom_site_fract_x
 _atom_site_fract_y
 _atom_site_fract_z
 _atom_site_occupancy
  Cs  Cs0  1  0.36130300  0.37502900  0.76365500  1
  Cs  Cs1  1  0.61149500  0.62486700  0.26337600  1
  Cs  Cs2  1  0.86100000  0.87500700  0.76394200  1
  Cs  Cs3  1  0.11140500  0.12517400  0.26357700  1
  Li  Li4  1  0.25815600  0.24989400  0.49188400  1
  Li  Li5  1  0.50779800  0.50004100  0.99199100  1
  Li  Li6  1  0.75816500  0.74956200  0.49164400  1
  Li  Li7  1  0.00792700  0.00037100  0.99208000  1
  Mn  Mn8  1  0.91240700  0.25001900  0.83810100  1
  Mn  Mn9  1  0.16195300  0.49998400  0.33792000  1
  Mn  Mn10  1  0.41178500  0.74974100  0.83766500  1
  Mn  Mn11  1  0.66210700  0.00017400  0.33799400  1
  P  P12  1  0.93608800  0.37501100  0.18896700  1
  P  P13  1  0.18611200  0.62494000  0.68904300  1
  P  P14  1  0.43618500  0.87498800  0.18889000  1
  P  P15  1  0.68600500  0.12505200  0.68893800  1
  P  P16  1  0.56477100  0.36421600  0.15834400  1
  P  P17  1  0.81468300  0.61420100  0.65863200  1
  P  P18  1  0.06504500  0.86431900  0.15800600  1
  P  P19  1  0.31434800  0.11419100  0.65895000  1
  P  P20  1  0.95570100  0.38576200  0.57117400  1
  P  P21  1  0.20499000  0.63578100  0.07169800  1
  P  P22  1  0.45614300  0.88568800  0.57083500  1
  P  P23  1  0.70545900  0.13580600  0.07120200  1
  H  H24  1  0.51564500  0.25055900  0.23461000  1
  H  H25  1  0.76581800  0.50006800  0.73434000  1
  H  H26  1  0.01534200  0.75163100  0.23533600  1
  H  H27  1  0.26614900  0.99907700  0.73360400  1
  O  O28  1  0.90304000  0.57136400  0.46322700  1
  O  O29  1  0.15332000  0.82137200  0.96288600  1
  O  O30  1  0.40300500  0.07136200  0.46338500  1
  O  O31  1  0.65326900  0.32133000  0.96306100  1
  O  O32  1  0.85830000  0.17856100  0.02537200  1
  O  O33  1  0.10841100  0.42856500  0.52534800  1
  O  O34  1  0.35808400  0.67851600  0.02552900  1
  O  O35  1  0.60864800  0.92853200  0.52511400  1
  O  O36  1  0.76505500  0.43492500  0.70321600  1
  O  O37  1  0.01466600  0.68473700  0.20335300  1
  O  O38  1  0.26530400  0.93498400  0.70316200  1
  O  O39  1  0.51494400  0.18486100  0.20317800  1
  O  O40  1  0.48176200  0.31497400  0.29998900  1
  O  O41  1  0.73175800  0.56503800  0.80023200  1
  O  O42  1  0.98191800  0.81494700  0.29973900  1
  O  O43  1  0.23149800  0.06513700  0.80047800  1
  O  O44  1  0.71608200  0.39947700  0.22596500  1
  O  O45  1  0.96615400  0.64951900  0.72593000  1
  O  O46  1  0.21599800  0.89944800  0.22612200  1
  O  O47  1  0.46617900  0.14956700  0.72587700  1
  O  O48  1  0.92352600  0.35050600  0.38435900  1
  O  O49  1  0.17369900  0.60039300  0.88417200  1
  O  O50  1  0.42336500  0.85052000  0.38448700  1
  O  O51  1  0.67361500  0.10046200  0.88424200  1
  O  O52  1  0.26814500  0.56657400  0.13599100  1
  O  O53  1  0.51804100  0.81667800  0.63614800  1
  O  O54  1  0.76811300  0.06664200  0.13595100  1
  O  O55  1  0.01813800  0.31666500  0.63601000  1
  O  O56  1  0.18067200  0.18332200  0.66513100  1
  O  O57  1  0.43057900  0.43322000  0.16520000  1
  O  O58  1  0.68058800  0.68328800  0.66538000  1
  O  O59  1  0.93055800  0.93324500  0.16526700  1
  O  O60  1  0.02287100  0.44074100  0.16744100  1
  O  O61  1  0.27297000  0.69070500  0.66748400  1
  O  O62  1  0.52289800  0.94072400  0.16751800  1
  O  O63  1  0.77313200  0.19070700  0.66742600  1
  O  O64  1  0.02327600  0.30931000  0.03634900  1
  O  O65  1  0.27323100  0.55931700  0.53617900  1
  O  O66  1  0.52313000  0.80928800  0.03635600  1
  O  O67  1  0.77317000  0.05931700  0.53626700  1
