# generated using pymatgen
data_LiVSiO4
_symmetry_space_group_name_H-M   'P 1'
_cell_length_a   5.43202601
_cell_length_b   8.21504026
_cell_length_c   8.49752284
_cell_angle_alpha   106.08394248
_cell_angle_beta   89.99677101
_cell_angle_gamma   89.99433423
_symmetry_Int_Tables_number   1
_chemical_formula_structural   LiVSiO4
_chemical_formula_sum   'Li4 V4 Si4 O16'
_cell_volume   364.35317479
_cell_formula_units_Z   4
loop_
 _symmetry_equiv_pos_site_id
 _symmetry_equiv_pos_as_xyz
  1  'x, y, z'
loop_
 _atom_site_type_symbol
 _atom_site_label
 _atom_site_symmetry_multiplicity
 _atom_site_fract_x
 _atom_site_fract_y
 _atom_site_fract_z
 _atom_site_occupancy
  Li  Li0  1  0.84568900  0.96989700  0.07367600  1
  Li  Li1  1  0.15421600  0.96990300  0.57363800  1
  Li  Li2  1  0.34065600  0.50303500  0.28390300  1
  Li  Li3  1  0.65939600  0.50293700  0.78379900  1
  V  V4  1  0.66145600  0.86364000  0.70148800  1
  V  V5  1  0.83396500  0.36846900  0.38860900  1
  V  V6  1  0.33851800  0.86361000  0.20144100  1
  V  V7  1  0.16617500  0.36841900  0.88858800  1
  Si  Si8  1  0.66315500  0.24721500  0.01079300  1
  Si  Si9  1  0.33692700  0.24719700  0.51075800  1
  Si  Si10  1  0.83620000  0.74069000  0.32649700  1
  Si  Si11  1  0.16372700  0.74065000  0.82642200  1
  O  O12  1  0.17400900  0.88431400  0.00716800  1
  O  O13  1  0.82586800  0.88435700  0.50718400  1
  O  O14  1  0.38344500  0.32430200  0.05102500  1
  O  O15  1  0.61662900  0.32421000  0.55094300  1
  O  O16  1  0.68809000  0.81474300  0.19093400  1
  O  O17  1  0.31187900  0.81475100  0.69083500  1
  O  O18  1  0.12756900  0.70099000  0.27150100  1
  O  O19  1  0.87227300  0.70086100  0.77144200  1
  O  O20  1  0.78230500  0.21459200  0.17812200  1
  O  O21  1  0.21788800  0.21452500  0.67808900  1
  O  O22  1  0.69484800  0.57079800  0.34627600  1
  O  O23  1  0.30516100  0.57073500  0.84621700  1
  O  O24  1  0.18036900  0.38171200  0.43655000  1
  O  O25  1  0.81969200  0.38162500  0.93645500  1
  O  O26  1  0.31004200  0.05473300  0.38756700  1
  O  O27  1  0.68985400  0.05468900  0.88768200  1
