# generated using pymatgen
data_Li4Co2(PO4)3
_symmetry_space_group_name_H-M   'P 1'
_cell_length_a   9.10950475
_cell_length_b   8.51903386
_cell_length_c   8.38508362
_cell_angle_alpha   59.11149143
_cell_angle_beta   63.44315653
_cell_angle_gamma   62.54398285
_symmetry_Int_Tables_number   1
_chemical_formula_structural   Li4Co2(PO4)3
_chemical_formula_sum   'Li8 Co4 P6 O24'
_cell_volume   476.23977812
_cell_formula_units_Z   2
loop_
 _symmetry_equiv_pos_site_id
 _symmetry_equiv_pos_as_xyz
  1  'x, y, z'
loop_
 _atom_site_type_symbol
 _atom_site_label
 _atom_site_symmetry_multiplicity
 _atom_site_fract_x
 _atom_site_fract_y
 _atom_site_fract_z
 _atom_site_occupancy
  Li  Li0  1  0.14524223  0.66431856  0.27398846  1
  Li  Li1  1  0.13859392  0.27055974  0.91922557  1
  Li  Li2  1  0.10267236  0.92887335  0.69091847  1
  Li  Li3  1  0.58353775  0.21299766  0.46579046  1
  Li  Li4  1  0.41646225  0.78700234  0.53420954  1
  Li  Li5  1  0.89732764  0.07112665  0.30908153  1
  Li  Li6  1  0.86140608  0.72944026  0.08077443  1
  Li  Li7  1  0.85475777  0.33568144  0.72601154  1
  Co  Co8  1  0.04016728  0.64789153  0.66060329  1
  Co  Co9  1  0.55935344  0.14477439  0.14174467  1
  Co  Co10  1  0.44064656  0.85522561  0.85825533  1
  Co  Co11  1  0.95983272  0.35210847  0.33939671  1
  P  P12  1  0.23923790  0.24477878  0.55313743  1
  P  P13  1  0.25325848  0.95250770  0.25576774  1
  P  P14  1  0.25196680  0.54454795  0.95394680  1
  P  P15  1  0.74803320  0.45545205  0.04605320  1
  P  P16  1  0.74674152  0.04749230  0.74423226  1
  P  P17  1  0.76076210  0.75522122  0.44686257  1
  O  O18  1  0.10645237  0.14858432  0.20258513  1
  O  O19  1  0.10377096  0.55601061  0.14243165  1
  O  O20  1  0.08988773  0.20469364  0.54754715  1
  O  O21  1  0.19261201  0.45858552  0.51204700  1
  O  O22  1  0.25768214  0.11889309  0.76186779  1
  O  O23  1  0.41072899  0.18475701  0.41065918  1
  O  O24  1  0.27184078  0.84919369  0.13845426  1
  O  O25  1  0.20012978  0.83014134  0.47828828  1
  O  O26  1  0.19930584  0.49300417  0.83857873  1
  O  O27  1  0.57777893  0.59873309  0.00049680  1
  O  O28  1  0.71687087  0.25443183  0.17482941  1
  O  O29  1  0.57630418  0.02432441  0.77993753  1
  O  O30  1  0.42369582  0.97567559  0.22006247  1
  O  O31  1  0.28312913  0.74556817  0.82517059  1
  O  O32  1  0.42222107  0.40126691  -0.00049680  1
  O  O33  1  0.80069416  0.50699583  0.16142127  1
  O  O34  1  0.79987022  0.16985866  0.52171172  1
  O  O35  1  0.72815922  0.15080631  0.86154574  1
  O  O36  1  0.58927101  0.81524299  0.58934082  1
  O  O37  1  0.74231786  0.88110691  0.23813221  1
  O  O38  1  0.80738799  0.54141448  0.48795300  1
  O  O39  1  0.91011227  0.79530636  0.45245285  1
  O  O40  1  0.89622904  0.44398939  0.85756835  1
  O  O41  1  0.89354763  0.85141568  0.79741487  1
