# generated using pymatgen
data_Li5VP2(O4F)2
_symmetry_space_group_name_H-M   'P 1'
_cell_length_a   10.09538846
_cell_length_b   10.09538846
_cell_length_c   6.57593300
_cell_angle_alpha   90.00000000
_cell_angle_beta   90.00000000
_cell_angle_gamma   120.00000301
_symmetry_Int_Tables_number   1
_chemical_formula_structural   Li5VP2(O4F)2
_chemical_formula_sum   'Li15 V3 P6 O24 F6'
_cell_volume   580.40890597
_cell_formula_units_Z   3
loop_
 _symmetry_equiv_pos_site_id
 _symmetry_equiv_pos_as_xyz
  1  'x, y, z'
loop_
 _atom_site_type_symbol
 _atom_site_label
 _atom_site_symmetry_multiplicity
 _atom_site_fract_x
 _atom_site_fract_y
 _atom_site_fract_z
 _atom_site_occupancy
  Li  Li0  1  0.83370600  0.16739900  0.50284500  1
  Li  Li1  1  0.00000000  0.00000000  0.56102100  1
  Li  Li2  1  0.00000000  0.00000000  0.95903000  1
  Li  Li3  1  0.66666700  0.33333300  0.44862600  1
  Li  Li4  1  0.66666700  0.33333300  0.05148300  1
  Li  Li5  1  0.83260100  0.66630700  0.50284500  1
  Li  Li6  1  0.33369300  0.16629400  0.50284500  1
  Li  Li7  1  0.12993300  0.81462500  0.73757900  1
  Li  Li8  1  0.98616600  0.46724300  0.27143600  1
  Li  Li9  1  0.48107700  0.01383400  0.27143600  1
  Li  Li10  1  0.33333300  0.66666700  0.97837300  1
  Li  Li11  1  0.33333300  0.66666700  0.49168900  1
  Li  Li12  1  0.18537500  0.31530800  0.73757900  1
  Li  Li13  1  0.68469200  0.87006700  0.73757900  1
  Li  Li14  1  0.53275700  0.51892300  0.27143600  1
  V  V15  1  0.83380800  0.16717900  0.00448600  1
  V  V16  1  0.83282100  0.66662900  0.00448600  1
  V  V17  1  0.33337100  0.16619200  0.00448600  1
  P  P18  1  0.70231000  0.85472300  0.26620300  1
  P  P19  1  0.15241300  0.29769000  0.26620300  1
  P  P20  1  0.96498600  0.48012900  0.74379500  1
  P  P21  1  0.14527700  0.84758700  0.26620300  1
  P  P22  1  0.51514300  0.03501400  0.74379500  1
  P  P23  1  0.51987100  0.48485700  0.74379500  1
  O  O24  1  0.68601500  0.07327600  0.76639900  1
  O  O25  1  0.78366400  0.95831200  0.07608700  1
  O  O26  1  0.78134100  0.94480300  0.46065500  1
  O  O27  1  0.98242100  0.26198800  0.24181800  1
  O  O28  1  0.73801200  0.72043300  0.24181800  1
  O  O29  1  0.16346300  0.21865900  0.46065500  1
  O  O30  1  0.17464800  0.21633600  0.07608700  1
  O  O31  1  0.92672400  0.61273900  0.76639900  1
  O  O32  1  0.04168800  0.82535200  0.07608700  1
  O  O33  1  0.05519700  0.83653700  0.46065500  1
  O  O34  1  0.88832300  0.39029000  0.54818900  1
  O  O35  1  0.88331600  0.37576600  0.93284800  1
  O  O36  1  0.27956700  0.01757900  0.24181800  1
  O  O37  1  0.38726100  0.31398500  0.76639900  1
  O  O38  1  0.20839900  0.73724800  0.26315600  1
  O  O39  1  0.13871800  0.54574500  0.74961300  1
  O  O40  1  0.49245000  0.11668400  0.93284800  1
  O  O41  1  0.50196700  0.11167700  0.54818900  1
  O  O42  1  0.40702700  0.86128200  0.74961300  1
  O  O43  1  0.26275200  0.47115100  0.26315600  1
  O  O44  1  0.52884900  0.79160100  0.26315600  1
  O  O45  1  0.45425500  0.59297300  0.74961300  1
  O  O46  1  0.60971000  0.49803300  0.54818900  1
  O  O47  1  0.62423400  0.50755000  0.93284800  1
  F  F48  1  0.69410500  0.17942700  0.22496100  1
  F  F49  1  0.97286700  0.15363200  0.78447700  1
  F  F50  1  0.84636800  0.81923500  0.78447700  1
  F  F51  1  0.82057300  0.51467900  0.22496100  1
  F  F52  1  0.18076500  0.02713300  0.78447700  1
  F  F53  1  0.48532100  0.30589500  0.22496100  1
