# generated using pymatgen
data_Na5LiFe2P2(CO7)2
_symmetry_space_group_name_H-M   'P 1'
_cell_length_a   6.59733700
_cell_length_b   8.99867928
_cell_length_c   10.39942687
_cell_angle_alpha   90.98792948
_cell_angle_beta   90.17925781
_cell_angle_gamma   90.69932585
_symmetry_Int_Tables_number   1
_chemical_formula_structural   Na5LiFe2P2(CO7)2
_chemical_formula_sum   'Na10 Li2 Fe4 P4 C4 O28'
_cell_volume   617.24490307
_cell_formula_units_Z   2
loop_
 _symmetry_equiv_pos_site_id
 _symmetry_equiv_pos_as_xyz
  1  'x, y, z'
loop_
 _atom_site_type_symbol
 _atom_site_label
 _atom_site_symmetry_multiplicity
 _atom_site_fract_x
 _atom_site_fract_y
 _atom_site_fract_z
 _atom_site_occupancy
  Na  Na0  1  0.24576700  0.91710400  0.88092200  1
  Na  Na1  1  0.24797200  0.91743300  0.37948300  1
  Na  Na2  1  0.00110000  0.73980400  0.62454800  1
  Na  Na3  1  0.49952500  0.73897800  0.62398400  1
  Na  Na4  1  0.49847700  0.73967300  0.12464500  1
  Na  Na5  1  0.50152300  0.26032700  0.87535500  1
  Na  Na6  1  0.50047500  0.26102200  0.37601600  1
  Na  Na7  1  0.99890000  0.26019600  0.37545200  1
  Na  Na8  1  0.75202800  0.08256700  0.62051700  1
  Na  Na9  1  0.75423300  0.08289600  0.11907800  1
  Li  Li10  1  0.00436700  0.73081600  0.12326300  1
  Li  Li11  1  0.99563300  0.26918400  0.87673700  1
  Fe  Fe12  1  0.75168600  0.64524500  0.89391000  1
  Fe  Fe13  1  0.75050200  0.64501800  0.39145800  1
  Fe  Fe14  1  0.24949800  0.35498200  0.60854200  1
  Fe  Fe15  1  0.24831400  0.35475500  0.10609000  1
  P  P16  1  0.24601500  0.58357800  0.85090300  1
  P  P17  1  0.24675900  0.58770900  0.34864900  1
  P  P18  1  0.75324100  0.41229100  0.65135100  1
  P  P19  1  0.75398500  0.41642200  0.14909700  1
  C  C20  1  0.75647200  0.94383200  0.86691900  1
  C  C21  1  0.75214000  0.93916600  0.36455900  1
  C  C22  1  0.24786000  0.06083400  0.63544100  1
  C  C23  1  0.24352800  0.05616800  0.13308100  1
  O  O24  1  0.25200200  0.91724800  0.64338500  1
  O  O25  1  0.23327700  0.91193400  0.13974500  1
  O  O26  1  0.75113200  0.87931900  0.97793100  1
  O  O27  1  0.75127300  0.87711500  0.47690000  1
  O  O28  1  0.75097000  0.86151300  0.76248800  1
  O  O29  1  0.75672600  0.85573400  0.26105000  1
  O  O30  1  0.06353400  0.68140900  0.89467400  1
  O  O31  1  0.43905500  0.67402600  0.89417800  1
  O  O32  1  0.06229200  0.68166100  0.39417400  1
  O  O33  1  0.43856400  0.68202800  0.38815800  1
  O  O34  1  0.24693100  0.56733800  0.70159100  1
  O  O35  1  0.75025300  0.56593300  0.58808100  1
  O  O36  1  0.23772200  0.57082500  0.19889400  1
  O  O37  1  0.76463300  0.57273800  0.08930100  1
  O  O38  1  0.23536700  0.42726200  0.91069900  1
  O  O39  1  0.76227800  0.42917500  0.80110600  1
  O  O40  1  0.24974700  0.43406700  0.41191900  1
  O  O41  1  0.75306900  0.43266200  0.29840900  1
  O  O42  1  0.56143600  0.31797200  0.61184200  1
  O  O43  1  0.93770800  0.31833900  0.60582600  1
  O  O44  1  0.56094500  0.32597400  0.10582200  1
  O  O45  1  0.93646600  0.31859100  0.10532600  1
  O  O46  1  0.24327400  0.14426600  0.73895000  1
  O  O47  1  0.24903000  0.13848700  0.23751200  1
  O  O48  1  0.24872700  0.12288500  0.52310000  1
  O  O49  1  0.24886800  0.12068100  0.02206900  1
  O  O50  1  0.76672300  0.08806600  0.86025500  1
  O  O51  1  0.74799800  0.08275200  0.35661500  1
