# generated using pymatgen
data_Li6V2O5F2
_symmetry_space_group_name_H-M   'P 1'
_cell_length_a   5.89980800
_cell_length_b   5.90582122
_cell_length_c   9.98269847
_cell_angle_alpha   97.82538950
_cell_angle_beta   91.74494821
_cell_angle_gamma   119.01315701
_symmetry_Int_Tables_number   1
_chemical_formula_structural   Li6V2O5F2
_chemical_formula_sum   'Li12 V4 O10 F4'
_cell_volume   299.47229673
_cell_formula_units_Z   2
loop_
 _symmetry_equiv_pos_site_id
 _symmetry_equiv_pos_as_xyz
  1  'x, y, z'
loop_
 _atom_site_type_symbol
 _atom_site_label
 _atom_site_symmetry_multiplicity
 _atom_site_fract_x
 _atom_site_fract_y
 _atom_site_fract_z
 _atom_site_occupancy
  Li  Li0  1  0.79496300  0.86664100  0.91003700  1
  Li  Li1  1  0.52512700  0.86082500  0.39677300  1
  Li  Li2  1  0.08548800  0.88502100  0.42284800  1
  Li  Li3  1  0.31630300  0.87027700  0.90459400  1
  Li  Li4  1  0.66394900  0.58685000  0.10610700  1
  Li  Li5  1  0.91882300  0.58633900  0.60374700  1
  Li  Li6  1  0.08117700  0.41366100  0.39625300  1
  Li  Li7  1  0.33605100  0.41315000  0.89389300  1
  Li  Li8  1  0.68369700  0.12972300  0.09540600  1
  Li  Li9  1  0.91451200  0.11497900  0.57715200  1
  Li  Li10  1  0.47487300  0.13917500  0.60322700  1
  Li  Li11  1  0.20503700  0.13335900  0.08996300  1
  V  V12  1  0.20265700  0.61996800  0.12188300  1
  V  V13  1  0.44521700  0.61561100  0.62460900  1
  V  V14  1  0.55478300  0.38438900  0.37539100  1
  V  V15  1  0.79734300  0.38003200  0.87811700  1
  O  O16  1  0.49982100  0.75848400  0.02160100  1
  O  O17  1  0.26088300  0.75694800  0.52931400  1
  O  O18  1  0.73595700  0.73165300  0.49308400  1
  O  O19  1  0.35052000  0.48178900  0.25085200  1
  O  O20  1  0.00240000  0.73656400  0.00861000  1
  O  O21  1  0.99760000  0.26343600  0.99139000  1
  O  O22  1  0.64948000  0.51821100  0.74914800  1
  O  O23  1  0.26404300  0.26834700  0.50691600  1
  O  O24  1  0.73911700  0.24305200  0.47068600  1
  O  O25  1  0.50017900  0.24151600  0.97839900  1
  F  F26  1  0.86604100  0.49921400  0.24309600  1
  F  F27  1  0.13395900  0.50078600  0.75690400  1
  F  F28  1  0.34572600  0.99572500  0.25633600  1
  F  F29  1  0.65427400  0.00427500  0.74366400  1
