# generated using pymatgen
data_Li4VGa3O8
_symmetry_space_group_name_H-M   'P 1'
_cell_length_a   7.51475228
_cell_length_b   7.52213605
_cell_length_c   8.24776988
_cell_angle_alpha   114.74943337
_cell_angle_beta   114.67371822
_cell_angle_gamma   94.68080510
_symmetry_Int_Tables_number   1
_chemical_formula_structural   Li4VGa3O8
_chemical_formula_sum   'Li8 V2 Ga6 O16'
_cell_volume   365.70443448
_cell_formula_units_Z   2
loop_
 _symmetry_equiv_pos_site_id
 _symmetry_equiv_pos_as_xyz
  1  'x, y, z'
loop_
 _atom_site_type_symbol
 _atom_site_label
 _atom_site_symmetry_multiplicity
 _atom_site_fract_x
 _atom_site_fract_y
 _atom_site_fract_z
 _atom_site_occupancy
  Li  Li0  1  0.52324600  0.60495600  0.62489500  1
  Li  Li1  1  0.02318200  0.10491000  0.62478300  1
  Li  Li2  1  0.85353900  0.27388300  0.12396600  1
  Li  Li3  1  0.35360600  0.77397400  0.12397400  1
  Li  Li4  1  0.39670000  0.98053800  0.87361700  1
  Li  Li5  1  0.89664500  0.48060900  0.87362900  1
  Li  Li6  1  0.73246100  0.64801200  0.37705500  1
  Li  Li7  1  0.23239500  0.14795100  0.37704800  1
  V  V8  1  0.77328500  0.85701800  0.12771900  1
  V  V9  1  0.27331700  0.35694000  0.12769400  1
  Ga  Ga10  1  0.60429300  0.02173400  0.62660400  1
  Ga  Ga11  1  0.10428100  0.52171600  0.62658900  1
  Ga  Ga12  1  0.14774800  0.73024100  0.37795300  1
  Ga  Ga13  1  0.64784200  0.23003900  0.37785500  1
  Ga  Ga14  1  0.47571900  0.39206800  0.86981000  1
  Ga  Ga15  1  0.97552700  0.89180800  0.86967700  1
  O  O16  1  0.08100600  0.14848900  0.11013000  1
  O  O17  1  0.58105000  0.64841200  0.10993200  1
  O  O18  1  0.32612700  0.42028300  0.63799400  1
  O  O19  1  0.82613600  0.92025700  0.63803300  1
  O  O20  1  0.16411300  0.58283700  0.13883800  1
  O  O21  1  0.66414400  0.08280600  0.13902700  1
  O  O22  1  0.40833700  0.83545700  0.61272800  1
  O  O23  1  0.90840700  0.33543900  0.61277500  1
  O  O24  1  0.97660300  0.54404300  0.38927600  1
  O  O25  1  0.47659000  0.04402700  0.38928400  1
  O  O26  1  0.18737700  0.78028200  0.85997400  1
  O  O27  1  0.68744800  0.28028000  0.85997800  1
  O  O28  1  0.03675700  0.94059400  0.36910400  1
  O  O29  1  0.53667600  0.44073900  0.36903600  1
  O  O30  1  0.29149800  0.21859600  0.88054200  1
  O  O31  1  0.79154300  0.71866200  0.88048200  1
