# generated using pymatgen
data_Li6Fe3Sb(PO4)6
_symmetry_space_group_name_H-M   'P 1'
_cell_length_a   8.63900100
_cell_length_b   8.76982418
_cell_length_c   8.81254577
_cell_angle_alpha   60.84361262
_cell_angle_beta   60.99083367
_cell_angle_gamma   61.51053694
_symmetry_Int_Tables_number   1
_chemical_formula_structural   Li6Fe3Sb(PO4)6
_chemical_formula_sum   'Li6 Fe3 Sb1 P6 O24'
_cell_volume   483.92003522
_cell_formula_units_Z   1
loop_
 _symmetry_equiv_pos_site_id
 _symmetry_equiv_pos_as_xyz
  1  'x, y, z'
loop_
 _atom_site_type_symbol
 _atom_site_label
 _atom_site_symmetry_multiplicity
 _atom_site_fract_x
 _atom_site_fract_y
 _atom_site_fract_z
 _atom_site_occupancy
  Li  Li0  1  0.02915800  0.01535500  0.00738800  1
  Li  Li1  1  0.72969000  0.15566500  0.35184500  1
  Li  Li2  1  0.47195500  0.49759500  0.48839800  1
  Li  Li3  1  0.31071200  0.83916600  0.63832200  1
  Li  Li4  1  0.64333700  0.31257300  0.83566400  1
  Li  Li5  1  0.83606800  0.63838300  0.31296300  1
  Fe  Fe6  1  0.14678700  0.14932100  0.14056800  1
  Fe  Fe7  1  0.34927900  0.36080500  0.35325800  1
  Fe  Fe8  1  0.64746900  0.65348200  0.65342400  1
  Sb  Sb9  1  0.85405800  0.84997800  0.85162900  1
  P  P10  1  0.05258700  0.75196300  0.44070200  1
  P  P11  1  0.44433700  0.05060300  0.74860400  1
  P  P12  1  0.74870700  0.44463600  0.04990900  1
  P  P13  1  0.24700200  0.54295900  0.95428400  1
  P  P14  1  0.54833900  0.96018600  0.24555900  1
  P  P15  1  0.95275700  0.24230000  0.53657200  1
  O  O16  1  0.13097200  0.26026100  0.51051700  1
  O  O17  1  0.27715700  0.53294000  0.11398200  1
  O  O18  1  0.05506200  0.92490800  0.26541200  1
  O  O19  1  0.55788100  0.11132600  0.27713600  1
  O  O20  1  0.23870200  0.60155300  0.43290100  1
  O  O21  1  0.00083200  0.81026600  0.61090500  1
  O  O22  1  0.26186700  0.07883500  0.90928200  1
  O  O23  1  0.46637200  0.22497100  0.58147400  1
  O  O24  1  0.59755400  0.43348000  0.23983300  1
  O  O25  1  0.17321700  0.39372900  0.00058400  1
  O  O26  1  0.09638600  0.74744400  0.89916800  1
  O  O27  1  0.38501000  0.02216300  0.18359300  1
  O  O28  1  0.61110200  0.99225800  0.81797500  1
  O  O29  1  0.90934200  0.25967100  0.07267100  1
  O  O30  1  0.81159500  0.61030800  0.00239200  1
  O  O31  1  0.41444100  0.54887500  0.77143500  1
  O  O32  1  0.54835600  0.77769300  0.41158400  1
  O  O33  1  0.74939100  0.90100400  0.09135300  1
  O  O34  1  0.97137500  0.18392200  0.38924700  1
  O  O35  1  0.77623100  0.41280700  0.55382600  1
  O  O36  1  0.46553400  0.89651000  0.69650500  1
  O  O37  1  0.90337300  0.09178300  0.74307600  1
  O  O38  1  0.69069800  0.47378200  0.89677100  1
  O  O39  1  0.89530400  0.69353900  0.47029300  1
