# generated using pymatgen
data_Li8Mn5Fe3(BO3)8
_symmetry_space_group_name_H-M   'P 1'
_cell_length_a   6.03076100
_cell_length_b   9.73820999
_cell_length_c   9.84769558
_cell_angle_alpha   64.43309447
_cell_angle_beta   79.23444174
_cell_angle_gamma   78.49231346
_symmetry_Int_Tables_number   1
_chemical_formula_structural   Li8Mn5Fe3(BO3)8
_chemical_formula_sum   'Li8 Mn5 Fe3 B8 O24'
_cell_volume   507.89798460
_cell_formula_units_Z   1
loop_
 _symmetry_equiv_pos_site_id
 _symmetry_equiv_pos_as_xyz
  1  'x, y, z'
loop_
 _atom_site_type_symbol
 _atom_site_label
 _atom_site_symmetry_multiplicity
 _atom_site_fract_x
 _atom_site_fract_y
 _atom_site_fract_z
 _atom_site_occupancy
  Li  Li0  1  0.04630500  0.46706200  0.81681000  1
  Li  Li1  1  0.04493500  0.96706400  0.31470400  1
  Li  Li2  1  0.45563100  0.03470700  0.18506100  1
  Li  Li3  1  0.54478700  0.46576200  0.31333100  1
  Li  Li4  1  0.45432500  0.53343900  0.68579100  1
  Li  Li5  1  0.54455400  0.96638300  0.81525700  1
  Li  Li6  1  0.95409500  0.03378500  0.68381900  1
  Li  Li7  1  0.95264200  0.53251100  0.18262700  1
  Mn  Mn8  1  0.31430500  0.29352300  0.62507300  1
  Mn  Mn9  1  0.31303600  0.79328400  0.12452800  1
  Mn  Mn10  1  0.68688100  0.20696000  0.87571700  1
  Mn  Mn11  1  0.68578000  0.70554600  0.37307900  1
  Mn  Mn12  1  0.81458100  0.79356900  0.62713600  1
  Fe  Fe13  1  0.18265800  0.20251800  0.37435600  1
  Fe  Fe14  1  0.18330800  0.70901500  0.87192200  1
  Fe  Fe15  1  0.81957200  0.29031600  0.12970500  1
  B  B16  1  0.33499200  0.36784700  0.03940300  1
  B  B17  1  0.16660200  0.13336000  0.96537100  1
  B  B18  1  0.16735100  0.63243400  0.46350500  1
  B  B19  1  0.33272400  0.86818400  0.53886100  1
  B  B20  1  0.66345600  0.13354400  0.46163500  1
  B  B21  1  0.83357600  0.36785100  0.53431100  1
  B  B22  1  0.83414200  0.86738500  0.03449100  1
  B  B23  1  0.66684300  0.63044300  0.96309300  1
  O  O24  1  0.17649500  0.01514600  0.10789700  1
  O  O25  1  0.01452100  0.24717200  0.56066700  1
  O  O26  1  0.01488200  0.74550200  0.06106600  1
  O  O27  1  0.16004500  0.36305700  0.15581900  1
  O  O28  1  0.17537600  0.51564500  0.60756200  1
  O  O29  1  0.51726000  0.24769000  0.06562500  1
  O  O30  1  0.16271100  0.86186900  0.65778100  1
  O  O31  1  0.33707300  0.13567500  0.84790700  1
  O  O32  1  0.34035900  0.63464500  0.34784900  1
  O  O33  1  0.48304100  0.25345600  0.43406300  1
  O  O34  1  0.32604200  0.48532900  0.89583800  1
  O  O35  1  0.31901300  0.98872400  0.39699800  1
  O  O36  1  0.67563300  0.01660300  0.60495700  1
  O  O37  1  0.67641300  0.51267100  0.10539500  1
  O  O38  1  0.51266400  0.74868300  0.56309200  1
  O  O39  1  0.66294900  0.36498800  0.65203500  1
  O  O40  1  0.66280700  0.86562800  0.15117900  1
  O  O41  1  0.83614600  0.13579200  0.34488900  1
  O  O42  1  0.48570200  0.75161800  0.93497400  1
  O  O43  1  0.82407700  0.48490800  0.39135900  1
  O  O44  1  0.84199800  0.63466400  0.84728500  1
  O  O45  1  0.98632600  0.25464500  0.93939300  1
  O  O46  1  0.98680200  0.75376900  0.43539900  1
  O  O47  1  0.82458300  0.98563300  0.89138600  1
