# generated using pymatgen
data_NaLi2FePCO7
_symmetry_space_group_name_H-M   'P 1'
_cell_length_a   5.11583429
_cell_length_b   17.22920127
_cell_length_c   6.60260991
_cell_angle_alpha   90.05154520
_cell_angle_beta   90.11583350
_cell_angle_gamma   84.31930257
_symmetry_Int_Tables_number   1
_chemical_formula_structural   NaLi2FePCO7
_chemical_formula_sum   'Na4 Li8 Fe4 P4 C4 O28'
_cell_volume   579.10614321
_cell_formula_units_Z   4
loop_
 _symmetry_equiv_pos_site_id
 _symmetry_equiv_pos_as_xyz
  1  'x, y, z'
loop_
 _atom_site_type_symbol
 _atom_site_label
 _atom_site_symmetry_multiplicity
 _atom_site_fract_x
 _atom_site_fract_y
 _atom_site_fract_z
 _atom_site_occupancy
  Na  Na0  1  0.26764600  0.13177500  0.00895700  1
  Na  Na1  1  0.26958300  0.63152700  0.00951000  1
  Na  Na2  1  0.73161200  0.36792300  0.51122800  1
  Na  Na3  1  0.72764500  0.86819900  0.51044900  1
  Li  Li4  1  0.78744800  0.05136600  0.26245600  1
  Li  Li5  1  0.79117700  0.55149900  0.26318000  1
  Li  Li6  1  0.21200300  0.44844900  0.76301600  1
  Li  Li7  1  0.21074400  0.94855700  0.76373000  1
  Li  Li8  1  0.27052000  0.13881500  0.48100200  1
  Li  Li9  1  0.27306500  0.63846000  0.48066000  1
  Li  Li10  1  0.72645100  0.36172000  0.98388000  1
  Li  Li11  1  0.72958600  0.86182300  0.98361800  1
  Fe  Fe12  1  0.78941300  0.66805100  0.74066800  1
  Fe  Fe13  1  0.21164400  0.83208800  0.24212100  1
  Fe  Fe14  1  0.78767300  0.16819300  0.74077400  1
  Fe  Fe15  1  0.21155800  0.33196300  0.24157800  1
  P  P16  1  0.72628900  0.20483800  0.24653500  1
  P  P17  1  0.72658000  0.70490800  0.24635400  1
  P  P18  1  0.27288800  0.29509900  0.74714300  1
  P  P19  1  0.27333600  0.79495500  0.74680400  1
  C  C20  1  0.68210100  0.02102200  0.75435100  1
  C  C21  1  0.68328500  0.52087100  0.75458900  1
  C  C22  1  0.31973200  0.47892300  0.25458600  1
  C  C23  1  0.31657500  0.97932600  0.25400700  1
  O  O24  1  0.39313900  0.04819400  0.27708300  1
  O  O25  1  0.39783400  0.54762100  0.27762900  1
  O  O26  1  0.60536500  0.45223300  0.77833000  1
  O  O27  1  0.60444700  0.95231700  0.77810000  1
  O  O28  1  0.92861800  0.03296300  0.75633100  1
  O  O29  1  0.92995800  0.53274400  0.75587400  1
  O  O30  1  0.07317300  0.46710500  0.25618900  1
  O  O31  1  0.07031400  0.96699400  0.25568300  1
  O  O32  1  0.50846000  0.08133600  0.72778900  1
  O  O33  1  0.50989000  0.58128600  0.72858100  1
  O  O34  1  0.49295100  0.41844700  0.22908200  1
  O  O35  1  0.49110300  0.91918300  0.22833700  1
  O  O36  1  0.79302000  0.15142200  0.05870100  1
  O  O37  1  0.79535700  0.65168200  0.05849800  1
  O  O38  1  0.20525100  0.34854200  0.55949400  1
  O  O39  1  0.20333100  0.84841900  0.55937700  1
  O  O40  1  0.84792500  0.15460700  0.42728500  1
  O  O41  1  0.84811300  0.65462800  0.42711500  1
  O  O42  1  0.15232100  0.34528700  0.92811700  1
  O  O43  1  0.15365800  0.84499200  0.92838600  1
  O  O44  1  0.42196800  0.21829300  0.27313100  1
  O  O45  1  0.42193400  0.71797700  0.27156000  1
  O  O46  1  0.57729000  0.28167100  0.77368400  1
  O  O47  1  0.57780100  0.78176800  0.77214500  1
  O  O48  1  0.15901800  0.21586300  0.73037500  1
  O  O49  1  0.16022500  0.71557800  0.73016100  1
  O  O50  1  0.84008600  0.28408100  0.23046300  1
  O  O51  1  0.83889500  0.78441600  0.23130700  1
