# generated using pymatgen
data_Li7VO5F
_symmetry_space_group_name_H-M   'P 1'
_cell_length_a   5.56891200
_cell_length_b   5.99959793
_cell_length_c   9.40073951
_cell_angle_alpha   93.66976915
_cell_angle_beta   103.06923986
_cell_angle_gamma   116.04631807
_symmetry_Int_Tables_number   1
_chemical_formula_structural   Li7VO5F
_chemical_formula_sum   'Li14 V2 O10 F2'
_cell_volume   270.05408977
_cell_formula_units_Z   2
loop_
 _symmetry_equiv_pos_site_id
 _symmetry_equiv_pos_as_xyz
  1  'x, y, z'
loop_
 _atom_site_type_symbol
 _atom_site_label
 _atom_site_symmetry_multiplicity
 _atom_site_fract_x
 _atom_site_fract_y
 _atom_site_fract_z
 _atom_site_occupancy
  Li  Li0  1  0.77435200  0.87623000  0.52932200  1
  Li  Li1  1  0.75520700  0.34967400  0.99136900  1
  Li  Li2  1  0.03857700  0.60319900  0.39013500  1
  Li  Li3  1  0.96142300  0.39680100  0.60986500  1
  Li  Li4  1  0.50291600  0.98808200  0.31723900  1
  Li  Li5  1  0.50403500  0.45250300  0.77014300  1
  Li  Li6  1  0.35152500  0.13980900  0.09816200  1
  Li  Li7  1  0.49708400  0.01191800  0.68276100  1
  Li  Li8  1  0.49596500  0.54749700  0.22985700  1
  Li  Li9  1  0.11937000  0.26567800  0.86872900  1
  Li  Li10  1  0.88063000  0.73432200  0.13127100  1
  Li  Li11  1  0.22564800  0.12377000  0.47067800  1
  Li  Li12  1  0.24479300  0.65032600  0.00863100  1
  Li  Li13  1  0.64847500  0.86019100  0.90183800  1
  V  V14  1  0.06362500  0.81804800  0.77597000  1
  V  V15  1  0.93637500  0.18195200  0.22403000  1
  O  O16  1  0.92398600  0.20737400  0.42142700  1
  O  O17  1  0.88948300  0.67407700  0.92157100  1
  O  O18  1  0.82170200  0.97879600  0.73561100  1
  O  O19  1  0.74229800  0.41008600  0.19420400  1
  O  O20  1  0.38923500  0.11899800  0.86609200  1
  O  O21  1  0.17829800  0.02120400  0.26438900  1
  O  O22  1  0.25770200  0.58991400  0.80579600  1
  O  O23  1  0.11051700  0.32592300  0.07842900  1
  O  O24  1  0.07601400  0.79262600  0.57857300  1
  O  O25  1  0.61076500  0.88100200  0.13390800  1
  F  F26  1  0.42231000  0.68406000  0.39103200  1
  F  F27  1  0.57769000  0.31594000  0.60896800  1
