# generated using pymatgen
data_Li6Ti(BO3)3
_symmetry_space_group_name_H-M   'P 1'
_cell_length_a   16.24116200
_cell_length_b   6.52147900
_cell_length_c   7.07589303
_cell_angle_alpha   74.94769125
_cell_angle_beta   90.00000000
_cell_angle_gamma   90.00000000
_symmetry_Int_Tables_number   1
_chemical_formula_structural   Li6Ti(BO3)3
_chemical_formula_sum   'Li24 Ti4 B12 O36'
_cell_volume   723.73870870
_cell_formula_units_Z   4
loop_
 _symmetry_equiv_pos_site_id
 _symmetry_equiv_pos_as_xyz
  1  'x, y, z'
loop_
 _atom_site_type_symbol
 _atom_site_label
 _atom_site_symmetry_multiplicity
 _atom_site_fract_x
 _atom_site_fract_y
 _atom_site_fract_z
 _atom_site_occupancy
  Li  Li0  1  0.00467000  0.32095000  0.06758800  1
  Li  Li1  1  0.44556300  0.41419800  0.13639000  1
  Li  Li2  1  0.49533000  0.82095000  0.06758800  1
  Li  Li3  1  0.53660500  0.05323600  0.30485800  1
  Li  Li4  1  0.05443700  0.91419800  0.13639000  1
  Li  Li5  1  0.29212400  0.36284900  0.27562600  1
  Li  Li6  1  0.96339500  0.55323600  0.30485800  1
  Li  Li7  1  0.70671500  0.04543900  0.42161100  1
  Li  Li8  1  0.03029400  0.17006500  0.45893700  1
  Li  Li9  1  0.20787600  0.86284900  0.27562600  1
  Li  Li10  1  0.79328500  0.54543900  0.42161100  1
  Li  Li11  1  0.46970600  0.67006500  0.45893700  1
  Li  Li12  1  0.53029400  0.32993500  0.54106300  1
  Li  Li13  1  0.20671500  0.45456100  0.57838900  1
  Li  Li14  1  0.79212400  0.13715100  0.72437400  1
  Li  Li15  1  0.96970600  0.82993500  0.54106300  1
  Li  Li16  1  0.29328500  0.95456100  0.57838900  1
  Li  Li17  1  0.03660500  0.44676400  0.69514200  1
  Li  Li18  1  0.70787600  0.63715100  0.72437400  1
  Li  Li19  1  0.94556300  0.08580200  0.86361000  1
  Li  Li20  1  0.46339500  0.94676400  0.69514200  1
  Li  Li21  1  0.50467000  0.17905000  0.93241200  1
  Li  Li22  1  0.55443700  0.58580200  0.86361000  1
  Li  Li23  1  0.99533000  0.67905000  0.93241200  1
  Ti  Ti24  1  0.81325500  0.33846300  0.07623200  1
  Ti  Ti25  1  0.68674500  0.83846300  0.07623200  1
  Ti  Ti26  1  0.31325500  0.16153700  0.92376800  1
  Ti  Ti27  1  0.18674500  0.66153700  0.92376800  1
  B  B28  1  0.63856700  0.34190700  0.08253100  1
  B  B29  1  0.86143300  0.84190700  0.08253100  1
  B  B30  1  0.12470900  0.50119700  0.28162200  1
  B  B31  1  0.88050100  0.18870800  0.43103400  1
  B  B32  1  0.37529100  0.00119700  0.28162200  1
  B  B33  1  0.61949900  0.68870800  0.43103400  1
  B  B34  1  0.38050100  0.31129200  0.56896600  1
  B  B35  1  0.62470900  0.99880300  0.71837800  1
  B  B36  1  0.11949900  0.81129200  0.56896600  1
  B  B37  1  0.87529100  0.49880300  0.71837800  1
  B  B38  1  0.13856700  0.15809300  0.91746900  1
  B  B39  1  0.36143300  0.65809300  0.91746900  1
  O  O40  1  0.32866500  0.45676500  0.99068300  1
  O  O41  1  0.42188700  0.03945500  0.11030300  1
  O  O42  1  0.55448500  0.31976000  0.09872500  1
  O  O43  1  0.69270300  0.17157600  0.12384400  1
  O  O44  1  0.17133500  0.95676500  0.99068300  1
  O  O45  1  0.07811300  0.53945500  0.11030300  1
  O  O46  1  0.29449900  0.06405000  0.24917200  1
  O  O47  1  0.94551500  0.81976000  0.09872500  1
  O  O48  1  0.80729700  0.67157600  0.12384400  1
  O  O49  1  0.92728400  0.26945400  0.26291000  1
  O  O50  1  0.20550100  0.56405000  0.24917200  1
  O  O51  1  0.57271600  0.76945400  0.26291000  1
  O  O52  1  0.79792500  0.23730800  0.40730100  1
  O  O53  1  0.41797200  0.42433400  0.39912400  1
  O  O54  1  0.59052200  0.08261400  0.53785600  1
  O  O55  1  0.09052200  0.41738600  0.46214400  1
  O  O56  1  0.70207500  0.73730800  0.40730100  1
  O  O57  1  0.91797200  0.07566600  0.60087600  1
  O  O58  1  0.08202800  0.92433400  0.39912400  1
  O  O59  1  0.29792500  0.26269200  0.59269900  1
  O  O60  1  0.90947800  0.58261400  0.53785600  1
  O  O61  1  0.40947800  0.91738600  0.46214400  1
  O  O62  1  0.58202800  0.57566600  0.60087600  1
  O  O63  1  0.20207500  0.76269200  0.59269900  1
  O  O64  1  0.42728400  0.23054600  0.73709000  1
  O  O65  1  0.79449900  0.43595000  0.75082800  1
  O  O66  1  0.07271600  0.73054600  0.73709000  1
  O  O67  1  0.19270300  0.32842400  0.87615600  1
  O  O68  1  0.05448500  0.18024000  0.90127500  1
  O  O69  1  0.70550100  0.93595000  0.75082800  1
  O  O70  1  0.92188700  0.46054500  0.88969700  1
  O  O71  1  0.82866500  0.04323500  0.00931700  1
  O  O72  1  0.30729700  0.82842400  0.87615600  1
  O  O73  1  0.44551500  0.68024000  0.90127500  1
  O  O74  1  0.57811300  0.96054500  0.88969700  1
  O  O75  1  0.67133500  0.54323500  0.00931700  1
