# generated using pymatgen
data_Li12Mn3VP4(CO7)4
_symmetry_space_group_name_H-M   'P 1'
_cell_length_a   6.62103000
_cell_length_b   8.52927400
_cell_length_c   10.00008452
_cell_angle_alpha   85.44371267
_cell_angle_beta   90.00000000
_cell_angle_gamma   90.00000000
_symmetry_Int_Tables_number   1
_chemical_formula_structural   Li12Mn3VP4(CO7)4
_chemical_formula_sum   'Li12 Mn3 V1 P4 C4 O28'
_cell_volume   562.94588758
_cell_formula_units_Z   1
loop_
 _symmetry_equiv_pos_site_id
 _symmetry_equiv_pos_as_xyz
  1  'x, y, z'
loop_
 _atom_site_type_symbol
 _atom_site_label
 _atom_site_symmetry_multiplicity
 _atom_site_fract_x
 _atom_site_fract_y
 _atom_site_fract_z
 _atom_site_occupancy
  Li  Li0  1  0.00000000  0.90934600  0.62065300  1
  Li  Li1  1  0.00000000  0.90781600  0.12030800  1
  Li  Li2  1  0.22273000  0.72670000  0.87719600  1
  Li  Li3  1  0.77727000  0.72670000  0.87719600  1
  Li  Li4  1  0.22287200  0.72563600  0.37685100  1
  Li  Li5  1  0.77712800  0.72563600  0.37685100  1
  Li  Li6  1  0.72226200  0.27351700  0.62290200  1
  Li  Li7  1  0.27773800  0.27351700  0.62290200  1
  Li  Li8  1  0.72300000  0.27393400  0.12336700  1
  Li  Li9  1  0.27700000  0.27393400  0.12336700  1
  Li  Li10  1  0.50000000  0.09137000  0.87912000  1
  Li  Li11  1  0.50000000  0.09162400  0.37905000  1
  Mn  Mn12  1  0.50000000  0.65938700  0.61022700  1
  Mn  Mn13  1  0.50000000  0.65947200  0.11027400  1
  Mn  Mn14  1  0.00000000  0.34057200  0.89011700  1
  V  V15  1  0.00000000  0.33128500  0.39595200  1
  P  P16  1  0.00000000  0.59066800  0.63911100  1
  P  P17  1  0.00000000  0.58870700  0.14087700  1
  P  P18  1  0.50000000  0.40994900  0.86013700  1
  P  P19  1  0.50000000  0.41022600  0.35987100  1
  C  C20  1  0.50000000  0.96711600  0.64789100  1
  C  C21  1  0.50000000  0.96717500  0.14791200  1
  C  C22  1  0.00000000  0.03296500  0.85202700  1
  C  C23  1  0.00000000  0.03449400  0.35082600  1
  O  O24  1  0.50000000  0.93020500  0.52460900  1
  O  O25  1  0.00000000  0.88711600  0.82249100  1
  O  O26  1  0.50000000  0.93020900  0.02495800  1
  O  O27  1  0.50000000  0.85542100  0.74476100  1
  O  O28  1  0.00000000  0.88874400  0.32349000  1
  O  O29  1  0.50000000  0.85553300  0.24508200  1
  O  O30  1  0.18392000  0.69033000  0.58598700  1
  O  O31  1  0.81608000  0.69033000  0.58598700  1
  O  O32  1  0.18345500  0.68936700  0.08706400  1
  O  O33  1  0.81654500  0.68936700  0.08706400  1
  O  O34  1  0.50000000  0.57956000  0.90576800  1
  O  O35  1  0.00000000  0.57560500  0.79599700  1
  O  O36  1  0.50000000  0.57964200  0.40595100  1
  O  O37  1  0.00000000  0.57295100  0.29800800  1
  O  O38  1  0.50000000  0.42374900  0.70296200  1
  O  O39  1  0.00000000  0.42176300  0.59214000  1
  O  O40  1  0.50000000  0.42400700  0.20291200  1
  O  O41  1  0.00000000  0.42066000  0.09257000  1
  O  O42  1  0.31617200  0.31050100  0.91361600  1
  O  O43  1  0.68382800  0.31050100  0.91361600  1
  O  O44  1  0.68318900  0.31034800  0.41371400  1
  O  O45  1  0.31681100  0.31034800  0.41371400  1
  O  O46  1  0.00000000  0.14463500  0.75483600  1
  O  O47  1  0.50000000  0.11289700  0.67725200  1
  O  O48  1  0.00000000  0.14645900  0.25425700  1
  O  O49  1  0.00000000  0.06987000  0.97503700  1
  O  O50  1  0.50000000  0.11303400  0.17745500  1
  O  O51  1  0.00000000  0.07510200  0.47371500  1
