# generated using pymatgen
data_Li32Ti5Cr11O48
_symmetry_space_group_name_H-M   'P 1'
_cell_length_a   5.06201127
_cell_length_b   5.06336664
_cell_length_c   38.58455325
_cell_angle_alpha   88.80707589
_cell_angle_beta   91.07226998
_cell_angle_gamma   60.05708826
_symmetry_Int_Tables_number   1
_chemical_formula_structural   Li32Ti5Cr11O48
_chemical_formula_sum   'Li32 Ti5 Cr11 O48'
_cell_volume   856.28191909
_cell_formula_units_Z   1
loop_
 _symmetry_equiv_pos_site_id
 _symmetry_equiv_pos_as_xyz
  1  'x, y, z'
loop_
 _atom_site_type_symbol
 _atom_site_label
 _atom_site_symmetry_multiplicity
 _atom_site_fract_x
 _atom_site_fract_y
 _atom_site_fract_z
 _atom_site_occupancy
  Li  Li0  1  0.08762292  0.08896320  0.25002828  1
  Li  Li1  1  0.99490086  0.49922505  0.99991643  1
  Li  Li2  1  0.06068985  0.43806541  0.18746047  1
  Li  Li3  1  0.12518057  0.37995778  0.37522218  1
  Li  Li4  1  0.18657445  0.31463807  0.56241317  1
  Li  Li5  1  0.24890980  0.24983739  0.74989600  1
  Li  Li6  1  0.31241566  0.18779512  0.93744761  1
  Li  Li7  1  0.03022820  0.79104596  0.12484205  1
  Li  Li8  1  0.37541823  0.12228160  0.12500908  1
  Li  Li9  1  0.16559177  0.65640213  0.49982981  1
  Li  Li10  1  0.27921802  0.53985521  0.87503548  1
  Li  Li11  1  0.43907116  0.05916458  0.31266797  1
  Li  Li12  1  0.49947774  0.99557950  0.49979281  1
  Li  Li13  1  0.41195201  0.40915531  0.25010911  1
  Li  Li14  1  0.53049319  0.29268154  0.62495570  1
  Li  Li15  1  0.21960398  0.95865427  0.62524512  1
  Li  Li16  1  0.34003589  0.84337573  0.99969640  1
  Li  Li17  1  0.66398732  0.15700616  0.99994411  1
  Li  Li18  1  0.78891706  0.02881015  0.37514915  1
  Li  Li19  1  0.46064278  0.71728295  0.37529879  1
  Li  Li20  1  0.58590701  0.59218481  0.74966743  1
  Li  Li21  1  0.56226638  0.93794324  0.68754975  1
  Li  Li22  1  0.72047506  0.46005063  0.12518573  1
  Li  Li23  1  0.83448060  0.34659903  0.49969056  1
  Li  Li24  1  0.62487338  0.87220037  0.87510629  1
  Li  Li25  1  0.96951992  0.21383905  0.87533990  1
  Li  Li26  1  0.68618348  0.81171530  0.06247955  1
  Li  Li27  1  0.75249044  0.75388794  0.25006699  1
  Li  Li28  1  0.81247529  0.68743244  0.43750040  1
  Li  Li29  1  0.87297865  0.62145766  0.62505443  1
  Li  Li30  1  0.93915511  0.56262901  0.81251358  1
  Li  Li31  1  0.91492776  0.90807011  0.75008804  1
  Ti  Ti32  1  0.35713690  0.48467904  0.06232829  1
  Ti  Ti33  1  0.59936644  0.23094288  0.81243857  1
  Ti  Ti34  1  0.40065503  0.76486007  0.18764254  1
  Ti  Ti35  1  0.76740098  0.40119528  0.31249779  1
  Ti  Ti36  1  0.85563300  0.97592200  0.56255585  1
  Cr  Cr37  1  0.01940863  0.14491422  0.06265330  1
  Cr  Cr38  1  0.14105384  0.02795039  0.43728581  1
  Cr  Cr39  1  0.10585701  0.72833817  0.31261451  1
  Cr  Cr40  1  0.22125175  0.60858636  0.68726860  1
  Cr  Cr41  1  0.48366655  0.34694789  0.43755457  1
  Cr  Cr42  1  0.27163201  0.89429191  0.81276639  1
  Cr  Cr43  1  0.72799083  0.10436861  0.18755082  1
  Cr  Cr44  1  0.51913439  0.64493532  0.56223948  1
  Cr  Cr45  1  0.64087663  0.51641879  0.93754531  1
  Cr  Cr46  1  0.90241529  0.26638474  0.68749456  1
  Cr  Cr47  1  0.98298756  0.85873749  0.93754700  1
  O  O48  1  0.09212538  0.04749574  0.34053449  1
  O  O49  1  0.04787142  0.09277589  0.15966160  1
  O  O50  1  0.07588672  0.43438857  0.28391741  1
  O  O51  1  0.18844821  0.29791679  0.65862085  1
  O  O52  1  0.05270718  0.44203545  0.09098729  1
  O  O53  1  0.17529859  0.31232445  0.46605918  1
  O  O54  1  0.30297794  0.20017641  0.84184997  1
  O  O55  1  0.31870925  0.17640602  0.03403429  1
  O  O56  1  0.44968742  0.06198595  0.40878667  1
  O  O57  1  0.06600872  0.78849669  0.21556218  1
  O  O58  1  0.43330210  0.07575709  0.21612432  1
  O  O59  1  0.19545781  0.65852226  0.59097933  1
  O  O60  1  0.33357836  0.53147525  0.96579545  1
  O  O61  1  0.03175645  0.83125247  0.03425963  1
  O  O62  1  0.16186332  0.69641294  0.40985013  1
  O  O63  1  0.28540044  0.56970205  0.78393749  1
  O  O64  1  0.20637173  0.94208199  0.71556634  1
  O  O65  1  0.18696139  0.96043172  0.53431322  1
  O  O66  1  0.29082416  0.84335911  0.90934845  1
  O  O67  1  0.43575934  0.41628388  0.34068123  1
  O  O68  1  0.57157203  0.28846476  0.71498419  1
  O  O69  1  0.41624308  0.43623225  0.15926603  1
  O  O70  1  0.53378735  0.32633948  0.53427330  1
  O  O71  1  0.65662867  0.20944459  0.90923247  1
  O  O72  1  0.34435322  0.79919647  0.09136795  1
  O  O73  1  0.46271395  0.67813489  0.46502958  1
  O  O74  1  0.58381521  0.56539578  0.84058675  1
  O  O75  1  0.43282816  0.71561527  0.28376904  1
  O  O76  1  0.55307767  0.58722169  0.65993931  1
  O  O77  1  0.70740003  0.15490561  0.09056676  1
  O  O78  1  0.80890649  0.04380879  0.46559543  1
  O  O79  1  0.78834123  0.06582033  0.28465400  1
  O  O80  1  0.71610549  0.43096129  0.21632408  1
  O  O81  1  0.83690025  0.30820172  0.59042986  1
  O  O82  1  0.96893841  0.16628349  0.96567537  1
  O  O83  1  0.67540309  0.46901172  0.03380320  1
  O  O84  1  0.81570667  0.33101305  0.40924291  1
  O  O85  1  0.56738074  0.92599365  0.78373509  1
  O  O86  1  0.93539490  0.21155209  0.78470467  1
  O  O87  1  0.55076434  0.94139421  0.59114085  1
  O  O88  1  0.68003632  0.82033877  0.96556850  1
  O  O89  1  0.69642331  0.80041067  0.15846964  1
  O  O90  1  0.82387423  0.67762325  0.53315530  1
  O  O91  1  0.94415984  0.55571898  0.90948172  1
  O  O92  1  0.79953548  0.69622768  0.34190074  1
  O  O93  1  0.93682978  0.57600496  0.71616191  1
  O  O94  1  0.95058216  0.90945906  0.84076591  1
  O  O95  1  0.91817060  0.93268588  0.65911415  1
