# generated using pymatgen
data_Li4Sn2P4H3O16
_symmetry_space_group_name_H-M   'P 1'
_cell_length_a   4.94518000
_cell_length_b   8.14587308
_cell_length_c   8.91272175
_cell_angle_alpha   90.69391576
_cell_angle_beta   91.43593236
_cell_angle_gamma   100.74503056
_symmetry_Int_Tables_number   1
_chemical_formula_structural   Li4Sn2P4H3O16
_chemical_formula_sum   'Li4 Sn2 P4 H3 O16'
_cell_volume   352.57219358
_cell_formula_units_Z   1
loop_
 _symmetry_equiv_pos_site_id
 _symmetry_equiv_pos_as_xyz
  1  'x, y, z'
loop_
 _atom_site_type_symbol
 _atom_site_label
 _atom_site_symmetry_multiplicity
 _atom_site_fract_x
 _atom_site_fract_y
 _atom_site_fract_z
 _atom_site_occupancy
  Li  Li0  1  0.10707600  0.68447800  0.65240400  1
  Li  Li1  1  0.40425900  0.84178400  0.12568000  1
  Li  Li2  1  0.61434300  0.15441300  0.86621200  1
  Li  Li3  1  0.87740300  0.31127000  0.34561200  1
  Sn  Sn4  1  0.99901000  0.50594600  0.99564900  1
  Sn  Sn5  1  0.49469500  0.99457000  0.50132200  1
  P  P6  1  0.12694700  0.27406000  0.66622700  1
  P  P7  1  0.36377900  0.23021300  0.14165700  1
  P  P8  1  0.62004300  0.77464400  0.85463200  1
  P  P9  1  0.87395100  0.72260900  0.32998100  1
  H  H10  1  0.46121400  0.49187900  0.63987200  1
  H  H11  1  0.53430200  0.51460200  0.38043400  1
  H  H12  1  0.04121900  0.02208500  0.01965600  1
  O  O13  1  0.05629600  0.79550200  0.46478800  1
  O  O14  1  0.96614600  0.30594700  0.80751400  1
  O  O15  1  0.13178400  0.33131500  0.17320200  1
  O  O16  1  0.26734000  0.46126100  0.60704100  1
  O  O17  1  0.40988500  0.67259800  0.96428300  1
  O  O18  1  0.47668200  0.79736500  0.70238200  1
  O  O19  1  0.22801700  0.04787200  0.07415600  1
  O  O20  1  0.35845900  0.17857500  0.70044000  1
  O  O21  1  0.63991200  0.81574500  0.29549700  1
  O  O22  1  0.74066500  0.94368000  0.93174700  1
  O  O23  1  0.51217700  0.19671300  0.28687200  1
  O  O24  1  0.55938500  0.31677300  0.02226400  1
  O  O25  1  0.73558000  0.53281800  0.38270600  1
  O  O26  1  0.84790100  0.66657700  0.82178600  1
  O  O27  1  0.04334000  0.69475100  0.19155700  1
  O  O28  1  0.93707600  0.20185600  0.53452700  1
