# generated using pymatgen
data_Li9(FeO4)2
_symmetry_space_group_name_H-M   'P 1'
_cell_length_a   5.53851200
_cell_length_b   6.77415571
_cell_length_c   10.87106174
_cell_angle_alpha   90.69319437
_cell_angle_beta   101.51839965
_cell_angle_gamma   90.51974250
_symmetry_Int_Tables_number   1
_chemical_formula_structural   Li9(FeO4)2
_chemical_formula_sum   'Li18 Fe4 O16'
_cell_volume   399.59763799
_cell_formula_units_Z   2
loop_
 _symmetry_equiv_pos_site_id
 _symmetry_equiv_pos_as_xyz
  1  'x, y, z'
loop_
 _atom_site_type_symbol
 _atom_site_label
 _atom_site_symmetry_multiplicity
 _atom_site_fract_x
 _atom_site_fract_y
 _atom_site_fract_z
 _atom_site_occupancy
  Li  Li0  1  0.11960700  0.83438600  0.71147000  1
  Li  Li1  1  0.04336500  0.74716700  0.33793300  1
  Li  Li2  1  0.09047300  0.46591000  0.19820000  1
  Li  Li3  1  0.28838600  0.04201100  0.93073900  1
  Li  Li4  1  0.21151900  0.52333800  0.56992000  1
  Li  Li5  1  0.30295400  0.47901100  0.94190800  1
  Li  Li6  1  0.39784100  0.29647400  0.78412200  1
  Li  Li7  1  0.51404000  0.74803000  0.84227000  1
  Li  Li8  1  0.54187600  0.02462700  0.68695000  1
  Li  Li9  1  0.46052500  0.23771300  0.17977700  1
  Li  Li10  1  0.57720800  0.74676500  0.22928100  1
  Li  Li11  1  0.81340300  0.01597100  0.44421900  1
  Li  Li12  1  0.80050700  0.45730200  0.42843700  1
  Li  Li13  1  0.68579400  0.52154200  0.07249100  1
  Li  Li14  1  0.90508000  0.54505900  0.80297800  1
  Li  Li15  1  0.71507000  0.97128200  0.07805600  1
  Li  Li16  1  0.97834700  0.23641600  0.66504500  1
  Li  Li17  1  0.90053200  0.20832400  0.28303600  1
  Fe  Fe18  1  0.81805300  0.24660500  0.93430400  1
  Fe  Fe19  1  0.17031800  0.76104400  0.06456100  1
  Fe  Fe20  1  0.32593000  0.22322600  0.43880800  1
  Fe  Fe21  1  0.67928900  0.73322100  0.56806100  1
  O  O22  1  0.09362400  0.27518900  0.85416700  1
  O  O23  1  0.15625700  0.74694300  0.88663800  1
  O  O24  1  0.11626400  0.02273600  0.38039900  1
  O  O25  1  0.12230500  0.44630800  0.37916500  1
  O  O26  1  0.32249200  0.24263100  0.60964700  1
  O  O27  1  0.42373100  0.74275200  0.65039000  1
  O  O28  1  0.36518400  0.53025700  0.12209200  1
  O  O29  1  0.39256100  0.96831000  0.11439700  1
  O  O30  1  0.58987900  0.04213100  0.86967000  1
  O  O31  1  0.62797300  0.48115500  0.88834500  1
  O  O32  1  0.60500400  0.22735100  0.36582000  1
  O  O33  1  0.71399500  0.73612900  0.40571500  1
  O  O34  1  0.83022000  0.97322000  0.62002700  1
  O  O35  1  0.88134300  0.52228500  0.61999000  1
  O  O36  1  0.84282800  0.25665500  0.11119400  1
  O  O37  1  0.90029300  0.73342200  0.14882900  1
