# generated using pymatgen
data_LiCu2PO4
_symmetry_space_group_name_H-M   'P 1'
_cell_length_a   5.56877300
_cell_length_b   6.19853782
_cell_length_c   10.31721981
_cell_angle_alpha   89.73551633
_cell_angle_beta   88.81375628
_cell_angle_gamma   88.88683557
_symmetry_Int_Tables_number   1
_chemical_formula_structural   LiCu2PO4
_chemical_formula_sum   'Li4 Cu8 P4 O16'
_cell_volume   355.98568813
_cell_formula_units_Z   4
loop_
 _symmetry_equiv_pos_site_id
 _symmetry_equiv_pos_as_xyz
  1  'x, y, z'
loop_
 _atom_site_type_symbol
 _atom_site_label
 _atom_site_symmetry_multiplicity
 _atom_site_fract_x
 _atom_site_fract_y
 _atom_site_fract_z
 _atom_site_occupancy
  Li  Li0  1  0.14677300  0.00001500  0.24824900  1
  Li  Li1  1  0.15663400  0.00198900  0.75180400  1
  Li  Li2  1  0.32678400  0.25179100  0.99878400  1
  Li  Li3  1  0.67519200  0.25418400  0.75736800  1
  Cu  Cu4  1  0.36644000  0.26492900  0.48844800  1
  Cu  Cu5  1  0.65886800  0.27816900  0.26071400  1
  Cu  Cu6  1  0.77044200  0.51174700  0.01121300  1
  Cu  Cu7  1  0.76195100  0.49627800  0.50335500  1
  Cu  Cu8  1  0.65170300  0.71924800  0.26249300  1
  Cu  Cu9  1  0.65287400  0.71702500  0.77060600  1
  Cu  Cu10  1  0.35641700  0.73767000  0.49357900  1
  Cu  Cu11  1  0.35564600  0.74076900  0.99342600  1
  P  P12  1  0.83928200  0.01239600  0.99732000  1
  P  P13  1  0.84738600  0.99968600  0.50658900  1
  P  P14  1  0.17590200  0.49194800  0.75028400  1
  P  P15  1  0.17648500  0.49958400  0.24307500  1
  O  O16  1  0.84719800  0.00664400  0.35619400  1
  O  O17  1  0.10576400  0.99608400  0.56046600  1
  O  O18  1  0.83997000  0.00410100  0.84704300  1
  O  O19  1  0.09746600  0.01717000  0.05134200  1
  O  O20  1  0.70311900  0.19781200  0.56615500  1
  O  O21  1  0.68212700  0.21217000  0.04343400  1
  O  O22  1  0.31764700  0.29373600  0.80515300  1
  O  O23  1  0.30034700  0.28469500  0.29139400  1
  O  O24  1  0.18050700  0.49740200  0.09347400  1
  O  O25  1  0.91679400  0.50143900  0.30100700  1
  O  O26  1  0.18015100  0.49180600  0.59951600  1
  O  O27  1  0.91055000  0.48741300  0.80251800  1
  O  O28  1  0.29712100  0.71034600  0.29210700  1
  O  O29  1  0.29463700  0.70891600  0.79645500  1
  O  O30  1  0.70424100  0.79956700  0.55749700  1
  O  O31  1  0.70358600  0.81326700  0.05634500  1
