# generated using pymatgen
data_Li2Mn(SiO3)2
_symmetry_space_group_name_H-M   'P 1'
_cell_length_a   7.30530019
_cell_length_b   10.51316022
_cell_length_c   7.38224908
_cell_angle_alpha   110.56867182
_cell_angle_beta   89.98911937
_cell_angle_gamma   89.98338573
_symmetry_Int_Tables_number   1
_chemical_formula_structural   Li2Mn(SiO3)2
_chemical_formula_sum   'Li8 Mn4 Si8 O24'
_cell_volume   530.82657829
_cell_formula_units_Z   4
loop_
 _symmetry_equiv_pos_site_id
 _symmetry_equiv_pos_as_xyz
  1  'x, y, z'
loop_
 _atom_site_type_symbol
 _atom_site_label
 _atom_site_symmetry_multiplicity
 _atom_site_fract_x
 _atom_site_fract_y
 _atom_site_fract_z
 _atom_site_occupancy
  Li  Li0  1  0.72132700  0.83512200  0.19107200  1
  Li  Li1  1  0.22132400  0.83511400  0.69109100  1
  Li  Li2  1  0.47131200  0.66397000  0.35560400  1
  Li  Li3  1  0.97129200  0.66397700  0.85563100  1
  Li  Li4  1  0.47128100  0.33503300  0.64480400  1
  Li  Li5  1  0.97126600  0.33500300  0.14473400  1
  Li  Li6  1  0.72107900  0.16393000  0.80917100  1
  Li  Li7  1  0.22108000  0.16394000  0.30915100  1
  Mn  Mn8  1  0.21709300  0.49957000  0.50038500  1
  Mn  Mn9  1  0.46697700  0.99942100  0.50007600  1
  Mn  Mn10  1  0.71712200  0.49957100  0.00040400  1
  Mn  Mn11  1  0.96696300  0.99943200  0.00015500  1
  Si  Si12  1  0.28698000  0.83246100  0.10136000  1
  Si  Si13  1  0.78699700  0.83249700  0.60137600  1
  Si  Si14  1  0.53730200  0.66686600  0.76861500  1
  Si  Si15  1  0.03723700  0.66687000  0.26859200  1
  Si  Si16  1  0.53686100  0.33208500  0.23173700  1
  Si  Si17  1  0.03686000  0.33207200  0.73174700  1
  Si  Si18  1  0.28679600  0.16667500  0.89897500  1
  Si  Si19  1  0.78679300  0.16669300  0.39898600  1
  O  O20  1  0.31587800  0.98275700  0.25980400  1
  O  O21  1  0.81584900  0.98278800  0.75989500  1
  O  O22  1  0.56705300  0.51651400  0.77608400  1
  O  O23  1  0.06676500  0.51653100  0.27605000  1
  O  O24  1  0.56596900  0.48239700  0.22408800  1
  O  O25  1  0.06595800  0.48240500  0.72411300  1
  O  O26  1  0.31614200  0.01642200  0.74058400  1
  O  O27  1  0.81611200  0.01644400  0.24062600  1
  O  O28  1  0.13172400  0.82577800  0.93922500  1
  O  O29  1  0.63174200  0.82581800  0.43926400  1
  O  O30  1  0.88181100  0.67348400  0.11326300  1
  O  O31  1  0.38183500  0.67347100  0.61327500  1
  O  O32  1  0.88112900  0.32530500  0.88678700  1
  O  O33  1  0.38113500  0.32532000  0.38679300  1
  O  O34  1  0.13119100  0.17315200  0.06073000  1
  O  O35  1  0.63114900  0.17316300  0.56070700  1
  O  O36  1  0.23761900  0.72538900  0.21913300  1
  O  O37  1  0.73764800  0.72544700  0.71917300  1
  O  O38  1  0.48769900  0.77415400  0.99346600  1
  O  O39  1  0.98768200  0.77415400  0.49343500  1
  O  O40  1  0.48721100  0.22514000  0.00688600  1
  O  O41  1  0.98721400  0.22513800  0.50688200  1
  O  O42  1  0.23761000  0.27376300  0.78119600  1
  O  O43  1  0.73760300  0.27376500  0.28119100  1
