# generated using pymatgen
data_LiCoSbO4
_symmetry_space_group_name_H-M   'P 1'
_cell_length_a   6.13601900
_cell_length_b   6.13835300
_cell_length_c   8.58776000
_cell_angle_alpha   89.99930238
_cell_angle_beta   89.99988393
_cell_angle_gamma   90.00011203
_symmetry_Int_Tables_number   1
_chemical_formula_structural   LiCoSbO4
_chemical_formula_sum   'Li4 Co4 Sb4 O16'
_cell_volume   323.45841524
_cell_formula_units_Z   4
loop_
 _symmetry_equiv_pos_site_id
 _symmetry_equiv_pos_as_xyz
  1  'x, y, z'
loop_
 _atom_site_type_symbol
 _atom_site_label
 _atom_site_symmetry_multiplicity
 _atom_site_fract_x
 _atom_site_fract_y
 _atom_site_fract_z
 _atom_site_occupancy
  Li  Li0  1  0.00000100  0.20873900  0.00000100  1
  Li  Li1  1  0.00000100  0.79126200  0.50000000  1
  Li  Li2  1  0.20870800  0.00000000  0.25000000  1
  Li  Li3  1  0.79129700  0.00000000  0.75000100  1
  Co  Co4  1  0.74811800  0.25183200  0.37510600  1
  Co  Co5  1  0.74811800  0.74817300  0.12490700  1
  Co  Co6  1  0.25188600  0.25182700  0.62491900  1
  Co  Co7  1  0.25188700  0.74817400  0.87508500  1
  Sb  Sb8  1  0.22720200  0.49999800  0.25000100  1
  Sb  Sb9  1  0.50000300  0.22723900  0.99999900  1
  Sb  Sb10  1  0.50000100  0.77276100  0.50000200  1
  Sb  Sb11  1  0.77279100  0.50000200  0.75000000  1
  O  O12  1  0.01702100  0.26154100  0.25156400  1
  O  O13  1  0.01702000  0.73845400  0.24843400  1
  O  O14  1  0.26152700  0.01707800  0.99837800  1
  O  O15  1  0.26152300  0.98291900  0.50162100  1
  O  O16  1  0.73847800  0.01707100  0.00160500  1
  O  O17  1  0.73847800  0.98293300  0.49839500  1
  O  O18  1  0.98298200  0.26155700  0.74843200  1
  O  O19  1  0.98297900  0.73844600  0.75156600  1
  O  O20  1  0.26801000  0.47721600  0.01415400  1
  O  O21  1  0.26801100  0.52277700  0.48584500  1
  O  O22  1  0.47727400  0.26804200  0.23585800  1
  O  O23  1  0.47726500  0.73194800  0.26413700  1
  O  O24  1  0.52273900  0.26806700  0.76412500  1
  O  O25  1  0.52273100  0.73193100  0.73587300  1
  O  O26  1  0.73197300  0.52281600  0.51413800  1
  O  O27  1  0.73198000  0.47719600  0.98585500  1
