# generated using pymatgen
data_LiMnPO4
_symmetry_space_group_name_H-M   'P 1'
_cell_length_a   5.23979821
_cell_length_b   7.98116210
_cell_length_c   9.02257031
_cell_angle_alpha   92.77205205
_cell_angle_beta   92.74625636
_cell_angle_gamma   77.25880538
_symmetry_Int_Tables_number   1
_chemical_formula_structural   LiMnPO4
_chemical_formula_sum   'Li4 Mn4 P4 O16'
_cell_volume   367.33052441
_cell_formula_units_Z   4
loop_
 _symmetry_equiv_pos_site_id
 _symmetry_equiv_pos_as_xyz
  1  'x, y, z'
loop_
 _atom_site_type_symbol
 _atom_site_label
 _atom_site_symmetry_multiplicity
 _atom_site_fract_x
 _atom_site_fract_y
 _atom_site_fract_z
 _atom_site_occupancy
  Li  Li0  1  0.13184600  0.97002300  0.35218900  1
  Li  Li1  1  0.86792000  0.02977300  0.64813600  1
  Li  Li2  1  0.17483400  0.43425100  0.23354600  1
  Li  Li3  1  0.82495000  0.56585700  0.76643500  1
  Mn  Mn4  1  0.31049100  0.68067100  0.56172400  1
  Mn  Mn5  1  0.68962800  0.31898500  0.43818800  1
  Mn  Mn6  1  0.23946500  0.18549400  0.91045200  1
  Mn  Mn7  1  0.76080000  0.81462200  0.08945400  1
  P  P8  1  0.24356900  0.27936800  0.58105000  1
  P  P9  1  0.75640900  0.72054700  0.41894100  1
  P  P10  1  0.23843200  0.79125600  0.88552900  1
  P  P11  1  0.76167400  0.20884300  0.11450500  1
  O  O12  1  0.06359500  0.17126700  0.49612700  1
  O  O13  1  0.93641900  0.82856400  0.50392900  1
  O  O14  1  0.00649900  0.28537000  0.09101200  1
  O  O15  1  0.99356700  0.71472800  0.90889000  1
  O  O16  1  0.11702000  0.34905500  0.72991000  1
  O  O17  1  0.88298500  0.65100100  0.27006800  1
  O  O18  1  0.26597000  0.43041300  0.47854900  1
  O  O19  1  0.73377200  0.56943300  0.52134100  1
  O  O20  1  0.14428900  0.96455700  0.80411200  1
  O  O21  1  0.85582900  0.03561500  0.19601000  1
  O  O22  1  0.43159400  0.66503900  0.78341700  1
  O  O23  1  0.56849700  0.33541900  0.21635100  1
  O  O24  1  0.37368100  0.82614800  0.03569100  1
  O  O25  1  0.62641500  0.17366500  0.96435800  1
  O  O26  1  0.52737400  0.17562600  0.60137100  1
  O  O27  1  0.47247500  0.82440900  0.39871700  1
