# generated using pymatgen
data_Li8V3P8O29
_symmetry_space_group_name_H-M   'P 1'
_cell_length_a   9.87640900
_cell_length_b   9.88252018
_cell_length_c   13.83084090
_cell_angle_alpha   90.62067454
_cell_angle_beta   89.70279954
_cell_angle_gamma   119.84795424
_symmetry_Int_Tables_number   1
_chemical_formula_structural   Li8V3P8O29
_chemical_formula_sum   'Li16 V6 P16 O58'
_cell_volume   1170.80306540
_cell_formula_units_Z   2
loop_
 _symmetry_equiv_pos_site_id
 _symmetry_equiv_pos_as_xyz
  1  'x, y, z'
loop_
 _atom_site_type_symbol
 _atom_site_label
 _atom_site_symmetry_multiplicity
 _atom_site_fract_x
 _atom_site_fract_y
 _atom_site_fract_z
 _atom_site_occupancy
  Li  Li0  1  0.66569800  0.76332500  0.06234400  1
  Li  Li1  1  0.66735800  0.90373500  0.56679500  1
  Li  Li2  1  0.23531400  0.32680200  0.56469300  1
  Li  Li3  1  0.33627600  0.66849400  0.38239700  1
  Li  Li4  1  0.33401600  0.66521000  0.87914000  1
  Li  Li5  1  0.09698900  0.33161200  0.06368700  1
  Li  Li6  1  0.22983700  0.90408300  0.06146700  1
  Li  Li7  1  0.89793500  0.23590900  0.43979900  1
  Li  Li8  1  0.09348000  0.76504700  0.56452900  1
  Li  Li9  1  0.90317200  0.67575400  0.93500000  1
  Li  Li10  1  0.66846200  0.32678700  0.11514700  1
  Li  Li11  1  0.76420900  0.66289500  0.43931500  1
  Li  Li12  1  0.34016700  0.10315700  0.43863100  1
  Li  Li13  1  0.33033600  0.23465900  0.93641100  1
  Li  Li14  1  0.95211700  0.01827000  0.98966200  1
  Li  Li15  1  0.99345600  0.00338100  0.50296500  1
  V  V16  1  0.99958000  0.43463400  0.25099100  1
  V  V17  1  0.00070100  0.56340100  0.74925800  1
  V  V18  1  0.56725900  0.00475800  0.75286000  1
  V  V19  1  0.43643100  0.99957000  0.24859800  1
  V  V20  1  0.56614200  0.56536300  0.25004400  1
  V  V21  1  0.43738500  0.43633700  0.74616700  1
  P  P22  1  0.68278800  0.77744600  0.84234700  1
  P  P23  1  0.68491100  0.91256500  0.34767400  1
  P  P24  1  0.22733600  0.31730200  0.34494700  1
  P  P25  1  0.33427600  0.66489300  0.12378400  1
  P  P26  1  0.33640900  0.66934800  0.62588600  1
  P  P27  1  0.09359000  0.31524100  0.84545000  1
  P  P28  1  0.91499700  0.22307700  0.65920600  1
  P  P29  1  0.22641500  0.91154300  0.84245900  1
  P  P30  1  0.77796100  0.08534500  0.15897200  1
  P  P31  1  0.09013000  0.77421500  0.34259200  1
  P  P32  1  0.90910800  0.68023000  0.15433200  1
  P  P33  1  0.66671800  0.33450700  0.37481800  1
  P  P34  1  0.66248200  0.33384900  0.87312500  1
  P  P35  1  0.77530700  0.68889800  0.65623600  1
  P  P36  1  0.31269400  0.08369600  0.65545400  1
  P  P37  1  0.31843700  0.22775700  0.15613300  1
  O  O38  1  0.77930500  0.78161600  0.56720100  1
  O  O39  1  0.67109900  0.75154000  0.34575600  1
  O  O40  1  0.78225200  0.98600200  0.07817100  1
  O  O41  1  0.66075600  0.92012700  0.84212100  1
  O  O42  1  0.52216900  0.62953500  0.83246900  1
  O  O43  1  0.48464100  0.67322300  0.16424100  1
  O  O44  1  0.37091400  0.48151700  0.33368300  1
  O  O45  1  0.23078100  0.23188100  0.06840100  1
  O  O46  1  0.25759500  0.33365100  0.84039100  1
  O  O47  1  0.48861700  0.81326700  0.66960100  1
  O  O48  1  0.51965900  0.89431000  0.33254900  1
  O  O49  1  0.32449300  0.51473800  0.66176800  1
  O  O50  1  0.33710700  0.67008400  0.01533600  1
  O  O51  1  0.34723200  0.67687600  0.51642800  1
  O  O52  1  0.18745400  0.51650900  0.16180800  1
  O  O53  1  0.37175500  0.89099600  0.82863100  1
  O  O54  1  0.33056300  0.81576600  0.16632400  1
  O  O55  1  0.07831100  0.32918500  0.34620400  1
  O  O56  1  0.00058200  0.20614600  0.75348500  1
  O  O57  1  0.00171300  0.21293300  0.56934300  1
  O  O58  1  0.01215500  0.22907800  0.93630800  1
  O  O59  1  0.10885000  0.47742600  0.83428400  1
  O  O60  1  0.19165900  0.67884800  0.66207000  1
  O  O61  1  0.91974500  0.25007900  0.15702000  1
  O  O62  1  0.11279100  0.63123200  0.33326800  1
  O  O63  1  0.25319800  0.92356200  0.34146000  1
  O  O64  1  0.79203700  0.01036100  0.25899000  1
  O  O65  1  0.76823400  0.00246200  0.43836100  1
  O  O66  1  0.21804500  0.99522100  0.56628100  1
  O  O67  1  0.74918500  0.07900500  0.66016400  1
  O  O68  1  0.91159300  0.37446600  0.66675700  1
  O  O69  1  0.07960200  0.74988100  0.84415600  1
  O  O70  1  0.81176600  0.32640700  0.33738200  1
  O  O71  1  0.88767100  0.51559800  0.16675000  1
  O  O72  1  0.00274200  0.76573300  0.06611600  1
  O  O73  1  0.99835100  0.77273100  0.43098300  1
  O  O74  1  0.00116600  0.78470900  0.24848300  1
  O  O75  1  0.91907500  0.66872000  0.65686000  1
  O  O76  1  0.66063800  0.18554100  0.82466600  1
  O  O77  1  0.62591800  0.09716300  0.16631600  1
  O  O78  1  0.81281300  0.48220100  0.83994700  1
  O  O79  1  0.65219900  0.32071300  0.98165600  1
  O  O80  1  0.65181100  0.32693800  0.48236600  1
  O  O81  1  0.67253900  0.48363800  0.33366100  1
  O  O82  1  0.46537300  0.08036300  0.66513000  1
  O  O83  1  0.51561200  0.18274200  0.32753000  1
  O  O84  1  0.74939300  0.67054600  0.15525200  1
  O  O85  1  0.79149500  0.79408500  0.75077000  1
  O  O86  1  0.77353600  0.77868900  0.93194300  1
  O  O87  1  0.62360200  0.53406200  0.66535900  1
  O  O88  1  0.51456100  0.32991600  0.83365200  1
  O  O89  1  0.48326600  0.36955000  0.16709800  1
  O  O90  1  0.33155100  0.07755100  0.15678000  1
  O  O91  1  0.23694500  0.00489100  0.93261400  1
  O  O92  1  0.20860900  0.99961300  0.75058700  1
  O  O93  1  0.33492100  0.24811100  0.65496700  1
  O  O94  1  0.23260500  0.22796100  0.43228200  1
  O  O95  1  0.21555700  0.21476300  0.25024100  1
