# generated using pymatgen
data_Li6V3P8O29
_symmetry_space_group_name_H-M   'P 1'
_cell_length_a   9.79096500
_cell_length_b   9.79865148
_cell_length_c   13.99480694
_cell_angle_alpha   90.40989743
_cell_angle_beta   89.85727633
_cell_angle_gamma   119.91971368
_symmetry_Int_Tables_number   1
_chemical_formula_structural   Li6V3P8O29
_chemical_formula_sum   'Li12 V6 P16 O58'
_cell_volume   1163.66691519
_cell_formula_units_Z   2
loop_
 _symmetry_equiv_pos_site_id
 _symmetry_equiv_pos_as_xyz
  1  'x, y, z'
loop_
 _atom_site_type_symbol
 _atom_site_label
 _atom_site_symmetry_multiplicity
 _atom_site_fract_x
 _atom_site_fract_y
 _atom_site_fract_z
 _atom_site_occupancy
  Li  Li0  1  0.33127700  0.09576900  0.55959800  1
  Li  Li1  1  0.65890700  0.33188500  0.88867700  1
  Li  Li2  1  0.91032900  0.67929500  0.06097700  1
  Li  Li3  1  0.77016500  0.09663200  0.06187000  1
  Li  Li4  1  0.09697700  0.76033100  0.43868200  1
  Li  Li5  1  0.90226100  0.23463000  0.56372700  1
  Li  Li6  1  0.23594800  0.90389000  0.93972800  1
  Li  Li7  1  0.23352100  0.33168800  0.43842000  1
  Li  Li8  1  0.65995200  0.89694100  0.43985400  1
  Li  Li9  1  0.66822100  0.76988900  0.93834300  1
  Li  Li10  1  0.06331700  0.07356800  0.01079500  1
  Li  Li11  1  0.95861100  0.94400700  0.50786800  1
  V  V12  1  0.99835800  0.56336700  0.24970800  1
  V  V13  1  0.00409000  0.43670000  0.75234300  1
  V  V14  1  0.43396000  0.99949100  0.74843700  1
  V  V15  1  0.56587100  0.99816400  0.24912500  1
  V  V16  1  0.43401100  0.43325000  0.24887300  1
  V  V17  1  0.56394400  0.56165500  0.74751000  1
  P  P18  1  0.30832300  0.22177000  0.84140200  1
  P  P19  1  0.31396400  0.08679100  0.34028900  1
  P  P20  1  0.77674300  0.69418200  0.33868600  1
  P  P21  1  0.66769400  0.33276300  0.13000400  1
  P  P22  1  0.66714400  0.33070900  0.63017500  1
  P  P23  1  0.91003500  0.68572100  0.84010900  1
  P  P24  1  0.08425500  0.77242900  0.65479200  1
  P  P25  1  0.77592600  0.09416500  0.84316000  1
  P  P26  1  0.22619000  0.91188200  0.15567000  1
  P  P27  1  0.91184700  0.22824500  0.34637300  1
  P  P28  1  0.08570500  0.30712100  0.16265300  1
  P  P29  1  0.33320400  0.66778200  0.36951100  1
  P  P30  1  0.33499400  0.67002800  0.87105600  1
  P  P31  1  0.22692500  0.30989100  0.65560000  1
  P  P32  1  0.68832100  0.91141100  0.65980000  1
  P  P33  1  0.68463400  0.76942300  0.15379200  1
  O  O34  1  0.22919500  0.22691300  0.56429900  1
  O  O35  1  0.33713600  0.25424000  0.34196700  1
  O  O36  1  0.21374400  0.98722300  0.06559000  1
  O  O37  1  0.34050600  0.08028200  0.84057000  1
  O  O38  1  0.47151200  0.37417700  0.83327000  1
  O  O39  1  0.52049900  0.32556500  0.17641400  1
  O  O40  1  0.61679700  0.54183100  0.33077200  1
  O  O41  1  0.76841700  0.77043400  0.06238600  1
  O  O42  1  0.74488100  0.66771800  0.84312000  1
  O  O43  1  0.51035000  0.18583800  0.66928000  1
  O  O44  1  0.47221200  0.09040400  0.32663300  1
  O  O45  1  0.67045900  0.47893600  0.67891200  1
  O  O46  1  0.66990300  0.33346600  0.02211700  1
  O  O47  1  0.66491300  0.32793800  0.52390300  1
  O  O48  1  0.81385700  0.48976900  0.16746100  1
  O  O49  1  0.62625200  0.10877100  0.82867300  1
  O  O50  1  0.68004000  0.18845700  0.16753900  1
  O  O51  1  0.91553500  0.66052700  0.34106100  1
  O  O52  1  0.99504800  0.79147100  0.74764600  1
  O  O53  1  0.00883600  0.78708600  0.56465600  1
  O  O54  1  0.00377700  0.76874300  0.92845100  1
  O  O55  1  0.89027800  0.51901900  0.82732400  1
  O  O56  1  0.81277700  0.32286000  0.67150500  1
  O  O57  1  0.08202000  0.74205000  0.16147900  1
  O  O58  1  0.90631900  0.38034800  0.32987100  1
  O  O59  1  0.74440000  0.08200400  0.34275600  1
  O  O60  1  0.20615300  0.00203600  0.24761100  1
  O  O61  1  0.22648400  0.99747200  0.42890200  1
  O  O62  1  0.77866300  0.99561900  0.57012700  1
  O  O63  1  0.25336800  0.91721700  0.66064000  1
  O  O64  1  0.08192100  0.61607200  0.66534700  1
  O  O65  1  0.91917700  0.25893500  0.84210700  1
  O  O66  1  0.18850200  0.67745700  0.32833300  1
  O  O67  1  0.07906200  0.45989700  0.16953800  1
  O  O68  1  0.99575500  0.20065000  0.08052600  1
  O  O69  1  0.99563100  0.23047000  0.43760100  1
  O  O70  1  0.00742800  0.20781900  0.25951000  1
  O  O71  1  0.08102100  0.33011400  0.65875800  1
  O  O72  1  0.32993200  0.81653900  0.82975400  1
  O  O73  1  0.38141200  0.91149900  0.16833600  1
  O  O74  1  0.18645300  0.52475800  0.82328500  1
  O  O75  1  0.33408000  0.67282600  0.97720400  1
  O  O76  1  0.33665400  0.67943000  0.47638000  1
  O  O77  1  0.32139900  0.51082200  0.33315800  1
  O  O78  1  0.53387600  0.91704300  0.67045000  1
  O  O79  1  0.48894800  0.81051500  0.32678300  1
  O  O80  1  0.25735800  0.34157300  0.16594900  1
  O  O81  1  0.21155100  0.19782000  0.74312000  1
  O  O82  1  0.20871200  0.21167500  0.92335500  1
  O  O83  1  0.37821200  0.46904400  0.67070200  1
  O  O84  1  0.48441000  0.66928000  0.82963500  1
  O  O85  1  0.52790100  0.62049500  0.16988300  1
  O  O86  1  0.66586600  0.91785100  0.15874500  1
  O  O87  1  0.76669100  0.00250100  0.93181700  1
  O  O88  1  0.79449200  0.00264000  0.75179300  1
  O  O89  1  0.65904300  0.74446700  0.66290500  1
  O  O90  1  0.79126400  0.80220000  0.41995700  1
  O  O91  1  0.80192500  0.79036500  0.24046900  1
