# generated using pymatgen
data_LiSn2(PO4)3
_symmetry_space_group_name_H-M   'P 1'
_cell_length_a   8.76623200
_cell_length_b   8.87448000
_cell_length_c   12.22419500
_cell_angle_alpha   90.00000000
_cell_angle_beta   90.00000000
_cell_angle_gamma   90.00000000
_symmetry_Int_Tables_number   1
_chemical_formula_structural   LiSn2(PO4)3
_chemical_formula_sum   'Li4 Sn8 P12 O48'
_cell_volume   950.99042501
_cell_formula_units_Z   4
loop_
 _symmetry_equiv_pos_site_id
 _symmetry_equiv_pos_as_xyz
  1  'x, y, z'
loop_
 _atom_site_type_symbol
 _atom_site_label
 _atom_site_symmetry_multiplicity
 _atom_site_fract_x
 _atom_site_fract_y
 _atom_site_fract_z
 _atom_site_occupancy
  Li  Li0  1  0.53387600  0.27132800  0.82267100  1
  Li  Li1  1  0.46612400  0.72867200  0.32267100  1
  Li  Li2  1  0.03387600  0.22867200  0.32267100  1
  Li  Li3  1  0.96612400  0.77132800  0.82267100  1
  Sn  Sn4  1  0.50219900  0.53501500  0.11766900  1
  Sn  Sn5  1  0.49558800  0.94792400  0.87957300  1
  Sn  Sn6  1  0.50441200  0.05207600  0.37957300  1
  Sn  Sn7  1  0.49780100  0.46498500  0.61766900  1
  Sn  Sn8  1  0.99558800  0.55207600  0.37957300  1
  Sn  Sn9  1  0.00219900  0.96498500  0.61766900  1
  Sn  Sn10  1  0.00441200  0.44792400  0.87957300  1
  Sn  Sn11  1  0.99780100  0.03501500  0.11766900  1
  P  P12  1  0.70601200  0.75403100  0.50109700  1
  P  P13  1  0.64203900  0.89694600  0.14720300  1
  P  P14  1  0.64904700  0.60315500  0.85293600  1
  P  P15  1  0.35095300  0.39684500  0.35293600  1
  P  P16  1  0.35796100  0.10305400  0.64720300  1
  P  P17  1  0.29398800  0.24596900  0.00109700  1
  P  P18  1  0.20601200  0.74596900  0.00109700  1
  P  P19  1  0.14904700  0.89684500  0.35293600  1
  P  P20  1  0.14203900  0.60305400  0.64720300  1
  P  P21  1  0.85095300  0.10315500  0.85293600  1
  P  P22  1  0.85796100  0.39694600  0.14720300  1
  P  P23  1  0.79398800  0.25403100  0.50109700  1
  O  O24  1  0.70071600  0.15574100  0.42096000  1
  O  O25  1  0.69626400  0.35542500  0.57403000  1
  O  O26  1  0.68321700  0.40105700  0.16271100  1
  O  O27  1  0.67480500  0.09738400  0.83950700  1
  O  O28  1  0.60054300  0.92225300  0.02712000  1
  O  O29  1  0.60359500  0.56735100  0.97037400  1
  O  O30  1  0.58259000  0.73803700  0.18492900  1
  O  O31  1  0.60033300  0.76155900  0.81670800  1
  O  O32  1  0.56541100  0.01785100  0.21944600  1
  O  O33  1  0.57490000  0.47904500  0.77956600  1
  O  O34  1  0.60559600  0.65783100  0.57609500  1
  O  O35  1  0.59748100  0.84487900  0.42413600  1
  O  O36  1  0.39440400  0.34216900  0.07609500  1
  O  O37  1  0.40251900  0.15512100  0.92413600  1
  O  O38  1  0.43458900  0.98214900  0.71944600  1
  O  O39  1  0.42510000  0.52095500  0.27956600  1
  O  O40  1  0.41741000  0.26196300  0.68492900  1
  O  O41  1  0.39966700  0.23844100  0.31670800  1
  O  O42  1  0.39640500  0.43264900  0.47037400  1
  O  O43  1  0.39945700  0.07774700  0.52712000  1
  O  O44  1  0.32519500  0.90261600  0.33950700  1
  O  O45  1  0.31678300  0.59894300  0.66271100  1
  O  O46  1  0.30373600  0.64457500  0.07403000  1
  O  O47  1  0.29928400  0.84425900  0.92096000  1
  O  O48  1  0.20071600  0.34425900  0.92096000  1
  O  O49  1  0.19626400  0.14457500  0.07403000  1
  O  O50  1  0.17480500  0.40261600  0.33950700  1
  O  O51  1  0.18321700  0.09894300  0.66271100  1
  O  O52  1  0.10359500  0.93264900  0.47037400  1
  O  O53  1  0.10054300  0.57774700  0.52712000  1
  O  O54  1  0.10033300  0.73844100  0.31670800  1
  O  O55  1  0.08259000  0.76196300  0.68492900  1
  O  O56  1  0.06541100  0.48214900  0.71944600  1
  O  O57  1  0.07490000  0.02095500  0.27956600  1
  O  O58  1  0.10559600  0.84216900  0.07609500  1
  O  O59  1  0.09748100  0.65512100  0.92413600  1
  O  O60  1  0.90251900  0.34487900  0.42413600  1
  O  O61  1  0.89440400  0.15783100  0.57609500  1
  O  O62  1  0.93458900  0.51785100  0.21944600  1
  O  O63  1  0.92510000  0.97904500  0.77956600  1
  O  O64  1  0.91741000  0.23803700  0.18492900  1
  O  O65  1  0.89966700  0.26155900  0.81670800  1
  O  O66  1  0.89945700  0.42225300  0.02712000  1
  O  O67  1  0.89640500  0.06735100  0.97037400  1
  O  O68  1  0.81678300  0.90105700  0.16271100  1
  O  O69  1  0.82519500  0.59738400  0.83950700  1
  O  O70  1  0.79928400  0.65574100  0.42096000  1
  O  O71  1  0.80373600  0.85542500  0.57403000  1
