# generated using pymatgen
data_LiVF5
_symmetry_space_group_name_H-M   'P 1'
_cell_length_a   7.46263200
_cell_length_b   6.49120000
_cell_length_c   14.81682043
_cell_angle_alpha   85.25607004
_cell_angle_beta   90.00000000
_cell_angle_gamma   90.00000000
_symmetry_Int_Tables_number   1
_chemical_formula_structural   LiVF5
_chemical_formula_sum   'Li8 V8 F40'
_cell_volume   715.28925972
_cell_formula_units_Z   8
loop_
 _symmetry_equiv_pos_site_id
 _symmetry_equiv_pos_as_xyz
  1  'x, y, z'
loop_
 _atom_site_type_symbol
 _atom_site_label
 _atom_site_symmetry_multiplicity
 _atom_site_fract_x
 _atom_site_fract_y
 _atom_site_fract_z
 _atom_site_occupancy
  Li  Li0  1  0.73086500  0.49794000  0.40081000  1
  Li  Li1  1  0.76913500  0.49794000  0.90081000  1
  Li  Li2  1  0.05446100  0.17061200  0.43298900  1
  Li  Li3  1  0.44553900  0.17061200  0.93298900  1
  Li  Li4  1  0.55446100  0.82938800  0.06701100  1
  Li  Li5  1  0.94553900  0.82938800  0.56701100  1
  Li  Li6  1  0.23086500  0.50206000  0.09919000  1
  Li  Li7  1  0.26913500  0.50206000  0.59919000  1
  V  V8  1  0.69157000  0.32078200  0.12804800  1
  V  V9  1  0.80843000  0.32078200  0.62804800  1
  V  V10  1  0.62651200  0.00556900  0.34463300  1
  V  V11  1  0.12651200  0.99443100  0.15536700  1
  V  V12  1  0.87348800  0.00556900  0.84463300  1
  V  V13  1  0.37348800  0.99443100  0.65536700  1
  V  V14  1  0.19157000  0.67921800  0.37195200  1
  V  V15  1  0.30843000  0.67921800  0.87195200  1
  F  F16  1  0.00261800  0.48342700  0.39661100  1
  F  F17  1  0.80085800  0.46601600  0.20782000  1
  F  F18  1  0.49738200  0.48342700  0.89661100  1
  F  F19  1  0.80804900  0.44002900  0.02767700  1
  F  F20  1  0.69914200  0.46601600  0.70782000  1
  F  F21  1  0.69195100  0.44002900  0.52767700  1
  F  F22  1  0.53696100  0.22068600  0.40095500  1
  F  F23  1  0.55814600  0.18442600  0.22886500  1
  F  F24  1  0.16769400  0.18502700  0.23405800  1
  F  F25  1  0.84848300  0.13490000  0.34804700  1
  F  F26  1  0.19654600  0.18568200  0.06169000  1
  F  F27  1  0.96303900  0.22068600  0.90095500  1
  F  F28  1  0.58043100  0.13838900  0.05020600  1
  F  F29  1  0.87292700  0.10369000  0.14455200  1
  F  F30  1  0.94185400  0.18442600  0.72886500  1
  F  F31  1  0.33230600  0.18502700  0.73405800  1
  F  F32  1  0.65151700  0.13490000  0.84804700  1
  F  F33  1  0.30345400  0.18568200  0.56169000  1
  F  F34  1  0.91956900  0.13838900  0.55020600  1
  F  F35  1  0.62707300  0.10369000  0.64455200  1
  F  F36  1  0.37292700  0.89631000  0.35544800  1
  F  F37  1  0.08043100  0.86161100  0.44979400  1
  F  F38  1  0.69654600  0.81431800  0.43831000  1
  F  F39  1  0.34848300  0.86510000  0.15195300  1
  F  F40  1  0.66769400  0.81497300  0.26594200  1
  F  F41  1  0.05814600  0.81557400  0.27113500  1
  F  F42  1  0.12707300  0.89631000  0.85544800  1
  F  F43  1  0.41956900  0.86161100  0.94979400  1
  F  F44  1  0.03696100  0.77931400  0.09904500  1
  F  F45  1  0.80345400  0.81431800  0.93831000  1
  F  F46  1  0.15151700  0.86510000  0.65195300  1
  F  F47  1  0.83230600  0.81497300  0.76594200  1
  F  F48  1  0.44185400  0.81557400  0.77113500  1
  F  F49  1  0.46303900  0.77931400  0.59904500  1
  F  F50  1  0.30804900  0.55997100  0.47232300  1
  F  F51  1  0.30085800  0.53398400  0.29218000  1
  F  F52  1  0.19195100  0.55997100  0.97232300  1
  F  F53  1  0.50261800  0.51657300  0.10338900  1
  F  F54  1  0.19914200  0.53398400  0.79218000  1
  F  F55  1  0.99738200  0.51657300  0.60338900  1
