# generated using pymatgen
data_Li2CoSiO4
_symmetry_space_group_name_H-M   'P 1'
_cell_length_a   7.36594345
_cell_length_b   7.66398825
_cell_length_c   8.21147547
_cell_angle_alpha   117.81889152
_cell_angle_beta   116.00741284
_cell_angle_gamma   89.99513564
_symmetry_Int_Tables_number   1
_chemical_formula_structural   Li2CoSiO4
_chemical_formula_sum   'Li8 Co4 Si4 O16'
_cell_volume   356.05835235
_cell_formula_units_Z   4
loop_
 _symmetry_equiv_pos_site_id
 _symmetry_equiv_pos_as_xyz
  1  'x, y, z'
loop_
 _atom_site_type_symbol
 _atom_site_label
 _atom_site_symmetry_multiplicity
 _atom_site_fract_x
 _atom_site_fract_y
 _atom_site_fract_z
 _atom_site_occupancy
  Li  Li0  1  0.74998700  0.57337700  0.49997300  1
  Li  Li1  1  0.24999500  0.07339700  0.50000400  1
  Li  Li2  1  0.75001300  0.92644100  0.50002300  1
  Li  Li3  1  0.25000800  0.42642000  0.49999400  1
  Li  Li4  1  0.05025400  0.36855500  0.73743200  1
  Li  Li5  1  0.55026300  0.86856600  0.73744000  1
  Li  Li6  1  0.44974000  0.13111100  0.26255500  1
  Li  Li7  1  0.94974200  0.63110600  0.26255600  1
  Co  Co8  1  0.49999500  0.68803000  0.99999900  1
  Co  Co9  1  0.00001000  0.81185400  0.00000200  1
  Co  Co10  1  0.99999900  0.18805900  0.99999900  1
  Co  Co11  1  0.50001100  0.31180600  0.99999800  1
  Si  Si12  1  0.80636800  0.12847200  0.25715200  1
  Si  Si13  1  0.30636900  0.62857900  0.25715200  1
  Si  Si14  1  0.69363500  0.37139700  0.74284200  1
  Si  Si15  1  0.19362400  0.87129800  0.74284500  1
  O  O16  1  0.82148600  0.01622700  0.03265200  1
  O  O17  1  0.32151500  0.51629400  0.03266600  1
  O  O18  1  0.67849800  0.48363400  0.96732900  1
  O  O19  1  0.17849100  0.98358900  0.96734000  1
  O  O20  1  0.03685200  0.23204500  0.46437000  1
  O  O21  1  0.53685000  0.73207100  0.46437400  1
  O  O22  1  0.46315100  0.26768200  0.53563300  1
  O  O23  1  0.96314400  0.76765400  0.53562600  1
  O  O24  1  0.66400800  0.29528700  0.25034400  1
  O  O25  1  0.16390800  0.79533100  0.25038800  1
  O  O26  1  0.83610900  0.54491300  0.74964300  1
  O  O27  1  0.33598500  0.04492700  0.74968500  1
  O  O28  1  0.66373200  0.95504400  0.25033200  1
  O  O29  1  0.16383200  0.45504100  0.25029000  1
  O  O30  1  0.83616100  0.20469100  0.74968100  1
  O  O31  1  0.33625500  0.70466600  0.74965800  1
