# generated using pymatgen
data_Li8Mn3Fe5(BO3)8
_symmetry_space_group_name_H-M   'P 1'
_cell_length_a   6.00471772
_cell_length_b   5.23466282
_cell_length_c   16.23778007
_cell_angle_alpha   90.59711223
_cell_angle_beta   97.95674267
_cell_angle_gamma   89.42916543
_symmetry_Int_Tables_number   1
_chemical_formula_structural   Li8Mn3Fe5(BO3)8
_chemical_formula_sum   'Li8 Mn3 Fe5 B8 O24'
_cell_volume   505.43700635
_cell_formula_units_Z   1
loop_
 _symmetry_equiv_pos_site_id
 _symmetry_equiv_pos_as_xyz
  1  'x, y, z'
loop_
 _atom_site_type_symbol
 _atom_site_label
 _atom_site_symmetry_multiplicity
 _atom_site_fract_x
 _atom_site_fract_y
 _atom_site_fract_z
 _atom_site_occupancy
  Li  Li0  1  0.06971700  0.84747800  0.61071300  1
  Li  Li1  1  0.43110200  0.15377400  0.88722900  1
  Li  Li2  1  0.18500500  0.65087000  0.13953200  1
  Li  Li3  1  0.31427500  0.34849600  0.36130000  1
  Li  Li4  1  0.68386800  0.65223100  0.64060700  1
  Li  Li5  1  0.80948700  0.34758200  0.85764000  1
  Li  Li6  1  0.56888600  0.84724800  0.11117400  1
  Li  Li7  1  0.93091600  0.15225800  0.38899500  1
  Mn  Mn8  1  0.27422300  0.66909800  0.95936100  1
  Mn  Mn9  1  0.77243700  0.66914500  0.45952500  1
  Mn  Mn10  1  0.72662400  0.32778400  0.04061500  1
  Fe  Fe11  1  0.02992900  0.16411300  0.21170900  1
  Fe  Fe12  1  0.22322700  0.32357500  0.54128800  1
  Fe  Fe13  1  0.52516600  0.16741200  0.70791300  1
  Fe  Fe14  1  0.47188200  0.82520700  0.28812100  1
  Fe  Fe15  1  0.96901000  0.82853400  0.78970200  1
  B  B16  1  0.03849900  0.33183700  0.70354700  1
  B  B17  1  0.28452100  0.83018900  0.45372100  1
  B  B18  1  0.46216600  0.67266500  0.79587800  1
  B  B19  1  0.21720500  0.16826400  0.04875900  1
  B  B20  1  0.78357300  0.83100300  0.95146800  1
  B  B21  1  0.53799300  0.32611700  0.20575000  1
  B  B22  1  0.71574500  0.16898200  0.54781200  1
  B  B23  1  0.96298300  0.67242700  0.29597400  1
  O  O24  1  0.01480500  0.59407500  0.69196300  1
  O  O25  1  0.16918900  0.18867400  0.65374300  1
  O  O26  1  0.17622300  0.70626900  0.51177700  1
  O  O27  1  0.33077200  0.28706200  0.99061700  1
  O  O28  1  0.07856000  0.79455300  0.23842000  1
  O  O29  1  0.32601000  0.81832100  0.84250500  1
  O  O30  1  0.08392600  0.31548300  0.09639100  1
  O  O31  1  0.26016000  0.09200400  0.44137300  1
  O  O32  1  0.48611200  0.41333200  0.80738600  1
  O  O33  1  0.23991500  0.90807000  0.06153500  1
  O  O34  1  0.41521900  0.68707100  0.40389400  1
  O  O35  1  0.42057400  0.20759700  0.26239200  1
  O  O36  1  0.58060400  0.79984300  0.74027900  1
  O  O37  1  0.58427700  0.31799700  0.59570900  1
  O  O38  1  0.76098200  0.09047800  0.93798500  1
  O  O39  1  0.51456600  0.58831000  0.19257000  1
  O  O40  1  0.73988100  0.90896700  0.56127400  1
  O  O41  1  0.91557600  0.68405300  0.90322500  1
  O  O42  1  0.67204200  0.18167000  0.15808400  1
  O  O43  1  0.92587000  0.20914400  0.76043000  1
  O  O44  1  0.67140800  0.71189000  0.00985900  1
  O  O45  1  0.82738300  0.28742700  0.48901400  1
  O  O46  1  0.82996800  0.81852500  0.34324800  1
  O  O47  1  0.98754000  0.41289900  0.30799500  1
