# generated using pymatgen
data_Li2AlFeO4
_symmetry_space_group_name_H-M   'P 1'
_cell_length_a   5.13736000
_cell_length_b   6.47952400
_cell_length_c   10.82700846
_cell_angle_alpha   89.95422479
_cell_angle_beta   90.00000000
_cell_angle_gamma   90.00000000
_symmetry_Int_Tables_number   1
_chemical_formula_structural   Li2AlFeO4
_chemical_formula_sum   'Li8 Al4 Fe4 O16'
_cell_volume   360.40552502
_cell_formula_units_Z   4
loop_
 _symmetry_equiv_pos_site_id
 _symmetry_equiv_pos_as_xyz
  1  'x, y, z'
loop_
 _atom_site_type_symbol
 _atom_site_label
 _atom_site_symmetry_multiplicity
 _atom_site_fract_x
 _atom_site_fract_y
 _atom_site_fract_z
 _atom_site_occupancy
  Li  Li0  1  0.32155500  0.99970100  0.58313100  1
  Li  Li1  1  0.17844500  0.99970100  0.08313100  1
  Li  Li2  1  0.82982100  0.75537800  0.66429700  1
  Li  Li3  1  0.67017900  0.75537800  0.16429700  1
  Li  Li4  1  0.32982100  0.24462200  0.83570300  1
  Li  Li5  1  0.17017900  0.24462200  0.33570300  1
  Li  Li6  1  0.82155500  0.00029900  0.91686900  1
  Li  Li7  1  0.67844500  0.00029900  0.41686900  1
  Al  Al8  1  0.82814200  0.49937800  0.90968000  1
  Al  Al9  1  0.67185800  0.49937800  0.40968000  1
  Al  Al10  1  0.32814200  0.50062200  0.59032000  1
  Al  Al11  1  0.17185800  0.50062200  0.09032000  1
  Fe  Fe12  1  0.33031500  0.76136100  0.83345900  1
  Fe  Fe13  1  0.16968500  0.76136100  0.33345900  1
  Fe  Fe14  1  0.83031500  0.23863900  0.66654100  1
  Fe  Fe15  1  0.66968500  0.23863900  0.16654100  1
  O  O16  1  0.20749600  0.99381900  0.90310700  1
  O  O17  1  0.29250400  0.99381900  0.40310700  1
  O  O18  1  0.70141800  0.72525300  0.84401000  1
  O  O19  1  0.79858200  0.72525300  0.34401000  1
  O  O20  1  0.21836000  0.72414800  0.66460700  1
  O  O21  1  0.28164000  0.72414800  0.16460700  1
  O  O22  1  0.18575700  0.51323900  0.92192400  1
  O  O23  1  0.31424300  0.51323900  0.42192400  1
  O  O24  1  0.68575700  0.48676100  0.57807600  1
  O  O25  1  0.81424300  0.48676100  0.07807600  1
  O  O26  1  0.71836000  0.27585200  0.83539300  1
  O  O27  1  0.78164000  0.27585200  0.33539300  1
  O  O28  1  0.20141800  0.27474700  0.65599000  1
  O  O29  1  0.29858200  0.27474700  0.15599000  1
  O  O30  1  0.70749600  0.00618100  0.59689300  1
  O  O31  1  0.79250400  0.00618100  0.09689300  1
