# generated using pymatgen
data_LiNiPO4
_symmetry_space_group_name_H-M   'P 1'
_cell_length_a   5.15564761
_cell_length_b   8.65805199
_cell_length_c   7.77813737
_cell_angle_alpha   101.33683523
_cell_angle_beta   90.23687436
_cell_angle_gamma   90.02361536
_symmetry_Int_Tables_number   1
_chemical_formula_structural   LiNiPO4
_chemical_formula_sum   'Li4 Ni4 P4 O16'
_cell_volume   340.42188385
_cell_formula_units_Z   4
loop_
 _symmetry_equiv_pos_site_id
 _symmetry_equiv_pos_as_xyz
  1  'x, y, z'
loop_
 _atom_site_type_symbol
 _atom_site_label
 _atom_site_symmetry_multiplicity
 _atom_site_fract_x
 _atom_site_fract_y
 _atom_site_fract_z
 _atom_site_occupancy
  Li  Li0  1  0.56186500  0.91228900  0.00722400  1
  Li  Li1  1  0.06724500  0.09019100  0.99205800  1
  Li  Li2  1  0.47476900  0.68105800  0.53488000  1
  Li  Li3  1  0.97651200  0.31907800  0.46363100  1
  Ni  Ni4  1  0.46508300  0.40852500  0.79933900  1
  Ni  Ni5  1  0.01822900  0.91238700  0.62357500  1
  Ni  Ni6  1  0.96392500  0.59170700  0.20052900  1
  Ni  Ni7  1  0.51900500  0.08802200  0.37719600  1
  P  P8  1  0.47170600  0.41150200  0.23261900  1
  P  P9  1  0.97268500  0.58805900  0.76687700  1
  P  P10  1  0.05520400  0.95777300  0.28657600  1
  P  P11  1  0.55730100  0.04215600  0.71408900  1
  O  O12  1  0.49748200  0.35584500  0.03196200  1
  O  O13  1  0.00119100  0.64252200  0.96764300  1
  O  O14  1  0.60836000  0.57414900  0.29497800  1
  O  O15  1  0.10884700  0.42559100  0.70410800  1
  O  O16  1  0.79360400  0.98077100  0.20115300  1
  O  O17  1  0.29753900  0.01748300  0.79974500  1
  O  O18  1  0.27624500  0.98933000  0.16318300  1
  O  O19  1  0.77988700  0.01170400  0.83791000  1
  O  O20  1  0.17748200  0.42732000  0.28498000  1
  O  O21  1  0.67784400  0.57251100  0.71433900  1
  O  O22  1  0.08094300  0.79739000  0.34587700  1
  O  O23  1  0.58012000  0.20259000  0.65482500  1
  O  O24  1  0.60833300  0.29421200  0.32936500  1
  O  O25  1  0.10806700  0.70577500  0.67066500  1
  O  O26  1  0.09179000  0.08472600  0.46007600  1
  O  O27  1  0.59290600  0.91533500  0.54059800  1
