# generated using pymatgen
data_Li4MnFe3(PO4)4
_symmetry_space_group_name_H-M   'P 1'
_cell_length_a   7.72961700
_cell_length_b   7.74046378
_cell_length_c   10.51703237
_cell_angle_alpha   90.07980201
_cell_angle_beta   90.05412493
_cell_angle_gamma   103.98916235
_symmetry_Int_Tables_number   1
_chemical_formula_structural   Li4MnFe3(PO4)4
_chemical_formula_sum   'Li8 Mn2 Fe6 P8 O32'
_cell_volume   610.57913757
_cell_formula_units_Z   2
loop_
 _symmetry_equiv_pos_site_id
 _symmetry_equiv_pos_as_xyz
  1  'x, y, z'
loop_
 _atom_site_type_symbol
 _atom_site_label
 _atom_site_symmetry_multiplicity
 _atom_site_fract_x
 _atom_site_fract_y
 _atom_site_fract_z
 _atom_site_occupancy
  Li  Li0  1  0.24951500  0.25016100  0.49948900  1
  Li  Li1  1  0.50000000  0.00000000  0.50000000  1
  Li  Li2  1  0.75048500  0.74983900  0.50051100  1
  Li  Li3  1  0.00000000  0.50000000  0.50000000  1
  Li  Li4  1  0.24962800  0.74996900  0.00051500  1
  Li  Li5  1  0.50000000  0.50000000  0.00000000  1
  Li  Li6  1  0.75037200  0.25003100  0.99948500  1
  Li  Li7  1  0.00000000  0.00000000  0.00000000  1
  Mn  Mn8  1  0.61471000  0.36423900  0.28241900  1
  Mn  Mn9  1  0.38529000  0.63576100  0.71758100  1
  Fe  Fe10  1  0.61279300  0.86300000  0.21739300  1
  Fe  Fe11  1  0.11239700  0.36213700  0.21742700  1
  Fe  Fe12  1  0.11302200  0.86342900  0.28243700  1
  Fe  Fe13  1  0.88697800  0.13657100  0.71756300  1
  Fe  Fe14  1  0.38720700  0.13700000  0.78260700  1
  Fe  Fe15  1  0.88760300  0.63786300  0.78257300  1
  P  P16  1  0.33263600  0.08260400  0.09507000  1
  P  P17  1  0.83534200  0.58538700  0.09427900  1
  P  P18  1  0.33125400  0.58339300  0.40339400  1
  P  P19  1  0.83368300  0.08158600  0.40447500  1
  P  P20  1  0.16631700  0.91841400  0.59552500  1
  P  P21  1  0.66874600  0.41660700  0.59660600  1
  P  P22  1  0.16465800  0.41461300  0.90572100  1
  P  P23  1  0.66736400  0.91739600  0.90493000  1
  O  O24  1  0.72874100  0.97887600  0.04204700  1
  O  O25  1  0.22762800  0.47763000  0.04237000  1
  O  O26  1  0.99638700  0.74631300  0.09780900  1
  O  O27  1  0.49446300  0.24429900  0.09796100  1
  O  O28  1  0.36805900  0.91514800  0.16541900  1
  O  O29  1  0.66683100  0.62043100  0.16427900  1
  O  O30  1  0.16507000  0.11790500  0.16539400  1
  O  O31  1  0.87028900  0.41701300  0.16417100  1
  O  O32  1  0.66359400  0.11250400  0.33484400  1
  O  O33  1  0.86960700  0.91346100  0.33496800  1
  O  O34  1  0.36270900  0.41374400  0.33399500  1
  O  O35  1  0.16348900  0.61992500  0.33417000  1
  O  O36  1  0.49449800  0.74315800  0.40082500  1
  O  O37  1  0.99340600  0.24449900  0.40060100  1
  O  O38  1  0.72945600  0.47778200  0.45925800  1
  O  O39  1  0.22710700  0.97878700  0.45800000  1
  O  O40  1  0.27054400  0.52221800  0.54074200  1
  O  O41  1  0.77289300  0.02121300  0.54200000  1
  O  O42  1  0.50550200  0.25684200  0.59917500  1
  O  O43  1  0.00659400  0.75550100  0.59939900  1
  O  O44  1  0.13039300  0.08653900  0.66503200  1
  O  O45  1  0.33640600  0.88749600  0.66515600  1
  O  O46  1  0.63729100  0.58625600  0.66600500  1
  O  O47  1  0.83651100  0.38007500  0.66583000  1
  O  O48  1  0.33316900  0.37956900  0.83572100  1
  O  O49  1  0.63194100  0.08485200  0.83458100  1
  O  O50  1  0.12971100  0.58298700  0.83582900  1
  O  O51  1  0.83493000  0.88209500  0.83460600  1
  O  O52  1  0.00361300  0.25368700  0.90219100  1
  O  O53  1  0.50553700  0.75570100  0.90203900  1
  O  O54  1  0.27125900  0.02112400  0.95795300  1
  O  O55  1  0.77237200  0.52237000  0.95763000  1
