# generated using pymatgen
data_Li6V3P8O29
_symmetry_space_group_name_H-M   'P 1'
_cell_length_a   9.76836300
_cell_length_b   9.79430999
_cell_length_c   13.98091282
_cell_angle_alpha   89.78916552
_cell_angle_beta   89.77185578
_cell_angle_gamma   60.29548626
_symmetry_Int_Tables_number   1
_chemical_formula_structural   Li6V3P8O29
_chemical_formula_sum   'Li12 V6 P16 O58'
_cell_volume   1161.83096367
_cell_formula_units_Z   2
loop_
 _symmetry_equiv_pos_site_id
 _symmetry_equiv_pos_as_xyz
  1  'x, y, z'
loop_
 _atom_site_type_symbol
 _atom_site_label
 _atom_site_symmetry_multiplicity
 _atom_site_fract_x
 _atom_site_fract_y
 _atom_site_fract_z
 _atom_site_occupancy
  Li  Li0  1  0.23808100  0.66020500  0.05968300  1
  Li  Li1  1  0.09485200  0.66536400  0.56305700  1
  Li  Li2  1  0.66327400  0.23833300  0.55923000  1
  Li  Li3  1  0.66355600  0.09526900  0.06280900  1
  Li  Li4  1  0.09860000  0.23388200  0.05873400  1
  Li  Li5  1  0.23451500  0.09756900  0.55956700  1
  Li  Li6  1  0.33228400  0.90189300  0.93876600  1
  Li  Li7  1  0.33356200  0.76496200  0.43931100  1
  Li  Li8  1  0.90148500  0.33458800  0.43898000  1
  Li  Li9  1  0.76517300  0.33047900  0.93957100  1
  Li  Li10  1  0.98649100  0.96024600  0.99326600  1
  Li  Li11  1  0.96257100  0.98668900  0.49344400  1
  V  V12  1  0.56733000  0.99547600  0.25403600  1
  V  V13  1  0.43853400  0.00128700  0.74940100  1
  V  V14  1  0.99468500  0.56670400  0.75326100  1
  V  V15  1  0.00360800  0.43845600  0.24857400  1
  V  V16  1  0.43784000  0.56425200  0.24902300  1
  V  V17  1  0.56109500  0.43761700  0.74883600  1
  P  P18  1  0.22308900  0.68852000  0.84127600  1
  P  P19  1  0.08745700  0.68886200  0.34627700  1
  P  P20  1  0.68702700  0.22525400  0.34173800  1
  P  P21  1  0.33764300  0.32880800  0.13043100  1
  P  P22  1  0.32932500  0.33801500  0.63039700  1
  P  P23  1  0.68924700  0.08714500  0.84722700  1
  P  P24  1  0.78052500  0.91724600  0.66078000  1
  P  P25  1  0.08806500  0.22510300  0.84044400  1
  P  P26  1  0.91703800  0.78033200  0.16076000  1
  P  P27  1  0.22477800  0.08741300  0.34098600  1
  P  P28  1  0.31328300  0.91349800  0.15645100  1
  P  P29  1  0.66547200  0.66595500  0.36914000  1
  P  P30  1  0.66523400  0.66367100  0.86938600  1
  P  P31  1  0.31430800  0.77601800  0.65789400  1
  P  P32  1  0.91390100  0.31205300  0.65623000  1
  P  P33  1  0.77509900  0.31433100  0.15757100  1
  O  O34  1  0.22559000  0.77627800  0.56922000  1
  O  O35  1  0.25728000  0.66177800  0.33896400  1
  O  O36  1  0.01290200  0.78825000  0.07903800  1
  O  O37  1  0.08232400  0.66301200  0.83841000  1
  O  O38  1  0.37938200  0.53244600  0.83035000  1
  O  O39  1  0.32700400  0.48481000  0.16947300  1
  O  O40  1  0.53132100  0.38084800  0.32928700  1
  O  O41  1  0.77265500  0.22696000  0.06907900  1
  O  O42  1  0.66413900  0.25513100  0.84049400  1
  O  O43  1  0.18491400  0.49033600  0.67165000  1
  O  O44  1  0.08641300  0.53287800  0.33342900  1
  O  O45  1  0.48515500  0.32903000  0.67213100  1
  O  O46  1  0.33604500  0.32676800  0.02377200  1
  O  O47  1  0.33301200  0.34046500  0.52378400  1
  O  O48  1  0.48941400  0.18558700  0.17229700  1
  O  O49  1  0.09523200  0.37690700  0.82874500  1
  O  O50  1  0.18935100  0.32151900  0.17232800  1
  O  O51  1  0.66051500  0.08515200  0.33990000  1
  O  O52  1  0.80209800  0.99121800  0.75905100  1
  O  O53  1  0.78894500  0.01271900  0.57920300  1
  O  O54  1  0.77290800  0.01120000  0.93896400  1
  O  O55  1  0.53269900  0.08759300  0.83188300  1
  O  O56  1  0.32206000  0.19179100  0.67061400  1
  O  O57  1  0.74798600  0.91926100  0.15895900  1
  O  O58  1  0.37731200  0.09449900  0.32879100  1
  O  O59  1  0.07949900  0.25374300  0.34006500  1
  O  O60  1  0.99167600  0.80243100  0.25899500  1
  O  O61  1  0.01436800  0.77241100  0.43845400  1
  O  O62  1  0.00188500  0.22484000  0.56709000  1
  O  O63  1  0.91806700  0.74788500  0.65846400  1
  O  O64  1  0.62034700  0.92062700  0.67011700  1
  O  O65  1  0.25673500  0.07951800  0.83999700  1
  O  O66  1  0.67111200  0.81020100  0.32360900  1
  O  O67  1  0.46898100  0.91338700  0.16868000  1
  O  O68  1  0.22493600  0.00067300  0.06738300  1
  O  O69  1  0.22554600  0.99915100  0.43038600  1
  O  O70  1  0.20342800  0.99954000  0.24908000  1
  O  O71  1  0.33927100  0.92068100  0.65758500  1
  O  O72  1  0.81034800  0.66857100  0.82352200  1
  O  O73  1  0.91790800  0.62220300  0.16984400  1
  O  O74  1  0.51328000  0.81053100  0.83006800  1
  O  O75  1  0.66756300  0.65196700  0.97530900  1
  O  O76  1  0.65988200  0.66507900  0.47532300  1
  O  O77  1  0.50951100  0.67660700  0.32724500  1
  O  O78  1  0.91278600  0.46800400  0.66869400  1
  O  O79  1  0.81156000  0.51401900  0.32754300  1
  O  O80  1  0.33561300  0.74629200  0.15691300  1
  O  O81  1  0.20606300  0.80015700  0.75041200  1
  O  O82  1  0.22109400  0.77713500  0.93082400  1
  O  O83  1  0.47167500  0.62323800  0.66940300  1
  O  O84  1  0.67271000  0.51094600  0.82485900  1
  O  O85  1  0.62016900  0.47154800  0.16952000  1
  O  O86  1  0.91841300  0.33983900  0.15606800  1
  O  O87  1  0.00061300  0.22426000  0.92983700  1
  O  O88  1  0.00192900  0.20176800  0.74867200  1
  O  O89  1  0.74655000  0.33470300  0.65648700  1
  O  O90  1  0.77703500  0.22276700  0.43093700  1
  O  O91  1  0.79757100  0.20693900  0.25005200  1
