# generated using pymatgen
data_LiCoPO4
_symmetry_space_group_name_H-M   'P 1'
_cell_length_a   7.61744100
_cell_length_b   8.63519300
_cell_length_c   17.21826204
_cell_angle_alpha   60.59333268
_cell_angle_beta   90.00000000
_cell_angle_gamma   90.00000000
_symmetry_Int_Tables_number   1
_chemical_formula_structural   LiCoPO4
_chemical_formula_sum   'Li12 Co12 P12 O48'
_cell_volume   986.65820551
_cell_formula_units_Z   12
loop_
 _symmetry_equiv_pos_site_id
 _symmetry_equiv_pos_as_xyz
  1  'x, y, z'
loop_
 _atom_site_type_symbol
 _atom_site_label
 _atom_site_symmetry_multiplicity
 _atom_site_fract_x
 _atom_site_fract_y
 _atom_site_fract_z
 _atom_site_occupancy
  Li  Li0  1  0.98157800  0.29396000  0.93061000  1
  Li  Li1  1  0.02319700  0.64423700  0.58597400  1
  Li  Li2  1  0.04278000  0.99867100  0.24307500  1
  Li  Li3  1  0.54278000  0.00132900  0.25692500  1
  Li  Li4  1  0.52319700  0.35576300  0.91402600  1
  Li  Li5  1  0.48157800  0.70604000  0.56939000  1
  Li  Li6  1  0.51842200  0.29396000  0.43061000  1
  Li  Li7  1  0.47680300  0.64423700  0.08597400  1
  Li  Li8  1  0.45722000  0.99867100  0.74307500  1
  Li  Li9  1  0.95722000  0.00132900  0.75692500  1
  Li  Li10  1  0.97680300  0.35576300  0.41402600  1
  Li  Li11  1  0.01842200  0.70604000  0.06939000  1
  Co  Co12  1  0.67753500  0.64825100  0.41000900  1
  Co  Co13  1  0.81678100  0.32204100  0.76337300  1
  Co  Co14  1  0.67675600  0.01640700  0.07946700  1
  Co  Co15  1  0.17675600  0.98359300  0.42053300  1
  Co  Co16  1  0.31678100  0.67795900  0.73662700  1
  Co  Co17  1  0.17753500  0.35174900  0.08999100  1
  Co  Co18  1  0.82246500  0.64825100  0.91000900  1
  Co  Co19  1  0.68321900  0.32204100  0.26337300  1
  Co  Co20  1  0.82324400  0.01640700  0.57946700  1
  Co  Co21  1  0.32324400  0.98359300  0.92053300  1
  Co  Co22  1  0.18321900  0.67795900  0.23662700  1
  Co  Co23  1  0.32246500  0.35174900  0.58999100  1
  P  P24  1  0.26526400  0.65238200  0.40739600  1
  P  P25  1  0.21996500  0.30985700  0.76840100  1
  P  P26  1  0.26467500  0.03373400  0.07630100  1
  P  P27  1  0.76467500  0.96626600  0.42369900  1
  P  P28  1  0.71996500  0.69014300  0.73159900  1
  P  P29  1  0.76526400  0.34761800  0.09260400  1
  P  P30  1  0.23473600  0.65238200  0.90739600  1
  P  P31  1  0.28003500  0.30985700  0.26840100  1
  P  P32  1  0.23532500  0.03373400  0.57630100  1
  P  P33  1  0.73532500  0.96626600  0.92369900  1
  P  P34  1  0.78003500  0.69014300  0.23159900  1
  P  P35  1  0.73473600  0.34761800  0.59260400  1
  O  O36  1  0.44050600  0.57146200  0.39713900  1
  O  O37  1  0.87880600  0.40912400  0.63584000  1
  O  O38  1  0.37154900  0.24475700  0.83778700  1
  O  O39  1  0.22251000  0.58576200  0.50735400  1
  O  O40  1  0.77700400  0.09613500  0.95981700  1
  O  O41  1  0.77171500  0.78775700  0.28731100  1
  O  O42  1  0.26675600  0.92655100  0.18016800  1
  O  O43  1  0.04779100  0.26189600  0.82397200  1
  O  O44  1  0.44368400  0.12785800  0.04002700  1
  O  O45  1  0.22544300  0.51275100  0.70086900  1
  O  O46  1  0.12474800  0.18347000  0.04398000  1
  O  O47  1  0.27490400  0.85929600  0.35842300  1
  O  O48  1  0.77490400  0.14070400  0.14157700  1
  O  O49  1  0.62474800  0.81653000  0.45602000  1
  O  O50  1  0.72544300  0.48724900  0.79913100  1
  O  O51  1  0.94368400  0.87214200  0.45997300  1
  O  O52  1  0.54779100  0.73810400  0.67602800  1
  O  O53  1  0.76675600  0.07344900  0.31983200  1
  O  O54  1  0.27171500  0.21224300  0.21268900  1
  O  O55  1  0.27700400  0.90386500  0.54018300  1
  O  O56  1  0.72251000  0.41423800  0.99264600  1
  O  O57  1  0.87154900  0.75524300  0.66221300  1
  O  O58  1  0.37880600  0.59087600  0.86416000  1
  O  O59  1  0.94050600  0.42853800  0.10286100  1
  O  O60  1  0.05949400  0.57146200  0.89713900  1
  O  O61  1  0.62119400  0.40912400  0.13584000  1
  O  O62  1  0.12845100  0.24475700  0.33778700  1
  O  O63  1  0.27749000  0.58576200  0.00735400  1
  O  O64  1  0.72299600  0.09613500  0.45981700  1
  O  O65  1  0.72828500  0.78775700  0.78731100  1
  O  O66  1  0.23324400  0.92655100  0.68016800  1
  O  O67  1  0.45220900  0.26189600  0.32397200  1
  O  O68  1  0.05631600  0.12785800  0.54002700  1
  O  O69  1  0.27455700  0.51275100  0.20086900  1
  O  O70  1  0.37525200  0.18347000  0.54398000  1
  O  O71  1  0.22509600  0.85929600  0.85842300  1
  O  O72  1  0.72509600  0.14070400  0.64157700  1
  O  O73  1  0.77455700  0.48724900  0.29913100  1
  O  O74  1  0.87525200  0.81653000  0.95602000  1
  O  O75  1  0.55631600  0.87214200  0.95997300  1
  O  O76  1  0.95220900  0.73810400  0.17602800  1
  O  O77  1  0.73324400  0.07344900  0.81983200  1
  O  O78  1  0.22828500  0.21224300  0.71268900  1
  O  O79  1  0.22299600  0.90386500  0.04018300  1
  O  O80  1  0.77749000  0.41423800  0.49264600  1
  O  O81  1  0.62845100  0.75524300  0.16221300  1
  O  O82  1  0.12119400  0.59087600  0.36416000  1
  O  O83  1  0.55949400  0.42853800  0.60286100  1
