# generated using pymatgen
data_Li4Cr3Ni(PO4)4
_symmetry_space_group_name_H-M   'P 1'
_cell_length_a   4.78394823
_cell_length_b   10.20198877
_cell_length_c   6.26996700
_cell_angle_alpha   90.00000000
_cell_angle_beta   90.00000000
_cell_angle_gamma   89.55667321
_symmetry_Int_Tables_number   1
_chemical_formula_structural   Li4Cr3Ni(PO4)4
_chemical_formula_sum   'Li4 Cr3 Ni1 P4 O16'
_cell_volume   306.00150824
_cell_formula_units_Z   1
loop_
 _symmetry_equiv_pos_site_id
 _symmetry_equiv_pos_as_xyz
  1  'x, y, z'
loop_
 _atom_site_type_symbol
 _atom_site_label
 _atom_site_symmetry_multiplicity
 _atom_site_fract_x
 _atom_site_fract_y
 _atom_site_fract_z
 _atom_site_occupancy
  Li  Li0  1  0.00575600  0.99817900  0.99800500  1
  Li  Li1  1  0.00575600  0.99817900  0.50199500  1
  Li  Li2  1  0.49756500  0.50248900  0.50469700  1
  Li  Li3  1  0.49756500  0.50248900  0.99530300  1
  Cr  Cr4  1  0.45242200  0.21637300  0.75000000  1
  Cr  Cr5  1  0.54755700  0.78195900  0.25000000  1
  Cr  Cr6  1  0.95489300  0.28491900  0.25000000  1
  Ni  Ni7  1  0.01612000  0.72143100  0.75000000  1
  P  P8  1  0.08324300  0.59603200  0.25000000  1
  P  P9  1  0.41967700  0.09425600  0.25000000  1
  P  P10  1  0.58373500  0.90382900  0.75000000  1
  P  P11  1  0.91534200  0.40708400  0.75000000  1
  O  O12  1  0.19496500  0.45169500  0.25000000  1
  O  O13  1  0.21287700  0.66262700  0.04810800  1
  O  O14  1  0.21287700  0.66262700  0.45189200  1
  O  O15  1  0.23916100  0.39822700  0.75000000  1
  O  O16  1  0.26229500  0.89756200  0.75000000  1
  O  O17  1  0.28431900  0.16074300  0.05153100  1
  O  O18  1  0.28431900  0.16074300  0.44846900  1
  O  O19  1  0.31181200  0.94979500  0.25000000  1
  O  O20  1  0.69445000  0.04723400  0.75000000  1
  O  O21  1  0.72601800  0.83397000  0.55537100  1
  O  O22  1  0.72601800  0.83397000  0.94462900  1
  O  O23  1  0.74331300  0.10132800  0.25000000  1
  O  O24  1  0.75947300  0.60254200  0.25000000  1
  O  O25  1  0.78344700  0.33917500  0.55170400  1
  O  O26  1  0.78344700  0.33917500  0.94829600  1
  O  O27  1  0.80158500  0.55136600  0.75000000  1
