# generated using pymatgen
data_Li3V3P8O29
_symmetry_space_group_name_H-M   'P 1'
_cell_length_a   9.78689227
_cell_length_b   9.78689227
_cell_length_c   14.27488604
_cell_angle_alpha   89.26917501
_cell_angle_beta   89.26917501
_cell_angle_gamma   60.04553881
_symmetry_Int_Tables_number   1
_chemical_formula_structural   Li3V3P8O29
_chemical_formula_sum   'Li6 V6 P16 O58'
_cell_volume   1184.52675068
_cell_formula_units_Z   2
loop_
 _symmetry_equiv_pos_site_id
 _symmetry_equiv_pos_as_xyz
  1  'x, y, z'
loop_
 _atom_site_type_symbol
 _atom_site_label
 _atom_site_symmetry_multiplicity
 _atom_site_fract_x
 _atom_site_fract_y
 _atom_site_fract_z
 _atom_site_occupancy
  Li  Li0  1  0.22237500  0.08265700  0.69401000  1
  Li  Li1  1  0.09310700  0.22570700  0.18697200  1
  Li  Li2  1  0.69544900  0.22393600  0.69618900  1
  Li  Li3  1  0.77606400  0.30455100  0.30381100  1
  Li  Li4  1  0.91734300  0.77762500  0.30599000  1
  Li  Li5  1  0.77429300  0.90689300  0.81302800  1
  V  V6  1  0.56319600  0.00540700  0.00818900  1
  V  V7  1  0.99459300  0.43680400  0.99181100  1
  V  V8  1  0.55938300  0.44061700  0.50000000  1
  V  V9  1  0.43088000  0.56912000  0.00000000  1
  V  V10  1  0.00469600  0.56658800  0.50694300  1
  V  V11  1  0.43341200  0.99530400  0.49305700  1
  P  P12  1  0.23513700  0.08646600  0.90842600  1
  P  P13  1  0.08524000  0.23660700  0.40810900  1
  P  P14  1  0.68418400  0.08913300  0.41086600  1
  P  P15  1  0.32582800  0.33732900  0.11992600  1
  P  P16  1  0.33745400  0.32452200  0.61842700  1
  P  P17  1  0.68143200  0.23044100  0.91055500  1
  P  P18  1  0.76955900  0.31856800  0.08944500  1
  P  P19  1  0.08897800  0.68711900  0.91127000  1
  P  P20  1  0.91086700  0.31581600  0.58913400  1
  P  P21  1  0.22700400  0.68937900  0.40821300  1
  P  P22  1  0.31062100  0.77299600  0.59178700  1
  P  P23  1  0.66267100  0.67417200  0.88007400  1
  P  P24  1  0.67547800  0.66254600  0.38157300  1
  P  P25  1  0.31288100  0.91102200  0.08873000  1
  P  P26  1  0.91353400  0.76486300  0.09157400  1
  P  P27  1  0.76339300  0.91476000  0.59189100  1
  O  O28  1  0.22664600  0.00574000  0.17121100  1
  O  O29  1  0.25305400  0.09044800  0.41727500  1
  O  O30  1  0.98615700  0.21800900  0.49306000  1
  O  O31  1  0.00656500  0.22860400  0.67115900  1
  O  O32  1  0.38527000  0.09491500  0.93061500  1
  O  O33  1  0.09034100  0.25564900  0.92039800  1
  O  O34  1  0.33421700  0.17905400  0.57691500  1
  O  O35  1  0.52231800  0.09579900  0.42665900  1
  O  O36  1  0.75426600  0.99512800  0.68200700  1
  O  O37  1  0.65984800  0.08329800  0.91635600  1
  O  O38  1  0.17878200  0.33515600  0.08061200  1
  O  O39  1  0.47759100  0.18449300  0.07599400  1
  O  O40  1  0.09399300  0.38659500  0.42896200  1
  O  O41  1  0.33353300  0.32783300  0.22367000  1
  O  O42  1  0.33690100  0.32551100  0.72211400  1
  O  O43  1  0.09578500  0.52423500  0.92580600  1
  O  O44  1  0.48716400  0.32784700  0.57632400  1
  O  O45  1  0.18721800  0.47617500  0.57457500  1
  O  O46  1  0.65942800  0.25860900  0.41063000  1
  O  O47  1  0.78978800  0.21021200  0.00000000  1
  O  O48  1  0.75571700  0.23474500  0.81989200  1
  O  O49  1  0.76525500  0.24428300  0.18010800  1
  O  O50  1  0.52225100  0.38294900  0.92914700  1
  O  O51  1  0.33443700  0.47997000  0.07460900  1
  O  O52  1  0.08284100  0.66209400  0.41634600  1
  O  O53  1  0.74139100  0.34057200  0.58937000  1
  O  O54  1  0.38100600  0.52553300  0.43069900  1
  O  O55  1  0.00487200  0.24573400  0.31799300  1
  O  O56  1  0.98478800  0.76003700  0.18274200  1
  O  O57  1  0.61705100  0.47774900  0.07085300  1
  O  O58  1  0.25926800  0.65735100  0.91531300  1
  O  O59  1  0.01141700  0.78488600  0.00668300  1
  O  O60  1  0.91670200  0.34015200  0.08364400  1
  O  O61  1  0.67215300  0.51283600  0.42367600  1
  O  O62  1  0.47446700  0.61899400  0.56930100  1
  O  O63  1  0.23917000  0.76117400  0.68039000  1
  O  O64  1  0.23882600  0.76083000  0.31961000  1
  O  O65  1  0.20758700  0.79241300  0.50000000  1
  O  O66  1  0.34264900  0.74073200  0.08468700  1
  O  O67  1  0.81550700  0.52240900  0.92400600  1
  O  O68  1  0.90420100  0.47768200  0.57334100  1
  O  O69  1  0.52003000  0.66556300  0.92539100  1
  O  O70  1  0.67448900  0.66309900  0.27788600  1
  O  O71  1  0.67216700  0.66646700  0.77633000  1
  O  O72  1  0.90508500  0.61473000  0.06938500  1
  O  O73  1  0.52382500  0.81278200  0.42542500  1
  O  O74  1  0.82094600  0.66578300  0.42308500  1
  O  O75  1  0.33790600  0.91715900  0.58365400  1
  O  O76  1  0.21511400  0.98858300  0.99331700  1
  O  O77  1  0.23996300  0.01521200  0.81725800  1
  O  O78  1  0.47576500  0.90421500  0.07419400  1
  O  O79  1  0.66484400  0.82121800  0.91938800  1
  O  O80  1  0.90955200  0.74694600  0.58272500  1
  O  O81  1  0.61340500  0.90600700  0.57103800  1
  O  O82  1  0.99426000  0.77335400  0.82878900  1
  O  O83  1  0.74435100  0.90965900  0.07960200  1
  O  O84  1  0.77139600  0.99343500  0.32884100  1
  O  O85  1  0.78199100  0.01384300  0.50694000  1
