# generated using pymatgen
data_LiMnB3(HO3)3
_symmetry_space_group_name_H-M   'P 1'
_cell_length_a   9.11765700
_cell_length_b   11.64231400
_cell_length_c   14.23762200
_cell_angle_alpha   90.00000000
_cell_angle_beta   90.00000000
_cell_angle_gamma   90.00000000
_symmetry_Int_Tables_number   1
_chemical_formula_structural   LiMnB3(HO3)3
_chemical_formula_sum   'Li8 Mn8 B24 H24 O72'
_cell_volume   1511.33248433
_cell_formula_units_Z   8
loop_
 _symmetry_equiv_pos_site_id
 _symmetry_equiv_pos_as_xyz
  1  'x, y, z'
loop_
 _atom_site_type_symbol
 _atom_site_label
 _atom_site_symmetry_multiplicity
 _atom_site_fract_x
 _atom_site_fract_y
 _atom_site_fract_z
 _atom_site_occupancy
  Li  Li0  1  0.16327800  0.00000000  0.25000000  1
  Li  Li1  1  0.50521700  0.00000000  0.25000000  1
  Li  Li2  1  0.49478300  0.00000000  0.75000000  1
  Li  Li3  1  0.83672200  0.00000000  0.75000000  1
  Li  Li4  1  0.66327800  0.50000000  0.25000000  1
  Li  Li5  1  0.99478300  0.50000000  0.75000000  1
  Li  Li6  1  0.33672200  0.50000000  0.75000000  1
  Li  Li7  1  0.00521700  0.50000000  0.25000000  1
  Mn  Mn8  1  0.34213200  0.23409300  0.32691800  1
  Mn  Mn9  1  0.65786800  0.23409300  0.82691800  1
  Mn  Mn10  1  0.15786800  0.26590700  0.82691800  1
  Mn  Mn11  1  0.84213200  0.26590700  0.32691800  1
  Mn  Mn12  1  0.15786800  0.73409300  0.67308200  1
  Mn  Mn13  1  0.84213200  0.73409300  0.17308200  1
  Mn  Mn14  1  0.34213200  0.76590700  0.17308200  1
  Mn  Mn15  1  0.65786800  0.76590700  0.67308200  1
  B  B16  1  0.03160000  0.14739300  0.08254400  1
  B  B17  1  0.96840000  0.14739300  0.58254400  1
  B  B18  1  0.53110300  0.14577900  0.07505800  1
  B  B19  1  0.46889700  0.14577900  0.57505800  1
  B  B20  1  0.08971600  0.24343600  0.44604600  1
  B  B21  1  0.91028400  0.24343600  0.94604600  1
  B  B22  1  0.41028400  0.25656400  0.94604600  1
  B  B23  1  0.58971600  0.25656400  0.44604600  1
  B  B24  1  0.03110300  0.35422100  0.07505800  1
  B  B25  1  0.96889700  0.35422100  0.57505800  1
  B  B26  1  0.53160000  0.35260700  0.08254400  1
  B  B27  1  0.46840000  0.35260700  0.58254400  1
  B  B28  1  0.46840000  0.64739300  0.91745600  1
  B  B29  1  0.53160000  0.64739300  0.41745600  1
  B  B30  1  0.03110300  0.64577900  0.42494200  1
  B  B31  1  0.96889700  0.64577900  0.92494200  1
  B  B32  1  0.41028400  0.74343600  0.55395400  1
  B  B33  1  0.58971600  0.74343600  0.05395400  1
  B  B34  1  0.08971600  0.75656400  0.05395400  1
  B  B35  1  0.91028400  0.75656400  0.55395400  1
  B  B36  1  0.46889700  0.85422100  0.92494200  1
  B  B37  1  0.53110300  0.85422100  0.42494200  1
  B  B38  1  0.03160000  0.85260700  0.41745600  1
  B  B39  1  0.96840000  0.85260700  0.91745600  1
  H  H40  1  0.06263900  0.98126000  0.08486300  1
  H  H41  1  0.93736100  0.98126000  0.58486300  1
  H  H42  1  0.56044200  0.02404800  0.42312200  1
  H  H43  1  0.43955800  0.02404800  0.92312200  1
  H  H44  1  0.28688300  0.20028600  0.70081200  1
  H  H45  1  0.71311700  0.20028600  0.20081200  1
  H  H46  1  0.21311700  0.29971400  0.20081200  1
  H  H47  1  0.78688300  0.29971400  0.70081200  1
  H  H48  1  0.06044200  0.47595200  0.42312200  1
  H  H49  1  0.93955800  0.47595200  0.92312200  1
  H  H50  1  0.56263900  0.51874000  0.08486300  1
  H  H51  1  0.43736100  0.51874000  0.58486300  1
  H  H52  1  0.43736100  0.48126000  0.91513700  1
  H  H53  1  0.56263900  0.48126000  0.41513700  1
  H  H54  1  0.06044200  0.52404800  0.07687800  1
  H  H55  1  0.93955800  0.52404800  0.57687800  1
  H  H56  1  0.78688300  0.70028600  0.79918800  1
  H  H57  1  0.21311700  0.70028600  0.29918800  1
  H  H58  1  0.28688300  0.79971400  0.79918800  1
  H  H59  1  0.71311700  0.79971400  0.29918800  1
  H  H60  1  0.43955800  0.97595200  0.57687800  1
  H  H61  1  0.56044200  0.97595200  0.07687800  1
  H  H62  1  0.06263900  0.01874000  0.41513700  1
  H  H63  1  0.93736100  0.01874000  0.91513700  1
  O  O64  1  0.56948900  0.04450200  0.11843000  1
  O  O65  1  0.43051100  0.04450200  0.61843000  1
  O  O66  1  0.08240100  0.04876400  0.12514800  1
  O  O67  1  0.91759900  0.04876400  0.62514800  1
  O  O68  1  0.33429800  0.10353300  0.28391400  1
  O  O69  1  0.66570200  0.10353300  0.78391400  1
  O  O70  1  0.94885100  0.14190200  0.00287400  1
  O  O71  1  0.05114900  0.14190200  0.50287400  1
  O  O72  1  0.54208200  0.14783700  0.49134600  1
  O  O73  1  0.45791800  0.14783700  0.99134600  1
  O  O74  1  0.79121700  0.16519800  0.24057700  1
  O  O75  1  0.20878300  0.16519800  0.74057700  1
  O  O76  1  0.02541500  0.22928900  0.35128300  1
  O  O77  1  0.97458500  0.22928900  0.85128300  1
  O  O78  1  0.25006900  0.24849700  0.43364200  1
  O  O79  1  0.74993100  0.24849700  0.93364200  1
  O  O80  1  0.43055800  0.24659800  0.62215500  1
  O  O81  1  0.56944200  0.24659800  0.12215500  1
  O  O82  1  0.06944200  0.25340200  0.12215500  1
  O  O83  1  0.93055800  0.25340200  0.62215500  1
  O  O84  1  0.75006900  0.25150300  0.43364200  1
  O  O85  1  0.24993100  0.25150300  0.93364200  1
  O  O86  1  0.47458500  0.27071100  0.85128300  1
  O  O87  1  0.52541500  0.27071100  0.35128300  1
  O  O88  1  0.29121700  0.33480200  0.24057700  1
  O  O89  1  0.70878300  0.33480200  0.74057700  1
  O  O90  1  0.04208200  0.35216300  0.49134600  1
  O  O91  1  0.95791800  0.35216300  0.99134600  1
  O  O92  1  0.55114900  0.35809800  0.50287400  1
  O  O93  1  0.44885100  0.35809800  0.00287400  1
  O  O94  1  0.83429800  0.39646700  0.28391400  1
  O  O95  1  0.16570200  0.39646700  0.78391400  1
  O  O96  1  0.58240100  0.45123600  0.12514800  1
  O  O97  1  0.41759900  0.45123600  0.62514800  1
  O  O98  1  0.06948900  0.45549800  0.11843000  1
  O  O99  1  0.93051100  0.45549800  0.61843000  1
  O  O100  1  0.06948900  0.54450200  0.38157000  1
  O  O101  1  0.93051100  0.54450200  0.88157000  1
  O  O102  1  0.58240100  0.54876400  0.37485200  1
  O  O103  1  0.41759900  0.54876400  0.87485200  1
  O  O104  1  0.83429800  0.60353300  0.21608600  1
  O  O105  1  0.16570200  0.60353300  0.71608600  1
  O  O106  1  0.44885100  0.64190200  0.49712600  1
  O  O107  1  0.55114900  0.64190200  0.99712600  1
  O  O108  1  0.04208200  0.64783700  0.00865400  1
  O  O109  1  0.95791800  0.64783700  0.50865400  1
  O  O110  1  0.29121700  0.66519800  0.25942300  1
  O  O111  1  0.70878300  0.66519800  0.75942300  1
  O  O112  1  0.47458500  0.72928900  0.64871700  1
  O  O113  1  0.52541500  0.72928900  0.14871700  1
  O  O114  1  0.24993100  0.74849700  0.56635800  1
  O  O115  1  0.75006900  0.74849700  0.06635800  1
  O  O116  1  0.93055800  0.74659800  0.87784500  1
  O  O117  1  0.06944200  0.74659800  0.37784500  1
  O  O118  1  0.43055800  0.75340200  0.87784500  1
  O  O119  1  0.56944200  0.75340200  0.37784500  1
  O  O120  1  0.25006900  0.75150300  0.06635800  1
  O  O121  1  0.74993100  0.75150300  0.56635800  1
  O  O122  1  0.02541500  0.77071100  0.14871700  1
  O  O123  1  0.97458500  0.77071100  0.64871700  1
  O  O124  1  0.20878300  0.83480200  0.75942300  1
  O  O125  1  0.79121700  0.83480200  0.25942300  1
  O  O126  1  0.45791800  0.85216300  0.50865400  1
  O  O127  1  0.54208200  0.85216300  0.00865400  1
  O  O128  1  0.05114900  0.85809800  0.99712600  1
  O  O129  1  0.94885100  0.85809800  0.49712600  1
  O  O130  1  0.33429800  0.89646700  0.21608600  1
  O  O131  1  0.66570200  0.89646700  0.71608600  1
  O  O132  1  0.08240100  0.95123600  0.37485200  1
  O  O133  1  0.91759900  0.95123600  0.87485200  1
  O  O134  1  0.43051100  0.95549800  0.88157000  1
  O  O135  1  0.56948900  0.95549800  0.38157000  1
