# generated using pymatgen
data_Li9Fe23O32
_symmetry_space_group_name_H-M   'P 1'
_cell_length_a   8.59395578
_cell_length_b   8.59395578
_cell_length_c   8.55486852
_cell_angle_alpha   89.95397533
_cell_angle_beta   89.95397533
_cell_angle_gamma   90.04201358
_symmetry_Int_Tables_number   1
_chemical_formula_structural   Li9Fe23O32
_chemical_formula_sum   'Li9 Fe23 O32'
_cell_volume   631.82844142
_cell_formula_units_Z   1
loop_
 _symmetry_equiv_pos_site_id
 _symmetry_equiv_pos_as_xyz
  1  'x, y, z'
loop_
 _atom_site_type_symbol
 _atom_site_label
 _atom_site_symmetry_multiplicity
 _atom_site_fract_x
 _atom_site_fract_y
 _atom_site_fract_z
 _atom_site_occupancy
  Li  Li0  1  0.37187800  0.62812200  0.50000000  1
  Li  Li1  1  0.62227200  0.87246200  0.50157100  1
  Li  Li2  1  0.12838800  0.87161200  0.50000000  1
  Li  Li3  1  0.12753800  0.37772800  0.49842900  1
  Li  Li4  1  0.87656300  0.37944900  0.25060200  1
  Li  Li5  1  0.87532700  0.62251200  0.00251800  1
  Li  Li6  1  0.37748800  0.12467300  0.99748200  1
  Li  Li7  1  0.37435900  0.62564100  0.00000000  1
  Li  Li8  1  0.62055100  0.12343700  0.74939800  1
  Fe  Fe9  1  0.87680600  0.12319400  0.50000000  1
  Fe  Fe10  1  0.87922300  0.62769000  0.49840000  1
  Fe  Fe11  1  0.37231000  0.12077700  0.50160000  1
  Fe  Fe12  1  0.62257300  0.37742700  0.50000000  1
  Fe  Fe13  1  0.87196500  0.87054800  0.25247000  1
  Fe  Fe14  1  0.62118700  0.12367600  0.25163300  1
  Fe  Fe15  1  0.37897500  0.87395100  0.26143300  1
  Fe  Fe16  1  0.37223500  0.37834800  0.25279100  1
  Fe  Fe17  1  0.62798300  0.62209600  0.25058700  1
  Fe  Fe18  1  0.12448000  0.13453000  0.25396800  1
  Fe  Fe19  1  0.12268300  0.61719000  0.25873900  1
  Fe  Fe20  1  0.87338200  0.12661800  0.00000000  1
  Fe  Fe21  1  0.61845800  0.87081200  0.99915700  1
  Fe  Fe22  1  0.62015600  0.37984400  0.00000000  1
  Fe  Fe23  1  0.13237900  0.86762100  0.00000000  1
  Fe  Fe24  1  0.12918800  0.38154200  0.00084300  1
  Fe  Fe25  1  0.86547000  0.87552000  0.74603200  1
  Fe  Fe26  1  0.62165200  0.62776500  0.74720900  1
  Fe  Fe27  1  0.38281000  0.87731700  0.74126100  1
  Fe  Fe28  1  0.37790400  0.37201700  0.74941300  1
  Fe  Fe29  1  0.87632400  0.37881300  0.74836700  1
  Fe  Fe30  1  0.12945200  0.12803500  0.74753000  1
  Fe  Fe31  1  0.12604900  0.62102500  0.73856700  1
  O  O32  1  0.63345500  0.13680700  0.49664200  1
  O  O33  1  0.62812600  0.61136100  0.50557100  1
  O  O34  1  0.11586600  0.12643800  0.50551700  1
  O  O35  1  0.12559000  0.62476500  0.49739300  1
  O  O36  1  0.87356200  0.88413400  0.49448300  1
  O  O37  1  0.86319300  0.36654500  0.50335800  1
  O  O38  1  0.37523500  0.87441000  0.50260700  1
  O  O39  1  0.38863900  0.37187400  0.49442900  1
  O  O40  1  0.87682300  0.12636500  0.24992600  1
  O  O41  1  0.61265300  0.87181400  0.24952800  1
  O  O42  1  0.62755700  0.37631300  0.24520000  1
  O  O43  1  0.13491200  0.87089700  0.24134400  1
  O  O44  1  0.12187800  0.38154800  0.25026100  1
  O  O45  1  0.88228500  0.62335800  0.24795300  1
  O  O46  1  0.37152400  0.11098800  0.24889000  1
  O  O47  1  0.36786500  0.63751000  0.25079600  1
  O  O48  1  0.88413500  0.88558000  0.00463000  1
  O  O49  1  0.63611400  0.13020600  0.00304600  1
  O  O50  1  0.62610700  0.61881500  0.99368900  1
  O  O51  1  0.36618700  0.87631700  0.99618200  1
  O  O52  1  0.86979400  0.36388600  0.99695400  1
  O  O53  1  0.38118500  0.37389300  0.00631100  1
  O  O54  1  0.11442000  0.11586500  0.99537000  1
  O  O55  1  0.12368300  0.63381300  0.00381800  1
  O  O56  1  0.87363500  0.12317700  0.75007400  1
  O  O57  1  0.88901200  0.62847600  0.75111000  1
  O  O58  1  0.61845200  0.87812200  0.74973900  1
  O  O59  1  0.37664200  0.11771500  0.75204700  1
  O  O60  1  0.36249000  0.63213500  0.74920400  1
  O  O61  1  0.62368700  0.37244300  0.75480000  1
  O  O62  1  0.12910300  0.86508800  0.75865600  1
  O  O63  1  0.12818600  0.38734700  0.75047200  1
