# generated using pymatgen
data_Li32Mn3Cr13O48
_symmetry_space_group_name_H-M   'P 1'
_cell_length_a   5.02353900
_cell_length_b   8.73402519
_cell_length_c   19.50254571
_cell_angle_alpha   97.92975858
_cell_angle_beta   94.65203397
_cell_angle_gamma   89.43864619
_symmetry_Int_Tables_number   1
_chemical_formula_structural   Li32Mn3Cr13O48
_chemical_formula_sum   'Li32 Mn3 Cr13 O48'
_cell_volume   844.71318614
_cell_formula_units_Z   1
loop_
 _symmetry_equiv_pos_site_id
 _symmetry_equiv_pos_as_xyz
  1  'x, y, z'
loop_
 _atom_site_type_symbol
 _atom_site_label
 _atom_site_symmetry_multiplicity
 _atom_site_fract_x
 _atom_site_fract_y
 _atom_site_fract_z
 _atom_site_occupancy
  Li  Li0  1  0.98829400  0.16846900  0.24975500  1
  Li  Li1  1  0.87387000  0.37398600  0.37500900  1
  Li  Li2  1  0.75054000  0.25013200  0.00004000  1
  Li  Li3  1  0.74498500  0.92062400  0.99974700  1
  Li  Li4  1  0.99266000  0.16780100  0.74983300  1
  Li  Li5  1  0.75506200  0.57928600  0.49961600  1
  Li  Li6  1  0.87484800  0.37507700  0.87496000  1
  Li  Li7  1  0.75346500  0.24997100  0.50016700  1
  Li  Li8  1  0.74063400  0.92004800  0.50012900  1
  Li  Li9  1  0.62626200  0.12643000  0.12487800  1
  Li  Li10  1  0.75858900  0.57928800  0.99962000  1
  Li  Li11  1  0.51016300  0.33225000  0.25048500  1
  Li  Li12  1  0.62424700  0.12404200  0.62497500  1
  Li  Li13  1  0.49952900  0.00098500  0.25057100  1
  Li  Li14  1  0.49244700  0.66842300  0.24997700  1
  Li  Li15  1  0.50665700  0.33072300  0.75000900  1
  Li  Li16  1  0.37454700  0.87491600  0.37488600  1
  Li  Li17  1  0.50286000  0.99981700  0.75012200  1
  Li  Li18  1  0.25158300  0.74904000  0.99942800  1
  Li  Li19  1  0.48906200  0.66880100  0.74960000  1
  Li  Li20  1  0.24100100  0.42059400  0.00027100  1
  Li  Li21  1  0.37396700  0.87459600  0.87500400  1
  Li  Li22  1  0.25772400  0.08054200  0.49999800  1
  Li  Li23  1  0.25029000  0.75073000  0.49978000  1
  Li  Li24  1  0.12360600  0.62348100  0.12509200  1
  Li  Li25  1  0.24397600  0.41967400  0.50023800  1
  Li  Li26  1  0.00800600  0.83096000  0.25047300  1
  Li  Li27  1  0.25368800  0.07931400  0.99965600  1
  Li  Li28  1  0.12447200  0.62495400  0.62495800  1
  Li  Li29  1  0.00170300  0.50013300  0.24989000  1
  Li  Li30  1  0.00969100  0.83221400  0.75033800  1
  Li  Li31  1  0.00030600  0.50074100  0.74973400  1
  Mn  Mn32  1  0.87510200  0.04135900  0.87469700  1
  Mn  Mn33  1  0.37581700  0.54179300  0.37497900  1
  Mn  Mn34  1  0.12520900  0.29169700  0.62470100  1
  Cr  Cr35  1  0.86902600  0.70535600  0.37461000  1
  Cr  Cr36  1  0.87924900  0.03850100  0.37515800  1
  Cr  Cr37  1  0.87215400  0.71265400  0.87549900  1
  Cr  Cr38  1  0.62842100  0.79757600  0.12588600  1
  Cr  Cr39  1  0.62024200  0.46191200  0.12517500  1
  Cr  Cr40  1  0.63068600  0.78864900  0.62543700  1
  Cr  Cr41  1  0.61815900  0.45544700  0.62457900  1
  Cr  Cr42  1  0.37118500  0.21231400  0.37518800  1
  Cr  Cr43  1  0.38221700  0.53920300  0.87547600  1
  Cr  Cr44  1  0.36592400  0.20729000  0.87455300  1
  Cr  Cr45  1  0.12236200  0.95238500  0.12421300  1
  Cr  Cr46  1  0.13001600  0.28792100  0.12488900  1
  Cr  Cr47  1  0.12336100  0.96237000  0.62524900  1
  O  O48  1  0.96389400  0.10328100  0.06889800  1
  O  O49  1  0.93749900  0.78784600  0.06875200  1
  O  O50  1  0.92530400  0.42678900  0.06769900  1
  O  O51  1  0.96401900  0.10876000  0.56929000  1
  O  O52  1  0.81300100  0.96225600  0.18129800  1
  O  O53  1  0.82470000  0.32337400  0.18228600  1
  O  O54  1  0.92086700  0.78668600  0.56878700  1
  O  O55  1  0.93193800  0.42775200  0.56768600  1
  O  O56  1  0.78614100  0.64669800  0.18114500  1
  O  O57  1  0.71783000  0.85355900  0.31888100  1
  O  O58  1  0.83014700  0.96441200  0.68130300  1
  O  O59  1  0.82330400  0.32420600  0.68189400  1
  O  O60  1  0.67719900  0.53497600  0.31914200  1
  O  O61  1  0.67296100  0.17696300  0.31756700  1
  O  O62  1  0.78274000  0.64378800  0.68131300  1
  O  O63  1  0.71506300  0.85780000  0.81953400  1
  O  O64  1  0.46810500  0.60702300  0.06957800  1
  O  O65  1  0.56741100  0.71396700  0.43071800  1
  O  O66  1  0.57625100  0.07396600  0.43227600  1
  O  O67  1  0.67040700  0.53556500  0.81869000  1
  O  O68  1  0.68003300  0.17790700  0.81793500  1
  O  O69  1  0.43436500  0.92323800  0.06710600  1
  O  O70  1  0.41949900  0.28518500  0.06851400  1
  O  O71  1  0.53847200  0.39606100  0.43117700  1
  O  O72  1  0.46882400  0.60320300  0.56899900  1
  O  O73  1  0.58139700  0.71510400  0.93160800  1
  O  O74  1  0.57344000  0.07390000  0.93177300  1
  O  O75  1  0.31639000  0.82680900  0.18293400  1
  O  O76  1  0.33030400  0.46487100  0.18129700  1
  O  O77  1  0.42254900  0.92623900  0.56775200  1
  O  O78  1  0.42725000  0.28466400  0.56918300  1
  O  O79  1  0.53299200  0.39637700  0.93145700  1
  O  O80  1  0.28147600  0.14303600  0.18041500  1
  O  O81  1  0.21509900  0.35814500  0.31935800  1
  O  O82  1  0.32698500  0.82329700  0.68246800  1
  O  O83  1  0.31777200  0.46367000  0.68087000  1
  O  O84  1  0.18146100  0.67762200  0.31769300  1
  O  O85  1  0.16979900  0.03631700  0.31851600  1
  O  O86  1  0.28768500  0.14523400  0.68097500  1
  O  O87  1  0.21849600  0.35200500  0.81876900  1
  O  O88  1  0.07344500  0.57403600  0.43186100  1
  O  O89  1  0.08019700  0.21413900  0.43109100  1
  O  O90  1  0.17425100  0.67581300  0.81801600  1
  O  O91  1  0.17529500  0.03289200  0.81877000  1
  O  O92  1  0.03223000  0.89365800  0.43114100  1
  O  O93  1  0.07449700  0.57271200  0.93233400  1
  O  O94  1  0.07054300  0.21343400  0.93049600  1
  O  O95  1  0.03860700  0.89629600  0.93122400  1
