# generated using pymatgen
data_LiMn2F5
_symmetry_space_group_name_H-M   'P 1'
_cell_length_a   6.51410700
_cell_length_b   8.69422600
_cell_length_c   8.87272300
_cell_angle_alpha   90.00000000
_cell_angle_beta   90.00000000
_cell_angle_gamma   90.00000000
_symmetry_Int_Tables_number   1
_chemical_formula_structural   LiMn2F5
_chemical_formula_sum   'Li4 Mn8 F20'
_cell_volume   502.50771805
_cell_formula_units_Z   4
loop_
 _symmetry_equiv_pos_site_id
 _symmetry_equiv_pos_as_xyz
  1  'x, y, z'
loop_
 _atom_site_type_symbol
 _atom_site_label
 _atom_site_symmetry_multiplicity
 _atom_site_fract_x
 _atom_site_fract_y
 _atom_site_fract_z
 _atom_site_occupancy
  Li  Li0  1  0.00000000  0.24440100  0.23872300  1
  Li  Li1  1  0.50000000  0.25559900  0.73872300  1
  Li  Li2  1  0.50000000  0.74440100  0.26127700  1
  Li  Li3  1  0.00000000  0.75559900  0.76127700  1
  Mn  Mn4  1  0.25246100  0.00000000  0.00000000  1
  Mn  Mn5  1  0.74753900  0.00000000  0.00000000  1
  Mn  Mn6  1  0.00000000  0.14111600  0.62827700  1
  Mn  Mn7  1  0.50000000  0.35888400  0.12827700  1
  Mn  Mn8  1  0.24753900  0.50000000  0.50000000  1
  Mn  Mn9  1  0.75246100  0.50000000  0.50000000  1
  Mn  Mn10  1  0.50000000  0.64111600  0.87172300  1
  Mn  Mn11  1  0.00000000  0.85888400  0.37172300  1
  F  F12  1  0.00000000  0.08587200  0.86393500  1
  F  F13  1  0.50000000  0.07633400  0.86135300  1
  F  F14  1  0.00000000  0.09885800  0.39310400  1
  F  F15  1  0.24583000  0.21504000  0.12400300  1
  F  F16  1  0.75417000  0.21504000  0.12400300  1
  F  F17  1  0.25417000  0.28496000  0.62400300  1
  F  F18  1  0.74583000  0.28496000  0.62400300  1
  F  F19  1  0.50000000  0.40114200  0.89310400  1
  F  F20  1  0.00000000  0.42366600  0.36135300  1
  F  F21  1  0.50000000  0.41412800  0.36393500  1
  F  F22  1  0.50000000  0.58587200  0.63606500  1
  F  F23  1  0.00000000  0.57633400  0.63864700  1
  F  F24  1  0.50000000  0.59885800  0.10689600  1
  F  F25  1  0.25417000  0.71504000  0.37599700  1
  F  F26  1  0.74583000  0.71504000  0.37599700  1
  F  F27  1  0.24583000  0.78496000  0.87599700  1
  F  F28  1  0.75417000  0.78496000  0.87599700  1
  F  F29  1  0.00000000  0.90114200  0.60689600  1
  F  F30  1  0.50000000  0.92366600  0.13864700  1
  F  F31  1  0.00000000  0.91412800  0.13606500  1
