# generated using pymatgen
data_LiNiPO4
_symmetry_space_group_name_H-M   'P 1'
_cell_length_a   5.10515625
_cell_length_b   7.97059733
_cell_length_c   8.27530500
_cell_angle_alpha   90.00298387
_cell_angle_beta   89.99879635
_cell_angle_gamma   89.96575765
_symmetry_Int_Tables_number   1
_chemical_formula_structural   LiNiPO4
_chemical_formula_sum   'Li4 Ni4 P4 O16'
_cell_volume   336.73157311
_cell_formula_units_Z   4
loop_
 _symmetry_equiv_pos_site_id
 _symmetry_equiv_pos_as_xyz
  1  'x, y, z'
loop_
 _atom_site_type_symbol
 _atom_site_label
 _atom_site_symmetry_multiplicity
 _atom_site_fract_x
 _atom_site_fract_y
 _atom_site_fract_z
 _atom_site_occupancy
  Li  Li0  1  0.34444800  0.52993200  0.19602700  1
  Li  Li1  1  0.34444800  0.02995700  0.30397900  1
  Li  Li2  1  0.84466000  0.97018200  0.69607400  1
  Li  Li3  1  0.84465200  0.47017100  0.80395000  1
  Ni  Ni4  1  0.46533700  0.66319900  0.55382500  1
  Ni  Ni5  1  0.46528000  0.16300300  0.94600200  1
  Ni  Ni6  1  0.96471500  0.83691400  0.05410000  1
  Ni  Ni7  1  0.96470800  0.33690900  0.44593800  1
  P  P8  1  0.00446800  0.25032700  0.07289800  1
  P  P9  1  0.00453600  0.75033900  0.42711900  1
  P  P10  1  0.50432000  0.24966300  0.57316100  1
  P  P11  1  0.50429900  0.74962700  0.92681100  1
  O  O12  1  0.25081900  0.36057400  0.04686700  1
  O  O13  1  0.25082000  0.86058000  0.45312000  1
  O  O14  1  0.75106700  0.13968800  0.54690600  1
  O  O15  1  0.75107700  0.63969300  0.95311000  1
  O  O16  1  0.32458300  0.74140900  0.07766000  1
  O  O17  1  0.32462400  0.24142800  0.42232100  1
  O  O18  1  0.82480400  0.75868100  0.57793400  1
  O  O19  1  0.82476400  0.25866200  0.92208400  1
  O  O20  1  0.13711100  0.06765300  0.08302500  1
  O  O21  1  0.13712400  0.56767000  0.41696100  1
  O  O22  1  0.63711700  0.43223700  0.58332300  1
  O  O23  1  0.63708500  0.93223500  0.91676000  1
  O  O24  1  0.84242100  0.29116100  0.22322100  1
  O  O25  1  0.84243000  0.79125900  0.27684200  1
  O  O26  1  0.34284300  0.20842400  0.72338200  1
  O  O27  1  0.34289500  0.70842400  0.77659800  1
