# generated using pymatgen
data_Li2CoBO4
_symmetry_space_group_name_H-M   'P 1'
_cell_length_a   4.77538600
_cell_length_b   5.79570200
_cell_length_c   10.62062800
_cell_angle_alpha   90.00000000
_cell_angle_beta   90.00000000
_cell_angle_gamma   90.00000000
_symmetry_Int_Tables_number   1
_chemical_formula_structural   Li2CoBO4
_chemical_formula_sum   'Li8 Co4 B4 O16'
_cell_volume   293.94408568
_cell_formula_units_Z   4
loop_
 _symmetry_equiv_pos_site_id
 _symmetry_equiv_pos_as_xyz
  1  'x, y, z'
loop_
 _atom_site_type_symbol
 _atom_site_label
 _atom_site_symmetry_multiplicity
 _atom_site_fract_x
 _atom_site_fract_y
 _atom_site_fract_z
 _atom_site_occupancy
  Li  Li0  1  0.70101400  0.49867200  0.58343800  1
  Li  Li1  1  0.79898600  0.49867200  0.08343800  1
  Li  Li2  1  0.79898600  0.00132800  0.08343800  1
  Li  Li3  1  0.70101400  0.00132800  0.58343800  1
  Li  Li4  1  0.20101400  0.99867200  0.91656200  1
  Li  Li5  1  0.29898600  0.99867200  0.41656200  1
  Li  Li6  1  0.29898600  0.50132800  0.41656200  1
  Li  Li7  1  0.20101400  0.50132800  0.91656200  1
  Co  Co8  1  0.69249300  0.75000000  0.82431300  1
  Co  Co9  1  0.80750700  0.75000000  0.32431300  1
  Co  Co10  1  0.19249300  0.25000000  0.67568700  1
  Co  Co11  1  0.30750700  0.25000000  0.17568700  1
  B  B12  1  0.18745600  0.75000000  0.66861800  1
  B  B13  1  0.31254400  0.75000000  0.16861800  1
  B  B14  1  0.81254400  0.25000000  0.33138200  1
  B  B15  1  0.68745600  0.25000000  0.83138200  1
  O  O16  1  0.28302200  0.53713100  0.60009700  1
  O  O17  1  0.21697800  0.53713100  0.10009700  1
  O  O18  1  0.87809100  0.75000000  0.67012000  1
  O  O19  1  0.20066100  0.75000000  0.30062900  1
  O  O20  1  0.62190900  0.75000000  0.17012000  1
  O  O21  1  0.29933900  0.75000000  0.80062900  1
  O  O22  1  0.21697800  0.96286900  0.10009700  1
  O  O23  1  0.28302200  0.96286900  0.60009700  1
  O  O24  1  0.78302200  0.03713100  0.89990300  1
  O  O25  1  0.71697800  0.03713100  0.39990300  1
  O  O26  1  0.12190900  0.25000000  0.32988000  1
  O  O27  1  0.37809100  0.25000000  0.82988000  1
  O  O28  1  0.79933900  0.25000000  0.69937100  1
  O  O29  1  0.70066100  0.25000000  0.19937100  1
  O  O30  1  0.71697800  0.46286900  0.39990300  1
  O  O31  1  0.78302200  0.46286900  0.89990300  1
