# generated using pymatgen
data_Li10V(SiO5)2
_symmetry_space_group_name_H-M   'P 1'
_cell_length_a   15.31371171
_cell_length_b   15.31371171
_cell_length_c   5.14641444
_cell_angle_alpha   81.15592161
_cell_angle_beta   81.15592161
_cell_angle_gamma   23.11361524
_symmetry_Int_Tables_number   1
_chemical_formula_structural   Li10V(SiO5)2
_chemical_formula_sum   'Li20 V2 Si4 O20'
_cell_volume   467.89940551
_cell_formula_units_Z   2
loop_
 _symmetry_equiv_pos_site_id
 _symmetry_equiv_pos_as_xyz
  1  'x, y, z'
loop_
 _atom_site_type_symbol
 _atom_site_label
 _atom_site_symmetry_multiplicity
 _atom_site_fract_x
 _atom_site_fract_y
 _atom_site_fract_z
 _atom_site_occupancy
  Li  Li0  1  0.49037500  0.49037500  0.25999300  1
  Li  Li1  1  0.21691100  0.65101300  0.88837700  1
  Li  Li2  1  0.65101300  0.21691100  0.88837700  1
  Li  Li3  1  0.86846000  0.86846000  0.77862100  1
  Li  Li4  1  0.08714400  0.64880500  0.23362300  1
  Li  Li5  1  0.64880500  0.08714400  0.23362300  1
  Li  Li6  1  0.32428900  0.32428900  0.93235100  1
  Li  Li7  1  0.04686200  0.56213300  0.60072900  1
  Li  Li8  1  0.56213300  0.04686200  0.60072900  1
  Li  Li9  1  0.26873400  0.26873400  0.32549400  1
  Li  Li10  1  0.73126600  0.73126600  0.67450600  1
  Li  Li11  1  0.43786700  0.95313800  0.39927100  1
  Li  Li12  1  0.95313800  0.43786700  0.39927100  1
  Li  Li13  1  0.67571100  0.67571100  0.06764900  1
  Li  Li14  1  0.35119500  0.91285600  0.76637700  1
  Li  Li15  1  0.91285600  0.35119500  0.76637700  1
  Li  Li16  1  0.13154000  0.13154000  0.22137900  1
  Li  Li17  1  0.78308900  0.34898700  0.11162300  1
  Li  Li18  1  0.34898700  0.78308900  0.11162300  1
  Li  Li19  1  0.50962500  0.50962500  0.74000700  1
  V  V20  1  0.96355500  0.96355500  0.21650600  1
  V  V21  1  0.03644500  0.03644500  0.78349400  1
  Si  Si22  1  0.39920500  0.39920500  0.50699900  1
  Si  Si23  1  0.78004300  0.78004300  0.12881200  1
  Si  Si24  1  0.21995700  0.21995700  0.87118800  1
  Si  Si25  1  0.60079500  0.60079500  0.49300100  1
  O  O26  1  0.44917700  0.44917700  0.60059400  1
  O  O27  1  0.90804400  0.90804400  0.06225100  1
  O  O28  1  0.40380400  0.40380400  0.18139300  1
  O  O29  1  0.15190200  0.58918200  0.62194800  1
  O  O30  1  0.58918200  0.15190200  0.62194800  1
  O  O31  1  0.58146600  0.02979900  0.21718800  1
  O  O32  1  0.02979900  0.58146600  0.21718800  1
  O  O33  1  0.78537700  0.78537700  0.80573200  1
  O  O34  1  0.27059500  0.27059500  0.72113000  1
  O  O35  1  0.72940500  0.72940500  0.27887000  1
  O  O36  1  0.21462300  0.21462300  0.19426800  1
  O  O37  1  0.41853400  0.97020100  0.78281200  1
  O  O38  1  0.97020100  0.41853400  0.78281200  1
  O  O39  1  0.41081800  0.84809800  0.37805200  1
  O  O40  1  0.84809800  0.41081800  0.37805200  1
  O  O41  1  0.59619600  0.59619600  0.81860700  1
  O  O42  1  0.09195600  0.09195600  0.93774900  1
  O  O43  1  0.55082300  0.55082300  0.39940600  1
  O  O44  1  0.24038600  0.75961400  0.00000000  1
  O  O45  1  0.75961400  0.24038600  0.00000000  1
