# generated using pymatgen
data_Li3Cr(PO4)2
_symmetry_space_group_name_H-M   'P 1'
_cell_length_a   5.13303200
_cell_length_b   12.48346900
_cell_length_c   17.96316900
_cell_angle_alpha   90.00000000
_cell_angle_beta   90.00000000
_cell_angle_gamma   90.00000000
_symmetry_Int_Tables_number   1
_chemical_formula_structural   Li3Cr(PO4)2
_chemical_formula_sum   'Li24 Cr8 P16 O64'
_cell_volume   1151.04476676
_cell_formula_units_Z   8
loop_
 _symmetry_equiv_pos_site_id
 _symmetry_equiv_pos_as_xyz
  1  'x, y, z'
loop_
 _atom_site_type_symbol
 _atom_site_label
 _atom_site_symmetry_multiplicity
 _atom_site_fract_x
 _atom_site_fract_y
 _atom_site_fract_z
 _atom_site_occupancy
  Li  Li0  1  0.09606900  0.35110000  0.75979700  1
  Li  Li1  1  0.09606900  0.14890000  0.25979700  1
  Li  Li2  1  0.09239600  0.46158300  0.94169700  1
  Li  Li3  1  0.09239600  0.03841700  0.44169700  1
  Li  Li4  1  0.03764800  0.71173800  0.57060200  1
  Li  Li5  1  0.03764800  0.78826200  0.07060200  1
  Li  Li6  1  0.47564300  0.03925200  0.19092500  1
  Li  Li7  1  0.47564300  0.46074800  0.69092500  1
  Li  Li8  1  0.38627000  0.70571500  0.32427500  1
  Li  Li9  1  0.38627000  0.79428500  0.82427500  1
  Li  Li10  1  0.42158600  0.60573000  0.50514600  1
  Li  Li11  1  0.42158600  0.89427000  0.00514600  1
  Li  Li12  1  0.57841400  0.10573000  0.50514600  1
  Li  Li13  1  0.57841400  0.39427000  0.00514600  1
  Li  Li14  1  0.61373000  0.29428500  0.82427500  1
  Li  Li15  1  0.61373000  0.20571500  0.32427500  1
  Li  Li16  1  0.52435700  0.53925200  0.19092500  1
  Li  Li17  1  0.52435700  0.96074800  0.69092500  1
  Li  Li18  1  0.96235200  0.28826200  0.07060200  1
  Li  Li19  1  0.96235200  0.21173800  0.57060200  1
  Li  Li20  1  0.90760400  0.96158300  0.94169700  1
  Li  Li21  1  0.90760400  0.53841700  0.44169700  1
  Li  Li22  1  0.90393100  0.85110000  0.75979700  1
  Li  Li23  1  0.90393100  0.64890000  0.25979700  1
  Cr  Cr24  1  0.05677400  0.08061900  0.75566000  1
  Cr  Cr25  1  0.05677400  0.41938100  0.25566000  1
  Cr  Cr26  1  0.46580200  0.16683700  0.01586800  1
  Cr  Cr27  1  0.46580200  0.33316300  0.51586800  1
  Cr  Cr28  1  0.53419800  0.66683700  0.01586800  1
  Cr  Cr29  1  0.53419800  0.83316300  0.51586800  1
  Cr  Cr30  1  0.94322600  0.58061900  0.75566000  1
  Cr  Cr31  1  0.94322600  0.91938100  0.25566000  1
  P  P32  1  0.99146000  0.71733600  0.92139700  1
  P  P33  1  0.99146000  0.78266400  0.42139700  1
  P  P34  1  0.03022000  0.95968000  0.59267700  1
  P  P35  1  0.03022000  0.54032000  0.09267700  1
  P  P36  1  0.45146300  0.71039000  0.67846200  1
  P  P37  1  0.45146300  0.78961000  0.17846200  1
  P  P38  1  0.48669000  0.53791400  0.84894800  1
  P  P39  1  0.48669000  0.96208600  0.34894800  1
  P  P40  1  0.51331000  0.03791400  0.84894800  1
  P  P41  1  0.51331000  0.46208600  0.34894800  1
  P  P42  1  0.54853700  0.21039000  0.67846200  1
  P  P43  1  0.54853700  0.28961000  0.17846200  1
  P  P44  1  0.96978000  0.04032000  0.09267700  1
  P  P45  1  0.96978000  0.45968000  0.59267700  1
  P  P46  1  0.00854000  0.21733600  0.92139700  1
  P  P47  1  0.00854000  0.28266400  0.42139700  1
  O  O48  1  0.02189100  0.47161600  0.67873600  1
  O  O49  1  0.02189100  0.02838400  0.17873600  1
  O  O50  1  0.01602100  0.76172100  0.84174900  1
  O  O51  1  0.01602100  0.73827900  0.34174900  1
  O  O52  1  0.04808300  0.09808200  0.92566300  1
  O  O53  1  0.04808300  0.40191800  0.42566300  1
  O  O54  1  0.06096700  0.55747100  0.54842800  1
  O  O55  1  0.06096700  0.94252900  0.04842800  1
  O  O56  1  0.13294200  0.35873200  0.57437900  1
  O  O57  1  0.13294200  0.14126800  0.07437900  1
  O  O58  1  0.15920800  0.69072900  0.69859600  1
  O  O59  1  0.15920800  0.80927100  0.19859600  1
  O  O60  1  0.23629000  0.27725700  0.96385600  1
  O  O61  1  0.23629000  0.22274300  0.46385600  1
  O  O62  1  0.23376200  0.49938200  0.80681500  1
  O  O63  1  0.23376200  0.00061800  0.30681500  1
  O  O64  1  0.24417000  0.75102800  0.96596500  1
  O  O65  1  0.24417000  0.74897200  0.46596500  1
  O  O66  1  0.28945100  0.52694300  0.30881300  1
  O  O67  1  0.28945100  0.97305700  0.80881300  1
  O  O68  1  0.32692500  0.56125200  0.08018100  1
  O  O69  1  0.32692500  0.93874800  0.58018100  1
  O  O70  1  0.37754800  0.11051800  0.69306600  1
  O  O71  1  0.37754800  0.38948200  0.19306600  1
  O  O72  1  0.44643100  0.19028600  0.21883200  1
  O  O73  1  0.44643100  0.30971400  0.71883200  1
  O  O74  1  0.46544800  0.99648100  0.43206500  1
  O  O75  1  0.46544800  0.50351900  0.93206500  1
  O  O76  1  0.45178100  0.72181600  0.59140500  1
  O  O77  1  0.45178100  0.77818400  0.09140500  1
  O  O78  1  0.46937900  0.15637700  0.83925500  1
  O  O79  1  0.46937900  0.34362300  0.33925500  1
  O  O80  1  0.53062100  0.65637700  0.83925500  1
  O  O81  1  0.53062100  0.84362300  0.33925500  1
  O  O82  1  0.54821900  0.27818400  0.09140500  1
  O  O83  1  0.54821900  0.22181600  0.59140500  1
  O  O84  1  0.53455200  0.49648100  0.43206500  1
  O  O85  1  0.53455200  0.00351900  0.93206500  1
  O  O86  1  0.55356900  0.69028600  0.21883200  1
  O  O87  1  0.55356900  0.80971400  0.71883200  1
  O  O88  1  0.62245200  0.61051800  0.69306600  1
  O  O89  1  0.62245200  0.88948200  0.19306600  1
  O  O90  1  0.67307500  0.06125200  0.08018100  1
  O  O91  1  0.67307500  0.43874800  0.58018100  1
  O  O92  1  0.71054900  0.47305700  0.80881300  1
  O  O93  1  0.71054900  0.02694300  0.30881300  1
  O  O94  1  0.75583000  0.24897200  0.46596500  1
  O  O95  1  0.75583000  0.25102800  0.96596500  1
  O  O96  1  0.76623800  0.50061800  0.30681500  1
  O  O97  1  0.76623800  0.99938200  0.80681500  1
  O  O98  1  0.76371000  0.77725700  0.96385600  1
  O  O99  1  0.76371000  0.72274300  0.46385600  1
  O  O100  1  0.84079200  0.19072900  0.69859600  1
  O  O101  1  0.84079200  0.30927100  0.19859600  1
  O  O102  1  0.86705800  0.64126800  0.07437900  1
  O  O103  1  0.86705800  0.85873200  0.57437900  1
  O  O104  1  0.93903300  0.44252900  0.04842800  1
  O  O105  1  0.93903300  0.05747100  0.54842800  1
  O  O106  1  0.95191700  0.59808200  0.92566300  1
  O  O107  1  0.95191700  0.90191800  0.42566300  1
  O  O108  1  0.98397900  0.26172100  0.84174900  1
  O  O109  1  0.98397900  0.23827900  0.34174900  1
  O  O110  1  0.97810900  0.52838400  0.17873600  1
  O  O111  1  0.97810900  0.97161600  0.67873600  1
