# generated using pymatgen
data_Li5Mn6(BO3)6
_symmetry_space_group_name_H-M   'P 1'
_cell_length_a   8.83475200
_cell_length_b   8.87872518
_cell_length_c   10.43447664
_cell_angle_alpha   98.22383986
_cell_angle_beta   98.71572356
_cell_angle_gamma   108.44315638
_symmetry_Int_Tables_number   1
_chemical_formula_structural   Li5Mn6(BO3)6
_chemical_formula_sum   'Li10 Mn12 B12 O36'
_cell_volume   751.40131811
_cell_formula_units_Z   2
loop_
 _symmetry_equiv_pos_site_id
 _symmetry_equiv_pos_as_xyz
  1  'x, y, z'
loop_
 _atom_site_type_symbol
 _atom_site_label
 _atom_site_symmetry_multiplicity
 _atom_site_fract_x
 _atom_site_fract_y
 _atom_site_fract_z
 _atom_site_occupancy
  Li  Li0  1  0.81029900  0.09767000  0.79539100  1
  Li  Li1  1  0.46602300  0.48876500  0.76887200  1
  Li  Li2  1  0.22415700  0.23481100  0.51998700  1
  Li  Li3  1  0.83224600  0.54128900  0.55443700  1
  Li  Li4  1  0.56163900  0.83953200  0.54466700  1
  Li  Li5  1  0.59125300  0.29206800  0.30915600  1
  Li  Li6  1  0.97374700  0.98536600  0.27280700  1
  Li  Li7  1  0.34352700  0.04835700  0.06530100  1
  Li  Li8  1  0.06688100  0.34845500  0.04481100  1
  Li  Li9  1  0.71829900  0.74170100  0.02063400  1
  Mn  Mn10  1  0.18569200  0.16433900  0.82486200  1
  Mn  Mn11  1  0.83775600  0.48454600  0.84108400  1
  Mn  Mn12  1  0.47125400  0.85123600  0.83763900  1
  Mn  Mn13  1  0.58706700  0.22403900  0.59581800  1
  Mn  Mn14  1  0.21625600  0.60135800  0.58855200  1
  Mn  Mn15  1  0.93570700  0.92343700  0.57427500  1
  Mn  Mn16  1  0.34008800  0.95235700  0.35040300  1
  Mn  Mn17  1  0.99250700  0.35034400  0.33216500  1
  Mn  Mn18  1  0.68173800  0.67930700  0.31577100  1
  Mn  Mn19  1  0.08949900  0.72945000  0.08708200  1
  Mn  Mn20  1  0.72749000  0.10677200  0.08546900  1
  Mn  Mn21  1  0.43527700  0.42958400  0.07085700  1
  B  B22  1  0.54043200  0.21030800  0.87312700  1
  B  B23  1  0.20941700  0.53206600  0.86755700  1
  B  B24  1  0.73849300  0.74988900  0.74766300  1
  B  B25  1  0.96553500  0.29331000  0.62725900  1
  B  B26  1  0.28716800  0.94971400  0.61592200  1
  B  B27  1  0.50002000  0.50019300  0.50217900  1
  B  B28  1  0.04792600  0.71181300  0.38457400  1
  B  B29  1  0.71034000  0.04204000  0.37191100  1
  B  B30  1  0.25030400  0.23283700  0.25115100  1
  B  B31  1  0.79488700  0.46589700  0.12532100  1
  B  B32  1  0.46075300  0.80154100  0.12613800  1
  B  B33  1  0.99663900  0.00756100  0.00741500  1
  O  O34  1  0.99967200  0.12606900  0.93153300  1
  O  O35  1  0.42235700  0.20019100  0.94835300  1
  O  O36  1  0.09051900  0.53263800  0.93967200  1
  O  O37  1  0.29584300  0.42855300  0.88138400  1
  O  O38  1  0.62679900  0.10353700  0.87691100  1
  O  O39  1  0.57388600  0.32463500  0.79331500  1
  O  O40  1  0.24898300  0.63917700  0.78181000  1
  O  O41  1  0.62679900  0.71771000  0.83080900  1
  O  O42  1  0.05279800  0.19001300  0.63150600  1
  O  O43  1  0.83685600  0.27797800  0.69133000  1
  O  O44  1  0.17387600  0.95462500  0.68887000  1
  O  O45  1  0.82742500  0.65046600  0.72563600  1
  O  O46  1  0.32808600  0.05891900  0.53028100  1
  O  O47  1  0.75565400  0.88234200  0.68513200  1
  O  O48  1  0.36773300  0.83650100  0.62193000  1
  O  O49  1  0.37647700  0.46405900  0.57494700  1
  O  O50  1  0.00334800  0.41758100  0.55425800  1
  O  O51  1  0.57768700  0.01674100  0.43681200  1
  O  O52  1  0.59582700  0.40111400  0.48861200  1
  O  O53  1  0.13932400  0.61094200  0.40265100  1
  O  O54  1  0.53239300  0.63382800  0.44591500  1
  O  O55  1  0.13425100  0.20444300  0.33094300  1
  O  O56  1  0.91540700  0.69848300  0.44220100  1
  O  O57  1  0.09511700  0.82910000  0.30771600  1
  O  O58  1  0.74537700  0.16588400  0.30284700  1
  O  O59  1  0.35993200  0.14811400  0.25467300  1
  O  O60  1  0.80212300  0.94265500  0.38224600  1
  O  O61  1  0.25292600  0.34111800  0.16886200  1
  O  O62  1  0.66893900  0.45170900  0.19344900  1
  O  O63  1  0.33955300  0.79639200  0.19886700  1
  O  O64  1  0.54382500  0.69390500  0.13005100  1
  O  O65  1  0.88534800  0.36283900  0.13435400  1
  O  O66  1  0.11129200  0.93318000  0.01033700  1
  O  O67  1  0.83175500  0.58253400  0.04763100  1
  O  O68  1  0.49115100  0.91559200  0.04718100  1
  O  O69  1  0.87625400  0.96672000  0.08263700  1
