# generated using pymatgen
data_K4Li7Mn2O8
_symmetry_space_group_name_H-M   'P 1'
_cell_length_a   5.70269900
_cell_length_b   8.97529021
_cell_length_c   10.92788343
_cell_angle_alpha   90.02806655
_cell_angle_beta   97.99172766
_cell_angle_gamma   90.01248018
_symmetry_Int_Tables_number   1
_chemical_formula_structural   K4Li7Mn2O8
_chemical_formula_sum   'K8 Li14 Mn4 O16'
_cell_volume   553.89381575
_cell_formula_units_Z   2
loop_
 _symmetry_equiv_pos_site_id
 _symmetry_equiv_pos_as_xyz
  1  'x, y, z'
loop_
 _atom_site_type_symbol
 _atom_site_label
 _atom_site_symmetry_multiplicity
 _atom_site_fract_x
 _atom_site_fract_y
 _atom_site_fract_z
 _atom_site_occupancy
  K  K0  1  0.08709200  0.00566000  0.83706700  1
  K  K1  1  0.13155900  0.75670000  0.37034000  1
  K  K2  1  0.42183100  0.50195800  0.65976200  1
  K  K3  1  0.62564600  0.74733000  0.85975600  1
  K  K4  1  0.38224000  0.25220300  0.12265600  1
  K  K5  1  0.58721600  0.50044700  0.33720000  1
  K  K6  1  0.89025800  0.25225400  0.63296400  1
  K  K7  1  0.92000700  0.00389700  0.15843000  1
  Li  Li8  1  0.00713100  0.50778400  0.50209600  1
  Li  Li9  1  0.09647200  0.74815200  0.69324700  1
  Li  Li10  1  0.31771500  0.48239100  0.92650400  1
  Li  Li11  1  0.19029100  0.98283200  0.57264000  1
  Li  Li12  1  0.07284000  0.47801500  0.20225700  1
  Li  Li13  1  0.41476700  0.24895100  0.80898600  1
  Li  Li14  1  0.49475100  0.98992900  0.99723800  1
  Li  Li15  1  0.57648400  0.01463500  0.69630800  1
  Li  Li16  1  0.43545300  0.98029800  0.29828600  1
  Li  Li17  1  0.59751300  0.75608200  0.19388400  1
  Li  Li18  1  0.80659900  0.01213300  0.43550100  1
  Li  Li19  1  0.93250200  0.51138500  0.80465200  1
  Li  Li20  1  0.70094400  0.51114900  0.06372400  1
  Li  Li21  1  0.91260900  0.25564100  0.30762800  1
  Mn  Mn22  1  0.34366700  0.20931200  0.44929400  1
  Mn  Mn23  1  0.83943700  0.27924800  0.94875300  1
  Mn  Mn24  1  0.16351300  0.70715200  0.05140700  1
  Mn  Mn25  1  0.66914200  0.78195000  0.55170800  1
  O  O26  1  0.12387800  0.31859200  0.85918500  1
  O  O27  1  0.15032600  0.68807200  0.87693600  1
  O  O28  1  0.13598100  0.05531900  0.38369100  1
  O  O29  1  0.15431000  0.41022800  0.39098600  1
  O  O30  1  0.36394100  0.18809300  0.62430200  1
  O  O31  1  0.38219200  0.81926700  0.63968500  1
  O  O32  1  0.62994800  0.45524600  0.88073100  1
  O  O33  1  0.34797600  0.90599700  0.11414000  1
  O  O34  1  0.36828100  0.55090000  0.11526800  1
  O  O35  1  0.63759600  0.08341300  0.88442600  1
  O  O36  1  0.60303800  0.18291800  0.35738400  1
  O  O37  1  0.64167600  0.81818800  0.36440500  1
  O  O38  1  0.86733700  0.58777600  0.62187000  1
  O  O39  1  0.87628300  0.95938100  0.61867200  1
  O  O40  1  0.86823600  0.31748700  0.13632300  1
  O  O41  1  0.90131400  0.68184500  0.14173000  1
