# generated using pymatgen
data_Li14Cr9(P2O7)8
_symmetry_space_group_name_H-M   'P 1'
_cell_length_a   11.22371584
_cell_length_b   9.67784118
_cell_length_c   12.75737637
_cell_angle_alpha   68.74513482
_cell_angle_beta   116.50700632
_cell_angle_gamma   105.79913148
_symmetry_Int_Tables_number   1
_chemical_formula_structural   Li14Cr9(P2O7)8
_chemical_formula_sum   'Li14 Cr9 P16 O56'
_cell_volume   1145.52011587
_cell_formula_units_Z   1
loop_
 _symmetry_equiv_pos_site_id
 _symmetry_equiv_pos_as_xyz
  1  'x, y, z'
loop_
 _atom_site_type_symbol
 _atom_site_label
 _atom_site_symmetry_multiplicity
 _atom_site_fract_x
 _atom_site_fract_y
 _atom_site_fract_z
 _atom_site_occupancy
  Li  Li0  1  0.13189323  0.93543624  0.59319451  1
  Li  Li1  1  0.02371548  0.64547034  0.39467537  1
  Li  Li2  1  0.37669408  0.04230968  0.91302310  1
  Li  Li3  1  0.12694092  0.43963574  0.08228769  1
  Li  Li4  1  0.37398982  0.54345431  0.40974995  1
  Li  Li5  1  0.49264986  0.35417922  0.82703796  1
  Li  Li6  1  0.50172136  0.85574755  0.31779886  1
  Li  Li7  1  0.49827864  0.14425245  0.68220114  1
  Li  Li8  1  0.50735014  0.64582078  0.17296204  1
  Li  Li9  1  0.62601018  0.45654569  0.59025005  1
  Li  Li10  1  0.87305908  0.56036426  0.91771231  1
  Li  Li11  1  0.62330592  0.95769032  0.08697690  1
  Li  Li12  1  0.97628452  0.35452966  0.60532463  1
  Li  Li13  1  0.86810677  0.06456376  0.40680549  1
  Cr  Cr14  1  0.22036157  0.69899017  0.92078455  1
  Cr  Cr15  1  0.25534790  0.56712261  0.70219261  1
  Cr  Cr16  1  0.22249214  0.19662158  0.42261738  1
  Cr  Cr17  1  0.00000000  0.00000000  0.00000000  1
  Cr  Cr18  1  0.72967200  0.92731678  0.79099559  1
  Cr  Cr19  1  0.27032800  0.07268322  0.20900441  1
  Cr  Cr20  1  0.77750786  0.80337842  0.57738262  1
  Cr  Cr21  1  0.74465210  0.43287739  0.29780739  1
  Cr  Cr22  1  0.77963843  0.30100983  0.07921545  1
  P  P23  1  0.06243332  0.97652044  0.77694065  1
  P  P24  1  0.30503394  0.36035277  0.99320098  1
  P  P25  1  0.06209888  0.47556718  0.27277824  1
  P  P26  1  0.46089811  0.80791795  0.86746011  1
  P  P27  1  0.20951361  0.23576041  0.66153454  1
  P  P28  1  0.30083055  0.85790073  0.49165537  1
  P  P29  1  0.20579611  0.73985926  0.15897773  1
  P  P30  1  0.53470876  0.68547316  0.63093010  1
  P  P31  1  0.46529124  0.31452684  0.36906990  1
  P  P32  1  0.79420389  0.26014074  0.84102227  1
  P  P33  1  0.69916945  0.14209927  0.50834463  1
  P  P34  1  0.79048639  0.76423959  0.33846546  1
  P  P35  1  0.53910189  0.19208205  0.13253989  1
  P  P36  1  0.93790112  0.52443282  0.72722176  1
  P  P37  1  0.69496606  0.63964723  0.00679902  1
  P  P38  1  0.93756668  0.02347956  0.22305935  1
  O  O39  1  0.00095215  0.58193918  0.83995534  1
  O  O40  1  0.19940528  0.92222641  0.86307238  1
  O  O41  1  0.02932389  0.53752513  0.66456405  1
  O  O42  1  0.10035332  0.15805301  0.72827359  1
  O  O43  1  0.31406075  0.74136230  0.79671853  1
  O  O44  1  0.46759505  0.84101046  0.98000554  1
  O  O45  1  0.20407468  0.71539071  0.51925851  1
  O  O46  1  0.27814794  0.98452449  0.52382228  1
  O  O47  1  0.30171905  0.39767906  0.86584050  1
  O  O48  1  0.18390015  0.39789777  0.61367739  1
  O  O49  1  0.10513128  0.65827281  0.23077774  1
  O  O50  1  0.00390406  0.08584454  0.33295900  1
  O  O51  1  0.15841141  0.15909401  0.56013276  1
  O  O52  1  0.30225604  0.90070270  0.36562069  1
  O  O53  1  0.19822400  0.41826037  0.36021140  1
  O  O54  1  0.18108733  0.90515575  0.11003701  1
  O  O55  1  0.51949900  0.94108131  0.78885783  1
  O  O56  1  0.54037156  0.66694470  0.91408326  1
  O  O57  1  0.35151863  0.20241070  0.75260110  1
  O  O58  1  0.02914602  0.04349018  0.15747916  1
  O  O59  1  0.15456950  0.66580363  0.05627859  1
  O  O60  1  0.45073275  0.82226275  0.58763408  1
  O  O61  1  0.48000227  0.55093811  0.71074951  1
  O  O62  1  0.34985603  0.71448746  0.24684882  1
  O  O63  1  0.71988156  0.51082606  0.97846310  1
  O  O64  1  0.78297289  0.78405391  0.96809272  1
  O  O65  1  0.31998332  0.24213617  0.30137248  1
  O  O66  1  0.47139718  0.34345593  0.48278034  1
  O  O67  1  0.52860282  0.65654407  0.51721966  1
  O  O68  1  0.68001668  0.75786383  0.69862752  1
  O  O69  1  0.21702711  0.21594609  0.03190728  1
  O  O70  1  0.28011844  0.48917394  0.02153690  1
  O  O71  1  0.65014397  0.28551254  0.75315118  1
  O  O72  1  0.51999773  0.44906189  0.28925049  1
  O  O73  1  0.54926725  0.17773725  0.41236592  1
  O  O74  1  0.84543050  0.33419637  0.94372141  1
  O  O75  1  0.97085398  0.95650982  0.84252084  1
  O  O76  1  0.64848137  0.79758930  0.24739890  1
  O  O77  1  0.45962844  0.33305530  0.08591674  1
  O  O78  1  0.48050100  0.05891869  0.21114217  1
  O  O79  1  0.81891267  0.09484425  0.88996299  1
  O  O80  1  0.80177600  0.58173963  0.63978860  1
  O  O81  1  0.69774396  0.09929730  0.63437931  1
  O  O82  1  0.84158859  0.84090599  0.43986724  1
  O  O83  1  0.99609594  0.91415546  0.66704100  1
  O  O84  1  0.89486872  0.34172719  0.76922226  1
  O  O85  1  0.81609985  0.60210223  0.38632261  1
  O  O86  1  0.69828095  0.60232094  0.13415950  1
  O  O87  1  0.72185206  0.01547551  0.47617772  1
  O  O88  1  0.79592532  0.28460929  0.48074149  1
  O  O89  1  0.53240495  0.15898954  0.01999446  1
  O  O90  1  0.68593925  0.25863770  0.20328147  1
  O  O91  1  0.89964668  0.84194699  0.27172641  1
  O  O92  1  0.97067611  0.46247487  0.33543595  1
  O  O93  1  0.80059472  0.07777359  0.13692762  1
  O  O94  1  0.99904785  0.41806082  0.16004466  1
