# generated using pymatgen
data_Li5V3P8O29
_symmetry_space_group_name_H-M   'P 1'
_cell_length_a   9.74828700
_cell_length_b   9.77990989
_cell_length_c   14.00756138
_cell_angle_alpha   89.98177215
_cell_angle_beta   90.06746619
_cell_angle_gamma   119.86397147
_symmetry_Int_Tables_number   1
_chemical_formula_structural   Li5V3P8O29
_chemical_formula_sum   'Li10 V6 P16 O58'
_cell_volume   1158.10961497
_cell_formula_units_Z   2
loop_
 _symmetry_equiv_pos_site_id
 _symmetry_equiv_pos_as_xyz
  1  'x, y, z'
loop_
 _atom_site_type_symbol
 _atom_site_label
 _atom_site_symmetry_multiplicity
 _atom_site_fract_x
 _atom_site_fract_y
 _atom_site_fract_z
 _atom_site_occupancy
  Li  Li0  1  0.23598500  0.33748600  0.56007400  1
  Li  Li1  1  0.23792800  0.90502000  0.05894400  1
  Li  Li2  1  0.66912600  0.76800200  0.05996300  1
  Li  Li3  1  0.33144600  0.09417700  0.44080000  1
  Li  Li4  1  0.66775900  0.90538700  0.55997100  1
  Li  Li5  1  0.76782900  0.10594300  0.94252700  1
  Li  Li6  1  0.76348800  0.66080900  0.44087300  1
  Li  Li7  1  0.90236700  0.66423900  0.94048600  1
  Li  Li8  1  0.04982700  0.06625300  0.99480800  1
  Li  Li9  1  0.00240300  0.00037900  0.49863000  1
  V  V10  1  0.43434600  0.99951000  0.25292100  1
  V  V11  1  0.56592100  0.00116600  0.74916900  1
  V  V12  1  0.43123500  0.43026900  0.75585000  1
  V  V13  1  0.56255800  0.56210800  0.24507100  1
  V  V14  1  0.99949100  0.43178500  0.25185700  1
  V  V15  1  0.00065400  0.56375600  0.74489700  1
  P  P16  1  0.08214500  0.30876100  0.84304200  1
  P  P17  1  0.22563500  0.31198700  0.34208700  1
  P  P18  1  0.08201400  0.77531600  0.34249700  1
  P  P19  1  0.32974400  0.66891500  0.13011700  1
  P  P20  1  0.33486500  0.66400700  0.62994300  1
  P  P21  1  0.22291200  0.91007100  0.84136100  1
  P  P22  1  0.31134200  0.08761800  0.65765700  1
  P  P23  1  0.68574000  0.77378500  0.84319800  1
  P  P24  1  0.30692500  0.22085700  0.15778700  1
  P  P25  1  0.68635500  0.90848200  0.34279100  1
  P  P26  1  0.77535700  0.08840500  0.16072500  1
  P  P27  1  0.66819500  0.33617000  0.37041100  1
  P  P28  1  0.67122000  0.33511900  0.86921000  1
  P  P29  1  0.91689000  0.22263700  0.65557300  1
  P  P30  1  0.77150600  0.68536400  0.66004900  1
  P  P31  1  0.91592000  0.68558000  0.15560100  1
  O  O32  1  0.00782000  0.21502900  0.57171000  1
  O  O33  1  0.08272400  0.33947200  0.33535500  1
  O  O34  1  0.21029200  0.20706700  0.07347500  1
  O  O35  1  0.25503900  0.34429100  0.83880100  1
  O  O36  1  0.07628200  0.46224200  0.82993800  1
  O  O37  1  0.18719800  0.52288800  0.18097600  1
  O  O38  1  0.07858600  0.61668200  0.33156000  1
  O  O39  1  0.00158400  0.76758800  0.06526200  1
  O  O40  1  0.07881100  0.73834800  0.83446100  1
  O  O41  1  0.32570100  0.51010700  0.66884200  1
  O  O42  1  0.37987400  0.46730700  0.32905800  1
  O  O43  1  0.18792000  0.66630000  0.67893900  1
  O  O44  1  0.32231500  0.66705000  0.02399700  1
  O  O45  1  0.32867100  0.66508400  0.52395500  1
  O  O46  1  0.32421800  0.81554300  0.17115900  1
  O  O47  1  0.52849700  0.62168700  0.83000600  1
  O  O48  1  0.48679000  0.67680800  0.16657400  1
  O  O49  1  0.25372300  0.91626900  0.34336100  1
  O  O50  1  0.20260100  0.99876200  0.74930700  1
  O  O51  1  0.22787000  0.01209600  0.56659300  1
  O  O52  1  0.20767300  0.98279000  0.93197300  1
  O  O53  1  0.37881700  0.91039200  0.82851300  1
  O  O54  1  0.48834100  0.81134100  0.66980000  1
  O  O55  1  0.34382400  0.08352100  0.16242300  1
  O  O56  1  0.52988200  0.91032000  0.32890200  1
  O  O57  1  0.65563000  0.73712300  0.33456500  1
  O  O58  1  0.20642700  0.19846900  0.25420000  1
  O  O59  1  0.21915500  0.22395000  0.43247200  1
  O  O60  1  0.77802900  0.77476600  0.57051700  1
  O  O61  1  0.33908600  0.25756200  0.66312700  1
  O  O62  1  0.46937200  0.08736300  0.67232800  1
  O  O63  1  0.66257900  0.91983800  0.84056600  1
  O  O64  1  0.51224000  0.18796400  0.33297900  1
  O  O65  1  0.62005900  0.08903800  0.17284800  1
  O  O66  1  0.78004200  0.00509500  0.07085800  1
  O  O67  1  0.77020800  0.98023200  0.43425100  1
  O  O68  1  0.79658000  0.99875600  0.25208400  1
  O  O69  1  0.74503000  0.08304000  0.65699500  1
  O  O70  1  0.52057400  0.32566700  0.82502900  1
  O  O71  1  0.46292600  0.38103500  0.16905600  1
  O  O72  1  0.68050600  0.18866200  0.83136900  1
  O  O73  1  0.68681900  0.35007400  0.97496700  1
  O  O74  1  0.67526000  0.34011100  0.47657500  1
  O  O75  1  0.81197900  0.33115100  0.32150200  1
  O  O76  1  0.61421400  0.53197900  0.67293700  1
  O  O77  1  0.67400100  0.48756800  0.32861500  1
  O  O78  1  0.91769800  0.25774000  0.16600400  1
  O  O79  1  0.99749400  0.20138000  0.75034000  1
  O  O80  1  0.99513000  0.21022900  0.92769200  1
  O  O81  1  0.91748200  0.38094000  0.66884300  1
  O  O82  1  0.81653000  0.48756600  0.82248600  1
  O  O83  1  0.91256800  0.52875200  0.17268700  1
  O  O84  1  0.74660700  0.66270000  0.15627800  1
  O  O85  1  0.77413400  0.77565800  0.93203200  1
  O  O86  1  0.79578700  0.79706100  0.75090400  1
  O  O87  1  0.91267800  0.65489600  0.66380800  1
  O  O88  1  0.98844100  0.78754800  0.42349600  1
  O  O89  1  0.00782400  0.79947700  0.24375500  1
