# generated using pymatgen
data_Li3MnP2HO8
_symmetry_space_group_name_H-M   'P 1'
_cell_length_a   8.42345200
_cell_length_b   4.95988300
_cell_length_c   7.77031512
_cell_angle_alpha   76.29795101
_cell_angle_beta   90.00000000
_cell_angle_gamma   90.00000000
_symmetry_Int_Tables_number   1
_chemical_formula_structural   Li3MnP2HO8
_chemical_formula_sum   'Li6 Mn2 P4 H2 O16'
_cell_volume   315.39960525
_cell_formula_units_Z   2
loop_
 _symmetry_equiv_pos_site_id
 _symmetry_equiv_pos_as_xyz
  1  'x, y, z'
loop_
 _atom_site_type_symbol
 _atom_site_label
 _atom_site_symmetry_multiplicity
 _atom_site_fract_x
 _atom_site_fract_y
 _atom_site_fract_z
 _atom_site_occupancy
  Li  Li0  1  0.79352900  0.08087100  0.68387000  1
  Li  Li1  1  0.64004300  0.13517200  0.38805200  1
  Li  Li2  1  0.14004300  0.86482800  0.61194800  1
  Li  Li3  1  0.29352900  0.91912900  0.31613000  1
  Li  Li4  1  0.84652400  0.60985800  0.94427800  1
  Li  Li5  1  0.34652400  0.39014200  0.05572200  1
  Mn  Mn6  1  0.49654000  0.75048300  0.74810700  1
  Mn  Mn7  1  0.99654000  0.24951700  0.25189300  1
  P  P8  1  0.64254600  0.11565200  0.02621100  1
  P  P9  1  0.14254600  0.88434800  0.97378900  1
  P  P10  1  0.85765500  0.62267700  0.52923200  1
  P  P11  1  0.35765500  0.37732300  0.47076800  1
  H  H12  1  0.49962400  0.70299900  0.24232800  1
  H  H13  1  0.99962400  0.29700100  0.75767200  1
  O  O14  1  0.48054800  0.17419000  0.57319000  1
  O  O15  1  0.79514200  0.24123300  0.08601600  1
  O  O16  1  0.18481700  0.08646400  0.09361000  1
  O  O17  1  0.55371500  0.96032900  0.19990200  1
  O  O18  1  0.98054800  0.82581000  0.42681000  1
  O  O19  1  0.70849200  0.78220700  0.56490200  1
  O  O20  1  0.05371500  0.03967100  0.80009800  1
  O  O21  1  0.68481700  0.91353600  0.90639000  1
  O  O22  1  0.32215900  0.62701900  0.55264600  1
  O  O23  1  0.92810400  0.49351900  0.72321800  1
  O  O24  1  0.29514200  0.75876700  0.91398400  1
  O  O25  1  0.03409000  0.65143200  0.07717100  1
  O  O26  1  0.42810400  0.50648100  0.27678200  1
  O  O27  1  0.82215900  0.37298100  0.44735400  1
  O  O28  1  0.20849200  0.21779300  0.43509800  1
  O  O29  1  0.53409000  0.34856800  0.92282900  1
