# generated using pymatgen
data_Li7(NiO2)9
_symmetry_space_group_name_H-M   'P 1'
_cell_length_a   5.83192600
_cell_length_b   6.42515594
_cell_length_c   8.63917614
_cell_angle_alpha   102.86223604
_cell_angle_beta   89.48306812
_cell_angle_gamma   104.11273058
_symmetry_Int_Tables_number   1
_chemical_formula_structural   Li7(NiO2)9
_chemical_formula_sum   'Li7 Ni9 O18'
_cell_volume   305.71995554
_cell_formula_units_Z   1
loop_
 _symmetry_equiv_pos_site_id
 _symmetry_equiv_pos_as_xyz
  1  'x, y, z'
loop_
 _atom_site_type_symbol
 _atom_site_label
 _atom_site_symmetry_multiplicity
 _atom_site_fract_x
 _atom_site_fract_y
 _atom_site_fract_z
 _atom_site_occupancy
  Li  Li0  1  0.65608800  0.65992100  0.10014200  1
  Li  Li1  1  0.00000000  0.00000000  0.00000000  1
  Li  Li2  1  0.34391200  0.34007900  0.89985800  1
  Li  Li3  1  0.99496700  0.99500400  0.67136400  1
  Li  Li4  1  0.33845700  0.34533100  0.55422100  1
  Li  Li5  1  0.66154300  0.65466900  0.44577900  1
  Li  Li6  1  0.00503300  0.00499600  0.32863600  1
  Ni  Ni7  1  0.83036900  0.33226500  0.22267500  1
  Ni  Ni8  1  0.16085100  0.66622500  0.11175000  1
  Ni  Ni9  1  0.50000000  0.00000000  0.00000000  1
  Ni  Ni10  1  0.83914900  0.33377500  0.88825000  1
  Ni  Ni11  1  0.16963100  0.66773500  0.77732500  1
  Ni  Ni12  1  0.83562200  0.33291600  0.55954000  1
  Ni  Ni13  1  0.51208300  0.99725800  0.66752600  1
  Ni  Ni14  1  0.16437800  0.66708400  0.44046000  1
  Ni  Ni15  1  0.48791700  0.00274200  0.33247400  1
  O  O16  1  0.94129100  0.66425800  0.27936000  1
  O  O17  1  0.38614800  0.68521900  0.27778400  1
  O  O18  1  0.70816800  0.99926800  0.16951100  1
  O  O19  1  0.60857900  0.32196000  0.03795000  1
  O  O20  1  0.23369300  0.97203700  0.15778200  1
  O  O21  1  0.06724000  0.35099300  0.04429600  1
  O  O22  1  0.39142100  0.67804000  0.96205000  1
  O  O23  1  0.93276000  0.64900700  0.95570400  1
  O  O24  1  0.76630700  0.02796300  0.84221800  1
  O  O25  1  0.29183200  0.00073200  0.83048900  1
  O  O26  1  0.05870900  0.33574200  0.72064000  1
  O  O27  1  0.61385200  0.31478100  0.72221600  1
  O  O28  1  0.39765400  0.68153900  0.59265500  1
  O  O29  1  0.93367400  0.64730400  0.59318400  1
  O  O30  1  0.74404500  0.01954600  0.51062500  1
  O  O31  1  0.25595500  0.98045400  0.48937500  1
  O  O32  1  0.60234600  0.31846100  0.40734500  1
  O  O33  1  0.06632600  0.35269600  0.40681600  1
