# generated using pymatgen
data_Li24Ti5Cr7O36
_symmetry_space_group_name_H-M   'P 1'
_cell_length_a   5.05174500
_cell_length_b   9.78415198
_cell_length_c   13.41088065
_cell_angle_alpha   97.27081751
_cell_angle_beta   100.75299369
_cell_angle_gamma   94.66849606
_symmetry_Int_Tables_number   1
_chemical_formula_structural   Li24Ti5Cr7O36
_chemical_formula_sum   'Li24 Ti5 Cr7 O36'
_cell_volume   642.22364585
_cell_formula_units_Z   1
loop_
 _symmetry_equiv_pos_site_id
 _symmetry_equiv_pos_as_xyz
  1  'x, y, z'
loop_
 _atom_site_type_symbol
 _atom_site_label
 _atom_site_symmetry_multiplicity
 _atom_site_fract_x
 _atom_site_fract_y
 _atom_site_fract_z
 _atom_site_occupancy
  Li  Li0  1  0.17122300  0.99880800  0.83308300  1
  Li  Li1  1  0.05101200  0.99922000  0.61386100  1
  Li  Li2  1  0.99889500  0.75001800  0.24972300  1
  Li  Li3  1  0.33322300  0.74946300  0.91746700  1
  Li  Li4  1  0.04998400  0.49928700  0.11311200  1
  Li  Li5  1  0.37491200  0.49839400  0.77834000  1
  Li  Li6  1  0.17099700  0.49843900  0.33337900  1
  Li  Li7  1  0.50623800  0.49972300  0.99871200  1
  Li  Li8  1  0.29053000  0.50014000  0.55554000  1
  Li  Li9  1  0.33304600  0.24963900  0.41701600  1
  Li  Li10  1  0.50075400  0.00083400  0.49960900  1
  Li  Li11  1  0.28338700  0.99890500  0.05354500  1
  Li  Li12  1  0.61595900  0.00025100  0.71943600  1
  Li  Li13  1  0.38084300  0.00007100  0.28088500  1
  Li  Li14  1  0.71196000  0.00097100  0.94657800  1
  Li  Li15  1  0.66474200  0.75073900  0.58279500  1
  Li  Li16  1  0.70908600  0.50087000  0.44497100  1
  Li  Li17  1  0.83519400  0.50251200  0.66582400  1
  Li  Li18  1  0.61517300  0.50099700  0.22068400  1
  Li  Li19  1  0.95174700  0.50090300  0.88798600  1
  Li  Li20  1  0.66362300  0.25070000  0.08180800  1
  Li  Li21  1  0.83526100  0.99987000  0.16635500  1
  Li  Li22  1  0.00021100  0.24988000  0.75057800  1
  Li  Li23  1  0.95146600  0.99922800  0.38642000  1
  Ti  Ti24  1  0.11580700  0.25533500  0.97366900  1
  Ti  Ti25  1  0.11480700  0.75141900  0.47314900  1
  Ti  Ti26  1  0.77693700  0.74767200  0.80814200  1
  Ti  Ti27  1  0.77456200  0.24639500  0.30519900  1
  Ti  Ti28  1  0.89275600  0.24969600  0.52764400  1
  Cr  Cr29  1  0.21936600  0.74973700  0.69399700  1
  Cr  Cr30  1  0.21707600  0.24971100  0.19305200  1
  Cr  Cr31  1  0.44117700  0.24837300  0.64064500  1
  Cr  Cr32  1  0.56281600  0.25025500  0.85980300  1
  Cr  Cr33  1  0.44569800  0.75116100  0.13587000  1
  Cr  Cr34  1  0.55321300  0.74863100  0.35856200  1
  Cr  Cr35  1  0.89307800  0.75066500  0.03169500  1
  O  O36  1  0.99904000  0.86343200  0.93058300  1
  O  O37  1  0.06861200  0.63313500  0.78674500  1
  O  O38  1  0.99840000  0.36459000  0.42893100  1
  O  O39  1  0.15157600  0.36334200  0.64520800  1
  O  O40  1  0.26506600  0.36443600  0.88048900  1
  O  O41  1  0.33692400  0.86402100  0.59455800  1
  O  O42  1  0.06775600  0.13316900  0.28563900  1
  O  O43  1  0.18795500  0.13576400  0.52304900  1
  O  O44  1  0.40460200  0.13472800  0.94974700  1
  O  O45  1  0.13390700  0.86145200  0.14047900  1
  O  O46  1  0.26775400  0.86487400  0.38006500  1
  O  O47  1  0.47139900  0.86234300  0.80926400  1
  O  O48  1  0.32960700  0.13928100  0.73476300  1
  O  O49  1  0.19791800  0.63707500  0.02695900  1
  O  O50  1  0.40131300  0.63305100  0.45155100  1
  O  O51  1  0.51995400  0.63825100  0.68976900  1
  O  O52  1  0.33498300  0.64051100  0.23924200  1
  O  O53  1  0.66761300  0.63744800  0.90664000  1
  O  O54  1  0.33789000  0.36462100  0.09437100  1
  O  O55  1  0.66994300  0.36112700  0.76614800  1
  O  O56  1  0.47186700  0.36182800  0.30820800  1
  O  O57  1  0.59477100  0.36465900  0.55057900  1
  O  O58  1  0.81226100  0.36414500  0.97742400  1
  O  O59  1  0.66408900  0.86193000  0.25903300  1
  O  O60  1  0.51845100  0.13815200  0.18815700  1
  O  O61  1  0.73459500  0.13612100  0.62006800  1
  O  O62  1  0.84856600  0.13627400  0.85599600  1
  O  O63  1  0.59151900  0.86499300  0.05037400  1
  O  O64  1  0.80654000  0.86241400  0.47492700  1
  O  O65  1  0.93807100  0.86478600  0.71454300  1
  O  O66  1  0.66585300  0.13556400  0.40435000  1
  O  O67  1  0.74208800  0.63572400  0.11573800  1
  O  O68  1  0.85208900  0.63784700  0.35519900  1
  O  O69  1  0.00141100  0.63764100  0.57480800  1
  O  O70  1  0.93793400  0.36480900  0.21333200  1
  O  O71  1  0.00092400  0.13755000  0.07392900  1
