# generated using pymatgen
data_Li3CuSiO4
_symmetry_space_group_name_H-M   'P 1'
_cell_length_a   9.97915565
_cell_length_b   9.97915565
_cell_length_c   9.97915565
_cell_angle_alpha   114.83263574
_cell_angle_beta   114.83263574
_cell_angle_gamma   99.21048503
_symmetry_Int_Tables_number   1
_chemical_formula_structural   Li3CuSiO4
_chemical_formula_sum   'Li24 Cu8 Si8 O32'
_cell_volume   747.08701584
_cell_formula_units_Z   8
loop_
 _symmetry_equiv_pos_site_id
 _symmetry_equiv_pos_as_xyz
  1  'x, y, z'
loop_
 _atom_site_type_symbol
 _atom_site_label
 _atom_site_symmetry_multiplicity
 _atom_site_fract_x
 _atom_site_fract_y
 _atom_site_fract_z
 _atom_site_occupancy
  Li  Li0  1  0.96577200  0.09915700  0.19125100  1
  Li  Li1  1  0.78422800  0.15084300  0.30874900  1
  Li  Li2  1  0.84915700  0.15790600  0.63338400  1
  Li  Li3  1  0.22547900  0.03422800  0.13338400  1
  Li  Li4  1  0.72417000  0.55728300  0.14005800  1
  Li  Li5  1  0.43763800  0.29975000  0.13965100  1
  Li  Li6  1  0.52452100  0.21577200  0.36661600  1
  Li  Li7  1  0.90084300  0.09209400  0.86661600  1
  Li  Li8  1  0.70025000  0.83990100  0.13788800  1
  Li  Li9  1  0.44271700  0.58277500  0.16688800  1
  Li  Li10  1  0.84209400  0.47547900  0.69125100  1
  Li  Li11  1  0.90790600  0.77452100  0.80874900  1
  Li  Li12  1  0.41588700  0.27583000  0.83311200  1
  Li  Li13  1  0.30728300  0.66722500  0.33311200  1
  Li  Li14  1  0.70201300  0.56236200  0.86211200  1
  Li  Li15  1  0.04975000  0.41009900  0.36211200  1
  Li  Li16  1  0.33277500  0.66588700  0.64005800  1
  Li  Li17  1  0.58990100  0.95201300  0.63965100  1
  Li  Li18  1  0.31236200  0.95025000  0.36034900  1
  Li  Li19  1  0.16009900  0.29798700  0.86034900  1
  Li  Li20  1  0.02583000  0.69271700  0.35994200  1
  Li  Li21  1  0.41722500  0.58411300  0.85994200  1
  Li  Li22  1  0.04798700  0.68763800  0.63788800  1
  Li  Li23  1  0.33411300  0.97417000  0.66688800  1
  Cu  Cu24  1  0.82536600  0.31671500  0.04459000  1
  Cu  Cu25  1  0.21922400  0.17463400  0.49134900  1
  Cu  Cu26  1  0.06671500  0.52212500  0.99134900  1
  Cu  Cu27  1  0.92463400  0.93328500  0.45541000  1
  Cu  Cu28  1  0.47787500  0.46922400  0.54459000  1
  Cu  Cu29  1  0.53077600  0.07536600  0.00865100  1
  Cu  Cu30  1  0.68328500  0.72787500  0.50865100  1
  Cu  Cu31  1  0.27212500  0.78077600  0.95541000  1
  Si  Si32  1  0.00515100  0.78800600  0.15106100  1
  Si  Si33  1  0.74484900  0.46199400  0.34893900  1
  Si  Si34  1  0.21199400  0.36305400  0.21714400  1
  Si  Si35  1  0.60409000  0.25515100  0.71714400  1
  Si  Si36  1  0.14591000  0.99484900  0.78285600  1
  Si  Si37  1  0.53800600  0.88694600  0.28285600  1
  Si  Si38  1  0.11305400  0.39591000  0.65106100  1
  Si  Si39  1  0.63694600  0.85409000  0.84893900  1
  O  O40  1  0.72914900  0.00495800  0.37953000  1
  O  O41  1  0.65038200  0.27085100  0.27580900  1
  O  O42  1  0.88390200  0.48983700  0.30088800  1
  O  O43  1  0.86609800  0.76016300  0.19911200  1
  O  O44  1  0.99504200  0.37457300  0.72419100  1
  O  O45  1  0.60655100  0.51398600  0.24340400  1
  O  O46  1  0.73400200  0.17129100  0.75385900  1
  O  O47  1  0.33256800  0.26985800  0.25385900  1
  O  O48  1  0.23983700  0.43894900  0.10593500  1
  O  O49  1  0.41698600  0.11609800  0.60593500  1
  O  O50  1  0.82870900  0.58256800  0.56271000  1
  O  O51  1  0.73014200  0.98400200  0.06271000  1
  O  O52  1  0.02085100  0.24504200  0.12047000  1
  O  O53  1  0.62542700  0.34961800  0.62047000  1
  O  O54  1  0.48601400  0.72941800  0.09256500  1
  O  O55  1  0.26398600  0.52058200  0.40743500  1
  O  O56  1  0.63685300  0.39344900  0.90743500  1
  O  O57  1  0.92129100  0.66743200  0.93729000  1
  O  O58  1  0.01985800  0.26599800  0.43729000  1
  O  O59  1  0.51016300  0.81105100  0.39406500  1
  O  O60  1  0.33301400  0.13390200  0.89406500  1
  O  O61  1  0.01599800  0.07870900  0.74614100  1
  O  O62  1  0.41743200  0.98014200  0.24614100  1
  O  O63  1  0.14344900  0.73601400  0.25659600  1
  O  O64  1  0.27058200  0.36314700  0.75659600  1
  O  O65  1  0.75495800  0.87542700  0.77580900  1
  O  O66  1  0.56105100  0.66698600  0.80088800  1
  O  O67  1  0.18894900  0.58301400  0.69911200  1
  O  O68  1  0.09961800  0.97914900  0.22419100  1
  O  O69  1  0.47941800  0.88685300  0.74340400  1
  O  O70  1  0.11314700  0.85655100  0.59256500  1
  O  O71  1  0.12457300  0.90038200  0.87953000  1
