# generated using pymatgen
data_Li2VF4
_symmetry_space_group_name_H-M   'P 1'
_cell_length_a   5.26778248
_cell_length_b   5.26778248
_cell_length_c   3.13625100
_cell_angle_alpha   90.00000000
_cell_angle_beta   90.00000000
_cell_angle_gamma   111.72446353
_symmetry_Int_Tables_number   1
_chemical_formula_structural   Li2VF4
_chemical_formula_sum   'Li2 V1 F4'
_cell_volume   80.84819467
_cell_formula_units_Z   1
loop_
 _symmetry_equiv_pos_site_id
 _symmetry_equiv_pos_as_xyz
  1  'x, y, z'
loop_
 _atom_site_type_symbol
 _atom_site_label
 _atom_site_symmetry_multiplicity
 _atom_site_fract_x
 _atom_site_fract_y
 _atom_site_fract_z
 _atom_site_occupancy
  Li  Li0  1  0.50000000  0.00000000  0.50000000  1
  Li  Li1  1  0.00000000  0.50000000  0.50000000  1
  V  V2  1  0.00000000  0.00000000  0.00000000  1
  F  F3  1  0.76035100  0.23964900  0.00000000  1
  F  F4  1  0.23375700  0.23375700  0.50000000  1
  F  F5  1  0.76624300  0.76624300  0.50000000  1
  F  F6  1  0.23964900  0.76035100  0.00000000  1
