# generated using pymatgen
data_Li4V3Ni3(TeO8)2
_symmetry_space_group_name_H-M   'P 1'
_cell_length_a   5.88193800
_cell_length_b   6.01238142
_cell_length_c   10.22974725
_cell_angle_alpha   90.23322363
_cell_angle_beta   90.14722539
_cell_angle_gamma   119.23191132
_symmetry_Int_Tables_number   1
_chemical_formula_structural   Li4V3Ni3(TeO8)2
_chemical_formula_sum   'Li4 V3 Ni3 Te2 O16'
_cell_volume   315.69125722
_cell_formula_units_Z   1
loop_
 _symmetry_equiv_pos_site_id
 _symmetry_equiv_pos_as_xyz
  1  'x, y, z'
loop_
 _atom_site_type_symbol
 _atom_site_label
 _atom_site_symmetry_multiplicity
 _atom_site_fract_x
 _atom_site_fract_y
 _atom_site_fract_z
 _atom_site_occupancy
  Li  Li0  1  0.65881500  0.31635100  0.09514900  1
  Li  Li1  1  0.00571700  0.01351600  0.01477700  1
  Li  Li2  1  0.99980900  0.00232200  0.50460900  1
  Li  Li3  1  0.33891700  0.67008700  0.59576500  1
  V  V4  1  0.84102900  0.19663500  0.77957100  1
  V  V5  1  0.34142700  0.18524900  0.77807500  1
  V  V6  1  0.17909100  0.35899700  0.26586300  1
  Ni  Ni7  1  0.83123000  0.66858400  0.79487600  1
  Ni  Ni8  1  0.65853800  0.82813800  0.28451000  1
  Ni  Ni9  1  0.16996200  0.82847900  0.28492400  1
  Te  Te10  1  0.67081400  0.33889400  0.48538400  1
  Te  Te11  1  0.35394000  0.70765500  0.00377500  1
  O  O12  1  0.83619100  0.16757000  0.39569000  1
  O  O13  1  0.52713700  0.02506600  0.68027400  1
  O  O14  1  0.67021700  0.31523900  0.89243700  1
  O  O15  1  0.99285800  0.00351400  0.69246800  1
  O  O16  1  0.01377100  0.02748900  0.19966200  1
  O  O17  1  0.33210900  0.16731900  0.39698900  1
  O  O18  1  0.98579100  0.47038000  0.68207500  1
  O  O19  1  0.48415400  0.46844000  0.68543400  1
  O  O20  1  0.13303900  0.28874700  0.88936100  1
  O  O21  1  0.83676500  0.67344200  0.40164500  1
  O  O22  1  0.46824300  0.48579100  0.16879100  1
  O  O23  1  0.01630600  0.48583700  0.16984600  1
  O  O24  1  0.31185600  0.62282700  0.38966800  1
  O  O25  1  0.68297800  0.85756800  0.90849700  1
  O  O26  1  0.47909800  0.95938800  0.14699500  1
  O  O27  1  0.18049600  0.86647800  0.90505100  1
