# generated using pymatgen
data_Li2Cr(PO3)4
_symmetry_space_group_name_H-M   'P 1'
_cell_length_a   11.15171900
_cell_length_b   7.93545700
_cell_length_c   12.57598176
_cell_angle_alpha   81.60424844
_cell_angle_beta   90.00000000
_cell_angle_gamma   90.00000000
_symmetry_Int_Tables_number   1
_chemical_formula_structural   Li2Cr(PO3)4
_chemical_formula_sum   'Li8 Cr4 P16 O48'
_cell_volume   1100.97200555
_cell_formula_units_Z   4
loop_
 _symmetry_equiv_pos_site_id
 _symmetry_equiv_pos_as_xyz
  1  'x, y, z'
loop_
 _atom_site_type_symbol
 _atom_site_label
 _atom_site_symmetry_multiplicity
 _atom_site_fract_x
 _atom_site_fract_y
 _atom_site_fract_z
 _atom_site_occupancy
  Li  Li0  1  0.87580700  0.54335500  0.21697100  1
  Li  Li1  1  0.37580700  0.45664500  0.28302900  1
  Li  Li2  1  0.03894500  0.41396900  0.42856600  1
  Li  Li3  1  0.53894500  0.58603100  0.07143400  1
  Li  Li4  1  0.46105500  0.41396900  0.92856600  1
  Li  Li5  1  0.96105500  0.58603100  0.57143400  1
  Li  Li6  1  0.62419300  0.54335500  0.71697100  1
  Li  Li7  1  0.12419300  0.45664500  0.78302900  1
  Cr  Cr8  1  0.73944600  0.02221800  0.68201500  1
  Cr  Cr9  1  0.23944600  0.97778200  0.81798500  1
  Cr  Cr10  1  0.76055400  0.02221800  0.18201500  1
  Cr  Cr11  1  0.26055400  0.97778200  0.31798500  1
  P  P12  1  0.26017000  0.93516700  0.06755400  1
  P  P13  1  0.62227400  0.63193400  0.29119700  1
  P  P14  1  0.23507100  0.57375400  0.01106300  1
  P  P15  1  0.73507100  0.42624600  0.48893700  1
  P  P16  1  0.73983000  0.06483300  0.93244600  1
  P  P17  1  0.12227400  0.36806600  0.20880300  1
  P  P18  1  0.95671400  0.97887900  0.82532200  1
  P  P19  1  0.45671400  0.02112100  0.67467800  1
  P  P20  1  0.76017000  0.06483300  0.43244600  1
  P  P21  1  0.23983000  0.93516700  0.56755400  1
  P  P22  1  0.54328600  0.97887900  0.32532200  1
  P  P23  1  0.04328600  0.02112100  0.17467800  1
  P  P24  1  0.87772600  0.63193400  0.79119700  1
  P  P25  1  0.26492900  0.57375400  0.51106300  1
  P  P26  1  0.76492900  0.42624600  0.98893700  1
  P  P27  1  0.37772600  0.36806600  0.70880300  1
  O  O28  1  0.20665100  0.75008400  0.05569000  1
  O  O29  1  0.63938000  0.54276800  0.41390000  1
  O  O30  1  0.54622300  0.52331900  0.22812500  1
  O  O31  1  0.86479700  0.47716900  0.46296000  1
  O  O32  1  0.69363800  0.42171600  0.60229600  1
  O  O33  1  0.36479700  0.52283100  0.03704000  1
  O  O34  1  0.25869900  0.30233000  0.75382800  1
  O  O35  1  0.46822700  0.21692400  0.69082600  1
  O  O36  1  0.04622300  0.47668100  0.27187500  1
  O  O37  1  0.67080500  0.07383200  0.82909900  1
  O  O38  1  0.31887100  0.01145500  0.96417700  1
  O  O39  1  0.13938000  0.45723200  0.08610000  1
  O  O40  1  0.70665100  0.24991600  0.44431000  1
  O  O41  1  0.07384900  0.03479300  0.86480600  1
  O  O42  1  0.86229200  0.96109700  0.92312700  1
  O  O43  1  0.90500500  0.08580000  0.72726300  1
  O  O44  1  0.40500500  0.91420000  0.77273700  1
  O  O45  1  0.80636200  0.42171600  0.10229600  1
  O  O46  1  0.36229200  0.03890300  0.57687300  1
  O  O47  1  0.57384900  0.96520700  0.63519400  1
  O  O48  1  0.24130100  0.30233000  0.25382800  1
  O  O49  1  0.03177300  0.21692400  0.19082600  1
  O  O50  1  0.81887100  0.98854500  0.53582300  1
  O  O51  1  0.17080500  0.92616800  0.67090100  1
  O  O52  1  0.82919500  0.07383200  0.32909900  1
  O  O53  1  0.18112900  0.01145500  0.46417700  1
  O  O54  1  0.96822700  0.78307600  0.80917400  1
  O  O55  1  0.75869900  0.69767000  0.74617200  1
  O  O56  1  0.42615100  0.03479300  0.36480600  1
  O  O57  1  0.63770800  0.96109700  0.42312700  1
  O  O58  1  0.19363800  0.57828400  0.89770400  1
  O  O59  1  0.59499500  0.08580000  0.22726300  1
  O  O60  1  0.09499500  0.91420000  0.27273700  1
  O  O61  1  0.13770800  0.03890300  0.07687300  1
  O  O62  1  0.92615100  0.96520700  0.13519400  1
  O  O63  1  0.29334900  0.75008400  0.55569000  1
  O  O64  1  0.86062000  0.54276800  0.91390000  1
  O  O65  1  0.68112900  0.98854500  0.03582300  1
  O  O66  1  0.32919500  0.92616800  0.17090100  1
  O  O67  1  0.95377700  0.52331900  0.72812500  1
  O  O68  1  0.53177300  0.78307600  0.30917400  1
  O  O69  1  0.74130100  0.69767000  0.24617200  1
  O  O70  1  0.63520300  0.47716900  0.96296000  1
  O  O71  1  0.30636200  0.57828400  0.39770400  1
  O  O72  1  0.13520300  0.52283100  0.53704000  1
  O  O73  1  0.45377700  0.47668100  0.77187500  1
  O  O74  1  0.36062000  0.45723200  0.58610000  1
  O  O75  1  0.79334900  0.24991600  0.94431000  1
