# generated using pymatgen
data_LiCoSiO4
_symmetry_space_group_name_H-M   'P 1'
_cell_length_a   9.88455052
_cell_length_b   9.88455052
_cell_length_c   24.16783800
_cell_angle_alpha   90.00000000
_cell_angle_beta   90.00000000
_cell_angle_gamma   120.00000345
_symmetry_Int_Tables_number   1
_chemical_formula_structural   LiCoSiO4
_chemical_formula_sum   'Li24 Co24 Si24 O96'
_cell_volume   2044.94799615
_cell_formula_units_Z   24
loop_
 _symmetry_equiv_pos_site_id
 _symmetry_equiv_pos_as_xyz
  1  'x, y, z'
loop_
 _atom_site_type_symbol
 _atom_site_label
 _atom_site_symmetry_multiplicity
 _atom_site_fract_x
 _atom_site_fract_y
 _atom_site_fract_z
 _atom_site_occupancy
  Li  Li0  1  0.02280800  0.97422700  0.69549400  1
  Li  Li1  1  0.03514000  0.58438800  0.03537600  1
  Li  Li2  1  0.05937000  0.45641100  0.19190200  1
  Li  Li3  1  0.05160800  0.47452300  0.84757200  1
  Li  Li4  1  0.39704100  0.94063000  0.85856900  1
  Li  Li5  1  0.42291500  0.94839200  0.51423900  1
  Li  Li6  1  0.02577300  0.04858200  0.02882700  1
  Li  Li7  1  0.04858200  0.02280800  0.86216100  1
  Li  Li8  1  0.54924700  0.96486000  0.70204200  1
  Li  Li9  1  0.41561200  0.45075300  0.36870900  1
  Li  Li10  1  0.52547700  0.57708500  0.18090600  1
  Li  Li11  1  0.54358900  0.60295900  0.52523500  1
  Li  Li12  1  0.45641100  0.39704100  0.02523500  1
  Li  Li13  1  0.47452300  0.42291500  0.68090600  1
  Li  Li14  1  0.58438800  0.54924700  0.86870900  1
  Li  Li15  1  0.45075300  0.03514000  0.20204200  1
  Li  Li16  1  0.95141800  0.97719200  0.36216100  1
  Li  Li17  1  0.97422700  0.95141800  0.52882700  1
  Li  Li18  1  0.57708500  0.05160800  0.01423900  1
  Li  Li19  1  0.60295900  0.05937000  0.35856900  1
  Li  Li20  1  0.94839200  0.52547700  0.34757200  1
  Li  Li21  1  0.94063000  0.54358900  0.69190200  1
  Li  Li22  1  0.96486000  0.41561200  0.53537600  1
  Li  Li23  1  0.97719200  0.02577300  0.19549400  1
  Co  Co24  1  0.09814900  0.82034600  0.27090800  1
  Co  Co25  1  0.08094200  0.75204200  0.91657000  1
  Co  Co26  1  0.11623700  0.74250100  0.59290500  1
  Co  Co27  1  0.30504600  0.66558900  0.75477400  1
  Co  Co28  1  0.33441100  0.63945600  0.08810700  1
  Co  Co29  1  0.36054400  0.69495400  0.42144100  1
  Co  Co30  1  0.17965400  0.27780300  0.60424100  1
  Co  Co31  1  0.25749900  0.37373600  0.92623900  1
  Co  Co32  1  0.24795800  0.32890000  0.24990400  1
  Co  Co33  1  0.62626400  0.88376300  0.25957200  1
  Co  Co34  1  0.67110000  0.91905800  0.58323700  1
  Co  Co35  1  0.27780300  0.09814900  0.43757400  1
  Co  Co36  1  0.72219700  0.90185100  0.93757400  1
  Co  Co37  1  0.32890000  0.08094200  0.08323700  1
  Co  Co38  1  0.37373600  0.11623700  0.75957200  1
  Co  Co39  1  0.75204200  0.67110000  0.74990400  1
  Co  Co40  1  0.74250100  0.62626400  0.42623900  1
  Co  Co41  1  0.82034600  0.72219700  0.10424100  1
  Co  Co42  1  0.63945600  0.30504600  0.92144100  1
  Co  Co43  1  0.66558900  0.36054400  0.58810700  1
  Co  Co44  1  0.69495400  0.33441100  0.25477400  1
  Co  Co45  1  0.88376300  0.25749900  0.09290500  1
  Co  Co46  1  0.91905800  0.24795800  0.41657000  1
  Co  Co47  1  0.90185100  0.17965400  0.77090800  1
  Si  Si48  1  0.08639300  0.78389500  0.78820500  1
  Si  Si49  1  0.07486800  0.75025800  0.46659600  1
  Si  Si50  1  0.13566500  0.77063500  0.14157500  1
  Si  Si51  1  0.27839200  0.64463800  0.29666300  1
  Si  Si52  1  0.36624500  0.72160800  0.96332900  1
  Si  Si53  1  0.35536200  0.63375500  0.62999600  1
  Si  Si54  1  0.22936500  0.36502900  0.47490800  1
  Si  Si55  1  0.21610500  0.30249700  0.12153800  1
  Si  Si56  1  0.24974200  0.32461000  0.79993000  1
  Si  Si57  1  0.63497100  0.86433500  0.80824200  1
  Si  Si58  1  0.67539000  0.92513200  0.13326300  1
  Si  Si59  1  0.69750300  0.91360700  0.45487200  1
  Si  Si60  1  0.30249700  0.08639300  0.95487200  1
  Si  Si61  1  0.32461000  0.07486800  0.63326300  1
  Si  Si62  1  0.36502900  0.13566500  0.30824200  1
  Si  Si63  1  0.75025800  0.67539000  0.29993000  1
  Si  Si64  1  0.78389500  0.69750300  0.62153800  1
  Si  Si65  1  0.77063500  0.63497100  0.97490800  1
  Si  Si66  1  0.64463800  0.36624500  0.12999600  1
  Si  Si67  1  0.63375500  0.27839200  0.46332900  1
  Si  Si68  1  0.72160800  0.35536200  0.79666300  1
  Si  Si69  1  0.86433500  0.22936500  0.64157500  1
  Si  Si70  1  0.92513200  0.24974200  0.96659600  1
  Si  Si71  1  0.91360700  0.21610500  0.28820500  1
  O  O72  1  0.02261000  0.76183400  0.08981200  1
  O  O73  1  0.09903100  0.92839700  0.47146900  1
  O  O74  1  0.02027700  0.67662100  0.84499600  1
  O  O75  1  0.13359300  0.96261000  0.92611600  1
  O  O76  1  0.03945900  0.75017300  0.19870900  1
  O  O77  1  0.00961400  0.66133600  0.52641100  1
  O  O78  1  0.23741700  0.95326000  0.80670800  1
  O  O79  1  0.12898000  0.67192900  0.30639500  1
  O  O80  1  0.12482100  0.68033700  0.74461700  1
  O  O81  1  0.29600200  0.94482800  0.58498400  1
  O  O82  1  0.30162600  0.94005000  0.13837400  1
  O  O83  1  0.17492100  0.62823600  0.13510500  1
  O  O84  1  0.24908900  0.77103100  0.45714500  1
  O  O85  1  0.18767100  0.60910700  0.60830100  1
  O  O86  1  0.05995000  0.36157600  0.47170700  1
  O  O87  1  0.27686300  0.76764300  0.91596600  1
  O  O88  1  0.05517200  0.35117300  0.91831800  1
  O  O89  1  0.04674000  0.28415800  0.14004100  1
  O  O90  1  0.03739000  0.17098300  0.25945000  1
  O  O91  1  0.07160300  0.17063400  0.80480300  1
  O  O92  1  0.26593900  0.67619200  0.02129600  1
  O  O93  1  0.23235700  0.50922100  0.24930000  1
  O  O94  1  0.32380800  0.58974600  0.35462900  1
  O  O95  1  0.22896900  0.47805800  0.79047800  1
  O  O96  1  0.41025400  0.73406100  0.68796200  1
  O  O97  1  0.42143600  0.81232900  0.27496800  1
  O  O98  1  0.45331500  0.82507900  0.80177200  1
  O  O99  1  0.31966300  0.44448400  0.07795100  1
  O  O100  1  0.32807100  0.45705200  0.63972800  1
  O  O101  1  0.37176400  0.54668500  0.46843800  1
  O  O102  1  0.24982700  0.28928500  0.53204300  1
  O  O103  1  0.39089300  0.57856400  0.94163500  1
  O  O104  1  0.49077900  0.72313700  0.58263300  1
  O  O105  1  0.54294800  0.87102000  0.97306200  1
  O  O106  1  0.55551600  0.87517900  0.41128400  1
  O  O107  1  0.17098300  0.13359300  0.09278300  1
  O  O108  1  0.23816600  0.26077600  0.42314500  1
  O  O109  1  0.32337900  0.34365600  0.17832900  1
  O  O110  1  0.17063400  0.09903100  0.63813600  1
  O  O111  1  0.33866400  0.34827800  0.85974400  1
  O  O112  1  0.52194200  0.75091100  0.12381200  1
  O  O113  1  0.28415800  0.23741700  0.97337400  1
  O  O114  1  0.65172200  0.99038600  0.19307800  1
  O  O115  1  0.35117300  0.29600200  0.75165100  1
  O  O116  1  0.36157600  0.30162600  0.30504000  1
  O  O117  1  0.65634400  0.97972300  0.51166300  1
  O  O118  1  0.71071500  0.96054100  0.86537600  1
  O  O119  1  0.26077600  0.02261000  0.25647800  1
  O  O120  1  0.73922400  0.97739000  0.75647800  1
  O  O121  1  0.28928500  0.03945900  0.36537600  1
  O  O122  1  0.34365600  0.02027700  0.01166300  1
  O  O123  1  0.63842400  0.69837400  0.80504000  1
  O  O124  1  0.64882700  0.70399800  0.25165100  1
  O  O125  1  0.34827800  0.00961400  0.69307800  1
  O  O126  1  0.71584200  0.76258300  0.47337400  1
  O  O127  1  0.47805800  0.24908900  0.62381200  1
  O  O128  1  0.66133600  0.65172200  0.35974400  1
  O  O129  1  0.82936600  0.90096900  0.13813600  1
  O  O130  1  0.67662100  0.65634400  0.67832900  1
  O  O131  1  0.76183400  0.73922400  0.92314500  1
  O  O132  1  0.82901700  0.86640700  0.59278300  1
  O  O133  1  0.44448400  0.12482100  0.91128400  1
  O  O134  1  0.45705200  0.12898000  0.47306200  1
  O  O135  1  0.50922100  0.27686300  0.08263300  1
  O  O136  1  0.60910700  0.42143600  0.44163500  1
  O  O137  1  0.75017300  0.71071500  0.03204300  1
  O  O138  1  0.62823600  0.45331500  0.96843800  1
  O  O139  1  0.67192900  0.54294800  0.13972800  1
  O  O140  1  0.68033700  0.55551600  0.57795100  1
  O  O141  1  0.54668500  0.17492100  0.30177200  1
  O  O142  1  0.57856400  0.18767100  0.77496800  1
  O  O143  1  0.58974600  0.26593900  0.18796200  1
  O  O144  1  0.77103100  0.52194200  0.29047800  1
  O  O145  1  0.67619200  0.41025400  0.85462900  1
  O  O146  1  0.76764300  0.49077900  0.74930000  1
  O  O147  1  0.73406100  0.32380800  0.52129600  1
  O  O148  1  0.92839700  0.82936600  0.30480300  1
  O  O149  1  0.96261000  0.82901700  0.75945000  1
  O  O150  1  0.95326000  0.71584200  0.64004100  1
  O  O151  1  0.94482800  0.64882700  0.41831800  1
  O  O152  1  0.72313700  0.23235700  0.41596600  1
  O  O153  1  0.94005000  0.63842400  0.97170700  1
  O  O154  1  0.81232900  0.39089300  0.10830100  1
  O  O155  1  0.75091100  0.22896900  0.95714500  1
  O  O156  1  0.82507900  0.37176400  0.63510500  1
  O  O157  1  0.69837400  0.05995000  0.63837400  1
  O  O158  1  0.70399800  0.05517200  0.08498400  1
  O  O159  1  0.87517900  0.31966300  0.24461700  1
  O  O160  1  0.87102000  0.32807100  0.80639500  1
  O  O161  1  0.76258300  0.04674000  0.30670800  1
  O  O162  1  0.99038600  0.33866400  0.02641100  1
  O  O163  1  0.96054100  0.24982700  0.69870900  1
  O  O164  1  0.86640700  0.03739000  0.42611600  1
  O  O165  1  0.97972300  0.32337900  0.34499600  1
  O  O166  1  0.90096900  0.07160300  0.97146900  1
  O  O167  1  0.97739000  0.23816600  0.58981200  1
