# generated using pymatgen
data_Li3V(PO4)2
_symmetry_space_group_name_H-M   'P 1'
_cell_length_a   7.16176100
_cell_length_b   8.44951594
_cell_length_c   8.47418705
_cell_angle_alpha   119.77606686
_cell_angle_beta   89.93819574
_cell_angle_gamma   90.46806056
_symmetry_Int_Tables_number   1
_chemical_formula_structural   Li3V(PO4)2
_chemical_formula_sum   'Li9 V3 P6 O24'
_cell_volume   445.08079152
_cell_formula_units_Z   3
loop_
 _symmetry_equiv_pos_site_id
 _symmetry_equiv_pos_as_xyz
  1  'x, y, z'
loop_
 _atom_site_type_symbol
 _atom_site_label
 _atom_site_symmetry_multiplicity
 _atom_site_fract_x
 _atom_site_fract_y
 _atom_site_fract_z
 _atom_site_occupancy
  Li  Li0  1  0.33565400  0.31075400  0.96874000  1
  Li  Li1  1  0.33709800  0.65702400  0.69316300  1
  Li  Li2  1  0.50000000  0.00000000  0.00000000  1
  Li  Li3  1  0.49242700  0.67104900  0.33674700  1
  Li  Li4  1  0.66836900  0.96108800  0.65474300  1
  Li  Li5  1  0.33163100  0.03891200  0.34525700  1
  Li  Li6  1  0.50757300  0.32895100  0.66325300  1
  Li  Li7  1  0.66290200  0.34297600  0.30683700  1
  Li  Li8  1  0.66434600  0.68924600  0.03126000  1
  V  V9  1  0.00000000  0.00000000  0.00000000  1
  V  V10  1  0.92366200  0.66815200  0.33356700  1
  V  V11  1  0.07633800  0.33184800  0.66643300  1
  P  P12  1  0.23326000  0.35302900  0.31314500  1
  P  P13  1  0.23331900  0.96109000  0.65048300  1
  P  P14  1  0.23522300  0.68984200  0.04258800  1
  P  P15  1  0.76477700  0.31015800  0.95741200  1
  P  P16  1  0.76668100  0.03891000  0.34951700  1
  P  P17  1  0.76674000  0.64697100  0.68685500  1
  O  O18  1  0.79345100  0.20066900  0.06045900  1
  O  O19  1  0.41276500  0.40004500  0.24119700  1
  O  O20  1  0.06884100  0.44883600  0.28457100  1
  O  O21  1  0.75169700  0.51625700  0.10664400  1
  O  O22  1  0.73965400  0.59606800  0.48331100  1
  O  O23  1  0.79870400  0.85854200  0.79752800  1
  O  O24  1  0.07733300  0.73073300  0.17842600  1
  O  O25  1  0.06960300  0.83252400  0.55467700  1
  O  O26  1  0.20099600  0.06388100  0.86120700  1
  O  O27  1  0.41334200  0.84559700  0.60701600  1
  O  O28  1  0.41942900  0.75508800  0.15316600  1
  O  O29  1  0.74150800  0.88795400  0.40426600  1
  O  O30  1  0.25849200  0.11204600  0.59573400  1
  O  O31  1  0.58057100  0.24491200  0.84683400  1
  O  O32  1  0.58665800  0.15440300  0.39298400  1
  O  O33  1  0.79900400  0.93611900  0.13879300  1
  O  O34  1  0.93039700  0.16747600  0.44532300  1
  O  O35  1  0.92266700  0.26926700  0.82157400  1
  O  O36  1  0.20129600  0.14145800  0.20247200  1
  O  O37  1  0.26034600  0.40393200  0.51668900  1
  O  O38  1  0.24830300  0.48374300  0.89335600  1
  O  O39  1  0.93115900  0.55116400  0.71542900  1
  O  O40  1  0.58723500  0.59995500  0.75880300  1
  O  O41  1  0.20654900  0.79933100  0.93954100  1
