# generated using pymatgen
data_Li2VF4
_symmetry_space_group_name_H-M   'P 1'
_cell_length_a   6.19203700
_cell_length_b   5.38217700
_cell_length_c   11.04075237
_cell_angle_alpha   65.80322422
_cell_angle_beta   90.00000000
_cell_angle_gamma   90.00000000
_symmetry_Int_Tables_number   1
_chemical_formula_structural   Li2VF4
_chemical_formula_sum   'Li8 V4 F16'
_cell_volume   335.62415098
_cell_formula_units_Z   4
loop_
 _symmetry_equiv_pos_site_id
 _symmetry_equiv_pos_as_xyz
  1  'x, y, z'
loop_
 _atom_site_type_symbol
 _atom_site_label
 _atom_site_symmetry_multiplicity
 _atom_site_fract_x
 _atom_site_fract_y
 _atom_site_fract_z
 _atom_site_occupancy
  Li  Li0  1  0.56611700  0.59099900  0.72410900  1
  Li  Li1  1  0.11306000  0.20129000  0.05173900  1
  Li  Li2  1  0.06611700  0.40900100  0.77589100  1
  Li  Li3  1  0.61306000  0.79871000  0.44826100  1
  Li  Li4  1  0.38694000  0.20129000  0.55173900  1
  Li  Li5  1  0.93388300  0.59099900  0.22410900  1
  Li  Li6  1  0.88694000  0.79871000  0.94826100  1
  Li  Li7  1  0.43388300  0.40900100  0.27589100  1
  V  V8  1  0.63403600  0.23326900  0.01233600  1
  V  V9  1  0.13403600  0.76673100  0.48766400  1
  V  V10  1  0.86596400  0.23326900  0.51233600  1
  V  V11  1  0.36596400  0.76673100  0.98766400  1
  F  F12  1  0.39353500  0.50925800  0.88355500  1
  F  F13  1  0.87812400  0.49699000  0.89263100  1
  F  F14  1  0.37702200  0.04393200  0.38588800  1
  F  F15  1  0.87098000  0.01722100  0.39079400  1
  F  F16  1  0.37812400  0.50301000  0.60736900  1
  F  F17  1  0.89353500  0.49074200  0.61644500  1
  F  F18  1  0.37098000  0.98277900  0.10920600  1
  F  F19  1  0.87702200  0.95606800  0.11411200  1
  F  F20  1  0.12297800  0.04393200  0.88588800  1
  F  F21  1  0.62902000  0.01722100  0.89079400  1
  F  F22  1  0.10646500  0.50925800  0.38355500  1
  F  F23  1  0.62187600  0.49699000  0.39263100  1
  F  F24  1  0.12902000  0.98277900  0.60920600  1
  F  F25  1  0.62297800  0.95606800  0.61411200  1
  F  F26  1  0.12187600  0.50301000  0.10736900  1
  F  F27  1  0.60646500  0.49074200  0.11644500  1
