# generated using pymatgen
data_Na5Li3V8O24
_symmetry_space_group_name_H-M   'P 1'
_cell_length_a   7.03230943
_cell_length_b   7.03230943
_cell_length_c   11.82896017
_cell_angle_alpha   75.68210378
_cell_angle_beta   75.68210378
_cell_angle_gamma   83.09624047
_symmetry_Int_Tables_number   1
_chemical_formula_structural   Na5Li3V8O24
_chemical_formula_sum   'Na5 Li3 V8 O24'
_cell_volume   548.11844034
_cell_formula_units_Z   1
loop_
 _symmetry_equiv_pos_site_id
 _symmetry_equiv_pos_as_xyz
  1  'x, y, z'
loop_
 _atom_site_type_symbol
 _atom_site_label
 _atom_site_symmetry_multiplicity
 _atom_site_fract_x
 _atom_site_fract_y
 _atom_site_fract_z
 _atom_site_occupancy
  Na  Na0  1  0.28727900  0.71272100  0.50000000  1
  Na  Na1  1  0.71173400  0.28929900  0.25125300  1
  Na  Na2  1  0.28990800  0.71009200  0.00000000  1
  Na  Na3  1  0.91677200  0.08322800  0.00000000  1
  Na  Na4  1  0.71070100  0.28826600  0.74874700  1
  Li  Li5  1  0.91255500  0.08744500  0.50000000  1
  Li  Li6  1  0.08836800  0.91136100  0.25167500  1
  Li  Li7  1  0.08863900  0.91163200  0.74832500  1
  V  V8  1  0.80332300  0.61918600  0.49896600  1
  V  V9  1  0.61615500  0.80188700  0.25193500  1
  V  V10  1  0.80280800  0.62201000  0.99830600  1
  V  V11  1  0.61931300  0.80326700  0.74864600  1
  V  V12  1  0.38081400  0.19667700  0.50103400  1
  V  V13  1  0.19673300  0.38068700  0.25135400  1
  V  V14  1  0.37799000  0.19719200  0.00169400  1
  V  V15  1  0.19811300  0.38384500  0.74806500  1
  O  O16  1  0.97642100  0.78648200  0.44928800  1
  O  O17  1  0.78239800  0.97463600  0.20878400  1
  O  O18  1  0.98244000  0.78122400  0.94366300  1
  O  O19  1  0.90406200  0.38938700  0.52577100  1
  O  O20  1  0.64577000  0.64120900  0.39384200  1
  O  O21  1  0.78625300  0.97648900  0.69932300  1
  O  O22  1  0.38633700  0.90271300  0.27831800  1
  O  O23  1  0.64470500  0.65399100  0.14104300  1
  O  O24  1  0.90507000  0.39528900  0.03114300  1
  O  O25  1  0.64767700  0.64291000  0.89170700  1
  O  O26  1  0.35879100  0.35423000  0.60615800  1
  O  O27  1  0.38939000  0.90412900  0.77570600  1
  O  O28  1  0.61061300  0.09593800  0.47422900  1
  O  O29  1  0.64469900  0.64796500  0.64205100  1
  O  O30  1  0.35203500  0.35530100  0.35794900  1
  O  O31  1  0.09587100  0.61061000  0.22429400  1
  O  O32  1  0.35709000  0.35232300  0.10829300  1
  O  O33  1  0.60471100  0.09493000  0.96885700  1
  O  O34  1  0.21351800  0.02357900  0.55071200  1
  O  O35  1  0.34600900  0.35529500  0.85895700  1
  O  O36  1  0.09728700  0.61366300  0.72168200  1
  O  O37  1  0.02351100  0.21374700  0.30067700  1
  O  O38  1  0.21877600  0.01756000  0.05633700  1
  O  O39  1  0.02536400  0.21760200  0.79121600  1
