# generated using pymatgen
data_Li4V3Ni3(SbO8)2
_symmetry_space_group_name_H-M   'P 1'
_cell_length_a   5.95716519
_cell_length_b   5.95716519
_cell_length_c   9.69085064
_cell_angle_alpha   89.51174492
_cell_angle_beta   89.51174492
_cell_angle_gamma   59.67717926
_symmetry_Int_Tables_number   1
_chemical_formula_structural   Li4V3Ni3(SbO8)2
_chemical_formula_sum   'Li4 V3 Ni3 Sb2 O16'
_cell_volume   296.84443306
_cell_formula_units_Z   1
loop_
 _symmetry_equiv_pos_site_id
 _symmetry_equiv_pos_as_xyz
  1  'x, y, z'
loop_
 _atom_site_type_symbol
 _atom_site_label
 _atom_site_symmetry_multiplicity
 _atom_site_fract_x
 _atom_site_fract_y
 _atom_site_fract_z
 _atom_site_occupancy
  Li  Li0  1  0.66159600  0.66159600  0.10780800  1
  Li  Li1  1  0.99743200  0.99743200  0.01584900  1
  Li  Li2  1  0.00115800  0.00115800  0.50268600  1
  Li  Li3  1  0.33102200  0.33102200  0.59399800  1
  V  V4  1  0.34328900  0.83233000  0.78323600  1
  V  V5  1  0.83233000  0.34328900  0.78323600  1
  V  V6  1  0.17448000  0.17448000  0.27951400  1
  Ni  Ni7  1  0.82987000  0.82987000  0.78923400  1
  Ni  Ni8  1  0.17145300  0.65795500  0.28802100  1
  Ni  Ni9  1  0.65795500  0.17145300  0.28802100  1
  Sb  Sb10  1  0.67078300  0.67078300  0.50451200  1
  Sb  Sb11  1  0.34047200  0.34047200  0.01602000  1
  O  O12  1  0.33634100  0.83458300  0.40718100  1
  O  O13  1  0.51843900  0.51843900  0.66039800  1
  O  O14  1  0.64870800  0.64870800  0.89173400  1
  O  O15  1  0.00984700  0.00984700  0.69569100  1
  O  O16  1  0.01248300  0.01248300  0.20193000  1
  O  O17  1  0.83458300  0.33634100  0.40718100  1
  O  O18  1  0.50899700  0.95941300  0.65827500  1
  O  O19  1  0.95941300  0.50899700  0.65827500  1
  O  O20  1  0.16735400  0.16735400  0.89809200  1
  O  O21  1  0.83801000  0.83801000  0.41141300  1
  O  O22  1  0.03196300  0.47278500  0.14784500  1
  O  O23  1  0.47278500  0.03196300  0.14784500  1
  O  O24  1  0.31469500  0.31469500  0.39417800  1
  O  O25  1  0.16948100  0.67284600  0.90353800  1
  O  O26  1  0.48184300  0.48184300  0.15178400  1
  O  O27  1  0.67284600  0.16948100  0.90353800  1
