# generated using pymatgen
data_LiBi2BO5
_symmetry_space_group_name_H-M   'P 1'
_cell_length_a   5.77945600
_cell_length_b   7.11817500
_cell_length_c   11.30195200
_cell_angle_alpha   90.00000000
_cell_angle_beta   90.00000000
_cell_angle_gamma   90.00000000
_symmetry_Int_Tables_number   1
_chemical_formula_structural   LiBi2BO5
_chemical_formula_sum   'Li4 Bi8 B4 O20'
_cell_volume   464.95302878
_cell_formula_units_Z   4
loop_
 _symmetry_equiv_pos_site_id
 _symmetry_equiv_pos_as_xyz
  1  'x, y, z'
loop_
 _atom_site_type_symbol
 _atom_site_label
 _atom_site_symmetry_multiplicity
 _atom_site_fract_x
 _atom_site_fract_y
 _atom_site_fract_z
 _atom_site_occupancy
  Li  Li0  1  0.22354400  0.75000000  0.34593700  1
  Li  Li1  1  0.27645600  0.25000000  0.84593700  1
  Li  Li2  1  0.72354400  0.75000000  0.15406300  1
  Li  Li3  1  0.77645600  0.25000000  0.65406300  1
  Bi  Bi4  1  0.22918700  0.99251900  0.10110000  1
  Bi  Bi5  1  0.22918700  0.50748100  0.10110000  1
  Bi  Bi6  1  0.27081300  0.00748100  0.60110000  1
  Bi  Bi7  1  0.27081300  0.49251900  0.60110000  1
  Bi  Bi8  1  0.72918700  0.99251900  0.39890000  1
  Bi  Bi9  1  0.72918700  0.50748100  0.39890000  1
  Bi  Bi10  1  0.77081300  0.00748100  0.89890000  1
  Bi  Bi11  1  0.77081300  0.49251900  0.89890000  1
  B  B12  1  0.18983300  0.25000000  0.35765300  1
  B  B13  1  0.31016700  0.75000000  0.85765300  1
  B  B14  1  0.68983300  0.25000000  0.14234700  1
  B  B15  1  0.81016700  0.75000000  0.64234700  1
  O  O16  1  0.03636200  0.25000000  0.96755400  1
  O  O17  1  0.12610200  0.07922700  0.41306700  1
  O  O18  1  0.12610200  0.42077300  0.41306700  1
  O  O19  1  0.18472500  0.75000000  0.75547400  1
  O  O20  1  0.11006400  0.25000000  0.69258600  1
  O  O21  1  0.38993600  0.75000000  0.19258600  1
  O  O22  1  0.31527500  0.25000000  0.25547400  1
  O  O23  1  0.37389800  0.57922700  0.91306700  1
  O  O24  1  0.37389800  0.92077300  0.91306700  1
  O  O25  1  0.46363800  0.75000000  0.46755400  1
  O  O26  1  0.53636200  0.25000000  0.53244600  1
  O  O27  1  0.62610200  0.07922700  0.08693300  1
  O  O28  1  0.62610200  0.42077300  0.08693300  1
  O  O29  1  0.68472500  0.75000000  0.74452600  1
  O  O30  1  0.61006400  0.25000000  0.80741400  1
  O  O31  1  0.88993600  0.75000000  0.30741400  1
  O  O32  1  0.81527500  0.25000000  0.24452600  1
  O  O33  1  0.87389800  0.92077300  0.58693300  1
  O  O34  1  0.87389800  0.57922700  0.58693300  1
  O  O35  1  0.96363800  0.75000000  0.03244600  1
