# generated using pymatgen
data_Na5LiNi2P2(CO7)2
_symmetry_space_group_name_H-M   'P 1'
_cell_length_a   8.47343052
_cell_length_b   8.47351537
_cell_length_c   9.98539328
_cell_angle_alpha   72.98482598
_cell_angle_beta   107.01508650
_cell_angle_gamma   75.28625214
_symmetry_Int_Tables_number   1
_chemical_formula_structural   Na5LiNi2P2(CO7)2
_chemical_formula_sum   'Na10 Li2 Ni4 P4 C4 O28'
_cell_volume   608.66088151
_cell_formula_units_Z   2
loop_
 _symmetry_equiv_pos_site_id
 _symmetry_equiv_pos_as_xyz
  1  'x, y, z'
loop_
 _atom_site_type_symbol
 _atom_site_label
 _atom_site_symmetry_multiplicity
 _atom_site_fract_x
 _atom_site_fract_y
 _atom_site_fract_z
 _atom_site_occupancy
  Na  Na0  1  0.94653000  0.80345200  0.91580400  1
  Na  Na1  1  0.44653700  0.30343900  0.91578000  1
  Na  Na2  1  0.26636200  0.74250600  0.26700000  1
  Na  Na3  1  0.76642600  0.24244700  0.26697000  1
  Na  Na4  1  0.50745700  0.98358000  0.26699300  1
  Na  Na5  1  0.00751300  0.48357100  0.26696700  1
  Na  Na6  1  0.98691900  0.52058800  0.72840000  1
  Na  Na7  1  0.48688700  0.02066900  0.72839500  1
  Na  Na8  1  0.22933800  0.76308500  0.72838500  1
  Na  Na9  1  0.72941700  0.26305500  0.72838600  1
  Li  Li10  1  0.56395200  0.68602000  0.10460800  1
  Li  Li11  1  0.06392400  0.18603600  0.10455200  1
  Ni  Ni12  1  0.93536500  0.81458400  0.34335200  1
  Ni  Ni13  1  0.43539400  0.31469500  0.34325900  1
  Ni  Ni14  1  0.05823500  0.19171000  0.65105800  1
  Ni  Ni15  1  0.55839900  0.69185600  0.65111300  1
  P  P16  1  0.68983800  0.56015600  0.41132100  1
  P  P17  1  0.18981100  0.06019400  0.41129200  1
  P  P18  1  0.80327200  0.94675500  0.58239900  1
  P  P19  1  0.30330000  0.44677700  0.58240500  1
  C  C20  1  0.76291500  0.98704900  0.06054500  1
  C  C21  1  0.26290100  0.48706100  0.06049400  1
  C  C22  1  0.74620900  0.50376900  0.94635800  1
  C  C23  1  0.24623100  0.00378300  0.94638200  1
  O  O24  1  0.35814500  0.89175600  0.08203300  1
  O  O25  1  0.85817700  0.39177200  0.08198500  1
  O  O26  1  0.90561000  0.84436000  0.11865500  1
  O  O27  1  0.40559900  0.34437900  0.11859300  1
  O  O28  1  0.71007100  0.03987400  0.15585200  1
  O  O29  1  0.21010300  0.53988500  0.15582600  1
  O  O30  1  0.65821300  0.09176500  0.42991200  1
  O  O31  1  0.15820000  0.59178100  0.42992000  1
  O  O32  1  0.55940700  0.69055100  0.44828900  1
  O  O33  1  0.05941900  0.19062300  0.44825500  1
  O  O34  1  0.93569400  0.81421200  0.54800200  1
  O  O35  1  0.43570700  0.31434400  0.54789800  1
  O  O36  1  0.83611900  0.41391500  0.56316800  1
  O  O37  1  0.33606900  0.91395000  0.56318400  1
  O  O38  1  0.76925200  0.48077300  0.82816900  1
  O  O39  1  0.26928000  0.98079100  0.82819600  1
  O  O40  1  0.61133300  0.63865800  0.92324400  1
  O  O41  1  0.11135100  0.13869200  0.92326100  1
  O  O42  1  0.17727700  0.57266800  0.91527100  1
  O  O43  1  0.67733300  0.07263800  0.91531000  1
  O  O44  1  0.58376900  0.48305100  0.30859600  1
  O  O45  1  0.08367900  0.98314100  0.30857000  1
  O  O46  1  0.76691300  0.66623900  0.30858300  1
  O  O47  1  0.26685100  0.16625500  0.30851200  1
  O  O48  1  0.72287000  0.84147300  0.68216600  1
  O  O49  1  0.22299300  0.34127900  0.68216100  1
  O  O50  1  0.90875700  0.02711900  0.68208200  1
  O  O51  1  0.40868100  0.52721500  0.68208700  1
