# generated using pymatgen
data_Li24Mn7Cr5O36
_symmetry_space_group_name_H-M   'P 1'
_cell_length_a   5.00763300
_cell_length_b   9.74763217
_cell_length_c   13.28117156
_cell_angle_alpha   97.02125604
_cell_angle_beta   100.37961513
_cell_angle_gamma   94.65586592
_symmetry_Int_Tables_number   1
_chemical_formula_structural   Li24Mn7Cr5O36
_chemical_formula_sum   'Li24 Mn7 Cr5 O36'
_cell_volume   629.35148283
_cell_formula_units_Z   1
loop_
 _symmetry_equiv_pos_site_id
 _symmetry_equiv_pos_as_xyz
  1  'x, y, z'
loop_
 _atom_site_type_symbol
 _atom_site_label
 _atom_site_symmetry_multiplicity
 _atom_site_fract_x
 _atom_site_fract_y
 _atom_site_fract_z
 _atom_site_occupancy
  Li  Li0  1  0.16697300  0.00010300  0.83322100  1
  Li  Li1  1  0.05037300  0.00026200  0.61289900  1
  Li  Li2  1  0.99926000  0.74954100  0.25043500  1
  Li  Li3  1  0.33072900  0.75042400  0.91773700  1
  Li  Li4  1  0.04767700  0.50051100  0.11340000  1
  Li  Li5  1  0.38102800  0.50016500  0.77813200  1
  Li  Li6  1  0.16594000  0.50035500  0.33394400  1
  Li  Li7  1  0.49934300  0.50012500  0.00019600  1
  Li  Li8  1  0.28846400  0.50023100  0.55345500  1
  Li  Li9  1  0.33129800  0.25058800  0.41763800  1
  Li  Li10  1  0.49832100  0.00001300  0.50019500  1
  Li  Li11  1  0.27938100  0.99839900  0.05255100  1
  Li  Li12  1  0.61836700  0.99858100  0.71808900  1
  Li  Li13  1  0.37976700  0.99822200  0.27973000  1
  Li  Li14  1  0.72190900  0.00218000  0.94832600  1
  Li  Li15  1  0.66260100  0.75018700  0.58414800  1
  Li  Li16  1  0.71373400  0.49879500  0.44460000  1
  Li  Li17  1  0.83148100  0.50042500  0.66661400  1
  Li  Li18  1  0.62405600  0.50327800  0.22309100  1
  Li  Li19  1  0.95111800  0.49816800  0.88650200  1
  Li  Li20  1  0.66836500  0.24911000  0.08284400  1
  Li  Li21  1  0.83250500  0.99950600  0.16673100  1
  Li  Li22  1  0.99749200  0.25045500  0.75050900  1
  Li  Li23  1  0.95555900  0.00142400  0.38684100  1
  Mn  Mn24  1  0.10831500  0.24845800  0.97151200  1
  Mn  Mn25  1  0.22367900  0.75025200  0.69395300  1
  Mn  Mn26  1  0.55814800  0.25174600  0.86203900  1
  Mn  Mn27  1  0.44415600  0.74968500  0.13897600  1
  Mn  Mn28  1  0.55330200  0.74847900  0.35953100  1
  Mn  Mn29  1  0.89043300  0.24993100  0.52720100  1
  Mn  Mn30  1  0.89237100  0.75117900  0.02892500  1
  Cr  Cr31  1  0.10324700  0.75054900  0.47300900  1
  Cr  Cr32  1  0.22574800  0.24784700  0.19205000  1
  Cr  Cr33  1  0.43896800  0.24991600  0.64041100  1
  Cr  Cr34  1  0.77275300  0.74978700  0.80746300  1
  Cr  Cr35  1  0.77425400  0.25199500  0.30716700  1
  O  O36  1  0.00362600  0.86304300  0.93154300  1
  O  O37  1  0.07003400  0.63645400  0.78449300  1
  O  O38  1  0.00455200  0.36352100  0.43110600  1
  O  O39  1  0.14590700  0.36082000  0.64208900  1
  O  O40  1  0.26332900  0.36372300  0.88152500  1
  O  O41  1  0.33626700  0.86374600  0.59752100  1
  O  O42  1  0.06895200  0.13552900  0.28346400  1
  O  O43  1  0.18620200  0.13700000  0.52227200  1
  O  O44  1  0.40325900  0.13655100  0.95201100  1
  O  O45  1  0.14316800  0.86116900  0.14347100  1
  O  O46  1  0.26490100  0.86390500  0.38210300  1
  O  O47  1  0.47996300  0.86126600  0.80886900  1
  O  O48  1  0.33944100  0.13911400  0.73839300  1
  O  O49  1  0.19136700  0.63817700  0.02412200  1
  O  O50  1  0.40310800  0.63666800  0.45070700  1
  O  O51  1  0.51858600  0.63667700  0.68865700  1
  O  O52  1  0.33168400  0.63807100  0.23741200  1
  O  O53  1  0.67241300  0.63873900  0.90500200  1
  O  O54  1  0.32774600  0.36064400  0.09492700  1
  O  O55  1  0.66940500  0.36339700  0.76463700  1
  O  O56  1  0.48281400  0.36220800  0.30928700  1
  O  O57  1  0.59857100  0.36347700  0.54892000  1
  O  O58  1  0.80904600  0.36140000  0.97700000  1
  O  O59  1  0.66540900  0.86141000  0.26111900  1
  O  O60  1  0.51638900  0.13730100  0.19028600  1
  O  O61  1  0.73689100  0.13636100  0.61782600  1
  O  O62  1  0.85718500  0.13874600  0.85652800  1
  O  O63  1  0.59695300  0.86325300  0.04829800  1
  O  O64  1  0.81058900  0.86137800  0.47396400  1
  O  O65  1  0.93196500  0.86385900  0.71560300  1
  O  O66  1  0.67079900  0.13907200  0.40401800  1
  O  O67  1  0.73623900  0.63589600  0.11849000  1
  O  O68  1  0.85049600  0.63681300  0.35517000  1
  O  O69  1  0.00452700  0.63928100  0.57057700  1
  O  O70  1  0.93176600  0.36395600  0.21609700  1
  O  O71  1  0.99533700  0.13650000  0.06843100  1
