# generated using pymatgen
data_Li2Mn3(BO3)3
_symmetry_space_group_name_H-M   'P 1'
_cell_length_a   9.04742227
_cell_length_b   7.88814187
_cell_length_c   6.14158364
_cell_angle_alpha   80.53392752
_cell_angle_beta   77.29847357
_cell_angle_gamma   114.05749644
_symmetry_Int_Tables_number   1
_chemical_formula_structural   Li2Mn3(BO3)3
_chemical_formula_sum   'Li4 Mn6 B6 O18'
_cell_volume   374.22017712
_cell_formula_units_Z   2
loop_
 _symmetry_equiv_pos_site_id
 _symmetry_equiv_pos_as_xyz
  1  'x, y, z'
loop_
 _atom_site_type_symbol
 _atom_site_label
 _atom_site_symmetry_multiplicity
 _atom_site_fract_x
 _atom_site_fract_y
 _atom_site_fract_z
 _atom_site_occupancy
  Li  Li0  1  0.05361133  0.16832118  0.49535449  1
  Li  Li1  1  0.71235501  0.49085108  0.16900906  1
  Li  Li2  1  0.27589561  0.48384993  0.82451118  1
  Li  Li3  1  0.39630907  0.84475348  0.83786740  1
  Mn  Mn4  1  0.26747546  0.12250102  0.11801871  1
  Mn  Mn5  1  0.40219322  0.19269038  0.55505901  1
  Mn  Mn6  1  0.06355885  0.53342239  0.21626418  1
  Mn  Mn7  1  0.92545026  0.47765569  0.76410672  1
  Mn  Mn8  1  0.61509560  0.82127622  0.42823332  1
  Mn  Mn9  1  0.73647779  0.85942545  0.88645517  1
  B  B10  1  0.94255923  0.14192578  0.09597626  1
  B  B11  1  0.73275139  0.20430020  0.55578174  1
  B  B12  1  0.39961262  0.53010384  0.20687499  1
  B  B13  1  0.59333862  0.47296166  0.79803270  1
  B  B14  1  0.26875129  0.79733886  0.47260408  1
  B  B15  1  0.06270082  0.86152697  0.87047846  1
  O  O16  1  0.01489310  0.06794370  0.23045275  1
  O  O17  1  0.77513115  0.02048894  0.09718513  1
  O  O18  1  0.64587616  0.00754133  0.67398228  1
  O  O19  1  0.31143678  0.33850422  0.34191251  1
  O  O20  1  0.66385516  0.29852104  0.44111481  1
  O  O21  1  0.32513444  0.61452821  0.08482254  1
  O  O22  1  0.90574997  0.30728113  0.54499305  1
  O  O23  1  0.57399247  0.63682620  0.18512799  1
  O  O24  1  0.96870166  0.65961814  0.98097908  1
  O  O25  1  0.02056222  0.33871949  0.97790985  1
  O  O26  1  0.42650013  0.36010317  0.80142269  1
  O  O27  1  0.10291101  0.68164261  0.47743212  1
  O  O28  1  0.67539502  0.38878344  0.90210310  1
  O  O29  1  0.35180403  0.71870340  0.58431141  1
  O  O30  1  0.66806572  0.67448129  0.69996151  1
  O  O31  1  0.34266609  0.99249465  0.36006676  1
  O  O32  1  0.23190941  0.95531418  0.86700897  1
  O  O33  1  0.99064631  0.95980075  0.76740999  1
