# generated using pymatgen
data_Li4Mn3Cr5O16
_symmetry_space_group_name_H-M   'P 1'
_cell_length_a   5.85193139
_cell_length_b   5.85193139
_cell_length_c   9.45069666
_cell_angle_alpha   89.54695882
_cell_angle_beta   89.54695882
_cell_angle_gamma   59.93629886
_symmetry_Int_Tables_number   1
_chemical_formula_structural   Li4Mn3Cr5O16
_chemical_formula_sum   'Li4 Mn3 Cr5 O16'
_cell_volume   280.08876402
_cell_formula_units_Z   1
loop_
 _symmetry_equiv_pos_site_id
 _symmetry_equiv_pos_as_xyz
  1  'x, y, z'
loop_
 _atom_site_type_symbol
 _atom_site_label
 _atom_site_symmetry_multiplicity
 _atom_site_fract_x
 _atom_site_fract_y
 _atom_site_fract_z
 _atom_site_occupancy
  Li  Li0  1  0.67024800  0.67024800  0.89234400  1
  Li  Li1  1  0.99681100  0.99681100  0.99874900  1
  Li  Li2  1  0.99929500  0.99929500  0.49611400  1
  Li  Li3  1  0.33573100  0.33573100  0.39154600  1
  Mn  Mn4  1  0.82986000  0.82986000  0.21527800  1
  Mn  Mn5  1  0.66195900  0.16929100  0.71443400  1
  Mn  Mn6  1  0.16929100  0.66195900  0.71443400  1
  Cr  Cr7  1  0.83029400  0.33765200  0.21115900  1
  Cr  Cr8  1  0.66325600  0.66325600  0.48660300  1
  Cr  Cr9  1  0.33765200  0.83029400  0.21115900  1
  Cr  Cr10  1  0.16885100  0.16885100  0.71390800  1
  Cr  Cr11  1  0.33170800  0.33170800  0.98613800  1
  O  O12  1  0.83248000  0.32259600  0.60050300  1
  O  O13  1  0.52070800  0.52070800  0.33870200  1
  O  O14  1  0.67265400  0.67265400  0.10390500  1
  O  O15  1  0.99503700  0.99503700  0.31001400  1
  O  O16  1  0.99512000  0.99512000  0.81153000  1
  O  O17  1  0.32259600  0.83248000  0.60050300  1
  O  O18  1  0.96161900  0.52174200  0.33829900  1
  O  O19  1  0.52174200  0.96161900  0.33829900  1
  O  O20  1  0.16434100  0.16434100  0.10321400  1
  O  O21  1  0.83768000  0.83768000  0.60382500  1
  O  O22  1  0.48650200  0.03946500  0.83933000  1
  O  O23  1  0.03946500  0.48650200  0.83933000  1
  O  O24  1  0.33890700  0.33890700  0.60769700  1
  O  O25  1  0.67208100  0.16263100  0.10191900  1
  O  O26  1  0.48188900  0.48188900  0.83703500  1
  O  O27  1  0.16263100  0.67208100  0.10191900  1
