# generated using pymatgen
data_LiCrF4
_symmetry_space_group_name_H-M   'P 1'
_cell_length_a   9.37029051
_cell_length_b   9.37029051
_cell_length_c   7.36324990
_cell_angle_alpha   81.04837695
_cell_angle_beta   81.04837695
_cell_angle_gamma   66.11227135
_symmetry_Int_Tables_number   1
_chemical_formula_structural   LiCrF4
_chemical_formula_sum   'Li8 Cr8 F32'
_cell_volume   580.85464653
_cell_formula_units_Z   8
loop_
 _symmetry_equiv_pos_site_id
 _symmetry_equiv_pos_as_xyz
  1  'x, y, z'
loop_
 _atom_site_type_symbol
 _atom_site_label
 _atom_site_symmetry_multiplicity
 _atom_site_fract_x
 _atom_site_fract_y
 _atom_site_fract_z
 _atom_site_occupancy
  Li  Li0  1  0.88871300  0.48684700  0.89156300  1
  Li  Li1  1  0.48684700  0.88871300  0.39156300  1
  Li  Li2  1  0.61112800  0.61800900  0.15883700  1
  Li  Li3  1  0.61800900  0.61112800  0.65883700  1
  Li  Li4  1  0.38199100  0.38887200  0.34116300  1
  Li  Li5  1  0.38887200  0.38199100  0.84116300  1
  Li  Li6  1  0.51315300  0.11128700  0.60843700  1
  Li  Li7  1  0.11128700  0.51315300  0.10843700  1
  Cr  Cr8  1  0.82100900  0.82889800  0.08955100  1
  Cr  Cr9  1  0.82889800  0.82100900  0.58955100  1
  Cr  Cr10  1  0.74432600  0.25074800  0.99820900  1
  Cr  Cr11  1  0.74925200  0.25567400  0.50179100  1
  Cr  Cr12  1  0.25074800  0.74432600  0.49820900  1
  Cr  Cr13  1  0.25567400  0.74925200  0.00179100  1
  Cr  Cr14  1  0.17110200  0.17899100  0.41044900  1
  Cr  Cr15  1  0.17899100  0.17110200  0.91044900  1
  F  F16  1  0.88949900  0.76290400  0.33759400  1
  F  F17  1  0.96824500  0.16776200  0.39875800  1
  F  F18  1  0.89577000  0.60927300  0.68003200  1
  F  F19  1  0.82422300  0.61848300  0.08720500  1
  F  F20  1  0.76290400  0.88949900  0.83759400  1
  F  F21  1  0.95072500  0.26864800  0.00239000  1
  F  F22  1  0.74732200  0.45497900  0.50621000  1
  F  F23  1  0.60927300  0.89577000  0.18003200  1
  F  F24  1  0.61848300  0.82422300  0.58720500  1
  F  F25  1  0.83223800  0.03175500  0.10124200  1
  F  F26  1  0.81505400  0.18494600  0.75000000  1
  F  F27  1  0.67259500  0.32740500  0.25000000  1
  F  F28  1  0.73135200  0.04927500  0.49761000  1
  F  F29  1  0.68102100  0.47144900  0.90147600  1
  F  F30  1  0.47144900  0.68102100  0.40147600  1
  F  F31  1  0.45497900  0.74732200  0.00621000  1
  F  F32  1  0.26864800  0.95072500  0.50239000  1
  F  F33  1  0.54502100  0.25267800  0.99379000  1
  F  F34  1  0.52855100  0.31897900  0.59852400  1
  F  F35  1  0.31897900  0.52855100  0.09852400  1
  F  F36  1  0.32740500  0.67259500  0.75000000  1
  F  F37  1  0.18494600  0.81505400  0.25000000  1
  F  F38  1  0.16776200  0.96824500  0.89875800  1
  F  F39  1  0.38151700  0.17577700  0.41279500  1
  F  F40  1  0.39072700  0.10423000  0.81996800  1
  F  F41  1  0.25267800  0.54502100  0.49379000  1
  F  F42  1  0.04927500  0.73135200  0.99761000  1
  F  F43  1  0.23709600  0.11050100  0.16240600  1
  F  F44  1  0.17577700  0.38151700  0.91279500  1
  F  F45  1  0.10423000  0.39072700  0.31996800  1
  F  F46  1  0.03175500  0.83223800  0.60124200  1
  F  F47  1  0.11050100  0.23709600  0.66240600  1
