# generated using pymatgen
data_Li7Fe7P6(O8F)3
_symmetry_space_group_name_H-M   'P 1'
_cell_length_a   13.60921173
_cell_length_b   13.60921173
_cell_length_c   6.41020400
_cell_angle_alpha   90.00000000
_cell_angle_beta   90.00000000
_cell_angle_gamma   119.99999866
_symmetry_Int_Tables_number   1
_chemical_formula_structural   Li7Fe7P6(O8F)3
_chemical_formula_sum   'Li14 Fe14 P12 O48 F6'
_cell_volume   1028.17829049
_cell_formula_units_Z   2
loop_
 _symmetry_equiv_pos_site_id
 _symmetry_equiv_pos_as_xyz
  1  'x, y, z'
loop_
 _atom_site_type_symbol
 _atom_site_label
 _atom_site_symmetry_multiplicity
 _atom_site_fract_x
 _atom_site_fract_y
 _atom_site_fract_z
 _atom_site_occupancy
  Li  Li0  1  0.25885800  0.18187000  0.75474300  1
  Li  Li1  1  0.18187000  0.92301300  0.25474300  1
  Li  Li2  1  0.50473700  0.37691900  0.25622600  1
  Li  Li3  1  0.12781800  0.50473700  0.75622600  1
  Li  Li4  1  0.07698700  0.25885800  0.25474300  1
  Li  Li5  1  0.37691900  0.87218200  0.75622600  1
  Li  Li6  1  0.33333300  0.66666700  0.92936500  1
  Li  Li7  1  0.66666700  0.33333300  0.42936500  1
  Li  Li8  1  0.62308100  0.12781800  0.25622600  1
  Li  Li9  1  0.92301300  0.74114200  0.75474300  1
  Li  Li10  1  0.87218200  0.49526300  0.25622600  1
  Li  Li11  1  0.49526300  0.62308100  0.75622600  1
  Li  Li12  1  0.81813000  0.07698700  0.75474300  1
  Li  Li13  1  0.74114200  0.81813000  0.25474300  1
  Fe  Fe14  1  0.12663800  0.70305200  0.50822100  1
  Fe  Fe15  1  0.12189400  0.70371200  0.01301900  1
  Fe  Fe16  1  0.42358600  0.12663800  0.00822100  1
  Fe  Fe17  1  0.41818100  0.12189400  0.51301900  1
  Fe  Fe18  1  0.70371200  0.58181900  0.51301900  1
  Fe  Fe19  1  0.70305200  0.57641400  0.00822100  1
  Fe  Fe20  1  0.00000000  0.00000000  0.50586900  1
  Fe  Fe21  1  0.00000000  0.00000000  0.00586900  1
  Fe  Fe22  1  0.29694800  0.42358600  0.50822100  1
  Fe  Fe23  1  0.29628800  0.41818100  0.01301900  1
  Fe  Fe24  1  0.58181900  0.87810600  0.01301900  1
  Fe  Fe25  1  0.57641400  0.87336200  0.50822100  1
  Fe  Fe26  1  0.87810600  0.29628800  0.51301900  1
  Fe  Fe27  1  0.87336200  0.29694800  0.00822100  1
  P  P28  1  0.24668100  0.18285200  0.25547000  1
  P  P29  1  0.18285200  0.93617100  0.75547000  1
  P  P30  1  0.48690400  0.37026600  0.76020000  1
  P  P31  1  0.11663800  0.48690400  0.26020000  1
  P  P32  1  0.37026600  0.88336200  0.26020000  1
  P  P33  1  0.06382900  0.24668100  0.75547000  1
  P  P34  1  0.93617100  0.75331900  0.25547000  1
  P  P35  1  0.62973400  0.11663800  0.76020000  1
  P  P36  1  0.88336200  0.51309600  0.76020000  1
  P  P37  1  0.51309600  0.62973400  0.26020000  1
  P  P38  1  0.81714800  0.06382900  0.25547000  1
  P  P39  1  0.75331900  0.81714800  0.75547000  1
  O  O40  1  0.11234300  0.12269700  0.25245000  1
  O  O41  1  0.12269700  0.01035400  0.75245000  1
  O  O42  1  0.00784500  0.69186700  0.25831500  1
  O  O43  1  0.37083600  0.36944600  0.75388800  1
  O  O44  1  0.28334900  0.14574200  0.05765500  1
  O  O45  1  0.14574200  0.86239300  0.55765500  1
  O  O46  1  0.28139300  0.14430700  0.45407800  1
  O  O47  1  0.14430700  0.86291400  0.95407800  1
  O  O48  1  0.31597900  0.00784500  0.75831500  1
  O  O49  1  0.00139100  0.37083600  0.25388800  1
  O  O50  1  0.55060700  0.43182800  0.96112100  1
  O  O51  1  0.11877900  0.55060700  0.46112100  1
  O  O52  1  0.45962900  0.24494700  0.76264000  1
  O  O53  1  0.13000900  0.55664100  0.06016500  1
  O  O54  1  0.55664100  0.42663200  0.56016500  1
  O  O55  1  0.69186700  0.68402100  0.75831500  1
  O  O56  1  0.24494700  0.78531800  0.26264000  1
  O  O57  1  0.36944600  0.99860900  0.25388800  1
  O  O58  1  0.98964600  0.11234300  0.75245000  1
  O  O59  1  0.21468200  0.45962900  0.26264000  1
  O  O60  1  0.13708600  0.28139300  0.95407800  1
  O  O61  1  0.43182800  0.88122100  0.46112100  1
  O  O62  1  0.13760700  0.28334900  0.55765500  1
  O  O63  1  0.57336800  0.13000900  0.56016500  1
  O  O64  1  0.42663200  0.86999100  0.06016500  1
  O  O65  1  0.86239300  0.71665100  0.05765500  1
  O  O66  1  0.56817200  0.11877900  0.96112100  1
  O  O67  1  0.86291400  0.71860700  0.45407800  1
  O  O68  1  0.78531800  0.54037100  0.76264000  1
  O  O69  1  0.01035400  0.88765700  0.25245000  1
  O  O70  1  0.63055400  0.00139100  0.75388800  1
  O  O71  1  0.75505300  0.21468200  0.76264000  1
  O  O72  1  0.30813300  0.31597900  0.25831500  1
  O  O73  1  0.44335900  0.57336800  0.06016500  1
  O  O74  1  0.86999100  0.44335900  0.56016500  1
  O  O75  1  0.54037100  0.75505300  0.26264000  1
  O  O76  1  0.88122100  0.44939300  0.96112100  1
  O  O77  1  0.44939300  0.56817200  0.46112100  1
  O  O78  1  0.99860900  0.62916400  0.75388800  1
  O  O79  1  0.68402100  0.99215500  0.25831500  1
  O  O80  1  0.85569300  0.13708600  0.45407800  1
  O  O81  1  0.71860700  0.85569300  0.95407800  1
  O  O82  1  0.85425800  0.13760700  0.05765500  1
  O  O83  1  0.71665100  0.85425800  0.55765500  1
  O  O84  1  0.62916400  0.63055400  0.25388800  1
  O  O85  1  0.99215500  0.30813300  0.75831500  1
  O  O86  1  0.87730300  0.98964600  0.25245000  1
  O  O87  1  0.88765700  0.87730300  0.75245000  1
  F  F88  1  0.24418400  0.72565300  0.77441200  1
  F  F89  1  0.51853200  0.24418400  0.27441200  1
  F  F90  1  0.72565300  0.48146800  0.27441200  1
  F  F91  1  0.27434700  0.51853200  0.77441200  1
  F  F92  1  0.48146800  0.75581600  0.77441200  1
  F  F93  1  0.75581600  0.27434700  0.27441200  1
