# generated using pymatgen
data_Li3VFe3O8
_symmetry_space_group_name_H-M   'P 1'
_cell_length_a   5.89905991
_cell_length_b   5.90788465
_cell_length_c   9.62183124
_cell_angle_alpha   89.93489843
_cell_angle_beta   89.94542771
_cell_angle_gamma   59.99358112
_symmetry_Int_Tables_number   1
_chemical_formula_structural   Li3VFe3O8
_chemical_formula_sum   'Li6 V2 Fe6 O16'
_cell_volume   290.38539152
_cell_formula_units_Z   2
loop_
 _symmetry_equiv_pos_site_id
 _symmetry_equiv_pos_as_xyz
  1  'x, y, z'
loop_
 _atom_site_type_symbol
 _atom_site_label
 _atom_site_symmetry_multiplicity
 _atom_site_fract_x
 _atom_site_fract_y
 _atom_site_fract_z
 _atom_site_occupancy
  Li  Li0  1  0.82503900  0.82512600  0.94322200  1
  Li  Li1  1  0.35064500  0.82405800  0.94279000  1
  Li  Li2  1  0.82388600  0.35097300  0.94288900  1
  Li  Li3  1  0.17501000  0.64965600  0.44301600  1
  Li  Li4  1  0.64959500  0.17491900  0.44287800  1
  Li  Li5  1  0.17554900  0.17502600  0.44251700  1
  V  V6  1  0.66694900  0.66576900  0.49061200  1
  V  V7  1  0.33241700  0.33173200  0.99058900  1
  Fe  Fe8  1  0.83269300  0.83138500  0.21253600  1
  Fe  Fe9  1  0.33792400  0.82832300  0.21326700  1
  Fe  Fe10  1  0.82913700  0.33762000  0.21372500  1
  Fe  Fe11  1  0.16723700  0.66314300  0.71278000  1
  Fe  Fe12  1  0.66277900  0.16683700  0.71327700  1
  Fe  Fe13  1  0.16931300  0.16827000  0.71347000  1
  O  O14  1  0.00122000  0.00076100  0.32137300  1
  O  O15  1  0.83330700  0.83312400  0.59117200  1
  O  O16  1  0.52098700  0.96005100  0.34813900  1
  O  O17  1  0.96173500  0.52014500  0.34768300  1
  O  O18  1  0.33772200  0.83073300  0.59095600  1
  O  O19  1  0.66740000  0.66619400  0.09648100  1
  O  O20  1  0.51847900  0.51869700  0.34680300  1
  O  O21  1  0.82955300  0.33882700  0.59056500  1
  O  O22  1  0.16757700  0.66714500  0.09093200  1
  O  O23  1  0.47889100  0.47985400  0.84875600  1
  O  O24  1  0.03702000  0.48262200  0.84734100  1
  O  O25  1  0.00038000  0.00075300  0.82103900  1
  O  O26  1  0.33314600  0.33299300  0.59637200  1
  O  O27  1  0.66443900  0.16850400  0.09200700  1
  O  O28  1  0.48132700  0.03769800  0.84687800  1
  O  O29  1  0.17160400  0.16905300  0.08954000  1
