# generated using pymatgen
data_LiMnVP2(HO5)2
_symmetry_space_group_name_H-M   'P 1'
_cell_length_a   5.33892570
_cell_length_b   10.45463693
_cell_length_c   7.41128867
_cell_angle_alpha   110.39988763
_cell_angle_beta   111.86956257
_cell_angle_gamma   84.95893855
_symmetry_Int_Tables_number   1
_chemical_formula_structural   LiMnVP2(HO5)2
_chemical_formula_sum   'Li2 Mn2 V2 P4 H4 O20'
_cell_volume   359.40573375
_cell_formula_units_Z   2
loop_
 _symmetry_equiv_pos_site_id
 _symmetry_equiv_pos_as_xyz
  1  'x, y, z'
loop_
 _atom_site_type_symbol
 _atom_site_label
 _atom_site_symmetry_multiplicity
 _atom_site_fract_x
 _atom_site_fract_y
 _atom_site_fract_z
 _atom_site_occupancy
  Li  Li0  1  0.58978865  0.03256267  0.18464004  1
  Li  Li1  1  0.41021135  0.46743733  0.31535996  1
  Mn  Mn2  1  0.99452558  0.99739998  0.99154473  1
  Mn  Mn3  1  0.00547442  0.50260002  0.50845527  1
  V  V4  1  0.00000000  0.75000000  0.25000000  1
  V  V5  1  0.00000000  0.25000000  0.75000000  1
  P  P6  1  0.64591121  0.27567427  0.05093925  1
  P  P7  1  0.64659761  0.77718542  0.54530287  1
  P  P8  1  0.35408879  0.22432573  0.44906075  1
  P  P9  1  0.35340239  0.72281458  0.95469713  1
  H  H10  1  0.93863324  0.49606842  0.15360762  1
  H  H11  1  0.96661981  0.99274094  0.65285461  1
  H  H12  1  0.06136676  0.00393158  0.34639238  1
  H  H13  1  0.03338019  0.50725906  0.84714539  1
  O  O14  1  0.95155888  0.93563826  0.21272161  1
  O  O15  1  0.65698163  0.68571778  0.04332911  1
  O  O16  1  0.81497796  0.83479837  0.45408870  1
  O  O17  1  0.97337173  0.42924632  0.71422135  1
  O  O18  1  0.74677117  0.35971991  0.28552229  1
  O  O19  1  0.75396128  0.84900595  0.78085084  1
  O  O20  1  0.65790861  0.62283260  0.48735955  1
  O  O21  1  0.34209139  0.87716740  0.01264045  1
  O  O22  1  0.65504365  0.18307114  0.52706537  1
  O  O23  1  0.81010100  0.32624474  0.95040892  1
  O  O24  1  0.18502204  0.66520163  0.04591130  1
  O  O25  1  0.34301837  0.81428222  0.45667089  1
  O  O26  1  0.66392522  0.12357424  0.01525090  1
  O  O27  1  0.33607478  0.37642576  0.48474910  1
  O  O28  1  0.25322883  0.14028009  0.21447771  1
  O  O29  1  0.24603872  0.65099405  0.71914916  1
  O  O30  1  0.04844112  0.56436174  0.28727839  1
  O  O31  1  0.18989900  0.17375526  0.54959108  1
  O  O32  1  0.34495635  0.31692886  0.97293463  1
  O  O33  1  0.02662827  0.07075368  0.78577865  1
