# generated using pymatgen
data_Li7(CoO3)2
_symmetry_space_group_name_H-M   'P 1'
_cell_length_a   5.25413561
_cell_length_b   5.61358100
_cell_length_c   6.97965181
_cell_angle_alpha   110.31137175
_cell_angle_beta   87.73755565
_cell_angle_gamma   118.59350690
_symmetry_Int_Tables_number   1
_chemical_formula_structural   Li7(CoO3)2
_chemical_formula_sum   'Li7 Co2 O6'
_cell_volume   167.49760544
_cell_formula_units_Z   1
loop_
 _symmetry_equiv_pos_site_id
 _symmetry_equiv_pos_as_xyz
  1  'x, y, z'
loop_
 _atom_site_type_symbol
 _atom_site_label
 _atom_site_symmetry_multiplicity
 _atom_site_fract_x
 _atom_site_fract_y
 _atom_site_fract_z
 _atom_site_occupancy
  Li  Li0  1  0.77572679  0.35309136  0.91624963  1
  Li  Li1  1  0.34637590  0.72597288  0.82258433  1
  Li  Li2  1  0.29520612  0.21910767  0.72218067  1
  Li  Li3  1  0.74400890  0.51276600  0.60770689  1
  Li  Li4  1  0.59248629  0.22505147  0.22117107  1
  Li  Li5  1  0.08242071  0.72619691  0.31320661  1
  Li  Li6  1  0.42466292  0.50390141  0.11809394  1
  Co  Co7  1  0.72715225  0.00477297  0.50156175  1
  Co  Co8  1  0.95818809  0.98979464  0.99716522  1
  O  O9  1  0.35348988  0.08827664  0.95173843  1
  O  O10  1  0.63336966  0.62607181  0.88588648  1
  O  O11  1  0.00758439  0.34460520  0.67628228  1
  O  O12  1  0.44155647  0.07175524  0.44998931  1
  O  O13  1  0.70771281  0.65927423  0.39364850  1
  O  O14  1  0.00116180  0.36055957  0.13226489  1
