# generated using pymatgen
data_Li2FeBO4
_symmetry_space_group_name_H-M   'P 1'
_cell_length_a   4.90988000
_cell_length_b   9.65538900
_cell_length_c   13.15132600
_cell_angle_alpha   90.00000000
_cell_angle_beta   90.00000000
_cell_angle_gamma   90.00000000
_symmetry_Int_Tables_number   1
_chemical_formula_structural   Li2FeBO4
_chemical_formula_sum   'Li16 Fe8 B8 O32'
_cell_volume   623.46229908
_cell_formula_units_Z   8
loop_
 _symmetry_equiv_pos_site_id
 _symmetry_equiv_pos_as_xyz
  1  'x, y, z'
loop_
 _atom_site_type_symbol
 _atom_site_label
 _atom_site_symmetry_multiplicity
 _atom_site_fract_x
 _atom_site_fract_y
 _atom_site_fract_z
 _atom_site_occupancy
  Li  Li0  1  0.01385500  0.00322200  0.55402400  1
  Li  Li1  1  0.53132500  0.97866500  0.94272400  1
  Li  Li2  1  0.43386900  0.21573200  0.30706600  1
  Li  Li3  1  0.90727400  0.21146500  0.20143400  1
  Li  Li4  1  0.90727400  0.28853500  0.70143400  1
  Li  Li5  1  0.43386900  0.28426800  0.80706600  1
  Li  Li6  1  0.53132500  0.52133500  0.44272400  1
  Li  Li7  1  0.01385500  0.49677800  0.05402400  1
  Li  Li8  1  0.46867500  0.47866500  0.94272400  1
  Li  Li9  1  0.98614500  0.50322200  0.55402400  1
  Li  Li10  1  0.56613100  0.71573200  0.30706600  1
  Li  Li11  1  0.09272600  0.71146500  0.20143400  1
  Li  Li12  1  0.09272600  0.78853500  0.70143400  1
  Li  Li13  1  0.56613100  0.78426800  0.80706600  1
  Li  Li14  1  0.46867500  0.02133500  0.44272400  1
  Li  Li15  1  0.98614500  0.99677800  0.05402400  1
  Fe  Fe16  1  0.01754100  0.02762500  0.81293100  1
  Fe  Fe17  1  0.48880700  0.21914400  0.06331800  1
  Fe  Fe18  1  0.48880700  0.28085600  0.56331800  1
  Fe  Fe19  1  0.01754100  0.47237500  0.31293100  1
  Fe  Fe20  1  0.98245900  0.52762500  0.81293100  1
  Fe  Fe21  1  0.51119300  0.71914400  0.06331800  1
  Fe  Fe22  1  0.51119300  0.78085600  0.56331800  1
  Fe  Fe23  1  0.98245900  0.97237500  0.31293100  1
  B  B24  1  0.51893300  0.02789300  0.69212200  1
  B  B25  1  0.98125500  0.22022200  0.43215700  1
  B  B26  1  0.98125500  0.27977800  0.93215700  1
  B  B27  1  0.51893300  0.47210700  0.19212200  1
  B  B28  1  0.48106700  0.52789300  0.69212200  1
  B  B29  1  0.01874500  0.72022200  0.43215700  1
  B  B30  1  0.01874500  0.77977800  0.93215700  1
  B  B31  1  0.48106700  0.97210700  0.19212200  1
  O  O32  1  0.35590100  0.01762600  0.29049500  1
  O  O33  1  0.77929900  0.01000100  0.19203200  1
  O  O34  1  0.82662700  0.09062200  0.41449700  1
  O  O35  1  0.35356600  0.04335100  0.10313100  1
  O  O36  1  0.56778400  0.18174900  0.68466500  1
  O  O37  1  0.06481600  0.22052400  0.83120400  1
  O  O38  1  0.23323000  0.17737100  0.48845400  1
  O  O39  1  0.81699500  0.17482400  0.98982800  1
  O  O40  1  0.81699500  0.32517600  0.48982800  1
  O  O41  1  0.23323000  0.32262900  0.98845400  1
  O  O42  1  0.06481600  0.27947600  0.33120400  1
  O  O43  1  0.56778400  0.31825100  0.18466500  1
  O  O44  1  0.35356600  0.45664900  0.60313100  1
  O  O45  1  0.82662700  0.40937800  0.91449700  1
  O  O46  1  0.77929900  0.48999900  0.69203200  1
  O  O47  1  0.35590100  0.48237400  0.79049500  1
  O  O48  1  0.64409900  0.51762600  0.29049500  1
  O  O49  1  0.22070100  0.51000100  0.19203200  1
  O  O50  1  0.17337300  0.59062200  0.41449700  1
  O  O51  1  0.64643400  0.54335100  0.10313100  1
  O  O52  1  0.43221600  0.68174900  0.68466500  1
  O  O53  1  0.93518400  0.72052400  0.83120400  1
  O  O54  1  0.76677000  0.67737100  0.48845400  1
  O  O55  1  0.18300500  0.67482400  0.98982800  1
  O  O56  1  0.18300500  0.82517600  0.48982800  1
  O  O57  1  0.76677000  0.82262900  0.98845400  1
  O  O58  1  0.93518400  0.77947600  0.33120400  1
  O  O59  1  0.43221600  0.81825100  0.18466500  1
  O  O60  1  0.64643400  0.95664900  0.60313100  1
  O  O61  1  0.17337300  0.90937800  0.91449700  1
  O  O62  1  0.22070100  0.98999900  0.69203200  1
  O  O63  1  0.64409900  0.98237400  0.79049500  1
