# generated using pymatgen
data_LiVSiO4
_symmetry_space_group_name_H-M   'P 1'
_cell_length_a   10.24638816
_cell_length_b   10.24638816
_cell_length_c   17.51428406
_cell_angle_alpha   71.62818862
_cell_angle_beta   71.62818862
_cell_angle_gamma   58.69529899
_symmetry_Int_Tables_number   1
_chemical_formula_structural   LiVSiO4
_chemical_formula_sum   'Li16 V16 Si16 O64'
_cell_volume   1464.79524839
_cell_formula_units_Z   16
loop_
 _symmetry_equiv_pos_site_id
 _symmetry_equiv_pos_as_xyz
  1  'x, y, z'
loop_
 _atom_site_type_symbol
 _atom_site_label
 _atom_site_symmetry_multiplicity
 _atom_site_fract_x
 _atom_site_fract_y
 _atom_site_fract_z
 _atom_site_occupancy
  Li  Li0  1  0.37312700  0.43748900  0.18447200  1
  Li  Li1  1  0.93524400  0.36628000  0.68731300  1
  Li  Li2  1  0.18206800  0.26433800  0.43605600  1
  Li  Li3  1  0.61799800  0.76523900  0.43670800  1
  Li  Li4  1  0.26298800  0.68438900  0.93602300  1
  Li  Li5  1  0.76485000  0.11791600  0.93724600  1
  Li  Li6  1  0.88109600  0.49595700  0.18796700  1
  Li  Li7  1  0.36628000  0.93524400  0.18731300  1
  Li  Li8  1  0.99444500  0.87295000  0.68788300  1
  Li  Li9  1  0.43748900  0.37312700  0.68447200  1
  Li  Li10  1  0.68438900  0.26298800  0.43602300  1
  Li  Li11  1  0.11791600  0.76485000  0.43724600  1
  Li  Li12  1  0.26433800  0.18206800  0.93605600  1
  Li  Li13  1  0.76523900  0.61799800  0.93670800  1
  Li  Li14  1  0.87295000  0.99444500  0.18788300  1
  Li  Li15  1  0.49595700  0.88109600  0.68796700  1
  V  V16  1  0.50152700  0.12770000  0.31255900  1
  V  V17  1  0.62559200  0.56185900  0.81359700  1
  V  V18  1  0.13064500  0.00096100  0.81328500  1
  V  V19  1  0.23591800  0.38099500  0.06257800  1
  V  V20  1  0.73840100  0.81210200  0.06448100  1
  V  V21  1  0.87920600  0.23937800  0.56314000  1
  V  V22  1  0.31247300  0.73818100  0.56364700  1
  V  V23  1  0.56185900  0.62559200  0.31359700  1
  V  V24  1  0.00096100  0.13064500  0.31328500  1
  V  V25  1  0.62979600  0.06338100  0.81292300  1
  V  V26  1  0.12770000  0.50152700  0.81255900  1
  V  V27  1  0.23937800  0.87920600  0.06314000  1
  V  V28  1  0.73818100  0.31247300  0.06364700  1
  V  V29  1  0.38099500  0.23591800  0.56257800  1
  V  V30  1  0.81210200  0.73840100  0.56448100  1
  V  V31  1  0.06338100  0.62979600  0.31292300  1
  Si  Si32  1  0.06110800  0.68923400  0.12216900  1
  Si  Si33  1  0.55909700  0.12678300  0.12396700  1
  Si  Si34  1  0.18704400  0.05912200  0.62294500  1
  Si  Si35  1  0.62653400  0.56315100  0.62440700  1
  Si  Si36  1  0.87481100  0.43934800  0.37381700  1
  Si  Si37  1  0.31441400  0.93672400  0.37478600  1
  Si  Si38  1  0.43663600  0.37335400  0.87374400  1
  Si  Si39  1  0.93845800  0.81450900  0.87540400  1
  Si  Si40  1  0.05912200  0.18704400  0.12294500  1
  Si  Si41  1  0.56315100  0.62653400  0.12440700  1
  Si  Si42  1  0.68923400  0.06110800  0.62216900  1
  Si  Si43  1  0.12678300  0.55909700  0.62396700  1
  Si  Si44  1  0.37335400  0.43663600  0.37374400  1
  Si  Si45  1  0.81450900  0.93845800  0.37540400  1
  Si  Si46  1  0.43934800  0.87481100  0.87381700  1
  Si  Si47  1  0.93672400  0.31441400  0.87478600  1
  O  O48  1  0.63538900  0.96924100  0.38888700  1
  O  O49  1  0.67675100  0.17521000  0.04580000  1
  O  O50  1  0.14043100  0.58193800  0.20359200  1
  O  O51  1  0.62999500  0.08349400  0.20616600  1
  O  O52  1  0.17781600  0.60033800  0.04478000  1
  O  O53  1  0.38374600  0.27547800  0.13496400  1
  O  O54  1  0.01239300  0.46667200  0.38366600  1
  O  O55  1  0.96841500  0.13474100  0.88873600  1
  O  O56  1  0.67709200  0.67697100  0.54432300  1
  O  O57  1  0.58532600  0.64293500  0.70304700  1
  O  O58  1  0.07876000  0.12790900  0.70738300  1
  O  O59  1  0.88900900  0.70142500  0.13583900  1
  O  O60  1  0.09833200  0.18105500  0.54639600  1
  O  O61  1  0.31428500  0.10420700  0.35715100  1
  O  O62  1  0.77261400  0.38624100  0.63614200  1
  O  O63  1  0.55085900  0.97956900  0.11072100  1
  O  O64  1  0.45983000  0.51457100  0.88301600  1
  O  O65  1  0.72146800  0.60973900  0.35848100  1
  O  O66  1  0.19952000  0.88760500  0.63486800  1
  O  O67  1  0.39415700  0.81766100  0.45454300  1
  O  O68  1  0.10663100  0.81398200  0.85765900  1
  O  O69  1  0.92830800  0.35345700  0.29573800  1
  O  O70  1  0.42156400  0.84697700  0.29657000  1
  O  O71  1  0.83299200  0.32096200  0.45428100  1
  O  O72  1  0.04760100  0.35961900  0.10663600  1
  O  O73  1  0.47920400  0.55438100  0.61199300  1
  O  O74  1  0.60986300  0.22321500  0.85904100  1
  O  O75  1  0.81912200  0.89380000  0.95523900  1
  O  O76  1  0.13474100  0.96841500  0.38873600  1
  O  O77  1  0.67697100  0.67709200  0.04432300  1
  O  O78  1  0.64293500  0.58532600  0.20304700  1
  O  O79  1  0.12790900  0.07876000  0.20738300  1
  O  O80  1  0.85246100  0.92288500  0.79585500  1
  O  O81  1  0.35086900  0.42146100  0.79663100  1
  O  O82  1  0.86230000  0.04856000  0.60514900  1
  O  O83  1  0.32048400  0.33015600  0.95490000  1
  O  O84  1  0.18105500  0.09833200  0.04639600  1
  O  O85  1  0.38624100  0.77261400  0.13614200  1
  O  O86  1  0.96924100  0.63538900  0.88888700  1
  O  O87  1  0.51457100  0.45983000  0.38301600  1
  O  O88  1  0.17521000  0.67675100  0.54580000  1
  O  O89  1  0.58193800  0.14043100  0.70359200  1
  O  O90  1  0.08349400  0.62999500  0.70616600  1
  O  O91  1  0.88760500  0.19952000  0.13486800  1
  O  O92  1  0.81398200  0.10663100  0.35765900  1
  O  O93  1  0.60033800  0.17781600  0.54478000  1
  O  O94  1  0.55438100  0.47920400  0.11199300  1
  O  O95  1  0.27547800  0.38374600  0.63496400  1
  O  O96  1  0.46667200  0.01239300  0.88366600  1
  O  O97  1  0.22321500  0.60986300  0.35904100  1
  O  O98  1  0.70142500  0.88900900  0.63583900  1
  O  O99  1  0.89380000  0.81912200  0.45523900  1
  O  O100  1  0.10420700  0.31428500  0.85715100  1
  O  O101  1  0.92288500  0.85246100  0.29585500  1
  O  O102  1  0.42146100  0.35086900  0.29663100  1
  O  O103  1  0.04856000  0.86230000  0.10514900  1
  O  O104  1  0.33015600  0.32048400  0.45490000  1
  O  O105  1  0.97956900  0.55085900  0.61072100  1
  O  O106  1  0.60973900  0.72146800  0.85848100  1
  O  O107  1  0.81766100  0.39415700  0.95454300  1
  O  O108  1  0.35345700  0.92830800  0.79573800  1
  O  O109  1  0.84697700  0.42156400  0.79657000  1
  O  O110  1  0.32096200  0.83299200  0.95428100  1
  O  O111  1  0.35961900  0.04760100  0.60663600  1
