# generated using pymatgen
data_Li4Mn3V2Sb3O16
_symmetry_space_group_name_H-M   'P 1'
_cell_length_a   6.15179500
_cell_length_b   6.24524902
_cell_length_c   9.81734254
_cell_angle_alpha   92.53576941
_cell_angle_beta   89.95938018
_cell_angle_gamma   119.16157199
_symmetry_Int_Tables_number   1
_chemical_formula_structural   Li4Mn3V2Sb3O16
_chemical_formula_sum   'Li4 Mn3 V2 Sb3 O16'
_cell_volume   328.95323630
_cell_formula_units_Z   1
loop_
 _symmetry_equiv_pos_site_id
 _symmetry_equiv_pos_as_xyz
  1  'x, y, z'
loop_
 _atom_site_type_symbol
 _atom_site_label
 _atom_site_symmetry_multiplicity
 _atom_site_fract_x
 _atom_site_fract_y
 _atom_site_fract_z
 _atom_site_occupancy
  Li  Li0  1  0.65837500  0.32273800  0.88564300  1
  Li  Li1  1  0.99151900  0.97680000  0.98533900  1
  Li  Li2  1  0.99978600  0.99508600  0.50291700  1
  Li  Li3  1  0.31671200  0.63802600  0.40378900  1
  Mn  Mn4  1  0.82951700  0.66134400  0.21371200  1
  Mn  Mn5  1  0.16807300  0.82951400  0.71028800  1
  Mn  Mn6  1  0.66499800  0.83937100  0.70952700  1
  V  V7  1  0.68104900  0.35605100  0.49919700  1
  V  V8  1  0.34671700  0.70181700  0.97320000  1
  Sb  Sb9  1  0.33739900  0.16819500  0.21631300  1
  Sb  Sb10  1  0.83166700  0.16661900  0.21445700  1
  Sb  Sb11  1  0.17179000  0.34452000  0.71629200  1
  O  O12  1  0.34206600  0.19402000  0.59701200  1
  O  O13  1  0.51981700  0.03690500  0.33650500  1
  O  O14  1  0.65264200  0.30642400  0.10222100  1
  O  O15  1  0.01050000  0.01794100  0.31761100  1
  O  O16  1  0.02319000  0.01657600  0.80325600  1
  O  O17  1  0.85545100  0.18380000  0.59872900  1
  O  O18  1  0.50182800  0.46329400  0.34109400  1
  O  O19  1  0.95667000  0.45771200  0.34164200  1
  O  O20  1  0.15572500  0.30889300  0.10640700  1
  O  O21  1  0.85409000  0.67691100  0.58857900  1
  O  O22  1  0.03010200  0.50212400  0.84640500  1
  O  O23  1  0.46678700  0.51162600  0.85083600  1
  O  O24  1  0.31350000  0.65171600  0.60674700  1
  O  O25  1  0.17877700  0.85694100  0.09891000  1
  O  O26  1  0.45453500  0.95294500  0.84505600  1
  O  O27  1  0.68642600  0.86209600  0.09615700  1
