# generated using pymatgen
data_Li3Ti2(PO4)3
_symmetry_space_group_name_H-M   'P 1'
_cell_length_a   8.46079300
_cell_length_b   8.46620486
_cell_length_c   9.12672386
_cell_angle_alpha   62.59731439
_cell_angle_beta   62.39181052
_cell_angle_gamma   60.07407318
_symmetry_Int_Tables_number   1
_chemical_formula_structural   Li3Ti2(PO4)3
_chemical_formula_sum   'Li6 Ti4 P6 O24'
_cell_volume   479.22689868
_cell_formula_units_Z   2
loop_
 _symmetry_equiv_pos_site_id
 _symmetry_equiv_pos_as_xyz
  1  'x, y, z'
loop_
 _atom_site_type_symbol
 _atom_site_label
 _atom_site_symmetry_multiplicity
 _atom_site_fract_x
 _atom_site_fract_y
 _atom_site_fract_z
 _atom_site_occupancy
  Li  Li0  1  0.24264100  0.57434100  0.35025800  1
  Li  Li1  1  0.43238200  0.16160100  0.65021300  1
  Li  Li2  1  0.07747200  0.73133300  0.86606300  1
  Li  Li3  1  0.92810100  0.26796000  0.13544800  1
  Li  Li4  1  0.66964300  0.92236700  0.13829800  1
  Li  Li5  1  0.73014600  0.33310900  0.86072600  1
  Ti  Ti6  1  0.14222300  0.13840400  0.56310600  1
  Ti  Ti7  1  0.34320100  0.34605800  0.95865900  1
  Ti  Ti8  1  0.64177200  0.65794200  0.04054200  1
  Ti  Ti9  1  0.84810900  0.85365500  0.43589600  1
  P  P10  1  0.04428400  0.45749500  0.74889900  1
  P  P11  1  0.54489400  0.25171000  0.24909200  1
  P  P12  1  0.25072700  0.95919300  0.24995000  1
  P  P13  1  0.74839100  0.04328800  0.75097300  1
  P  P14  1  0.45982300  0.74597700  0.75198600  1
  P  P15  1  0.95690000  0.53954200  0.24843100  1
  O  O16  1  0.20145200  0.15679000  0.10960400  1
  O  O17  1  0.15083200  0.53357700  0.09849600  1
  O  O18  1  0.01641500  0.60797200  0.57591100  1
  O  O19  1  0.14857800  0.25687000  0.72281300  1
  O  O20  1  0.12739400  0.85488900  0.27810100  1
  O  O21  1  0.53927100  0.20638900  0.10355600  1
  O  O22  1  0.39255900  0.20586200  0.42390200  1
  O  O23  1  0.16562200  0.49646900  0.80485000  1
  O  O24  1  0.50296200  0.46742700  0.19937800  1
  O  O25  1  0.20208100  0.99480100  0.42051400  1
  O  O26  1  0.74932500  0.12987400  0.26521900  1
  O  O27  1  0.46594500  0.83705000  0.19425600  1
  O  O28  1  0.53221200  0.17060500  0.80381700  1
  O  O29  1  0.25617400  0.86849000  0.73325100  1
  O  O30  1  0.79159200  0.00955200  0.58355300  1
  O  O31  1  0.49506400  0.53076900  0.80795500  1
  O  O32  1  0.82902500  0.50897100  0.19095100  1
  O  O33  1  0.61124900  0.80203800  0.57947400  1
  O  O34  1  0.47947100  0.78825200  0.89105200  1
  O  O35  1  0.87083000  0.14330500  0.73311800  1
  O  O36  1  0.85630200  0.74433400  0.26779500  1
  O  O37  1  0.99674500  0.38953500  0.41614200  1
  O  O38  1  0.84932100  0.45738000  0.89713700  1
  O  O39  1  0.79187100  0.85082400  0.90061400  1
