# generated using pymatgen
data_Li3MnPCO7
_symmetry_space_group_name_H-M   'P 1'
_cell_length_a   6.47969000
_cell_length_b   9.56726100
_cell_length_c   9.83471826
_cell_angle_alpha   63.82728462
_cell_angle_beta   90.00000000
_cell_angle_gamma   90.00000000
_symmetry_Int_Tables_number   1
_chemical_formula_structural   Li3MnPCO7
_chemical_formula_sum   'Li12 Mn4 P4 C4 O28'
_cell_volume   547.17090431
_cell_formula_units_Z   4
loop_
 _symmetry_equiv_pos_site_id
 _symmetry_equiv_pos_as_xyz
  1  'x, y, z'
loop_
 _atom_site_type_symbol
 _atom_site_label
 _atom_site_symmetry_multiplicity
 _atom_site_fract_x
 _atom_site_fract_y
 _atom_site_fract_z
 _atom_site_occupancy
  Li  Li0  1  0.24691400  0.10296000  0.31202500  1
  Li  Li1  1  0.25308600  0.10296000  0.81202500  1
  Li  Li2  1  0.01132500  0.28531200  0.49020100  1
  Li  Li3  1  0.48867500  0.28531200  0.99020100  1
  Li  Li4  1  0.75462600  0.35342600  0.68359600  1
  Li  Li5  1  0.74537400  0.35342600  0.18359600  1
  Li  Li6  1  0.24537400  0.64657400  0.31640400  1
  Li  Li7  1  0.25462600  0.64657400  0.81640400  1
  Li  Li8  1  0.98867500  0.71468800  0.50979900  1
  Li  Li9  1  0.51132500  0.71468800  0.00979900  1
  Li  Li10  1  0.75308600  0.89704000  0.68797500  1
  Li  Li11  1  0.74691400  0.89704000  0.18797500  1
  Mn  Mn12  1  0.49917300  0.26916900  0.48499200  1
  Mn  Mn13  1  0.00082700  0.26916900  0.98499200  1
  Mn  Mn14  1  0.50082700  0.73083100  0.51500800  1
  Mn  Mn15  1  0.99917300  0.73083100  0.01500800  1
  P  P16  1  0.24743800  0.40712600  0.68631700  1
  P  P17  1  0.25256200  0.40712600  0.18631700  1
  P  P18  1  0.75256200  0.59287400  0.31368300  1
  P  P19  1  0.74743800  0.59287400  0.81368300  1
  C  C20  1  0.74882000  0.04236700  0.37676500  1
  C  C21  1  0.75118000  0.04236700  0.87676500  1
  C  C22  1  0.25118000  0.95763300  0.62323500  1
  C  C23  1  0.24882000  0.95763300  0.12323500  1
  O  O24  1  0.73770500  0.06992200  0.73711300  1
  O  O25  1  0.76229500  0.06992200  0.23711300  1
  O  O26  1  0.25362900  0.10323200  0.51592100  1
  O  O27  1  0.74048400  0.15380500  0.41772300  1
  O  O28  1  0.24637100  0.10323200  0.01592100  1
  O  O29  1  0.75951600  0.15380500  0.91772300  1
  O  O30  1  0.05958800  0.30729100  0.68642100  1
  O  O31  1  0.44022900  0.31230400  0.67987600  1
  O  O32  1  0.05977100  0.31230400  0.17987600  1
  O  O33  1  0.44041200  0.30729100  0.18642100  1
  O  O34  1  0.75542700  0.42651900  0.44681300  1
  O  O35  1  0.25039600  0.42234400  0.33849100  1
  O  O36  1  0.74457300  0.42651900  0.94681300  1
  O  O37  1  0.24960400  0.42234400  0.83849100  1
  O  O38  1  0.74960400  0.57765600  0.66150900  1
  O  O39  1  0.24457300  0.57348100  0.55318700  1
  O  O40  1  0.75039600  0.57765600  0.16150900  1
  O  O41  1  0.25542700  0.57348100  0.05318700  1
  O  O42  1  0.94041200  0.69270900  0.31357900  1
  O  O43  1  0.55977100  0.68769600  0.32012400  1
  O  O44  1  0.94022900  0.68769600  0.82012400  1
  O  O45  1  0.55958800  0.69270900  0.81357900  1
  O  O46  1  0.25951600  0.84619500  0.58227700  1
  O  O47  1  0.74637100  0.89676800  0.48407900  1
  O  O48  1  0.24048400  0.84619500  0.08227700  1
  O  O49  1  0.75362900  0.89676800  0.98407900  1
  O  O50  1  0.26229500  0.93007800  0.26288700  1
  O  O51  1  0.23770500  0.93007800  0.76288700  1
