# generated using pymatgen
data_Li3VPCO7
_symmetry_space_group_name_H-M   'P 1'
_cell_length_a   6.51258800
_cell_length_b   9.66912000
_cell_length_c   9.77918424
_cell_angle_alpha   62.30373878
_cell_angle_beta   90.00000000
_cell_angle_gamma   90.00000000
_symmetry_Int_Tables_number   1
_chemical_formula_structural   Li3VPCO7
_chemical_formula_sum   'Li12 V4 P4 C4 O28'
_cell_volume   545.24846469
_cell_formula_units_Z   4
loop_
 _symmetry_equiv_pos_site_id
 _symmetry_equiv_pos_as_xyz
  1  'x, y, z'
loop_
 _atom_site_type_symbol
 _atom_site_label
 _atom_site_symmetry_multiplicity
 _atom_site_fract_x
 _atom_site_fract_y
 _atom_site_fract_z
 _atom_site_occupancy
  Li  Li0  1  0.26619000  0.68804300  0.88902600  1
  Li  Li1  1  0.23381000  0.18804300  0.88902600  1
  Li  Li2  1  0.02197600  0.51908900  0.71128100  1
  Li  Li3  1  0.47802400  0.01908900  0.71128100  1
  Li  Li4  1  0.75138500  0.32139500  0.62588800  1
  Li  Li5  1  0.74861500  0.82139500  0.62588800  1
  Li  Li6  1  0.24861500  0.67860500  0.37411200  1
  Li  Li7  1  0.25138500  0.17860500  0.37411200  1
  Li  Li8  1  0.97802400  0.48091100  0.28871900  1
  Li  Li9  1  0.52197600  0.98091100  0.28871900  1
  Li  Li10  1  0.73381000  0.31195700  0.11097400  1
  Li  Li11  1  0.76619000  0.81195700  0.11097400  1
  V  V12  1  0.52193700  0.48621900  0.75153200  1
  V  V13  1  0.97806300  0.98621900  0.75153200  1
  V  V14  1  0.47806300  0.51378100  0.24846800  1
  V  V15  1  0.02193700  0.01378100  0.24846800  1
  P  P16  1  0.23796100  0.31305800  0.59198900  1
  P  P17  1  0.26203900  0.81305800  0.59198900  1
  P  P18  1  0.76203900  0.68694200  0.40801100  1
  P  P19  1  0.73796100  0.18694200  0.40801100  1
  C  C20  1  0.75630400  0.64307200  0.94623600  1
  C  C21  1  0.74369600  0.14307200  0.94623600  1
  C  C22  1  0.24369600  0.35692800  0.05376400  1
  C  C23  1  0.25630400  0.85692800  0.05376400  1
  O  O24  1  0.69865500  0.28235500  0.92642700  1
  O  O25  1  0.80134500  0.78235500  0.92642700  1
  O  O26  1  0.27548000  0.46772400  0.91204800  1
  O  O27  1  0.74470300  0.61108700  0.83306000  1
  O  O28  1  0.22452000  0.96772400  0.91204800  1
  O  O29  1  0.75529700  0.11108700  0.83306000  1
  O  O30  1  0.05670800  0.32885700  0.68535600  1
  O  O31  1  0.43454400  0.31312400  0.68248400  1
  O  O32  1  0.06545600  0.81312400  0.68248400  1
  O  O33  1  0.44329200  0.82885700  0.68535600  1
  O  O34  1  0.75814100  0.55673600  0.57810900  1
  O  O35  1  0.27706400  0.65099200  0.59289700  1
  O  O36  1  0.74185900  0.05673600  0.57810900  1
  O  O37  1  0.22293600  0.15099200  0.59289700  1
  O  O38  1  0.72293600  0.34900800  0.40710300  1
  O  O39  1  0.24185900  0.44326400  0.42189100  1
  O  O40  1  0.77706400  0.84900800  0.40710300  1
  O  O41  1  0.25814100  0.94326400  0.42189100  1
  O  O42  1  0.94329200  0.67114300  0.31464400  1
  O  O43  1  0.56545600  0.68687600  0.31751600  1
  O  O44  1  0.93454400  0.18687600  0.31751600  1
  O  O45  1  0.55670800  0.17114300  0.31464400  1
  O  O46  1  0.25529700  0.38891300  0.16694000  1
  O  O47  1  0.72452000  0.53227600  0.08795200  1
  O  O48  1  0.24470300  0.88891300  0.16694000  1
  O  O49  1  0.77548000  0.03227600  0.08795200  1
  O  O50  1  0.30134500  0.71764500  0.07357300  1
  O  O51  1  0.19865500  0.21764500  0.07357300  1
