# generated using pymatgen
data_Li2VCrP2(HO5)2
_symmetry_space_group_name_H-M   'P 1'
_cell_length_a   5.42699000
_cell_length_b   7.45249162
_cell_length_c   14.45848000
_cell_angle_alpha   95.19234619
_cell_angle_beta   92.57668752
_cell_angle_gamma   110.49002299
_symmetry_Int_Tables_number   1
_chemical_formula_structural   Li2VCrP2(HO5)2
_chemical_formula_sum   'Li6 V3 Cr3 P6 H6 O30'
_cell_volume   543.67942612
_cell_formula_units_Z   3
loop_
 _symmetry_equiv_pos_site_id
 _symmetry_equiv_pos_as_xyz
  1  'x, y, z'
loop_
 _atom_site_type_symbol
 _atom_site_label
 _atom_site_symmetry_multiplicity
 _atom_site_fract_x
 _atom_site_fract_y
 _atom_site_fract_z
 _atom_site_occupancy
  Li  Li0  1  0.26567700  0.86829900  0.69220100  1
  Li  Li1  1  0.06742200  0.46462100  0.64133400  1
  Li  Li2  1  0.40054100  0.79752800  0.97396900  1
  Li  Li3  1  0.59953200  0.20252700  0.02512000  1
  Li  Li4  1  0.93238500  0.53498600  0.35904900  1
  Li  Li5  1  0.73431300  0.13211100  0.30834600  1
  V  V6  1  0.66568400  0.66648600  0.16691800  1
  V  V7  1  0.99987000  0.99994900  0.50007500  1
  V  V8  1  0.00001100  0.99980100  0.99946100  1
  Cr  Cr9  1  0.33435000  0.33339300  0.83298800  1
  Cr  Cr10  1  0.33383400  0.33365700  0.33349600  1
  Cr  Cr11  1  0.66624900  0.66656100  0.66693800  1
  P  P12  1  0.02049600  0.38035000  0.14855200  1
  P  P13  1  0.31311800  0.95418800  0.18571700  1
  P  P14  1  0.35426000  0.71219100  0.48142100  1
  P  P15  1  0.64540900  0.28775100  0.51890600  1
  P  P16  1  0.68762300  0.04814100  0.81407500  1
  P  P17  1  0.97897100  0.61731600  0.85131200  1
  H  H18  1  0.04672800  0.98826400  0.32592800  1
  H  H19  1  0.28823800  0.34774900  0.00595300  1
  H  H20  1  0.38182200  0.32154000  0.66082200  1
  H  H21  1  0.61959900  0.67803800  0.34113700  1
  H  H22  1  0.70950700  0.65287400  0.99170300  1
  H  H23  1  0.95347000  0.01147400  0.67430700  1
  O  O24  1  0.08090000  0.82609600  0.90059800  1
  O  O25  1  0.04273500  0.83891300  0.21848100  1
  O  O26  1  0.13773600  0.79205500  0.45175200  1
  O  O27  1  0.19665100  0.53962100  0.88139600  1
  O  O28  1  0.29876800  0.95907400  0.07761800  1
  O  O29  1  0.03703600  0.37540300  0.25644900  1
  O  O30  1  0.37016900  0.70736600  0.58935800  1
  O  O31  1  0.25261500  0.50272300  0.43268300  1
  O  O32  1  0.04958200  0.09718300  0.37131500  1
  O  O33  1  0.29012200  0.49522600  0.11493600  1
  O  O34  1  0.28532300  0.23844700  0.96079200  1
  O  O35  1  0.58715300  0.83852000  0.76551000  1
  O  O36  1  0.52845600  0.87387500  0.21592400  1
  O  O37  1  0.38034300  0.43048200  0.70534600  1
  O  O38  1  0.62357900  0.82785500  0.44799900  1
  O  O39  1  0.37602100  0.17210000  0.55223000  1
  O  O40  1  0.61816100  0.56928000  0.29591300  1
  O  O41  1  0.46996800  0.12584500  0.78405100  1
  O  O42  1  0.41441200  0.16374900  0.23419900  1
  O  O43  1  0.71800400  0.76203100  0.03794100  1
  O  O44  1  0.70707500  0.50308100  0.88478300  1
  O  O45  1  0.94975700  0.90242900  0.62886100  1
  O  O46  1  0.74659200  0.49723800  0.56759100  1
  O  O47  1  0.62966300  0.29226100  0.41092900  1
  O  O48  1  0.96206200  0.62363800  0.74356800  1
  O  O49  1  0.70250900  0.04238500  0.92209300  1
  O  O50  1  0.80499300  0.46061300  0.11846800  1
  O  O51  1  0.86221400  0.20804900  0.54846700  1
  O  O52  1  0.96011200  0.16304700  0.78156500  1
  O  O53  1  0.91817800  0.17161600  0.09945500  1
