# generated using pymatgen
data_Li5Mn(SiO3)4
_symmetry_space_group_name_H-M   'P 1'
_cell_length_a   12.62463781
_cell_length_b   12.62463781
_cell_length_c   12.29755101
_cell_angle_alpha   71.01708975
_cell_angle_beta   71.01708975
_cell_angle_gamma   109.89875452
_symmetry_Int_Tables_number   1
_chemical_formula_structural   Li5Mn(SiO3)4
_chemical_formula_sum   'Li30 Mn6 Si24 O72'
_cell_volume   1518.85102726
_cell_formula_units_Z   6
loop_
 _symmetry_equiv_pos_site_id
 _symmetry_equiv_pos_as_xyz
  1  'x, y, z'
loop_
 _atom_site_type_symbol
 _atom_site_label
 _atom_site_symmetry_multiplicity
 _atom_site_fract_x
 _atom_site_fract_y
 _atom_site_fract_z
 _atom_site_occupancy
  Li  Li0  1  0.19769800  0.00889500  0.32793300  1
  Li  Li1  1  0.19827100  0.18957500  0.47541600  1
  Li  Li2  1  0.50185200  0.53558600  0.14015700  1
  Li  Li3  1  0.50391400  0.96673400  0.35835800  1
  Li  Li4  1  0.58549200  0.10824100  0.09767400  1
  Li  Li5  1  0.58337400  0.47806900  0.31633600  1
  Li  Li6  1  0.83178100  0.98967900  0.14171300  1
  Li  Li7  1  0.83166300  0.84171300  0.02642400  1
  Li  Li8  1  0.89175900  0.41450800  0.90232600  1
  Li  Li9  1  0.89597300  0.47777000  0.20467200  1
  Li  Li10  1  0.00036300  0.99968200  0.26348100  1
  Li  Li11  1  0.99981500  0.00018500  0.50000000  1
  Li  Li12  1  0.00031800  0.99963700  0.73651900  1
  Li  Li13  1  0.99110500  0.80230200  0.67206700  1
  Li  Li14  1  0.99077600  0.18908000  0.33622200  1
  Li  Li15  1  0.01032100  0.16821900  0.85828700  1
  Li  Li16  1  0.01113200  0.84120400  0.13303900  1
  Li  Li17  1  0.03332500  0.53662300  0.32512800  1
  Li  Li18  1  0.03326600  0.49608500  0.64164200  1
  Li  Li19  1  0.15879600  0.98886800  0.86696100  1
  Li  Li20  1  0.15828700  0.16833700  0.97357600  1
  Li  Li21  1  0.28856500  0.57813100  0.21079300  1
  Li  Li22  1  0.29023100  0.70976900  0.50000000  1
  Li  Li23  1  0.42186900  0.71143500  0.78920700  1
  Li  Li24  1  0.46441400  0.49814800  0.85984300  1
  Li  Li25  1  0.46337700  0.96667500  0.67487200  1
  Li  Li26  1  0.52193100  0.41662600  0.68366400  1
  Li  Li27  1  0.52223000  0.10402700  0.79532800  1
  Li  Li28  1  0.81042500  0.80172900  0.52458400  1
  Li  Li29  1  0.81092000  0.00922400  0.66377800  1
  Mn  Mn30  1  0.48573800  0.24342700  0.25670200  1
  Mn  Mn31  1  0.51298500  0.75501000  0.24435500  1
  Mn  Mn32  1  0.75657300  0.51426200  0.74329800  1
  Mn  Mn33  1  0.24328500  0.75671500  0.00000000  1
  Mn  Mn34  1  0.24499000  0.48701500  0.75564500  1
  Mn  Mn35  1  0.75708000  0.24292000  0.50000000  1
  Si  Si36  1  0.26027300  0.79184700  0.26109500  1
  Si  Si37  1  0.26056300  0.46650800  0.47921900  1
  Si  Si38  1  0.72675300  0.00600600  0.96599500  1
  Si  Si39  1  0.72904700  0.72185800  0.30627600  1
  Si  Si40  1  0.72608200  0.99125600  0.47354600  1
  Si  Si41  1  0.72681000  0.73554400  0.80019700  1
  Si  Si42  1  0.73867300  0.20262300  0.24648500  1
  Si  Si43  1  0.73900600  0.53713800  0.01524600  1
  Si  Si44  1  0.79809700  0.53674600  0.44828900  1
  Si  Si45  1  0.79737700  0.26132700  0.75351500  1
  Si  Si46  1  0.99343000  0.72160100  0.97149000  1
  Si  Si47  1  0.99399400  0.27324700  0.03400500  1
  Si  Si48  1  0.00838800  0.73508500  0.46487800  1
  Si  Si49  1  0.00874400  0.27391800  0.52645400  1
  Si  Si50  1  0.20815300  0.73972700  0.73890500  1
  Si  Si51  1  0.20579900  0.46714300  0.05403300  1
  Si  Si52  1  0.26491500  0.99161200  0.53512200  1
  Si  Si53  1  0.26445600  0.27319000  0.19980300  1
  Si  Si54  1  0.27839900  0.00657000  0.02851000  1
  Si  Si55  1  0.27814200  0.27095300  0.69372400  1
  Si  Si56  1  0.46325400  0.20190300  0.55171100  1
  Si  Si57  1  0.46286200  0.26099400  0.98475400  1
  Si  Si58  1  0.53285700  0.79420100  0.94596700  1
  Si  Si59  1  0.53349200  0.73943700  0.52078100  1
  O  O60  1  0.15499400  0.75107300  0.41248600  1
  O  O61  1  0.15554000  0.40482800  0.43162500  1
  O  O62  1  0.34774100  0.06018500  0.37454500  1
  O  O63  1  0.34799300  0.28861700  0.27647300  1
  O  O64  1  0.39499300  0.57110700  0.34427800  1
  O  O65  1  0.39080500  0.81460400  0.26763600  1
  O  O66  1  0.47863900  0.68356500  0.09428100  1
  O  O67  1  0.47970600  0.79471400  0.42840600  1
  O  O68  1  0.50626000  0.29803800  0.40422700  1
  O  O69  1  0.50719300  0.20989900  0.08820100  1
  O  O70  1  0.59998500  0.43830600  0.14988600  1
  O  O71  1  0.59998700  0.16372000  0.25035200  1
  O  O72  1  0.64532100  0.94093200  0.12707600  1
  O  O73  1  0.64826100  0.70627200  0.22603300  1
  O  O74  1  0.65166200  0.93319800  0.90196200  1
  O  O75  1  0.65461000  0.72051800  0.44512400  1
  O  O76  1  0.71858000  0.66106200  0.94441900  1
  O  O77  1  0.71614700  0.05729100  0.33844400  1
  O  O78  1  0.73951100  0.15185700  0.91153800  1
  O  O79  1  0.74075900  0.58833700  0.34860100  1
  O  O80  1  0.79010100  0.49280700  0.91179900  1
  O  O81  1  0.79140900  0.29771200  0.29766600  1
  O  O82  1  0.83782400  0.43776400  0.41323400  1
  O  O83  1  0.83628000  0.40001300  0.74964800  1
  O  O84  1  0.84795000  0.58823700  0.06326600  1
  O  O85  1  0.84814300  0.26048900  0.08846200  1
  O  O86  1  0.85950000  0.98840300  0.43291700  1
  O  O87  1  0.85948800  0.87207600  0.70626400  1
  O  O88  1  0.86302900  0.01092600  0.92289600  1
  O  O89  1  0.86513500  0.85292000  0.21273500  1
  O  O90  1  0.94270900  0.28385300  0.66155600  1
  O  O91  1  0.94256700  0.66049600  0.39512500  1
  O  O92  1  0.93981500  0.65225900  0.62545500  1
  O  O93  1  0.94013700  0.28791500  0.43526800  1
  O  O94  1  0.98840000  0.85290200  0.93204200  1
  O  O95  1  0.98907400  0.13697100  0.07710400  1
  O  O96  1  0.01188600  0.87157500  0.42228300  1
  O  O97  1  0.01159700  0.14050000  0.56708300  1
  O  O98  1  0.05838100  0.70705300  0.06756400  1
  O  O99  1  0.05906800  0.35467900  0.87292400  1
  O  O100  1  0.06680200  0.34833800  0.09803800  1
  O  O101  1  0.06657400  0.71845400  0.83512200  1
  O  O102  1  0.12842500  0.98811400  0.57771700  1
  O  O103  1  0.12792400  0.14051200  0.29373600  1
  O  O104  1  0.14709800  0.01160000  0.06795800  1
  O  O105  1  0.14708000  0.13486500  0.78726500  1
  O  O106  1  0.18539600  0.60919500  0.73236400  1
  O  O107  1  0.17770200  0.57227200  0.08414400  1
  O  O108  1  0.20479700  0.68421000  0.22233900  1
  O  O109  1  0.20528600  0.52029400  0.57159400  1
  O  O110  1  0.24892700  0.84500600  0.58751400  1
  O  O111  1  0.24839500  0.40419100  0.16367600  1
  O  O112  1  0.31643500  0.52136100  0.90571900  1
  O  O113  1  0.31579000  0.79520300  0.77766100  1
  O  O114  1  0.28154600  0.93342600  0.16487800  1
  O  O115  1  0.27948200  0.34539000  0.55487600  1
  O  O116  1  0.29294700  0.94161900  0.93243600  1
  O  O117  1  0.29372800  0.35173900  0.77396700  1
  O  O118  1  0.33950400  0.05743300  0.60487500  1
  O  O119  1  0.33893800  0.28142000  0.05558100  1
  O  O120  1  0.41176300  0.15205000  0.93673400  1
  O  O121  1  0.41166300  0.25924100  0.65139900  1
  O  O122  1  0.42889300  0.60500700  0.65572200  1
  O  O123  1  0.42772800  0.82229800  0.91585600  1
  O  O124  1  0.56169400  0.40001500  0.85011400  1
  O  O125  1  0.56223600  0.16217600  0.58676600  1
  O  O126  1  0.59517200  0.84446000  0.56837500  1
  O  O127  1  0.59580900  0.75160500  0.83632400  1
  O  O128  1  0.71208500  0.05986300  0.56473200  1
  O  O129  1  0.71138300  0.65200700  0.72352700  1
  O  O130  1  0.70196200  0.49374000  0.59577300  1
  O  O131  1  0.70228800  0.20859100  0.70233400  1
