# generated using pymatgen
data_Li4V11O22
_symmetry_space_group_name_H-M   'P 1'
_cell_length_a   5.12366900
_cell_length_b   9.01745243
_cell_length_c   10.15792631
_cell_angle_alpha   114.21577835
_cell_angle_beta   94.50286455
_cell_angle_gamma   95.28540405
_symmetry_Int_Tables_number   1
_chemical_formula_structural   Li4V11O22
_chemical_formula_sum   'Li4 V11 O22'
_cell_volume   422.69519477
_cell_formula_units_Z   1
loop_
 _symmetry_equiv_pos_site_id
 _symmetry_equiv_pos_as_xyz
  1  'x, y, z'
loop_
 _atom_site_type_symbol
 _atom_site_label
 _atom_site_symmetry_multiplicity
 _atom_site_fract_x
 _atom_site_fract_y
 _atom_site_fract_z
 _atom_site_occupancy
  Li  Li0  1  0.99911800  0.99849300  0.99874000  1
  Li  Li1  1  0.90232500  0.61966700  0.80973500  1
  Li  Li2  1  0.71757000  0.91232700  0.46071600  1
  Li  Li3  1  0.12895300  0.37533500  0.18538600  1
  V  V4  1  0.09556400  0.86125400  0.67996700  1
  V  V5  1  0.72025900  0.40533700  0.96202200  1
  V  V6  1  0.17763100  0.23257200  0.84299500  1
  V  V7  1  0.54345400  0.67809000  0.59025200  1
  V  V8  1  0.37209900  0.96298300  0.22425500  1
  V  V9  1  0.63394900  0.04081000  0.77913100  1
  V  V10  1  0.99590400  0.50442500  0.49383600  1
  V  V11  1  0.45245400  0.31648700  0.41651500  1
  V  V12  1  0.82342200  0.76260600  0.14189700  1
  V  V13  1  0.27788900  0.59393300  0.04236700  1
  V  V14  1  0.90997000  0.13595400  0.32210200  1
  O  O15  1  0.62273200  0.59991500  0.95106000  1
  O  O16  1  0.78014300  0.84065500  0.78125100  1
  O  O17  1  0.04101900  0.43466000  0.86208600  1
  O  O18  1  0.42364600  0.87173600  0.58742400  1
  O  O19  1  0.21457100  0.66496500  0.68235700  1
  O  O20  1  0.88189300  0.21920600  0.96228500  1
  O  O21  1  0.05295500  0.93032200  0.31335400  1
  O  O22  1  0.49332900  0.24587400  0.77630600  1
  O  O23  1  0.86436600  0.72138300  0.50574000  1
  O  O24  1  0.28308000  0.02437300  0.85792600  1
  O  O25  1  0.67541200  0.49332900  0.60038600  1
  O  O26  1  0.32877700  0.51731500  0.40658100  1
  O  O27  1  0.14894000  0.30049600  0.49836500  1
  O  O28  1  0.67878100  0.96994000  0.13280700  1
  O  O29  1  0.51776000  0.76261800  0.23053300  1
  O  O30  1  0.12016600  0.79644900  0.04198900  1
  O  O31  1  0.94376900  0.06245300  0.67686700  1
  O  O32  1  0.76531500  0.33524000  0.32085600  1
  O  O33  1  0.57218300  0.10853400  0.41012100  1
  O  O34  1  0.95272500  0.56397800  0.14010600  1
  O  O35  1  0.23737700  0.15985200  0.22106400  1
  O  O36  1  0.39346200  0.38839200  0.04224000  1
