# generated using pymatgen
data_Li2FeF4
_symmetry_space_group_name_H-M   'P 1'
_cell_length_a   5.36037600
_cell_length_b   6.31901700
_cell_length_c   10.70657350
_cell_angle_alpha   67.44290026
_cell_angle_beta   90.00000000
_cell_angle_gamma   90.00000000
_symmetry_Int_Tables_number   1
_chemical_formula_structural   Li2FeF4
_chemical_formula_sum   'Li8 Fe4 F16'
_cell_volume   334.91230067
_cell_formula_units_Z   4
loop_
 _symmetry_equiv_pos_site_id
 _symmetry_equiv_pos_as_xyz
  1  'x, y, z'
loop_
 _atom_site_type_symbol
 _atom_site_label
 _atom_site_symmetry_multiplicity
 _atom_site_fract_x
 _atom_site_fract_y
 _atom_site_fract_z
 _atom_site_occupancy
  Li  Li0  1  0.76233600  0.77054800  0.80925600  1
  Li  Li1  1  0.30345300  0.84316500  0.56571400  1
  Li  Li2  1  0.80345300  0.15683500  0.93428600  1
  Li  Li3  1  0.26233600  0.22945200  0.69074400  1
  Li  Li4  1  0.73766400  0.77054800  0.30925600  1
  Li  Li5  1  0.19654700  0.84316500  0.06571400  1
  Li  Li6  1  0.69654700  0.15683500  0.43428600  1
  Li  Li7  1  0.23766400  0.22945200  0.19074400  1
  Fe  Fe8  1  0.31967400  0.40652700  0.89693100  1
  Fe  Fe9  1  0.81967400  0.59347300  0.60306900  1
  Fe  Fe10  1  0.18032600  0.40652700  0.39693100  1
  Fe  Fe11  1  0.68032600  0.59347300  0.10306900  1
  F  F12  1  0.70884200  0.42783000  0.97349700  1
  F  F13  1  0.97438400  0.83786200  0.65970900  1
  F  F14  1  0.62245200  0.85077600  0.44929400  1
  F  F15  1  0.50476300  0.64912800  0.72578000  1
  F  F16  1  0.00476300  0.35087200  0.77422000  1
  F  F17  1  0.12245200  0.14922400  0.05070600  1
  F  F18  1  0.47438400  0.16213800  0.84029100  1
  F  F19  1  0.20884200  0.57217000  0.52650300  1
  F  F20  1  0.79115800  0.42783000  0.47349700  1
  F  F21  1  0.52561600  0.83786200  0.15970900  1
  F  F22  1  0.87754800  0.85077600  0.94929400  1
  F  F23  1  0.99523700  0.64912800  0.22578000  1
  F  F24  1  0.49523700  0.35087200  0.27422000  1
  F  F25  1  0.37754800  0.14922400  0.55070600  1
  F  F26  1  0.02561600  0.16213800  0.34029100  1
  F  F27  1  0.29115800  0.57217000  0.02650300  1
