# generated using pymatgen
data_Li4Mn3Fe(BO3)4
_symmetry_space_group_name_H-M   'P 1'
_cell_length_a   5.24846100
_cell_length_b   6.01659686
_cell_length_c   16.29969074
_cell_angle_alpha   82.03648409
_cell_angle_beta   89.32936529
_cell_angle_gamma   89.52603714
_symmetry_Int_Tables_number   1
_chemical_formula_structural   Li4Mn3Fe(BO3)4
_chemical_formula_sum   'Li8 Mn6 Fe2 B8 O24'
_cell_volume   509.69955985
_cell_formula_units_Z   2
loop_
 _symmetry_equiv_pos_site_id
 _symmetry_equiv_pos_as_xyz
  1  'x, y, z'
loop_
 _atom_site_type_symbol
 _atom_site_label
 _atom_site_symmetry_multiplicity
 _atom_site_fract_x
 _atom_site_fract_y
 _atom_site_fract_z
 _atom_site_occupancy
  Li  Li0  1  0.84862800  0.81786200  0.13839800  1
  Li  Li1  1  0.15137200  0.18213800  0.86160200  1
  Li  Li2  1  0.65222200  0.93545000  0.61019700  1
  Li  Li3  1  0.34777800  0.06455000  0.38980300  1
  Li  Li4  1  0.64868800  0.43630600  0.10944200  1
  Li  Li5  1  0.35131200  0.56369400  0.89055800  1
  Li  Li6  1  0.84767900  0.31511900  0.64111700  1
  Li  Li7  1  0.15232100  0.68488100  0.35888300  1
  Mn  Mn8  1  0.67049100  0.02013800  0.79133500  1
  Mn  Mn9  1  0.16943100  0.77602400  0.53951100  1
  Mn  Mn10  1  0.32950900  0.97986200  0.20866500  1
  Mn  Mn11  1  0.83056900  0.22397600  0.46048900  1
  Mn  Mn12  1  0.66813500  0.52718000  0.28910100  1
  Mn  Mn13  1  0.33186500  0.47282000  0.71089900  1
  Fe  Fe14  1  0.16946600  0.27747700  0.03732000  1
  Fe  Fe15  1  0.83053400  0.72252300  0.96268000  1
  B  B16  1  0.32744000  0.78738500  0.04493300  1
  B  B17  1  0.82956300  0.03533300  0.29714400  1
  B  B18  1  0.67256000  0.21261500  0.95506700  1
  B  B19  1  0.17043700  0.96466700  0.70285600  1
  B  B20  1  0.83299700  0.53242500  0.79958500  1
  B  B21  1  0.33019500  0.28476800  0.54811700  1
  B  B22  1  0.16700300  0.46757500  0.20041500  1
  B  B23  1  0.66980500  0.71523200  0.45188300  1
  O  O24  1  0.58801400  0.76462800  0.05720700  1
  O  O25  1  0.18360800  0.92141700  0.09222900  1
  O  O26  1  0.71198200  0.91973300  0.23946700  1
  O  O27  1  0.28801800  0.08026700  0.76053300  1
  O  O28  1  0.78597100  0.83253000  0.50927100  1
  O  O29  1  0.81639200  0.07858300  0.90777100  1
  O  O30  1  0.31955500  0.83114000  0.65644900  1
  O  O31  1  0.08868400  0.01321400  0.31075200  1
  O  O32  1  0.41198600  0.23537200  0.94279300  1
  O  O33  1  0.91131600  0.98678600  0.68924800  1
  O  O34  1  0.68044500  0.16886000  0.34355100  1
  O  O35  1  0.21402900  0.16747000  0.49072900  1
  O  O36  1  0.79333900  0.32920900  0.01171700  1
  O  O37  1  0.31474900  0.33502200  0.15327800  1
  O  O38  1  0.09209000  0.51002100  0.81282600  1
  O  O39  1  0.58917100  0.26378800  0.56210200  1
  O  O40  1  0.90791000  0.48997900  0.18717400  1
  O  O41  1  0.68525100  0.66497800  0.84672200  1
  O  O42  1  0.17995800  0.41853700  0.59413500  1
  O  O43  1  0.20666100  0.67079100  0.98828300  1
  O  O44  1  0.71491700  0.41912900  0.74154300  1
  O  O45  1  0.28508300  0.58087100  0.25845700  1
  O  O46  1  0.82004200  0.58146300  0.40586500  1
  O  O47  1  0.41082900  0.73621200  0.43789800  1
