# generated using pymatgen
data_LiVPO5
_symmetry_space_group_name_H-M   'P 1'
_cell_length_a   5.98764026
_cell_length_b   7.96543701
_cell_length_c   10.29438147
_cell_angle_alpha   79.07417719
_cell_angle_beta   89.99469106
_cell_angle_gamma   112.04335995
_symmetry_Int_Tables_number   1
_chemical_formula_structural   LiVPO5
_chemical_formula_sum   'Li4 V4 P4 O20'
_cell_volume   445.47138834
_cell_formula_units_Z   4
loop_
 _symmetry_equiv_pos_site_id
 _symmetry_equiv_pos_as_xyz
  1  'x, y, z'
loop_
 _atom_site_type_symbol
 _atom_site_label
 _atom_site_symmetry_multiplicity
 _atom_site_fract_x
 _atom_site_fract_y
 _atom_site_fract_z
 _atom_site_occupancy
  Li  Li0  1  0.86889400  0.73793600  0.02872500  1
  Li  Li1  1  0.86892400  0.73793700  0.52875700  1
  Li  Li2  1  0.13109100  0.26209300  0.47128900  1
  Li  Li3  1  0.13113900  0.26205600  0.97127300  1
  V  V4  1  0.22678500  0.99991900  0.74995600  1
  V  V5  1  0.77310000  0.00006500  0.75003300  1
  V  V6  1  0.22703200  0.00005700  0.24993100  1
  V  V7  1  0.77310600  0.99991200  0.24999100  1
  P  P8  1  0.35755600  0.71483700  0.35883500  1
  P  P9  1  0.35749000  0.71482000  0.85877600  1
  P  P10  1  0.64250700  0.28514200  0.14122700  1
  P  P11  1  0.64240900  0.28521700  0.64122700  1
  O  O12  1  0.95332400  0.90637700  0.15910000  1
  O  O13  1  0.95316700  0.90645800  0.65906800  1
  O  O14  1  0.04680900  0.09358000  0.34090000  1
  O  O15  1  0.04670400  0.09349500  0.84084300  1
  O  O16  1  0.41766500  0.83500500  0.20989700  1
  O  O17  1  0.41763300  0.83509900  0.70987300  1
  O  O18  1  0.58243500  0.16497600  0.29011400  1
  O  O19  1  0.58223200  0.16491800  0.79013800  1
  O  O20  1  0.25568100  0.51073900  0.38015700  1
  O  O21  1  0.25567600  0.51080800  0.88014300  1
  O  O22  1  0.74439300  0.48924800  0.11984200  1
  O  O23  1  0.74423900  0.48922700  0.61989700  1
  O  O24  1  0.18528400  0.80378900  0.40870300  1
  O  O25  1  0.18518400  0.80383300  0.90865300  1
  O  O26  1  0.61859600  0.80388300  0.40876200  1
  O  O27  1  0.61849500  0.80387600  0.90876900  1
  O  O28  1  0.38152600  0.19610400  0.09124200  1
  O  O29  1  0.38140700  0.19620600  0.59121500  1
  O  O30  1  0.81483100  0.19619300  0.09132400  1
  O  O31  1  0.81468200  0.19619500  0.59133600  1
