# generated using pymatgen
data_Li3V3P8O29
_symmetry_space_group_name_H-M   'P 1'
_cell_length_a   9.75493300
_cell_length_b   9.75792625
_cell_length_c   14.15807621
_cell_angle_alpha   90.30278624
_cell_angle_beta   89.98551628
_cell_angle_gamma   119.91857672
_symmetry_Int_Tables_number   1
_chemical_formula_structural   Li3V3P8O29
_chemical_formula_sum   'Li6 V6 P16 O58'
_cell_volume   1168.05888462
_cell_formula_units_Z   2
loop_
 _symmetry_equiv_pos_site_id
 _symmetry_equiv_pos_as_xyz
  1  'x, y, z'
loop_
 _atom_site_type_symbol
 _atom_site_label
 _atom_site_symmetry_multiplicity
 _atom_site_fract_x
 _atom_site_fract_y
 _atom_site_fract_z
 _atom_site_occupancy
  Li  Li0  1  0.67611600  0.90723800  0.54973100  1
  Li  Li1  1  0.09385800  0.32079900  0.06440900  1
  Li  Li2  1  0.23403300  0.32737100  0.55414300  1
  Li  Li3  1  0.91373300  0.69129700  0.94558000  1
  Li  Li4  1  0.77666800  0.08339900  0.94658600  1
  Li  Li5  1  0.01526200  0.97228300  0.48488100  1
  V  V6  1  0.56783400  0.56663500  0.24824500  1
  V  V7  1  0.43561400  0.43365500  0.75487200  1
  V  V8  1  0.00387400  0.56969300  0.74224700  1
  V  V9  1  0.99418400  0.43437000  0.25838800  1
  V  V10  1  0.43193200  0.00101200  0.24834800  1
  V  V11  1  0.55800800  0.99899600  0.74911000  1
  P  P12  1  0.22484200  0.91539800  0.84358300  1
  P  P13  1  0.08713100  0.78205200  0.33976800  1
  P  P14  1  0.68686400  0.91259400  0.33960200  1
  P  P15  1  0.32970500  0.66256200  0.13149500  1
  P  P16  1  0.33611600  0.66433300  0.63031600  1
  P  P17  1  0.68528200  0.77318700  0.84308900  1
  P  P18  1  0.77119300  0.68992600  0.65826300  1
  P  P19  1  0.08667600  0.32092700  0.84260700  1
  P  P20  1  0.91231100  0.68185100  0.15816600  1
  P  P21  1  0.22809100  0.31364500  0.34238500  1
  P  P22  1  0.31282200  0.22572400  0.15970500  1
  P  P23  1  0.66116700  0.33228900  0.36994000  1
  P  P24  1  0.67347700  0.33672500  0.86812300  1
  P  P25  1  0.30468200  0.08497600  0.65785900  1
  P  P26  1  0.91317800  0.22209200  0.66012400  1
  P  P27  1  0.77255200  0.08972000  0.15943100  1
  O  O28  1  0.21645100  0.00600700  0.57110900  1
  O  O29  1  0.26111000  0.91631300  0.33217600  1
  O  O30  1  0.99013400  0.74844400  0.06666200  1
  O  O31  1  0.08102100  0.74407500  0.83482200  1
  O  O32  1  0.37974300  0.90630200  0.81928600  1
  O  O33  1  0.33971700  0.81553900  0.17633100  1
  O  O34  1  0.53096900  0.91480200  0.32720700  1
  O  O35  1  0.76750500  0.00966300  0.06870600  1
  O  O36  1  0.65915300  0.91780300  0.83936300  1
  O  O37  1  0.18893000  0.67078100  0.67403800  1
  O  O38  1  0.08243000  0.61982200  0.33127800  1
  O  O39  1  0.48895600  0.81434500  0.67210900  1
  O  O40  1  0.33254300  0.66027500  0.02635100  1
  O  O41  1  0.33766800  0.66394400  0.52557100  1
  O  O42  1  0.47463700  0.65629200  0.17725600  1
  O  O43  1  0.09526900  0.48005400  0.81990100  1
  O  O44  1  0.17810600  0.51678400  0.17260200  1
  O  O45  1  0.65502400  0.74079100  0.33036800  1
  O  O46  1  0.79215000  0.79481700  0.75141100  1
  O  O47  1  0.78030500  0.78428100  0.57423800  1
  O  O48  1  0.76570500  0.76263100  0.92876500  1
  O  O49  1  0.52310000  0.61924000  0.82334900  1
  O  O50  1  0.32808200  0.51201000  0.67207400  1
  O  O51  1  0.74238800  0.65549600  0.16709100  1
  O  O52  1  0.38440700  0.46939800  0.32963500  1
  O  O53  1  0.08857000  0.34757200  0.33096000  1
  O  O54  1  0.00689500  0.79892400  0.24405300  1
  O  O55  1  0.00528700  0.79829300  0.42331600  1
  O  O56  1  0.00819700  0.21891400  0.57930700  1
  O  O57  1  0.91040400  0.65498200  0.66577000  1
  O  O58  1  0.61431900  0.53204400  0.67307700  1
  O  O59  1  0.25534800  0.34393300  0.83343800  1
  O  O60  1  0.66534600  0.48012500  0.32481200  1
  O  O61  1  0.47307700  0.37968200  0.17625600  1
  O  O62  1  0.22511300  0.23226300  0.07611500  1
  O  O63  1  0.21174200  0.22938800  0.43338100  1
  O  O64  1  0.20904500  0.20076000  0.25506600  1
  O  O65  1  0.34188900  0.25995700  0.66550500  1
  O  O66  1  0.82022000  0.48447100  0.82493000  1
  O  O67  1  0.90443100  0.52263500  0.18149900  1
  O  O68  1  0.52482000  0.33875500  0.82278600  1
  O  O69  1  0.67384600  0.33585700  0.97259700  1
  O  O70  1  0.66489500  0.33119900  0.47471000  1
  O  O71  1  0.51609400  0.18442800  0.32416800  1
  O  O72  1  0.91296300  0.38172000  0.67218100  1
  O  O73  1  0.81290900  0.33082800  0.32689800  1
  O  O74  1  0.34232700  0.08378600  0.16369100  1
  O  O75  1  0.20511500  0.00199900  0.75162000  1
  O  O76  1  0.23854000  0.99979900  0.93231500  1
  O  O77  1  0.46527700  0.08494500  0.67438800  1
  O  O78  1  0.66847800  0.18363300  0.82448200  1
  O  O79  1  0.61948800  0.09620000  0.17787700  1
  O  O80  1  0.91834900  0.25952700  0.16470500  1
  O  O81  1  0.00472700  0.25109600  0.93354500  1
  O  O82  1  0.98642500  0.20099800  0.75835200  1
  O  O83  1  0.74040000  0.08192000  0.66059800  1
  O  O84  1  0.77362300  0.98664200  0.42962200  1
  O  O85  1  0.79531500  0.00166600  0.24917700  1
