# generated using pymatgen
data_LiVPO4
_symmetry_space_group_name_H-M   'P 1'
_cell_length_a   7.51603144
_cell_length_b   7.51603144
_cell_length_c   9.77954100
_cell_angle_alpha   90.00000000
_cell_angle_beta   90.00000000
_cell_angle_gamma   119.99999506
_symmetry_Int_Tables_number   1
_chemical_formula_structural   LiVPO4
_chemical_formula_sum   'Li6 V6 P6 O24'
_cell_volume   478.43869949
_cell_formula_units_Z   6
loop_
 _symmetry_equiv_pos_site_id
 _symmetry_equiv_pos_as_xyz
  1  'x, y, z'
loop_
 _atom_site_type_symbol
 _atom_site_label
 _atom_site_symmetry_multiplicity
 _atom_site_fract_x
 _atom_site_fract_y
 _atom_site_fract_z
 _atom_site_occupancy
  Li  Li0  1  0.20203500  0.94954800  0.25378800  1
  Li  Li1  1  0.05045200  0.25248700  0.25378800  1
  Li  Li2  1  0.25248700  0.05045200  0.75378800  1
  Li  Li3  1  0.74751300  0.79796500  0.25378800  1
  Li  Li4  1  0.79796500  0.74751300  0.75378800  1
  Li  Li5  1  0.94954800  0.20203500  0.75378800  1
  V  V6  1  0.05471700  0.57472500  0.47610200  1
  V  V7  1  0.52000800  0.94528300  0.47610200  1
  V  V8  1  0.42527500  0.47999200  0.47610200  1
  V  V9  1  0.47999200  0.42527500  0.97610200  1
  V  V10  1  0.57472500  0.05471700  0.97610200  1
  V  V11  1  0.94528300  0.52000800  0.97610200  1
  P  P12  1  0.33333300  0.66666700  0.17658600  1
  P  P13  1  0.00000000  0.00000000  0.00206700  1
  P  P14  1  0.00000000  0.00000000  0.50206700  1
  P  P15  1  0.33333300  0.66666700  0.76827000  1
  P  P16  1  0.66666700  0.33333300  0.67658600  1
  P  P17  1  0.66666700  0.33333300  0.26827000  1
  O  O18  1  0.10259500  0.87766300  0.44592700  1
  O  O19  1  0.17039500  0.71949600  0.12749900  1
  O  O20  1  0.37699900  0.87973800  0.81537600  1
  O  O21  1  0.12026200  0.49726000  0.81537600  1
  O  O22  1  0.28050400  0.45089900  0.12749900  1
  O  O23  1  0.33333300  0.66666700  0.34084900  1
  O  O24  1  0.00000000  0.00000000  0.16035400  1
  O  O25  1  0.00000000  0.00000000  0.66035400  1
  O  O26  1  0.33333300  0.66666700  0.60561800  1
  O  O27  1  0.12233700  0.22493100  0.44592700  1
  O  O28  1  0.54910100  0.82960500  0.12749900  1
  O  O29  1  0.22493100  0.12233700  0.94592700  1
  O  O30  1  0.50274000  0.62300100  0.81537600  1
  O  O31  1  0.77506900  0.89740500  0.44592700  1
  O  O32  1  0.45089900  0.28050400  0.62749900  1
  O  O33  1  0.49726000  0.12026200  0.31537600  1
  O  O34  1  0.62300100  0.50274000  0.31537600  1
  O  O35  1  0.82960500  0.54910100  0.62749900  1
  O  O36  1  0.66666700  0.33333300  0.84084900  1
  O  O37  1  0.66666700  0.33333300  0.10561800  1
  O  O38  1  0.89740500  0.77506900  0.94592700  1
  O  O39  1  0.71949600  0.17039500  0.62749900  1
  O  O40  1  0.87973800  0.37699900  0.31537600  1
  O  O41  1  0.87766300  0.10259500  0.94592700  1
