# generated using pymatgen
data_Li3Mn4(BO3)4
_symmetry_space_group_name_H-M   'P 1'
_cell_length_a   7.90520200
_cell_length_b   8.29255761
_cell_length_c   9.19324457
_cell_angle_alpha   66.60314644
_cell_angle_beta   65.76537806
_cell_angle_gamma   80.33208723
_symmetry_Int_Tables_number   1
_chemical_formula_structural   Li3Mn4(BO3)4
_chemical_formula_sum   'Li6 Mn8 B8 O24'
_cell_volume   504.35185168
_cell_formula_units_Z   2
loop_
 _symmetry_equiv_pos_site_id
 _symmetry_equiv_pos_as_xyz
  1  'x, y, z'
loop_
 _atom_site_type_symbol
 _atom_site_label
 _atom_site_symmetry_multiplicity
 _atom_site_fract_x
 _atom_site_fract_y
 _atom_site_fract_z
 _atom_site_occupancy
  Li  Li0  1  0.86609700  0.95146200  0.15197300  1
  Li  Li1  1  0.13390300  0.04853800  0.84802700  1
  Li  Li2  1  0.36143200  0.79323100  0.36367600  1
  Li  Li3  1  0.63856800  0.20676900  0.63632400  1
  Li  Li4  1  0.36045700  0.45206200  0.15377800  1
  Li  Li5  1  0.63954300  0.54793800  0.84622200  1
  Mn  Mn6  1  0.82772000  0.92178900  0.49777700  1
  Mn  Mn7  1  0.92675900  0.32407800  0.01650700  1
  Mn  Mn8  1  0.42391600  0.83048900  0.99513900  1
  Mn  Mn9  1  0.17228000  0.07821100  0.50222300  1
  Mn  Mn10  1  0.31643700  0.42324500  0.50854000  1
  Mn  Mn11  1  0.07324100  0.67592200  0.98349300  1
  Mn  Mn12  1  0.57608400  0.16951100  0.00486100  1
  Mn  Mn13  1  0.68356300  0.57675500  0.49146000  1
  B  B14  1  0.83098600  0.94131900  0.82746300  1
  B  B15  1  0.91953500  0.32120300  0.67694300  1
  B  B16  1  0.42581600  0.82642700  0.65941400  1
  B  B17  1  0.16901400  0.05868100  0.17253700  1
  B  B18  1  0.33549400  0.42282200  0.83592600  1
  B  B19  1  0.08046500  0.67879700  0.32305700  1
  B  B20  1  0.57418400  0.17357300  0.34058600  1
  B  B21  1  0.66450600  0.57717800  0.16407400  1
  O  O22  1  0.90237600  0.90031900  0.95265900  1
  O  O23  1  0.82108800  0.34900300  0.83140100  1
  O  O24  1  0.93504000  0.92262300  0.67139100  1
  O  O25  1  0.90561600  0.76437500  0.34470100  1
  O  O26  1  0.84661500  0.36176100  0.55602300  1
  O  O27  1  0.09438400  0.23562500  0.65529900  1
  O  O28  1  0.84495900  0.51026900  0.13086100  1
  O  O29  1  0.31102500  0.84880100  0.81559900  1
  O  O30  1  0.06496000  0.07737700  0.32860900  1
  O  O31  1  0.15504100  0.48973100  0.86913900  1
  O  O32  1  0.36654400  0.87467400  0.52856700  1
  O  O33  1  0.09762400  0.09968100  0.04734100  1
  O  O34  1  0.41396500  0.39390400  0.95356600  1
  O  O35  1  0.15338500  0.63823900  0.44397700  1
  O  O36  1  0.34758900  0.98721700  0.14828700  1
  O  O37  1  0.43683400  0.39309700  0.68320000  1
  O  O38  1  0.17891200  0.65099700  0.16859900  1
  O  O39  1  0.65241100  0.01278300  0.85171300  1
  O  O40  1  0.39946800  0.25699700  0.35206400  1
  O  O41  1  0.63345600  0.12532600  0.47143300  1
  O  O42  1  0.60053200  0.74300300  0.64793600  1
  O  O43  1  0.56316600  0.60690300  0.31680000  1
  O  O44  1  0.68897500  0.15119900  0.18440100  1
  O  O45  1  0.58603500  0.60609600  0.04643400  1
