# generated using pymatgen
data_Li2MnF6
_symmetry_space_group_name_H-M   'P 1'
_cell_length_a   4.66744600
_cell_length_b   4.66744600
_cell_length_c   8.92418600
_cell_angle_alpha   90.00000000
_cell_angle_beta   90.00000000
_cell_angle_gamma   90.00000000
_symmetry_Int_Tables_number   1
_chemical_formula_structural   Li2MnF6
_chemical_formula_sum   'Li4 Mn2 F12'
_cell_volume   194.41385752
_cell_formula_units_Z   2
loop_
 _symmetry_equiv_pos_site_id
 _symmetry_equiv_pos_as_xyz
  1  'x, y, z'
loop_
 _atom_site_type_symbol
 _atom_site_label
 _atom_site_symmetry_multiplicity
 _atom_site_fract_x
 _atom_site_fract_y
 _atom_site_fract_z
 _atom_site_occupancy
  Li  Li0  1  0.00000000  0.00000000  0.33682000  1
  Li  Li1  1  0.00000000  0.00000000  0.66318000  1
  Li  Li2  1  0.50000000  0.50000000  0.16318000  1
  Li  Li3  1  0.50000000  0.50000000  0.83682000  1
  Mn  Mn4  1  0.00000000  0.00000000  0.00000000  1
  Mn  Mn5  1  0.50000000  0.50000000  0.50000000  1
  F  F6  1  0.19008400  0.80991600  0.15207600  1
  F  F7  1  0.19008400  0.80991600  0.84792400  1
  F  F8  1  0.21962400  0.78037600  0.50000000  1
  F  F9  1  0.28037600  0.28037600  0.00000000  1
  F  F10  1  0.30991600  0.30991600  0.34792400  1
  F  F11  1  0.30991600  0.30991600  0.65207600  1
  F  F12  1  0.69008400  0.69008400  0.34792400  1
  F  F13  1  0.69008400  0.69008400  0.65207600  1
  F  F14  1  0.71962400  0.71962400  0.00000000  1
  F  F15  1  0.78037600  0.21962400  0.50000000  1
  F  F16  1  0.80991600  0.19008400  0.15207600  1
  F  F17  1  0.80991600  0.19008400  0.84792400  1
