# generated using pymatgen
data_Li32Mn3Cr13O48
_symmetry_space_group_name_H-M   'P 1'
_cell_length_a   5.03006500
_cell_length_b   8.70810660
_cell_length_c   19.48256582
_cell_angle_alpha   97.91390423
_cell_angle_beta   94.89726433
_cell_angle_gamma   89.51607191
_symmetry_Int_Tables_number   1
_chemical_formula_structural   Li32Mn3Cr13O48
_chemical_formula_sum   'Li32 Mn3 Cr13 O48'
_cell_volume   842.16403360
_cell_formula_units_Z   1
loop_
 _symmetry_equiv_pos_site_id
 _symmetry_equiv_pos_as_xyz
  1  'x, y, z'
loop_
 _atom_site_type_symbol
 _atom_site_label
 _atom_site_symmetry_multiplicity
 _atom_site_fract_x
 _atom_site_fract_y
 _atom_site_fract_z
 _atom_site_occupancy
  Li  Li0  1  0.98905300  0.16981200  0.24993600  1
  Li  Li1  1  0.87544000  0.37490800  0.37510700  1
  Li  Li2  1  0.75093900  0.24973700  0.99981400  1
  Li  Li3  1  0.74372700  0.92053200  0.99967900  1
  Li  Li4  1  0.99257500  0.16872600  0.74970600  1
  Li  Li5  1  0.75859000  0.57921000  0.49954300  1
  Li  Li6  1  0.87469100  0.37493600  0.87493300  1
  Li  Li7  1  0.75319000  0.24932600  0.50045500  1
  Li  Li8  1  0.74137900  0.92038300  0.49951900  1
  Li  Li9  1  0.62623500  0.12641400  0.12481100  1
  Li  Li10  1  0.76047300  0.57926100  0.99973900  1
  Li  Li11  1  0.51098600  0.33083200  0.25028800  1
  Li  Li12  1  0.62493300  0.12550900  0.62491500  1
  Li  Li13  1  0.49770400  0.00076300  0.25056500  1
  Li  Li14  1  0.49499000  0.67014300  0.25007200  1
  Li  Li15  1  0.50695400  0.33015800  0.74978500  1
  Li  Li16  1  0.37547200  0.87625400  0.37514800  1
  Li  Li17  1  0.50302900  0.00104100  0.75049400  1
  Li  Li18  1  0.25177900  0.74885200  0.99950000  1
  Li  Li19  1  0.48992500  0.66857200  0.74941700  1
  Li  Li20  1  0.23971500  0.42035400  0.99998400  1
  Li  Li21  1  0.37508000  0.87463900  0.87478000  1
  Li  Li22  1  0.25928400  0.08141100  0.50060600  1
  Li  Li23  1  0.24852400  0.74955000  0.49961100  1
  Li  Li24  1  0.12372600  0.62372200  0.12517400  1
  Li  Li25  1  0.24088600  0.41954700  0.50041400  1
  Li  Li26  1  0.00707500  0.83054500  0.25070600  1
  Li  Li27  1  0.25458600  0.07909300  0.99967800  1
  Li  Li28  1  0.12352800  0.62326000  0.62503900  1
  Li  Li29  1  0.99874900  0.49985500  0.25013200  1
  Li  Li30  1  0.00728000  0.83107800  0.75065600  1
  Li  Li31  1  0.99929400  0.50032500  0.74916300  1
  Mn  Mn32  1  0.87496700  0.70842100  0.37531600  1
  Mn  Mn33  1  0.87316200  0.04140300  0.87413300  1
  Mn  Mn34  1  0.12398000  0.29031800  0.62453400  1
  Cr  Cr35  1  0.87646900  0.03814500  0.37472700  1
  Cr  Cr36  1  0.87770300  0.71193900  0.87527300  1
  Cr  Cr37  1  0.62707400  0.79706100  0.12572100  1
  Cr  Cr38  1  0.62109000  0.46176900  0.12533500  1
  Cr  Cr39  1  0.62962700  0.79635300  0.62612200  1
  Cr  Cr40  1  0.61777000  0.45767900  0.62434300  1
  Cr  Cr41  1  0.38146800  0.54452300  0.37544000  1
  Cr  Cr42  1  0.36960500  0.21183300  0.37468800  1
  Cr  Cr43  1  0.38378500  0.54056500  0.87591100  1
  Cr  Cr44  1  0.36565700  0.20728700  0.87438000  1
  Cr  Cr45  1  0.12124900  0.95282000  0.12419200  1
  Cr  Cr46  1  0.13030800  0.28855900  0.12493900  1
  Cr  Cr47  1  0.12622400  0.95415100  0.62501600  1
  O  O48  1  0.96449100  0.10242000  0.06861600  1
  O  O49  1  0.93607400  0.78717400  0.06870000  1
  O  O50  1  0.92522600  0.42627900  0.06793100  1
  O  O51  1  0.96454400  0.10739800  0.56947200  1
  O  O52  1  0.81394000  0.96213900  0.18118700  1
  O  O53  1  0.82469000  0.32300500  0.18213200  1
  O  O54  1  0.93629300  0.78989900  0.56889800  1
  O  O55  1  0.93048300  0.42736000  0.56767100  1
  O  O56  1  0.78612500  0.64714400  0.18116800  1
  O  O57  1  0.71132500  0.85454700  0.31890500  1
  O  O58  1  0.81469100  0.96230300  0.68151300  1
  O  O59  1  0.82323200  0.32407100  0.68164000  1
  O  O60  1  0.68109300  0.53643800  0.31950600  1
  O  O61  1  0.67258300  0.17708400  0.31757200  1
  O  O62  1  0.78332900  0.64511200  0.68132000  1
  O  O63  1  0.71147300  0.85939100  0.81916500  1
  O  O64  1  0.46844600  0.60662000  0.06956600  1
  O  O65  1  0.57490000  0.71592900  0.43107300  1
  O  O66  1  0.57881300  0.07348300  0.43212700  1
  O  O67  1  0.67311200  0.53753100  0.81908900  1
  O  O68  1  0.67988200  0.17816900  0.81799200  1
  O  O69  1  0.43315800  0.92350200  0.06725100  1
  O  O70  1  0.41887500  0.28457200  0.06862700  1
  O  O71  1  0.53159700  0.39722300  0.43133300  1
  O  O72  1  0.47008200  0.60540200  0.56918400  1
  O  O73  1  0.57890700  0.71499700  0.93144300  1
  O  O74  1  0.57358800  0.07344300  0.93151700  1
  O  O75  1  0.31632900  0.82683400  0.18273000  1
  O  O76  1  0.33183300  0.46546500  0.18143400  1
  O  O77  1  0.43405400  0.92279500  0.56730200  1
  O  O78  1  0.42584400  0.28390100  0.56919200  1
  O  O79  1  0.53184400  0.39582400  0.93146000  1
  O  O80  1  0.28183000  0.14391400  0.18045600  1
  O  O81  1  0.21738400  0.35657700  0.31868500  1
  O  O82  1  0.31684400  0.82633100  0.68294700  1
  O  O83  1  0.32007300  0.46309200  0.68072400  1
  O  O84  1  0.17578800  0.67692900  0.31832000  1
  O  O85  1  0.16857000  0.03534900  0.31851100  1
  O  O86  1  0.28573500  0.14290300  0.68062000  1
  O  O87  1  0.21897800  0.35244200  0.81879700  1
  O  O88  1  0.06913900  0.57228000  0.43210300  1
  O  O89  1  0.08001400  0.21335700  0.43094800  1
  O  O90  1  0.17275000  0.67454400  0.81812600  1
  O  O91  1  0.17452200  0.03279300  0.81885500  1
  O  O92  1  0.03635100  0.89143900  0.43088700  1
  O  O93  1  0.07415200  0.57187000  0.93263300  1
  O  O94  1  0.07097200  0.21291400  0.93045100  1
  O  O95  1  0.03610900  0.89423800  0.93078700  1
