# generated using pymatgen
data_Li2Cr3Si3O10
_symmetry_space_group_name_H-M   'P 1'
_cell_length_a   8.56814678
_cell_length_b   8.56814678
_cell_length_c   10.36357738
_cell_angle_alpha   86.88047993
_cell_angle_beta   86.88047993
_cell_angle_gamma   33.11509036
_symmetry_Int_Tables_number   1
_chemical_formula_structural   Li2Cr3Si3O10
_chemical_formula_sum   'Li4 Cr6 Si6 O20'
_cell_volume   414.98423707
_cell_formula_units_Z   2
loop_
 _symmetry_equiv_pos_site_id
 _symmetry_equiv_pos_as_xyz
  1  'x, y, z'
loop_
 _atom_site_type_symbol
 _atom_site_label
 _atom_site_symmetry_multiplicity
 _atom_site_fract_x
 _atom_site_fract_y
 _atom_site_fract_z
 _atom_site_occupancy
  Li  Li0  1  0.27052800  0.83470300  0.52731100  1
  Li  Li1  1  0.83470300  0.27052800  0.02731100  1
  Li  Li2  1  0.16529700  0.72947200  0.97268900  1
  Li  Li3  1  0.72947200  0.16529700  0.47268900  1
  Cr  Cr4  1  0.37947100  0.92377100  0.78794600  1
  Cr  Cr5  1  0.92377100  0.37947100  0.28794600  1
  Cr  Cr6  1  0.50000000  0.00000000  0.50000000  1
  Cr  Cr7  1  0.00000000  0.50000000  0.00000000  1
  Cr  Cr8  1  0.07622900  0.62052900  0.71205400  1
  Cr  Cr9  1  0.62052900  0.07622900  0.21205400  1
  Si  Si10  1  0.85060000  0.45123600  0.60081500  1
  Si  Si11  1  0.45123600  0.85060000  0.10081500  1
  Si  Si12  1  0.54876400  0.14940000  0.89918500  1
  Si  Si13  1  0.14940000  0.54876400  0.39918500  1
  Si  Si14  1  0.82167500  0.17832500  0.75000000  1
  Si  Si15  1  0.17832500  0.82167500  0.25000000  1
  O  O16  1  0.04510300  0.04919400  0.85530500  1
  O  O17  1  0.66410600  0.45036200  0.65957300  1
  O  O18  1  0.04919400  0.04510300  0.35530500  1
  O  O19  1  0.45036200  0.66410600  0.15957300  1
  O  O20  1  0.18851200  0.11545600  0.60216500  1
  O  O21  1  0.60719900  0.70883100  0.95694700  1
  O  O22  1  0.11545600  0.18851200  0.10216500  1
  O  O23  1  0.70883100  0.60719900  0.45694700  1
  O  O24  1  0.76291700  0.67052400  0.68685200  1
  O  O25  1  0.67052400  0.76291700  0.18685200  1
  O  O26  1  0.32947600  0.23708300  0.81314800  1
  O  O27  1  0.23708300  0.32947600  0.31314800  1
  O  O28  1  0.29116900  0.39280100  0.54305300  1
  O  O29  1  0.88454400  0.81148800  0.89783500  1
  O  O30  1  0.39280100  0.29116900  0.04305300  1
  O  O31  1  0.81148800  0.88454400  0.39783500  1
  O  O32  1  0.54963800  0.33589400  0.84042700  1
  O  O33  1  0.95080600  0.95489700  0.64469500  1
  O  O34  1  0.33589400  0.54963800  0.34042700  1
  O  O35  1  0.95489700  0.95080600  0.14469500  1
