# generated using pymatgen
data_Li24Ti5Cr7O36
_symmetry_space_group_name_H-M   'P 1'
_cell_length_a   5.05296700
_cell_length_b   9.78743444
_cell_length_c   13.40966449
_cell_angle_alpha   97.29308337
_cell_angle_beta   100.77317373
_cell_angle_gamma   94.65953808
_symmetry_Int_Tables_number   1
_chemical_formula_structural   Li24Ti5Cr7O36
_chemical_formula_sum   'Li24 Ti5 Cr7 O36'
_cell_volume   642.46330617
_cell_formula_units_Z   1
loop_
 _symmetry_equiv_pos_site_id
 _symmetry_equiv_pos_as_xyz
  1  'x, y, z'
loop_
 _atom_site_type_symbol
 _atom_site_label
 _atom_site_symmetry_multiplicity
 _atom_site_fract_x
 _atom_site_fract_y
 _atom_site_fract_z
 _atom_site_occupancy
  Li  Li0  1  0.17347500  0.99854600  0.83276900  1
  Li  Li1  1  0.05021800  0.99954900  0.61350800  1
  Li  Li2  1  0.00022200  0.74966800  0.24930600  1
  Li  Li3  1  0.33327200  0.74945300  0.91677400  1
  Li  Li4  1  0.04921900  0.50030800  0.11313100  1
  Li  Li5  1  0.37445900  0.49862800  0.77761800  1
  Li  Li6  1  0.16448700  0.49924700  0.33448400  1
  Li  Li7  1  0.50479500  0.49942400  0.99902600  1
  Li  Li8  1  0.29113900  0.50083100  0.55552900  1
  Li  Li9  1  0.33391000  0.25038700  0.41807800  1
  Li  Li10  1  0.50054600  0.99955200  0.50033100  1
  Li  Li11  1  0.28255600  0.99796700  0.05216300  1
  Li  Li12  1  0.61508500  0.99959500  0.71984500  1
  Li  Li13  1  0.38734800  0.00012400  0.28119900  1
  Li  Li14  1  0.71401400  0.00178800  0.94676000  1
  Li  Li15  1  0.66637100  0.75041600  0.58285000  1
  Li  Li16  1  0.70936500  0.49978000  0.44442800  1
  Li  Li17  1  0.83512600  0.50195500  0.66607200  1
  Li  Li18  1  0.61942400  0.50070700  0.22163400  1
  Li  Li19  1  0.95184200  0.50102500  0.88787100  1
  Li  Li20  1  0.66412300  0.24963100  0.08293000  1
  Li  Li21  1  0.82862100  0.00160500  0.16719200  1
  Li  Li22  1  0.99950900  0.24970600  0.74967600  1
  Li  Li23  1  0.94959800  0.99980900  0.38581100  1
  Ti  Ti24  1  0.10829600  0.24827400  0.97188100  1
  Ti  Ti25  1  0.11143200  0.75246900  0.47282900  1
  Ti  Ti26  1  0.22168800  0.24684800  0.19374700  1
  Ti  Ti27  1  0.77762300  0.74942100  0.80845500  1
  Ti  Ti28  1  0.89865600  0.25591300  0.52770800  1
  Cr  Cr29  1  0.22100100  0.74962300  0.69355200  1
  Cr  Cr30  1  0.45392500  0.25055500  0.64030900  1
  Cr  Cr31  1  0.54939200  0.24858100  0.85887800  1
  Cr  Cr32  1  0.43945700  0.74817500  0.13473300  1
  Cr  Cr33  1  0.55708900  0.75028400  0.35784500  1
  Cr  Cr34  1  0.77297100  0.25016900  0.30665200  1
  Cr  Cr35  1  0.89048100  0.75048100  0.03144800  1
  O  O36  1  0.00042400  0.86266100  0.93136800  1
  O  O37  1  0.06999100  0.63374000  0.78615300  1
  O  O38  1  0.00657600  0.36516900  0.43011100  1
  O  O39  1  0.14759200  0.36216100  0.64488700  1
  O  O40  1  0.27020400  0.36526600  0.88048900  1
  O  O41  1  0.33645100  0.86360500  0.59624400  1
  O  O42  1  0.06747000  0.13574900  0.28663500  1
  O  O43  1  0.19449700  0.13757300  0.52547500  1
  O  O44  1  0.40073300  0.13311800  0.95225500  1
  O  O45  1  0.13292600  0.86200500  0.14089900  1
  O  O46  1  0.26673500  0.86491900  0.38053400  1
  O  O47  1  0.47462800  0.86309100  0.81062900  1
  O  O48  1  0.33284700  0.13901100  0.74186700  1
  O  O49  1  0.19789500  0.63665700  0.02566400  1
  O  O50  1  0.40400700  0.63533600  0.45013100  1
  O  O51  1  0.51754000  0.63798200  0.69014600  1
  O  O52  1  0.33211800  0.63883400  0.23521500  1
  O  O53  1  0.66825900  0.63748900  0.90701800  1
  O  O54  1  0.33132800  0.36409500  0.09585200  1
  O  O55  1  0.66648200  0.36171100  0.75776900  1
  O  O56  1  0.48504000  0.36232700  0.31149600  1
  O  O57  1  0.59960600  0.36675500  0.54750100  1
  O  O58  1  0.80600500  0.36223000  0.97449600  1
  O  O59  1  0.66404300  0.85948400  0.26148000  1
  O  O60  1  0.51999900  0.13525800  0.18873500  1
  O  O61  1  0.72959600  0.13496400  0.61880900  1
  O  O62  1  0.85226800  0.13818600  0.85490100  1
  O  O63  1  0.59098300  0.86445400  0.05171400  1
  O  O64  1  0.81148000  0.86475500  0.47663400  1
  O  O65  1  0.93729100  0.86441300  0.71520300  1
  O  O66  1  0.66690800  0.13768000  0.40127000  1
  O  O67  1  0.74412000  0.63514600  0.11610300  1
  O  O68  1  0.84918400  0.63736500  0.35563400  1
  O  O69  1  0.99987300  0.63756000  0.57272600  1
  O  O70  1  0.92706400  0.36393000  0.21620500  1
  O  O71  1  0.99710300  0.13482600  0.07073400  1
