# generated using pymatgen
data_Li3VCr3O8
_symmetry_space_group_name_H-M   'P 1'
_cell_length_a   5.91803108
_cell_length_b   10.26933726
_cell_length_c   5.98706850
_cell_angle_alpha   73.20946850
_cell_angle_beta   60.37038606
_cell_angle_gamma   90.01860879
_symmetry_Int_Tables_number   1
_chemical_formula_structural   Li3VCr3O8
_chemical_formula_sum   'Li6 V2 Cr6 O16'
_cell_volume   298.28424789
_cell_formula_units_Z   2
loop_
 _symmetry_equiv_pos_site_id
 _symmetry_equiv_pos_as_xyz
  1  'x, y, z'
loop_
 _atom_site_type_symbol
 _atom_site_label
 _atom_site_symmetry_multiplicity
 _atom_site_fract_x
 _atom_site_fract_y
 _atom_site_fract_z
 _atom_site_occupancy
  Li  Li0  1  0.50041000  0.99993300  0.49958300  1
  Li  Li1  1  0.00019300  0.49991900  0.49994200  1
  Li  Li2  1  0.74982500  0.74976200  0.50036100  1
  Li  Li3  1  0.25023500  0.25078700  0.49951900  1
  Li  Li4  1  0.00000700  0.99992800  0.49959300  1
  Li  Li5  1  0.49986600  0.49992400  0.49992700  1
  V  V6  1  0.50014700  0.50118500  0.99965400  1
  V  V7  1  0.00030000  0.99980000  0.99945900  1
  Cr  Cr8  1  0.74948800  0.75044800  0.99998100  1
  Cr  Cr9  1  0.99972500  0.49852800  0.00052500  1
  Cr  Cr10  1  0.25052400  0.75045600  0.99999300  1
  Cr  Cr11  1  0.25008900  0.25063800  0.00015100  1
  Cr  Cr12  1  0.49944100  0.99854000  0.00113000  1
  Cr  Cr13  1  0.74978900  0.25062300  0.00013000  1
  O  O14  1  0.88972500  0.62933500  0.22037400  1
  O  O15  1  0.38952900  0.12875300  0.22075400  1
  O  O16  1  0.11249800  0.37066800  0.77520800  1
  O  O17  1  0.61254400  0.87100900  0.77506900  1
  O  O18  1  0.12943100  0.88284100  0.21857800  1
  O  O19  1  0.63161700  0.38434600  0.21548600  1
  O  O20  1  0.39053400  0.62587000  0.21882700  1
  O  O21  1  0.89243600  0.12598000  0.21499500  1
  O  O22  1  0.65231900  0.88297700  0.21834900  1
  O  O23  1  0.15308900  0.38448100  0.21537700  1
  O  O24  1  0.86832300  0.11650700  0.78470700  1
  O  O25  1  0.36590400  0.61549300  0.78593500  1
  O  O26  1  0.60886200  0.37528700  0.78246800  1
  O  O27  1  0.10855500  0.87424300  0.78297600  1
  O  O28  1  0.34673900  0.11638700  0.78485700  1
  O  O29  1  0.84785600  0.61535600  0.78609100  1
