# generated using pymatgen
data_Li8NbNi3(PO4)6
_symmetry_space_group_name_H-M   'P 1'
_cell_length_a   8.79108354
_cell_length_b   8.79108354
_cell_length_c   8.79108380
_cell_angle_alpha   60.66071940
_cell_angle_beta   60.66071940
_cell_angle_gamma   60.66072354
_symmetry_Int_Tables_number   1
_chemical_formula_structural   Li8NbNi3(PO4)6
_chemical_formula_sum   'Li8 Nb1 Ni3 P6 O24'
_cell_volume   487.57623752
_cell_formula_units_Z   1
loop_
 _symmetry_equiv_pos_site_id
 _symmetry_equiv_pos_as_xyz
  1  'x, y, z'
loop_
 _atom_site_type_symbol
 _atom_site_label
 _atom_site_symmetry_multiplicity
 _atom_site_fract_x
 _atom_site_fract_y
 _atom_site_fract_z
 _atom_site_occupancy
  Li  Li0  1  0.65073900  0.31013000  0.83300900  1
  Li  Li1  1  0.31013000  0.83300900  0.65073900  1
  Li  Li2  1  0.83300900  0.65073900  0.31013000  1
  Li  Li3  1  0.97402600  0.97402600  0.97402600  1
  Li  Li4  1  0.15849200  0.33272900  0.69757600  1
  Li  Li5  1  0.47732100  0.47732100  0.47732100  1
  Li  Li6  1  0.69757600  0.15849200  0.33272900  1
  Li  Li7  1  0.33272900  0.69757600  0.15849200  1
  Nb  Nb8  1  0.14634500  0.14634500  0.14634500  1
  Ni  Ni9  1  0.65052700  0.65052700  0.65052700  1
  Ni  Ni10  1  0.85222600  0.85222600  0.85222600  1
  Ni  Ni11  1  0.34799400  0.34799400  0.34799400  1
  P  P12  1  0.24791300  0.55463000  0.95370000  1
  P  P13  1  0.95370000  0.24791300  0.55463000  1
  P  P14  1  0.55463000  0.95370000  0.24791300  1
  P  P15  1  0.46000300  0.04581400  0.74619600  1
  P  P16  1  0.04581400  0.74619600  0.46000300  1
  P  P17  1  0.74619600  0.46000300  0.04581400  1
  O  O18  1  0.12518200  0.27256400  0.53344000  1
  O  O19  1  0.53344000  0.12518200  0.27256400  1
  O  O20  1  0.27256400  0.53344000  0.12518200  1
  O  O21  1  0.00080900  0.17936700  0.39904400  1
  O  O22  1  0.39904400  0.00080900  0.17936700  1
  O  O23  1  0.11080100  0.75138600  0.89503200  1
  O  O24  1  0.17936700  0.39904400  0.00080900  1
  O  O25  1  0.42865500  0.53853000  0.78497400  1
  O  O26  1  0.89503200  0.11080100  0.75138600  1
  O  O27  1  0.78497400  0.42865500  0.53853000  1
  O  O28  1  0.53853000  0.78497400  0.42865500  1
  O  O29  1  0.61316800  0.01034900  0.80400000  1
  O  O30  1  0.26127900  0.10054900  0.89380900  1
  O  O31  1  0.01034900  0.80400000  0.61316800  1
  O  O32  1  0.75138600  0.89503200  0.11080100  1
  O  O33  1  0.45285300  0.22280600  0.57008200  1
  O  O34  1  0.22280600  0.57008200  0.45285300  1
  O  O35  1  0.10054900  0.89380900  0.26127900  1
  O  O36  1  0.57008200  0.45285300  0.22280600  1
  O  O37  1  0.80400000  0.61316800  0.01034900  1
  O  O38  1  0.89380900  0.26127900  0.10054900  1
  O  O39  1  0.71994000  0.46829000  0.88080400  1
  O  O40  1  0.46829000  0.88080400  0.71994000  1
  O  O41  1  0.88080400  0.71994000  0.46829000  1
