# generated using pymatgen
data_Li4Fe5(CoO6)2
_symmetry_space_group_name_H-M   'P 1'
_cell_length_a   8.91639100
_cell_length_b   5.22826700
_cell_length_c   9.81084936
_cell_angle_alpha   80.72468680
_cell_angle_beta   90.00000000
_cell_angle_gamma   90.00000000
_symmetry_Int_Tables_number   1
_chemical_formula_structural   Li4Fe5(CoO6)2
_chemical_formula_sum   'Li8 Fe10 Co4 O24'
_cell_volume   451.37524042
_cell_formula_units_Z   2
loop_
 _symmetry_equiv_pos_site_id
 _symmetry_equiv_pos_as_xyz
  1  'x, y, z'
loop_
 _atom_site_type_symbol
 _atom_site_label
 _atom_site_symmetry_multiplicity
 _atom_site_fract_x
 _atom_site_fract_y
 _atom_site_fract_z
 _atom_site_occupancy
  Li  Li0  1  0.90347100  0.01664000  0.74693200  1
  Li  Li1  1  0.91708800  0.48695000  0.25762200  1
  Li  Li2  1  0.58388200  0.76103100  0.50312400  1
  Li  Li3  1  0.58998200  0.49810200  0.25616400  1
  Li  Li4  1  0.40347100  0.98336000  0.25306800  1
  Li  Li5  1  0.41708800  0.51305000  0.74237800  1
  Li  Li6  1  0.08388200  0.23896900  0.49687600  1
  Li  Li7  1  0.08998200  0.50189800  0.74383600  1
  Fe  Fe8  1  0.91882600  0.25575700  0.00262300  1
  Fe  Fe9  1  0.92166700  0.75064200  0.49733800  1
  Fe  Fe10  1  0.75150500  0.99691400  0.25681600  1
  Fe  Fe11  1  0.57899900  0.24064500  0.99701500  1
  Fe  Fe12  1  0.74437100  0.51019400  0.74060300  1
  Fe  Fe13  1  0.42166700  0.24935800  0.50266200  1
  Fe  Fe14  1  0.41882600  0.74424300  0.99737700  1
  Fe  Fe15  1  0.25150500  0.00308600  0.74318400  1
  Fe  Fe16  1  0.24437100  0.48980600  0.25939700  1
  Fe  Fe17  1  0.07899900  0.75935500  0.00298500  1
  Co  Co18  1  0.74789700  0.24535500  0.50553700  1
  Co  Co19  1  0.74628900  0.75648000  0.99316600  1
  Co  Co20  1  0.24628900  0.24352000  0.00683400  1
  Co  Co21  1  0.24789700  0.75464500  0.49446300  1
  O  O22  1  0.89555200  0.12571700  0.38969400  1
  O  O23  1  0.90944400  0.89332300  0.11297400  1
  O  O24  1  0.75344800  0.15383500  0.88020800  1
  O  O25  1  0.76769800  0.85213200  0.62659800  1
  O  O26  1  0.90084800  0.38188800  0.61789200  1
  O  O27  1  0.91683100  0.61152700  0.88049800  1
  O  O28  1  0.76366000  0.65131800  0.36555400  1
  O  O29  1  0.59684300  0.13617700  0.38568400  1
  O  O30  1  0.58140400  0.88710300  0.12115900  1
  O  O31  1  0.74762400  0.35247000  0.12363900  1
  O  O32  1  0.59699500  0.38530300  0.60878100  1
  O  O33  1  0.39555200  0.87428300  0.61030600  1
  O  O34  1  0.40944400  0.10667700  0.88702600  1
  O  O35  1  0.58047600  0.59649300  0.88131900  1
  O  O36  1  0.26769800  0.14786800  0.37340200  1
  O  O37  1  0.40084800  0.61811200  0.38210800  1
  O  O38  1  0.41683100  0.38847300  0.11950200  1
  O  O39  1  0.25344800  0.84616500  0.11979200  1
  O  O40  1  0.24762400  0.64753000  0.87636100  1
  O  O41  1  0.26366000  0.34868200  0.63444600  1
  O  O42  1  0.09684300  0.86382300  0.61431600  1
  O  O43  1  0.08140400  0.11289700  0.87884100  1
  O  O44  1  0.09699500  0.61469700  0.39121900  1
  O  O45  1  0.08047600  0.40350700  0.11868100  1
