# generated using pymatgen
data_Li4Cu2Si3O10
_symmetry_space_group_name_H-M   'P 1'
_cell_length_a   5.38706505
_cell_length_b   5.38706505
_cell_length_c   16.24746996
_cell_angle_alpha   82.87111342
_cell_angle_beta   82.87111342
_cell_angle_gamma   61.42741470
_symmetry_Int_Tables_number   1
_chemical_formula_structural   Li4Cu2Si3O10
_chemical_formula_sum   'Li8 Cu4 Si6 O20'
_cell_volume   409.74818929
_cell_formula_units_Z   2
loop_
 _symmetry_equiv_pos_site_id
 _symmetry_equiv_pos_as_xyz
  1  'x, y, z'
loop_
 _atom_site_type_symbol
 _atom_site_label
 _atom_site_symmetry_multiplicity
 _atom_site_fract_x
 _atom_site_fract_y
 _atom_site_fract_z
 _atom_site_occupancy
  Li  Li0  1  0.83528500  0.68244700  0.94687400  1
  Li  Li1  1  0.58414200  0.78752200  0.76560000  1
  Li  Li2  1  0.68244700  0.83528500  0.44687400  1
  Li  Li3  1  0.78752200  0.58414200  0.26560000  1
  Li  Li4  1  0.21247800  0.41585800  0.73440000  1
  Li  Li5  1  0.31755300  0.16471500  0.55312600  1
  Li  Li6  1  0.41585800  0.21247800  0.23440000  1
  Li  Li7  1  0.16471500  0.31755300  0.05312600  1
  Cu  Cu8  1  0.20058500  0.97975000  0.91795800  1
  Cu  Cu9  1  0.97975000  0.20058500  0.41795800  1
  Cu  Cu10  1  0.02025000  0.79941500  0.58204200  1
  Cu  Cu11  1  0.79941500  0.02025000  0.08204200  1
  Si  Si12  1  0.65605300  0.47087300  0.59688800  1
  Si  Si13  1  0.89103100  0.10896900  0.75000000  1
  Si  Si14  1  0.52912700  0.34394700  0.90311200  1
  Si  Si15  1  0.47087300  0.65605300  0.09688800  1
  Si  Si16  1  0.10896900  0.89103100  0.25000000  1
  Si  Si17  1  0.34394700  0.52912700  0.40311200  1
  O  O18  1  0.93277600  0.83771200  0.70497300  1
  O  O19  1  0.83771200  0.93277600  0.20497300  1
  O  O20  1  0.60711800  0.78463700  0.56574900  1
  O  O21  1  0.56756400  0.63197700  0.88656000  1
  O  O22  1  0.80210000  0.40259900  0.68828400  1
  O  O23  1  0.77840000  0.09038200  0.95922900  1
  O  O24  1  0.90961800  0.22160000  0.54077100  1
  O  O25  1  0.78463700  0.60711800  0.06574900  1
  O  O26  1  0.63197700  0.56756400  0.38656000  1
  O  O27  1  0.59740100  0.19790000  0.81171600  1
  O  O28  1  0.40259900  0.80210000  0.18828400  1
  O  O29  1  0.36802300  0.43243600  0.61344000  1
  O  O30  1  0.21536300  0.39288200  0.93425100  1
  O  O31  1  0.09038200  0.77840000  0.45922900  1
  O  O32  1  0.22160000  0.90961800  0.04077100  1
  O  O33  1  0.19790000  0.59740100  0.31171600  1
  O  O34  1  0.43243600  0.36802300  0.11344000  1
  O  O35  1  0.39288200  0.21536300  0.43425100  1
  O  O36  1  0.16228800  0.06722400  0.79502700  1
  O  O37  1  0.06722400  0.16228800  0.29502700  1
