# generated using pymatgen
data_Li5MnO4
_symmetry_space_group_name_H-M   'P 1'
_cell_length_a   8.84405200
_cell_length_b   9.46759200
_cell_length_c   9.47431000
_cell_angle_alpha   90.00000000
_cell_angle_beta   90.00000000
_cell_angle_gamma   90.00000000
_symmetry_Int_Tables_number   1
_chemical_formula_structural   Li5MnO4
_chemical_formula_sum   'Li40 Mn8 O32'
_cell_volume   793.30174975
_cell_formula_units_Z   8
loop_
 _symmetry_equiv_pos_site_id
 _symmetry_equiv_pos_as_xyz
  1  'x, y, z'
loop_
 _atom_site_type_symbol
 _atom_site_label
 _atom_site_symmetry_multiplicity
 _atom_site_fract_x
 _atom_site_fract_y
 _atom_site_fract_z
 _atom_site_occupancy
  Li  Li0  1  0.11298900  0.13932600  0.60681900  1
  Li  Li1  1  0.11298900  0.63932600  0.89318100  1
  Li  Li2  1  0.11259300  0.83835600  0.11750200  1
  Li  Li3  1  0.11259300  0.33835600  0.38249800  1
  Li  Li4  1  0.12411800  0.37972000  0.85834300  1
  Li  Li5  1  0.12411800  0.87972000  0.64165700  1
  Li  Li6  1  0.15619200  0.11185900  0.86953600  1
  Li  Li7  1  0.15619200  0.61185900  0.63046400  1
  Li  Li8  1  0.16604800  0.39103500  0.11827800  1
  Li  Li9  1  0.16604800  0.89103500  0.38172200  1
  Li  Li10  1  0.33395200  0.89103500  0.88172200  1
  Li  Li11  1  0.33395200  0.39103500  0.61827800  1
  Li  Li12  1  0.34380800  0.61185900  0.13046400  1
  Li  Li13  1  0.34380800  0.11185900  0.36953600  1
  Li  Li14  1  0.37588200  0.87972000  0.14165700  1
  Li  Li15  1  0.37588200  0.37972000  0.35834300  1
  Li  Li16  1  0.38740700  0.83835600  0.61750200  1
  Li  Li17  1  0.38740700  0.33835600  0.88249800  1
  Li  Li18  1  0.38701100  0.13932600  0.10681900  1
  Li  Li19  1  0.38701100  0.63932600  0.39318100  1
  Li  Li20  1  0.61298900  0.36067400  0.60681900  1
  Li  Li21  1  0.61298900  0.86067400  0.89318100  1
  Li  Li22  1  0.61259300  0.66164400  0.11750200  1
  Li  Li23  1  0.61259300  0.16164400  0.38249800  1
  Li  Li24  1  0.62411800  0.62028000  0.64165700  1
  Li  Li25  1  0.62411800  0.12028000  0.85834300  1
  Li  Li26  1  0.65619200  0.88814100  0.63046400  1
  Li  Li27  1  0.65619200  0.38814100  0.86953600  1
  Li  Li28  1  0.66604800  0.10896500  0.11827800  1
  Li  Li29  1  0.66604800  0.60896500  0.38172200  1
  Li  Li30  1  0.83395200  0.10896500  0.61827800  1
  Li  Li31  1  0.83395200  0.60896500  0.88172200  1
  Li  Li32  1  0.84380800  0.38814100  0.36953600  1
  Li  Li33  1  0.84380800  0.88814100  0.13046400  1
  Li  Li34  1  0.87588200  0.62028000  0.14165700  1
  Li  Li35  1  0.87588200  0.12028000  0.35834300  1
  Li  Li36  1  0.88740700  0.66164400  0.61750200  1
  Li  Li37  1  0.88740700  0.16164400  0.88249800  1
  Li  Li38  1  0.88701100  0.36067400  0.10681900  1
  Li  Li39  1  0.88701100  0.86067400  0.39318100  1
  Mn  Mn40  1  0.09470500  0.11825700  0.14037200  1
  Mn  Mn41  1  0.09470500  0.61825700  0.35962800  1
  Mn  Mn42  1  0.40529500  0.11825700  0.64037200  1
  Mn  Mn43  1  0.40529500  0.61825700  0.85962800  1
  Mn  Mn44  1  0.59470500  0.38174300  0.14037200  1
  Mn  Mn45  1  0.59470500  0.88174300  0.35962800  1
  Mn  Mn46  1  0.90529500  0.38174300  0.64037200  1
  Mn  Mn47  1  0.90529500  0.88174300  0.85962800  1
  O  O48  1  0.00619900  0.48048200  0.24121200  1
  O  O49  1  0.00619900  0.98048200  0.25878800  1
  O  O50  1  0.04172200  0.25131600  0.00037400  1
  O  O51  1  0.04172200  0.75131600  0.49962600  1
  O  O52  1  0.22848200  0.99646300  0.02762400  1
  O  O53  1  0.22848200  0.49646300  0.47237600  1
  O  O54  1  0.23878600  0.23965300  0.24574200  1
  O  O55  1  0.23878600  0.73965300  0.25425800  1
  O  O56  1  0.26121400  0.23965300  0.74574200  1
  O  O57  1  0.26121400  0.73965300  0.75425800  1
  O  O58  1  0.27151800  0.99646300  0.52762400  1
  O  O59  1  0.27151800  0.49646300  0.97237600  1
  O  O60  1  0.45827800  0.25131600  0.50037400  1
  O  O61  1  0.45827800  0.75131600  0.99962600  1
  O  O62  1  0.49380100  0.48048200  0.74121200  1
  O  O63  1  0.49380100  0.98048200  0.75878800  1
  O  O64  1  0.50619900  0.01951800  0.24121200  1
  O  O65  1  0.50619900  0.51951800  0.25878800  1
  O  O66  1  0.54172200  0.24868400  0.00037400  1
  O  O67  1  0.54172200  0.74868400  0.49962600  1
  O  O68  1  0.72848200  0.50353700  0.02762400  1
  O  O69  1  0.72848200  0.00353700  0.47237600  1
  O  O70  1  0.73878600  0.26034700  0.24574200  1
  O  O71  1  0.73878600  0.76034700  0.25425800  1
  O  O72  1  0.76121400  0.26034700  0.74574200  1
  O  O73  1  0.76121400  0.76034700  0.75425800  1
  O  O74  1  0.77151800  0.50353700  0.52762400  1
  O  O75  1  0.77151800  0.00353700  0.97237600  1
  O  O76  1  0.95827800  0.74868400  0.99962600  1
  O  O77  1  0.95827800  0.24868400  0.50037400  1
  O  O78  1  0.99380100  0.01951800  0.74121200  1
  O  O79  1  0.99380100  0.51951800  0.75878800  1
