# generated using pymatgen
data_Li4Co2Ni3Sn(PO4)6
_symmetry_space_group_name_H-M   'P 1'
_cell_length_a   8.40767834
_cell_length_b   8.51473397
_cell_length_c   8.51447850
_cell_angle_alpha   62.70720697
_cell_angle_beta   63.10660707
_cell_angle_gamma   63.07882783
_symmetry_Int_Tables_number   1
_chemical_formula_structural   Li4Co2Ni3Sn(PO4)6
_chemical_formula_sum   'Li4 Co2 Ni3 Sn1 P6 O24'
_cell_volume   459.37169141
_cell_formula_units_Z   1
loop_
 _symmetry_equiv_pos_site_id
 _symmetry_equiv_pos_as_xyz
  1  'x, y, z'
loop_
 _atom_site_type_symbol
 _atom_site_label
 _atom_site_symmetry_multiplicity
 _atom_site_fract_x
 _atom_site_fract_y
 _atom_site_fract_z
 _atom_site_occupancy
  Li  Li0  1  0.74666700  0.14790400  0.35208300  1
  Li  Li1  1  0.29494900  0.84438800  0.64017400  1
  Li  Li2  1  0.63617900  0.29466400  0.84821000  1
  Li  Li3  1  0.84894800  0.63694000  0.29786300  1
  Co  Co4  1  0.01658100  0.00116200  0.99881400  1
  Co  Co5  1  0.48774900  0.50346300  0.49884000  1
  Ni  Ni6  1  0.14293900  0.14756300  0.14508100  1
  Ni  Ni7  1  0.35563900  0.35586700  0.35253300  1
  Ni  Ni8  1  0.64608900  0.64684800  0.65018000  1
  Sn  Sn9  1  0.85275600  0.84792400  0.85191300  1
  P  P10  1  0.25043700  0.54282400  0.95350800  1
  P  P11  1  0.55156800  0.95429000  0.25166800  1
  P  P12  1  0.94487600  0.24830900  0.54291000  1
  P  P13  1  0.05704100  0.74468300  0.44088300  1
  P  P14  1  0.43921700  0.05536500  0.74743800  1
  P  P15  1  0.74628700  0.44080300  0.05443300  1
  O  O16  1  0.10989500  0.30366500  0.49855200  1
  O  O17  1  0.31410700  0.51517500  0.10564300  1
  O  O18  1  0.05639400  0.91046300  0.25783200  1
  O  O19  1  0.54530900  0.10191100  0.30986100  1
  O  O20  1  0.02115800  0.80969800  0.60322200  1
  O  O21  1  0.25128300  0.59586200  0.42728900  1
  O  O22  1  0.24862200  0.07551400  0.90178500  1
  O  O23  1  0.44635100  0.24059600  0.58639600  1
  O  O24  1  0.17302200  0.39835100  0.98762900  1
  O  O25  1  0.59949700  0.42458400  0.25072700  1
  O  O26  1  0.10045300  0.75207500  0.91951800  1
  O  O27  1  0.39345900  0.00457500  0.18372700  1
  O  O28  1  0.60045800  0.01565600  0.81950800  1
  O  O29  1  0.89821400  0.24682200  0.07696700  1
  O  O30  1  0.40490600  0.56533200  0.75492100  1
  O  O31  1  0.81266700  0.60104200  0.02063800  1
  O  O32  1  0.56518400  0.75707300  0.40749200  1
  O  O33  1  0.75758700  0.91532100  0.09875100  1
  O  O34  1  0.74878200  0.40614200  0.56997800  1
  O  O35  1  0.95629500  0.17820900  0.40185500  1
  O  O36  1  0.47580000  0.89592700  0.68602900  1
  O  O37  1  0.92142400  0.09660100  0.74988900  1
  O  O38  1  0.68261800  0.47718600  0.89658100  1
  O  O39  1  0.89858500  0.67621800  0.48167800  1
