# generated using pymatgen
data_Li4Mn3Fe(BO3)4
_symmetry_space_group_name_H-M   'P 1'
_cell_length_a   5.25858800
_cell_length_b   9.08387012
_cell_length_c   10.48570199
_cell_angle_alpha   88.44387692
_cell_angle_beta   88.87190147
_cell_angle_gamma   89.73099388
_symmetry_Int_Tables_number   1
_chemical_formula_structural   Li4Mn3Fe(BO3)4
_chemical_formula_sum   'Li8 Mn6 Fe2 B8 O24'
_cell_volume   500.59836899
_cell_formula_units_Z   2
loop_
 _symmetry_equiv_pos_site_id
 _symmetry_equiv_pos_as_xyz
  1  'x, y, z'
loop_
 _atom_site_type_symbol
 _atom_site_label
 _atom_site_symmetry_multiplicity
 _atom_site_fract_x
 _atom_site_fract_y
 _atom_site_fract_z
 _atom_site_occupancy
  Li  Li0  1  0.14701000  0.17416900  0.66726400  1
  Li  Li1  1  0.18688100  0.16076900  0.16747800  1
  Li  Li2  1  0.32115000  0.33167800  0.41777900  1
  Li  Li3  1  0.33655700  0.32544400  0.91754600  1
  Li  Li4  1  0.64591000  0.67435800  0.66836400  1
  Li  Li5  1  0.68783100  0.66057500  0.16807900  1
  Li  Li6  1  0.82138900  0.83147400  0.41715600  1
  Li  Li7  1  0.83652000  0.82573000  0.91729800  1
  Mn  Mn8  1  0.17777100  0.49860400  0.13319100  1
  Mn  Mn9  1  0.33106500  0.66421600  0.38526200  1
  Mn  Mn10  1  0.33066300  0.99693300  0.88216100  1
  Mn  Mn11  1  0.66015000  0.33856600  0.63101200  1
  Mn  Mn12  1  0.67778200  0.99941900  0.13393800  1
  Mn  Mn13  1  0.83110700  0.49829600  0.88306000  1
  Fe  Fe14  1  0.15406000  0.84092100  0.63286600  1
  Fe  Fe15  1  0.83821800  0.16270300  0.38224500  1
  B  B16  1  0.17406200  0.82953300  0.12635200  1
  B  B17  1  0.15737200  0.50290800  0.62652000  1
  B  B18  1  0.33424400  0.99935100  0.37801500  1
  B  B19  1  0.32729600  0.66723700  0.87475900  1
  B  B20  1  0.67374200  0.32933800  0.12682700  1
  B  B21  1  0.66020600  0.99976600  0.62425700  1
  B  B22  1  0.83654400  0.49601400  0.37523300  1
  B  B23  1  0.82750700  0.16697400  0.87532700  1
  O  O24  1  0.09663500  0.48096400  0.34529700  1
  O  O25  1  0.08899400  0.17936500  0.86072100  1
  O  O26  1  0.17233600  0.78861400  0.84345100  1
  O  O27  1  0.19373600  0.87687300  0.41871300  1
  O  O28  1  0.21692900  0.13594400  0.36281600  1
  O  O29  1  0.21784400  0.53473000  0.91778800  1
  O  O30  1  0.26655600  0.36513200  0.61109200  1
  O  O31  1  0.28851100  0.96554900  0.09598200  1
  O  O32  1  0.30180500  0.62945300  0.59764000  1
  O  O33  1  0.32357200  0.71074500  0.16760300  1
  O  O34  1  0.41412200  0.31385400  0.11197000  1
  O  O35  1  0.40574500  0.01114500  0.66360200  1
  O  O36  1  0.59442600  0.98652700  0.34834700  1
  O  O37  1  0.58863500  0.68019600  0.86113400  1
  O  O38  1  0.67286200  0.28869200  0.84445600  1
  O  O39  1  0.69506200  0.37297400  0.41569000  1
  O  O40  1  0.72331100  0.63341200  0.36219800  1
  O  O41  1  0.71700100  0.03462200  0.91761000  1
  O  O42  1  0.78790400  0.46531300  0.09575200  1
  O  O43  1  0.77425500  0.86220900  0.61231500  1
  O  O44  1  0.80298900  0.12596200  0.59435600  1
  O  O45  1  0.82314300  0.21068900  0.16834700  1
  O  O46  1  0.91409900  0.81456300  0.11205000  1
  O  O47  1  0.90389100  0.51689900  0.66668200  1
