# generated using pymatgen
data_LiMn(PO3)3
_symmetry_space_group_name_H-M   'P 1'
_cell_length_a   9.55095800
_cell_length_b   9.60382173
_cell_length_c   9.85807997
_cell_angle_alpha   108.70033037
_cell_angle_beta   104.49233933
_cell_angle_gamma   109.87710633
_symmetry_Int_Tables_number   1
_chemical_formula_structural   LiMn(PO3)3
_chemical_formula_sum   'Li4 Mn4 P12 O36'
_cell_volume   737.06067348
_cell_formula_units_Z   4
loop_
 _symmetry_equiv_pos_site_id
 _symmetry_equiv_pos_as_xyz
  1  'x, y, z'
loop_
 _atom_site_type_symbol
 _atom_site_label
 _atom_site_symmetry_multiplicity
 _atom_site_fract_x
 _atom_site_fract_y
 _atom_site_fract_z
 _atom_site_occupancy
  Li  Li0  1  0.22992400  0.77216600  0.74731600  1
  Li  Li1  1  0.93200700  0.68740800  0.79034700  1
  Li  Li2  1  0.06799300  0.31259200  0.20965300  1
  Li  Li3  1  0.77007600  0.22783400  0.25268400  1
  Mn  Mn4  1  0.67191700  0.07153000  0.49302900  1
  Mn  Mn5  1  0.62579400  0.82354100  0.70257800  1
  Mn  Mn6  1  0.37420600  0.17645900  0.29742200  1
  Mn  Mn7  1  0.32808300  0.92847000  0.50697100  1
  P  P8  1  0.19333800  0.08200400  0.91250800  1
  P  P9  1  0.51708200  0.14683800  0.89287400  1
  P  P10  1  0.01285000  0.39679800  0.64795800  1
  P  P11  1  0.95594800  0.21376900  0.84154800  1
  P  P12  1  0.57874200  0.34123000  0.71152200  1
  P  P13  1  0.32466900  0.43280800  0.59619200  1
  P  P14  1  0.67533100  0.56719200  0.40380800  1
  P  P15  1  0.42125800  0.65877000  0.28847800  1
  P  P16  1  0.04405200  0.78623100  0.15845200  1
  P  P17  1  0.98715000  0.60320200  0.35204200  1
  P  P18  1  0.48291800  0.85316200  0.10712600  1
  P  P19  1  0.80666200  0.91799600  0.08749200  1
  O  O20  1  0.04645400  0.73069700  0.00226100  1
  O  O21  1  0.36340200  0.17664600  0.90121100  1
  O  O22  1  0.10260200  0.16931500  0.83640700  1
  O  O23  1  0.00855200  0.36628600  0.79805100  1
  O  O24  1  0.60701000  0.29888700  0.85686000  1
  O  O25  1  0.37635000  0.82794500  0.95582600  1
  O  O26  1  0.11255200  0.90236400  0.80362100  1
  O  O27  1  0.04025000  0.56831400  0.68299800  1
  O  O28  1  0.16826000  0.37331700  0.63446600  1
  O  O29  1  0.43294400  0.38757900  0.71461400  1
  O  O30  1  0.79763200  0.06914900  0.70380200  1
  O  O31  1  0.77912800  0.86174400  0.91727200  1
  O  O32  1  0.72703200  0.47815300  0.73558700  1
  O  O33  1  0.50773400  0.17596600  0.55922000  1
  O  O34  1  0.40198400  0.61652600  0.64907900  1
  O  O35  1  0.45750100  0.98526400  0.74595500  1
  O  O36  1  0.28452500  0.31739400  0.43121900  1
  O  O37  1  0.13530000  0.74340900  0.49491400  1
  O  O38  1  0.86470000  0.25659100  0.50508600  1
  O  O39  1  0.71547500  0.68260600  0.56878100  1
  O  O40  1  0.54249900  0.01473600  0.25404500  1
  O  O41  1  0.59801600  0.38347400  0.35092100  1
  O  O42  1  0.49226600  0.82403400  0.44078000  1
  O  O43  1  0.27296800  0.52184700  0.26441300  1
  O  O44  1  0.22087200  0.13825600  0.08272800  1
  O  O45  1  0.20236800  0.93085100  0.29619800  1
  O  O46  1  0.56705600  0.61242100  0.28538600  1
  O  O47  1  0.83174000  0.62668300  0.36553400  1
  O  O48  1  0.95975000  0.43168600  0.31700200  1
  O  O49  1  0.88744800  0.09763600  0.19637900  1
  O  O50  1  0.62365000  0.17205500  0.04417400  1
  O  O51  1  0.39299000  0.70111300  0.14314000  1
  O  O52  1  0.99144800  0.63371400  0.20194900  1
  O  O53  1  0.89739800  0.83068500  0.16359300  1
  O  O54  1  0.63659800  0.82335400  0.09878900  1
  O  O55  1  0.95354600  0.26930300  0.99773900  1
