# generated using pymatgen
data_Li11Mn6O16
_symmetry_space_group_name_H-M   'P 1'
_cell_length_a   8.23604000
_cell_length_b   8.29073317
_cell_length_c   8.63230905
_cell_angle_alpha   89.54413386
_cell_angle_beta   89.78757731
_cell_angle_gamma   89.88683522
_symmetry_Int_Tables_number   1
_chemical_formula_structural   Li11Mn6O16
_chemical_formula_sum   'Li22 Mn12 O32'
_cell_volume   589.41449599
_cell_formula_units_Z   2
loop_
 _symmetry_equiv_pos_site_id
 _symmetry_equiv_pos_as_xyz
  1  'x, y, z'
loop_
 _atom_site_type_symbol
 _atom_site_label
 _atom_site_symmetry_multiplicity
 _atom_site_fract_x
 _atom_site_fract_y
 _atom_site_fract_z
 _atom_site_occupancy
  Li  Li0  1  0.23582800  0.23981400  0.99503600  1
  Li  Li1  1  0.99877200  0.99186800  0.00865500  1
  Li  Li2  1  0.30835900  0.44143000  0.17848300  1
  Li  Li3  1  0.98074200  0.75753900  0.22789100  1
  Li  Li4  1  0.78394900  0.00489600  0.23264300  1
  Li  Li5  1  0.00480900  0.24988700  0.25095100  1
  Li  Li6  1  0.50600200  0.25865800  0.23345400  1
  Li  Li7  1  0.15343200  0.59260900  0.35053100  1
  Li  Li8  1  0.59259800  0.07882500  0.40799400  1
  Li  Li9  1  0.99057700  0.49239400  0.52612600  1
  Li  Li10  1  0.26657300  0.74331500  0.51738300  1
  Li  Li11  1  0.50375800  0.49724300  0.50567100  1
  Li  Li12  1  0.77514100  0.27431800  0.53731800  1
  Li  Li13  1  0.43854700  0.93958800  0.58787400  1
  Li  Li14  1  0.75344800  0.50372900  0.75316600  1
  Li  Li15  1  0.75554000  0.99889300  0.75561700  1
  Li  Li16  1  0.00668600  0.23706200  0.75437200  1
  Li  Li17  1  0.24273500  0.00246800  0.79218800  1
  Li  Li18  1  0.51355900  0.72840500  0.78829900  1
  Li  Li19  1  0.24973700  0.74245500  0.00681900  1
  Li  Li20  1  0.52222700  0.50393900  0.99361400  1
  Li  Li21  1  0.75691600  0.75287400  0.01017900  1
  Mn  Mn22  1  0.75584900  0.48714700  0.26280700  1
  Mn  Mn23  1  0.50610800  0.74158700  0.24948800  1
  Mn  Mn24  1  0.25688900  0.25261300  0.49470900  1
  Mn  Mn25  1  0.75355600  0.74787800  0.50132300  1
  Mn  Mn26  1  0.25526000  0.50268000  0.75200300  1
  Mn  Mn27  1  0.50320500  0.25292300  0.75484800  1
  Mn  Mn28  1  0.75381300  0.24832500  0.00134700  1
  Mn  Mn29  1  0.50364900  0.99712800  0.00223400  1
  Mn  Mn30  1  0.25311800  0.99569900  0.24621800  1
  Mn  Mn31  1  0.00665300  0.75103100  0.75465100  1
  Mn  Mn32  1  0.00226400  0.49750000  0.00484600  1
  Mn  Mn33  1  0.00753800  0.99435500  0.49591300  1
  O  O34  1  0.74723800  0.01419900  0.00244600  1
  O  O35  1  0.76446700  0.48418200  0.00329700  1
  O  O36  1  0.25831700  0.99791000  0.02341100  1
  O  O37  1  0.51379900  0.74343900  0.02685800  1
  O  O38  1  0.98629400  0.49426900  0.25539600  1
  O  O39  1  0.74920900  0.24724900  0.23101000  1
  O  O40  1  0.49367600  0.98267600  0.23355100  1
  O  O41  1  0.51682200  0.51042200  0.25275100  1
  O  O42  1  0.27226300  0.75643600  0.25419400  1
  O  O43  1  0.74205300  0.74382700  0.26752500  1
  O  O44  1  0.25953800  0.22676700  0.25336200  1
  O  O45  1  0.02210400  0.99423800  0.26348400  1
  O  O46  1  0.75428900  0.51674000  0.50328900  1
  O  O47  1  0.77610900  0.98681100  0.49165300  1
  O  O48  1  0.24423400  0.99361100  0.47736800  1
  O  O49  1  0.51987100  0.75687900  0.48164600  1
  O  O50  1  0.24850100  0.49735600  0.52545200  1
  O  O51  1  0.99406600  0.75723600  0.48873000  1
  O  O52  1  0.01816200  0.22771700  0.50676400  1
  O  O53  1  0.48832700  0.24536500  0.50309700  1
  O  O54  1  0.01282400  0.98221200  0.72453000  1
  O  O55  1  0.76290700  0.75022400  0.72346400  1
  O  O56  1  0.26238400  0.26310400  0.74890000  1
  O  O57  1  0.25351100  0.73710900  0.74865400  1
  O  O58  1  0.48831400  0.49210500  0.75650400  1
  O  O59  1  0.01740400  0.51563000  0.74958800  1
  O  O60  1  0.73973600  0.25288100  0.76947000  1
  O  O61  1  0.49288900  0.01115700  0.78096300  1
  O  O62  1  0.23897000  0.49333900  0.97885300  1
  O  O63  1  0.99553800  0.73639900  0.99977600  1
  O  O64  1  0.51912800  0.25552500  0.00763000  1
  O  O65  1  0.98865500  0.25559800  0.99399300  1
