# generated using pymatgen
data_Li2Cr4O13
_symmetry_space_group_name_H-M   'P 1'
_cell_length_a   7.64524927
_cell_length_b   7.64524927
_cell_length_c   14.05801036
_cell_angle_alpha   73.22173686
_cell_angle_beta   73.22173686
_cell_angle_gamma   53.14078710
_symmetry_Int_Tables_number   1
_chemical_formula_structural   Li2Cr4O13
_chemical_formula_sum   'Li4 Cr8 O26'
_cell_volume   622.25769434
_cell_formula_units_Z   2
loop_
 _symmetry_equiv_pos_site_id
 _symmetry_equiv_pos_as_xyz
  1  'x, y, z'
loop_
 _atom_site_type_symbol
 _atom_site_label
 _atom_site_symmetry_multiplicity
 _atom_site_fract_x
 _atom_site_fract_y
 _atom_site_fract_z
 _atom_site_occupancy
  Li  Li0  1  0.72961000  0.73441300  0.90988800  1
  Li  Li1  1  0.26558700  0.27039000  0.59011200  1
  Li  Li2  1  0.73441300  0.72961000  0.40988800  1
  Li  Li3  1  0.27039000  0.26558700  0.09011200  1
  Cr  Cr4  1  0.84521900  0.13307400  0.86646300  1
  Cr  Cr5  1  0.13307400  0.84521900  0.36646300  1
  Cr  Cr6  1  0.22564400  0.23339500  0.84263300  1
  Cr  Cr7  1  0.76660500  0.77435600  0.65736700  1
  Cr  Cr8  1  0.23339500  0.22564400  0.34263300  1
  Cr  Cr9  1  0.77435600  0.76660500  0.15736700  1
  Cr  Cr10  1  0.86692600  0.15478100  0.63353700  1
  Cr  Cr11  1  0.15478100  0.86692600  0.13353700  1
  O  O12  1  0.67601300  0.29085800  0.94901400  1
  O  O13  1  0.87578500  0.89721700  0.90017200  1
  O  O14  1  0.29085800  0.67601300  0.44901400  1
  O  O15  1  0.91528400  0.89736400  0.64913300  1
  O  O16  1  0.04871200  0.44937600  0.89926100  1
  O  O17  1  0.44337700  0.06624700  0.89905800  1
  O  O18  1  0.29206500  0.30357100  0.72399400  1
  O  O19  1  0.89721700  0.87578500  0.40017200  1
  O  O20  1  0.89736400  0.91528400  0.14913300  1
  O  O21  1  0.69642900  0.70793500  0.77600600  1
  O  O22  1  0.93375300  0.55662300  0.60094200  1
  O  O23  1  0.55062400  0.95128800  0.60073900  1
  O  O24  1  0.44937600  0.04871200  0.39926100  1
  O  O25  1  0.06624700  0.44337700  0.39905800  1
  O  O26  1  0.30357100  0.29206500  0.22399400  1
  O  O27  1  0.10263600  0.08471600  0.85086700  1
  O  O28  1  0.10278300  0.12421500  0.59982800  1
  O  O29  1  0.70793500  0.69642900  0.27600600  1
  O  O30  1  0.55662300  0.93375300  0.10094200  1
  O  O31  1  0.95128800  0.55062400  0.10073900  1
  O  O32  1  0.74165700  0.25834300  0.75000000  1
  O  O33  1  0.08471600  0.10263600  0.35086700  1
  O  O34  1  0.70914200  0.32398700  0.55098600  1
  O  O35  1  0.12421500  0.10278300  0.09982800  1
  O  O36  1  0.25834300  0.74165700  0.25000000  1
  O  O37  1  0.32398700  0.70914200  0.05098600  1
