# generated using pymatgen
data_LiCo2OF3
_symmetry_space_group_name_H-M   'P 1'
_cell_length_a   6.12846700
_cell_length_b   6.16936700
_cell_length_c   8.49632974
_cell_angle_alpha   89.49982819
_cell_angle_beta   90.00000000
_cell_angle_gamma   90.00000000
_symmetry_Int_Tables_number   1
_chemical_formula_structural   LiCo2OF3
_chemical_formula_sum   'Li4 Co8 O4 F12'
_cell_volume   321.22346940
_cell_formula_units_Z   4
loop_
 _symmetry_equiv_pos_site_id
 _symmetry_equiv_pos_as_xyz
  1  'x, y, z'
loop_
 _atom_site_type_symbol
 _atom_site_label
 _atom_site_symmetry_multiplicity
 _atom_site_fract_x
 _atom_site_fract_y
 _atom_site_fract_z
 _atom_site_occupancy
  Li  Li0  1  0.00329700  0.76577500  0.74898200  1
  Li  Li1  1  0.00329700  0.23422500  0.25101800  1
  Li  Li2  1  0.76553900  0.50000000  0.00000000  1
  Li  Li3  1  0.76824200  0.00000000  0.00000000  1
  Co  Co4  1  0.20868900  0.00000000  0.50000000  1
  Co  Co5  1  0.21413200  0.50000000  0.50000000  1
  Co  Co6  1  0.24793800  0.77948900  0.13202200  1
  Co  Co7  1  0.24793800  0.22051100  0.86797800  1
  Co  Co8  1  0.49217100  0.76349100  0.75496400  1
  Co  Co9  1  0.49217100  0.23650900  0.24503600  1
  Co  Co10  1  0.77094700  0.73957100  0.37414900  1
  Co  Co11  1  0.77094700  0.26042900  0.62585100  1
  O  O12  1  0.01152400  0.74212200  0.50919000  1
  O  O13  1  0.01152400  0.25787800  0.49081000  1
  O  O14  1  0.26419600  0.97829200  0.73499700  1
  O  O15  1  0.26419600  0.02170800  0.26500300  1
  F  F16  1  0.25030500  0.51200700  0.75491900  1
  F  F17  1  0.25030500  0.48799300  0.24508100  1
  F  F18  1  0.49074500  0.72586900  0.50464100  1
  F  F19  1  0.49074500  0.27413100  0.49535900  1
  F  F20  1  0.51891900  0.75148900  0.99872700  1
  F  F21  1  0.51891900  0.24851100  0.00127300  1
  F  F22  1  0.75154000  0.00910700  0.23740900  1
  F  F23  1  0.75154000  0.99089300  0.76259100  1
  F  F24  1  0.73502100  0.52438900  0.76397800  1
  F  F25  1  0.73502100  0.47561100  0.23602200  1
  F  F26  1  0.98509600  0.75154600  0.99626800  1
  F  F27  1  0.98509600  0.24845400  0.00373200  1
