# generated using pymatgen
data_Li2V(OF)2
_symmetry_space_group_name_H-M   'P 1'
_cell_length_a   5.94670101
_cell_length_b   6.03737150
_cell_length_c   8.40542909
_cell_angle_alpha   89.22068976
_cell_angle_beta   90.00116094
_cell_angle_gamma   89.99519453
_symmetry_Int_Tables_number   1
_chemical_formula_structural   Li2V(OF)2
_chemical_formula_sum   'Li8 V4 O8 F8'
_cell_volume   301.74752515
_cell_formula_units_Z   4
loop_
 _symmetry_equiv_pos_site_id
 _symmetry_equiv_pos_as_xyz
  1  'x, y, z'
loop_
 _atom_site_type_symbol
 _atom_site_label
 _atom_site_symmetry_multiplicity
 _atom_site_fract_x
 _atom_site_fract_y
 _atom_site_fract_z
 _atom_site_occupancy
  Li  Li0  1  0.24676200  0.25185700  0.38983700  1
  Li  Li1  1  0.24676000  0.74813400  0.11017900  1
  Li  Li2  1  0.25340100  0.49999800  0.75000200  1
  Li  Li3  1  0.50204000  0.25551000  0.98916200  1
  Li  Li4  1  0.50206300  0.74448900  0.51084900  1
  Li  Li5  1  0.73676700  0.50000300  0.25001400  1
  Li  Li6  1  0.75265700  0.24341600  0.61869500  1
  Li  Li7  1  0.75266700  0.75659500  0.88130600  1
  V  V8  1  0.02464500  0.25902200  0.98633800  1
  V  V9  1  0.02485200  0.74089900  0.51362500  1
  V  V10  1  0.23092200  0.00001000  0.75004800  1
  V  V11  1  0.74205400  0.00001500  0.24994200  1
  O  O12  1  0.01187600  0.23541700  0.76490000  1
  O  O13  1  0.01191700  0.76459300  0.73507400  1
  O  O14  1  0.24428900  0.01586600  0.97155900  1
  O  O15  1  0.24429600  0.98412600  0.52846600  1
  O  O16  1  0.22396000  0.46335100  0.00857800  1
  O  O17  1  0.22398900  0.53668000  0.49145300  1
  O  O18  1  0.77641300  0.97320900  0.46274200  1
  O  O19  1  0.77638400  0.02678600  0.03721100  1
  F  F20  1  0.47841200  0.24251500  0.74453900  1
  F  F21  1  0.47842800  0.75749300  0.75548500  1
  F  F22  1  0.51992700  0.23930600  0.25757700  1
  F  F23  1  0.51992700  0.76070000  0.24241700  1
  F  F24  1  0.75547500  0.52671000  0.49456500  1
  F  F25  1  0.75542400  0.47331200  0.00544300  1
  F  F26  1  0.98183600  0.24604200  0.24688600  1
  F  F27  1  0.98185800  0.75394600  0.25311100  1
