# generated using pymatgen
data_LiSn2(PO4)3
_symmetry_space_group_name_H-M   'P 1'
_cell_length_a   9.17486660
_cell_length_b   9.17904549
_cell_length_c   9.12567057
_cell_angle_alpha   55.74603461
_cell_angle_beta   55.72647063
_cell_angle_gamma   55.35657018
_symmetry_Int_Tables_number   1
_chemical_formula_structural   LiSn2(PO4)3
_chemical_formula_sum   'Li2 Sn4 P6 O24'
_cell_volume   488.04919492
_cell_formula_units_Z   2
loop_
 _symmetry_equiv_pos_site_id
 _symmetry_equiv_pos_as_xyz
  1  'x, y, z'
loop_
 _atom_site_type_symbol
 _atom_site_label
 _atom_site_symmetry_multiplicity
 _atom_site_fract_x
 _atom_site_fract_y
 _atom_site_fract_z
 _atom_site_occupancy
  Li  Li0  1  0.41045671  0.71744163  0.24392591  1
  Li  Li1  1  0.58954329  0.28255837  0.75607409  1
  Sn  Sn2  1  0.14032683  0.15012478  0.14207177  1
  Sn  Sn3  1  0.34840106  0.34329793  0.35189554  1
  Sn  Sn4  1  0.65159894  0.65670207  0.64810446  1
  Sn  Sn5  1  0.85967317  0.84987522  0.85792823  1
  P  P6  1  0.03775541  0.74951678  0.45825984  1
  P  P7  1  0.45727855  0.04526386  0.74995952  1
  P  P8  1  0.74774150  0.45902136  0.04060464  1
  P  P9  1  0.25225850  0.54097864  0.95939536  1
  P  P10  1  0.54272145  0.95473614  0.25004048  1
  P  P11  1  0.96224459  0.25048322  0.54174016  1
  O  O12  1  0.99464480  0.20858892  0.38258043  1
  O  O13  1  0.21994968  0.38098669  0.98013850  1
  O  O14  1  0.39381893  0.96551044  0.20566779  1
  O  O15  1  0.14664262  0.22167021  0.53691670  1
  O  O16  1  0.22542627  0.52614042  0.14896079  1
  O  O17  1  0.51415629  0.15341736  0.21395036  1
  O  O18  1  0.19111770  0.54743743  0.47337239  1
  O  O19  1  0.13333724  0.88204643  0.26339549  1
  O  O20  1  0.25783981  0.12887315  0.88339099  1
  O  O21  1  0.48438415  0.17931889  0.54138592  1
  O  O22  1  0.53898971  0.48484525  0.18609115  1
  O  O23  1  0.11809145  0.73778580  0.87383910  1
  O  O24  1  0.88190855  0.26221420  0.12616090  1
  O  O25  1  0.46101029  0.51515475  0.81390885  1
  O  O26  1  0.51561585  0.82068111  0.45861408  1
  O  O27  1  0.74216019  0.87112685  0.11660901  1
  O  O28  1  0.86666276  0.11795357  0.73660451  1
  O  O29  1  0.80888230  0.45256257  0.52662761  1
  O  O30  1  0.48584371  0.84658264  0.78604964  1
  O  O31  1  0.77457373  0.47385958  0.85103921  1
  O  O32  1  0.85335738  0.77832979  0.46308330  1
  O  O33  1  0.60618107  0.03448956  0.79433221  1
  O  O34  1  0.78005032  0.61901331  0.01986150  1
  O  O35  1  0.00535520  0.79141108  0.61741957  1
