# generated using pymatgen
data_Li9(NiO2)10
_symmetry_space_group_name_H-M   'P 1'
_cell_length_a   6.42524000
_cell_length_b   7.58654576
_cell_length_c   7.58847602
_cell_angle_alpha   67.59699006
_cell_angle_beta   88.77223901
_cell_angle_gamma   88.80980974
_symmetry_Int_Tables_number   1
_chemical_formula_structural   Li9(NiO2)10
_chemical_formula_sum   'Li9 Ni10 O20'
_cell_volume   341.87475542
_cell_formula_units_Z   1
loop_
 _symmetry_equiv_pos_site_id
 _symmetry_equiv_pos_as_xyz
  1  'x, y, z'
loop_
 _atom_site_type_symbol
 _atom_site_label
 _atom_site_symmetry_multiplicity
 _atom_site_fract_x
 _atom_site_fract_y
 _atom_site_fract_z
 _atom_site_occupancy
  Li  Li0  1  0.69261400  0.30995800  0.80910600  1
  Li  Li1  1  0.20521400  0.79020500  0.80588700  1
  Li  Li2  1  0.40133000  0.59600300  0.60894600  1
  Li  Li3  1  0.89529500  0.10401300  0.60022900  1
  Li  Li4  1  0.10470500  0.89598700  0.39977100  1
  Li  Li5  1  0.59867000  0.40399700  0.39105400  1
  Li  Li6  1  0.30738600  0.69004200  0.19089400  1
  Li  Li7  1  0.79478600  0.20979500  0.19411300  1
  Li  Li8  1  0.00000000  0.00000000  0.00000000  1
  Ni  Ni9  1  0.59836800  0.89994400  0.89963900  1
  Ni  Ni10  1  0.10232000  0.40074200  0.89879500  1
  Ni  Ni11  1  0.79975500  0.69952300  0.70098500  1
  Ni  Ni12  1  0.00000000  0.50000000  0.50000000  1
  Ni  Ni13  1  0.29798200  0.19743200  0.69980500  1
  Ni  Ni14  1  0.70201800  0.80256800  0.30019500  1
  Ni  Ni15  1  0.50000000  0.00000000  0.50000000  1
  Ni  Ni16  1  0.89768000  0.59925800  0.10120500  1
  Ni  Ni17  1  0.20024500  0.30047700  0.29901500  1
  Ni  Ni18  1  0.40163200  0.10005600  0.10036100  1
  O  O19  1  0.32070900  0.95175700  0.95510000  1
  O  O20  1  0.87643800  0.84682100  0.84235000  1
  O  O21  1  0.82573300  0.45564800  0.95211300  1
  O  O22  1  0.51379200  0.77969300  0.72788400  1
  O  O23  1  0.37907000  0.33926500  0.84265100  1
  O  O24  1  0.08381600  0.64481500  0.64428400  1
  O  O25  1  0.57881900  0.14608400  0.64058800  1
  O  O26  1  0.77844200  0.94882000  0.44563900  1
  O  O27  1  0.01850300  0.25184100  0.75574100  1
  O  O28  1  0.72102100  0.55507600  0.55827900  1
  O  O29  1  0.27897900  0.44492400  0.44172100  1
  O  O30  1  0.91618400  0.35518500  0.35571600  1
  O  O31  1  0.42118100  0.85391600  0.35941200  1
  O  O32  1  0.22155800  0.05118000  0.55436100  1
  O  O33  1  0.98149700  0.74815900  0.24425900  1
  O  O34  1  0.62093000  0.66073500  0.15734900  1
  O  O35  1  0.48620800  0.22030700  0.27211600  1
  O  O36  1  0.12356200  0.15317900  0.15765000  1
  O  O37  1  0.67929100  0.04824300  0.04490000  1
  O  O38  1  0.17426700  0.54435200  0.04788700  1
