# generated using pymatgen
data_Li2Cr2O7
_symmetry_space_group_name_H-M   'P 1'
_cell_length_a   5.72791955
_cell_length_b   5.72791955
_cell_length_c   9.98118132
_cell_angle_alpha   75.69702451
_cell_angle_beta   75.69702451
_cell_angle_gamma   96.16874075
_symmetry_Int_Tables_number   1
_chemical_formula_structural   Li2Cr2O7
_chemical_formula_sum   'Li4 Cr4 O14'
_cell_volume   302.49544017
_cell_formula_units_Z   2
loop_
 _symmetry_equiv_pos_site_id
 _symmetry_equiv_pos_as_xyz
  1  'x, y, z'
loop_
 _atom_site_type_symbol
 _atom_site_label
 _atom_site_symmetry_multiplicity
 _atom_site_fract_x
 _atom_site_fract_y
 _atom_site_fract_z
 _atom_site_occupancy
  Li  Li0  1  0.65556800  0.29188500  0.49021600  1
  Li  Li1  1  0.70811500  0.34443200  0.00978400  1
  Li  Li2  1  0.29188500  0.65556800  0.99021600  1
  Li  Li3  1  0.34443200  0.70811500  0.50978400  1
  Cr  Cr4  1  0.81007800  0.79021400  0.20756400  1
  Cr  Cr5  1  0.79021400  0.81007800  0.70756400  1
  Cr  Cr6  1  0.20978600  0.18992200  0.29243600  1
  Cr  Cr7  1  0.18992200  0.20978600  0.79243600  1
  O  O8  1  0.67637200  0.98221300  0.11601500  1
  O  O9  1  0.93049500  0.61868200  0.10929800  1
  O  O10  1  0.61208300  0.61924100  0.35963800  1
  O  O11  1  0.98221300  0.67637200  0.61601500  1
  O  O12  1  0.04699900  0.95300100  0.25000000  1
  O  O13  1  0.61868200  0.93049500  0.60929800  1
  O  O14  1  0.61924100  0.61208300  0.85963800  1
  O  O15  1  0.38075900  0.38791700  0.14036200  1
  O  O16  1  0.38131800  0.06950500  0.39070200  1
  O  O17  1  0.95300100  0.04699900  0.75000000  1
  O  O18  1  0.01778700  0.32362800  0.38398500  1
  O  O19  1  0.38791700  0.38075900  0.64036200  1
  O  O20  1  0.06950500  0.38131800  0.89070200  1
  O  O21  1  0.32362800  0.01778700  0.88398500  1
