# generated using pymatgen
data_Li8MnFe7(BO3)8
_symmetry_space_group_name_H-M   'P 1'
_cell_length_a   5.97357000
_cell_length_b   9.08444229
_cell_length_c   9.71304613
_cell_angle_alpha   81.39135390
_cell_angle_beta   79.05391957
_cell_angle_gamma   75.85212365
_symmetry_Int_Tables_number   1
_chemical_formula_structural   Li8MnFe7(BO3)8
_chemical_formula_sum   'Li8 Mn1 Fe7 B8 O24'
_cell_volume   498.84576532
_cell_formula_units_Z   1
loop_
 _symmetry_equiv_pos_site_id
 _symmetry_equiv_pos_as_xyz
  1  'x, y, z'
loop_
 _atom_site_type_symbol
 _atom_site_label
 _atom_site_symmetry_multiplicity
 _atom_site_fract_x
 _atom_site_fract_y
 _atom_site_fract_z
 _atom_site_occupancy
  Li  Li0  1  0.19937200  0.68922400  0.12069200  1
  Li  Li1  1  0.29794000  0.31449600  0.37750000  1
  Li  Li2  1  0.04960400  0.81204200  0.62841400  1
  Li  Li3  1  0.44936800  0.18665900  0.87329500  1
  Li  Li4  1  0.55092200  0.81289200  0.12850900  1
  Li  Li5  1  0.94955300  0.18731100  0.37129500  1
  Li  Li6  1  0.69782800  0.68813500  0.62050800  1
  Li  Li7  1  0.80342200  0.31027900  0.87907000  1
  Mn  Mn8  1  0.63155400  0.37583200  0.60667300  1
  Fe  Fe9  1  0.12985200  0.37900700  0.10178300  1
  Fe  Fe10  1  0.12257700  0.11687100  0.64239100  1
  Fe  Fe11  1  0.61651800  0.12707400  0.14821500  1
  Fe  Fe12  1  0.37018100  0.62586500  0.38768200  1
  Fe  Fe13  1  0.38106700  0.87258300  0.86121900  1
  Fe  Fe14  1  0.88099200  0.87067800  0.35906600  1
  Fe  Fe15  1  0.86746900  0.62886100  0.88921700  1
  B  B16  1  0.14513500  0.04025500  0.11295300  1
  B  B17  1  0.10129900  0.45982400  0.63758600  1
  B  B18  1  0.60559700  0.46081900  0.13769300  1
  B  B19  1  0.35223400  0.96123300  0.38813900  1
  B  B20  1  0.64882800  0.03780000  0.61238800  1
  B  B21  1  0.39738400  0.53925300  0.86352000  1
  B  B22  1  0.89821700  0.53982100  0.35991800  1
  B  B23  1  0.85125800  0.96100300  0.88929300  1
  O  O24  1  0.25611600  0.15931200  0.05859000  1
  O  O25  1  0.01038400  0.65900900  0.30302800  1
  O  O26  1  0.27186600  0.10464100  0.43452900  1
  O  O27  1  0.01712900  0.60185700  0.68709000  1
  O  O28  1  0.23061100  0.89817800  0.06378200  1
  O  O29  1  0.29177200  0.44009900  0.52778900  1
  O  O30  1  0.04408400  0.93680400  0.78015200  1
  O  O31  1  0.49486900  0.34213100  0.19444400  1
  O  O32  1  0.24140500  0.84206700  0.44528400  1
  O  O33  1  0.45779700  0.06119600  0.72200400  1
  O  O34  1  0.20449600  0.56484800  0.97236200  1
  O  O35  1  0.51956600  0.60316100  0.18555600  1
  O  O36  1  0.48076500  0.39663500  0.81844300  1
  O  O37  1  0.79505100  0.43893200  0.02752000  1
  O  O38  1  0.54354900  0.93650200  0.27852600  1
  O  O39  1  0.76292500  0.15476200  0.55607700  1
  O  O40  1  0.50635700  0.65927200  0.80571100  1
  O  O41  1  0.95431600  0.06122000  0.22236100  1
  O  O42  1  0.70592300  0.56694100  0.46802100  1
  O  O43  1  0.76702800  0.10171600  0.93764200  1
  O  O44  1  0.98067600  0.39738500  0.31322400  1
  O  O45  1  0.73071500  0.89534700  0.56437900  1
  O  O46  1  0.99204100  0.34000800  0.69155200  1
  O  O47  1  0.74238900  0.84016200  0.94491200  1
