# generated using pymatgen
data_Li32Mn3Cr13O48
_symmetry_space_group_name_H-M   'P 1'
_cell_length_a   5.03853100
_cell_length_b   8.69274284
_cell_length_c   19.49329792
_cell_angle_alpha   98.08293892
_cell_angle_beta   95.04290775
_cell_angle_gamma   89.69789004
_symmetry_Int_Tables_number   1
_chemical_formula_structural   Li32Mn3Cr13O48
_chemical_formula_sum   'Li32 Mn3 Cr13 O48'
_cell_volume   842.00463414
_cell_formula_units_Z   1
loop_
 _symmetry_equiv_pos_site_id
 _symmetry_equiv_pos_as_xyz
  1  'x, y, z'
loop_
 _atom_site_type_symbol
 _atom_site_label
 _atom_site_symmetry_multiplicity
 _atom_site_fract_x
 _atom_site_fract_y
 _atom_site_fract_z
 _atom_site_occupancy
  Li  Li0  1  0.98934000  0.16916300  0.25000100  1
  Li  Li1  1  0.87489500  0.37547800  0.37514400  1
  Li  Li2  1  0.75108100  0.25058800  0.00009200  1
  Li  Li3  1  0.74333300  0.92012600  0.99966700  1
  Li  Li4  1  0.99347400  0.16943400  0.74891100  1
  Li  Li5  1  0.75759300  0.58044300  0.49999500  1
  Li  Li6  1  0.87379300  0.37636000  0.87522800  1
  Li  Li7  1  0.75167300  0.24951500  0.50018000  1
  Li  Li8  1  0.74239000  0.92069600  0.49921500  1
  Li  Li9  1  0.62661700  0.12550300  0.12467600  1
  Li  Li10  1  0.75788100  0.57887000  0.99937100  1
  Li  Li11  1  0.51132500  0.33151300  0.25042400  1
  Li  Li12  1  0.62473900  0.12665200  0.62519500  1
  Li  Li13  1  0.50187500  0.00057800  0.25059700  1
  Li  Li14  1  0.48986700  0.66869500  0.24954500  1
  Li  Li15  1  0.50692000  0.33056700  0.74934900  1
  Li  Li16  1  0.37358300  0.87433800  0.37498700  1
  Li  Li17  1  0.50016000  0.00016100  0.75001300  1
  Li  Li18  1  0.24840900  0.75012400  0.99929500  1
  Li  Li19  1  0.49335300  0.66923200  0.75052300  1
  Li  Li20  1  0.24089300  0.41892800  0.99975200  1
  Li  Li21  1  0.37576800  0.87435600  0.87474200  1
  Li  Li22  1  0.25467900  0.08011300  0.50025400  1
  Li  Li23  1  0.25220100  0.74844000  0.49997200  1
  Li  Li24  1  0.12279400  0.62392600  0.12519800  1
  Li  Li25  1  0.24366800  0.42181900  0.50095300  1
  Li  Li26  1  0.00785100  0.83091300  0.25060400  1
  Li  Li27  1  0.25814100  0.07934200  0.00037800  1
  Li  Li28  1  0.12711200  0.62313200  0.62475900  1
  Li  Li29  1  0.99912900  0.50088400  0.24974300  1
  Li  Li30  1  0.00611300  0.83076000  0.75113200  1
  Li  Li31  1  0.00013500  0.49929200  0.74995500  1
  Mn  Mn32  1  0.87475300  0.04171100  0.37472900  1
  Mn  Mn33  1  0.87182300  0.70896600  0.87393700  1
  Mn  Mn34  1  0.12838100  0.29071400  0.62596200  1
  Cr  Cr35  1  0.87338800  0.71195200  0.37549300  1
  Cr  Cr36  1  0.88035100  0.04559600  0.87534600  1
  Cr  Cr37  1  0.62802300  0.79686900  0.12599700  1
  Cr  Cr38  1  0.62004700  0.46111200  0.12546800  1
  Cr  Cr39  1  0.62163500  0.79612400  0.62387800  1
  Cr  Cr40  1  0.62998200  0.45890100  0.62525500  1
  Cr  Cr41  1  0.38125500  0.53933000  0.37546800  1
  Cr  Cr42  1  0.36736000  0.20632000  0.37462900  1
  Cr  Cr43  1  0.37038900  0.54163100  0.87460300  1
  Cr  Cr44  1  0.37936400  0.20507900  0.87609200  1
  Cr  Cr45  1  0.12244600  0.95262800  0.12408300  1
  Cr  Cr46  1  0.12973300  0.28852900  0.12455900  1
  Cr  Cr47  1  0.12075900  0.95396000  0.62463800  1
  O  O48  1  0.96365500  0.10192200  0.06852200  1
  O  O49  1  0.93618200  0.78698300  0.06881500  1
  O  O50  1  0.92623300  0.42702800  0.06817800  1
  O  O51  1  0.96601500  0.10786700  0.56961400  1
  O  O52  1  0.81373700  0.96288300  0.18121600  1
  O  O53  1  0.82397100  0.32335100  0.18193700  1
  O  O54  1  0.93454600  0.78878900  0.56837800  1
  O  O55  1  0.92657800  0.42651100  0.56829300  1
  O  O56  1  0.78621400  0.64792000  0.18163400  1
  O  O57  1  0.71357000  0.85800300  0.31920800  1
  O  O58  1  0.81496700  0.95949100  0.68140600  1
  O  O59  1  0.82731900  0.32005200  0.68251800  1
  O  O60  1  0.66924800  0.53593500  0.31894000  1
  O  O61  1  0.67991600  0.17807300  0.31791200  1
  O  O62  1  0.77915900  0.64062300  0.68019400  1
  O  O63  1  0.71131900  0.85603500  0.81906600  1
  O  O64  1  0.46873200  0.60580000  0.06960000  1
  O  O65  1  0.58255900  0.71565900  0.43128100  1
  O  O66  1  0.57435600  0.07392800  0.43152600  1
  O  O67  1  0.68079900  0.53538000  0.81899500  1
  O  O68  1  0.68226100  0.17304300  0.81783300  1
  O  O69  1  0.43344500  0.92283700  0.06729800  1
  O  O70  1  0.41827900  0.28387500  0.06887900  1
  O  O71  1  0.53291800  0.39524800  0.43136800  1
  O  O72  1  0.46500300  0.60961400  0.56842300  1
  O  O73  1  0.57268000  0.71237000  0.93052200  1
  O  O74  1  0.56813900  0.07366700  0.93279800  1
  O  O75  1  0.31666900  0.82674000  0.18275800  1
  O  O76  1  0.33116800  0.46624100  0.18129200  1
  O  O77  1  0.43299600  0.92586500  0.56697600  1
  O  O78  1  0.42713800  0.28729000  0.56935300  1
  O  O79  1  0.53403400  0.39100200  0.93172000  1
  O  O80  1  0.28122500  0.14383600  0.18039600  1
  O  O81  1  0.21866100  0.35214500  0.31854500  1
  O  O82  1  0.31623200  0.82693000  0.68238200  1
  O  O83  1  0.32027100  0.46439600  0.68105200  1
  O  O84  1  0.17254100  0.67657600  0.31813200  1
  O  O85  1  0.17400500  0.03332200  0.31868200  1
  O  O86  1  0.28844500  0.14329600  0.68088600  1
  O  O87  1  0.22016600  0.35972300  0.81968400  1
  O  O88  1  0.07626500  0.57304100  0.43207400  1
  O  O89  1  0.07025600  0.21385700  0.43040800  1
  O  O90  1  0.17276300  0.67943300  0.81759500  1
  O  O91  1  0.18345900  0.04031300  0.81871600  1
  O  O92  1  0.03851300  0.89684200  0.43131700  1
  O  O93  1  0.07251800  0.57314700  0.93174300  1
  O  O94  1  0.06717200  0.21189900  0.93147400  1
  O  O95  1  0.03322400  0.89185200  0.93047700  1
