# generated using pymatgen
data_Li6V3P8O29
_symmetry_space_group_name_H-M   'P 1'
_cell_length_a   9.81379784
_cell_length_b   9.81225246
_cell_length_c   13.90177306
_cell_angle_alpha   90.27060046
_cell_angle_beta   90.17104616
_cell_angle_gamma   60.16645976
_symmetry_Int_Tables_number   1
_chemical_formula_structural   Li6V3P8O29
_chemical_formula_sum   'Li12 V6 P16 O58'
_cell_volume   1161.25531365
_cell_formula_units_Z   2
loop_
 _symmetry_equiv_pos_site_id
 _symmetry_equiv_pos_as_xyz
  1  'x, y, z'
loop_
 _atom_site_type_symbol
 _atom_site_label
 _atom_site_symmetry_multiplicity
 _atom_site_fract_x
 _atom_site_fract_y
 _atom_site_fract_z
 _atom_site_occupancy
  Li  Li0  1  0.91517900  0.77432700  0.06134400  1
  Li  Li1  1  0.90549700  0.33057200  0.55782200  1
  Li  Li2  1  0.66393000  0.66987700  0.88536400  1
  Li  Li3  1  0.77262500  0.31793300  0.06345800  1
  Li  Li4  1  0.31817400  0.90804900  0.06229900  1
  Li  Li5  1  0.66930300  0.23202300  0.43603100  1
  Li  Li6  1  0.33384900  0.76597700  0.55879400  1
  Li  Li7  1  0.68169100  0.09022100  0.94080900  1
  Li  Li8  1  0.33478100  0.32767300  0.61391800  1
  Li  Li9  1  0.09428000  0.67163800  0.43720100  1
  Li  Li10  1  0.09366200  0.22402100  0.94312900  1
  Li  Li11  1  0.99965600  0.00011600  0.49507200  1
  V  V12  1  0.56427600  0.43385700  0.24791400  1
  V  V13  1  0.43083500  0.56733400  0.75493200  1
  V  V14  1  0.56804200  0.99613500  0.74467300  1
  V  V15  1  0.43061600  0.00293600  0.25559000  1
  V  V16  1  0.99944700  0.56814500  0.24986400  1
  V  V17  1  0.00017300  0.43667700  0.74986100  1
  P  P18  1  0.91053200  0.77211900  0.84311100  1
  P  P19  1  0.77512800  0.91513400  0.34243500  1
  P  P20  1  0.90967500  0.31643200  0.34288200  1
  P  P21  1  0.66599500  0.66760800  0.12737700  1
  P  P22  1  0.66565200  0.66377200  0.62726800  1
  P  P23  1  0.77041600  0.32041900  0.84328800  1
  P  P24  1  0.68264100  0.22849400  0.65711400  1
  P  P25  1  0.31980500  0.91184400  0.84443500  1
  P  P26  1  0.67965600  0.08517800  0.15727000  1
  P  P27  1  0.31644500  0.77111300  0.34245200  1
  P  P28  1  0.22988800  0.68445600  0.15747300  1
  P  P29  1  0.33282400  0.33521000  0.37361500  1
  P  P30  1  0.33493600  0.32968700  0.87213000  1
  P  P31  1  0.09006600  0.68555300  0.65625100  1
  P  P32  1  0.22316900  0.08715800  0.65693200  1
  P  P33  1  0.08766700  0.23081800  0.16025900  1
  O  O34  1  0.00903500  0.76665000  0.56520400  1
  O  O35  1  0.91958900  0.74526900  0.33918900  1
  O  O36  1  0.75463900  0.99784400  0.06554900  1
  O  O37  1  0.74614800  0.92118700  0.84009300  1
  O  O38  1  0.88729900  0.62684100  0.82503700  1
  O  O39  1  0.81552700  0.67252000  0.16500900  1
  O  O40  1  0.90546800  0.47240400  0.32829000  1
  O  O41  1  0.99673100  0.24652500  0.06925300  1
  O  O42  1  0.92088900  0.33276900  0.84504900  1
  O  O43  1  0.66287100  0.81299700  0.67251600  1
  O  O44  1  0.62342700  0.90979000  0.33177400  1
  O  O45  1  0.81807800  0.51530300  0.66914800  1
  O  O46  1  0.66836100  0.66482700  0.01858000  1
  O  O47  1  0.66644300  0.66009100  0.52047500  1
  O  O48  1  0.67361900  0.51212600  0.16446600  1
  O  O49  1  0.48543000  0.89209600  0.82808300  1
  O  O50  1  0.51492000  0.81410900  0.16586400  1
  O  O51  1  0.74086000  0.33902900  0.33537300  1
  O  O52  1  0.78820800  0.21408700  0.75064900  1
  O  O53  1  0.77098300  0.23144000  0.56872200  1
  O  O54  1  0.75162200  0.24458700  0.93230200  1
  O  O55  1  0.62817000  0.48762000  0.82692100  1
  O  O56  1  0.51730000  0.66353600  0.66978900  1
  O  O57  1  0.66155700  0.25102400  0.15724600  1
  O  O58  1  0.47225400  0.61923600  0.32982100  1
  O  O59  1  0.34137800  0.91416600  0.33562800  1
  O  O60  1  0.79609000  0.99418100  0.24479100  1
  O  O61  1  0.78971900  0.00531400  0.42569900  1
  O  O62  1  0.22064200  0.99001700  0.57442100  1
  O  O63  1  0.66022100  0.08581100  0.65918400  1
  O  O64  1  0.52049300  0.37885800  0.66863900  1
  O  O65  1  0.33791200  0.74780200  0.84118200  1
  O  O66  1  0.48784700  0.32567500  0.33486700  1
  O  O67  1  0.38067500  0.52371000  0.17667200  1
  O  O68  1  0.24236200  0.76710500  0.07191100  1
  O  O69  1  0.22795800  0.77733600  0.43328400  1
  O  O70  1  0.20359000  0.78918300  0.25380000  1
  O  O71  1  0.25631400  0.66604900  0.66017200  1
  O  O72  1  0.47977300  0.18006800  0.82744000  1
  O  O73  1  0.52200100  0.09352400  0.17781000  1
  O  O74  1  0.34040500  0.47389300  0.82639600  1
  O  O75  1  0.33531200  0.32620900  0.97876900  1
  O  O76  1  0.33671200  0.33716200  0.48219700  1
  O  O77  1  0.18680800  0.49109200  0.33728600  1
  O  O78  1  0.37238300  0.10403800  0.66677600  1
  O  O79  1  0.32377300  0.19393300  0.33034900  1
  O  O80  1  0.08444300  0.66258800  0.15788000  1
  O  O81  1  0.00000600  0.78754500  0.74984200  1
  O  O82  1  0.99688600  0.75715500  0.93402800  1
  O  O83  1  0.10668900  0.51946100  0.66967800  1
  O  O84  1  0.18076300  0.33670200  0.82925100  1
  O  O85  1  0.09678200  0.38178900  0.17912300  1
  O  O86  1  0.25200300  0.08472400  0.15915400  1
  O  O87  1  0.24452500  0.00340300  0.93462600  1
  O  O88  1  0.20846200  0.00868400  0.75561700  1
  O  O89  1  0.07843200  0.25439500  0.65633600  1
  O  O90  1  0.98433000  0.22911900  0.43386500  1
  O  O91  1  0.99947600  0.20670800  0.25044800  1
