# generated using pymatgen
data_LiVCrP2(HO5)2
_symmetry_space_group_name_H-M   'P 1'
_cell_length_a   6.88595100
_cell_length_b   7.44060777
_cell_length_c   11.02001247
_cell_angle_alpha   98.67019226
_cell_angle_beta   107.20040602
_cell_angle_gamma   89.38132111
_symmetry_Int_Tables_number   1
_chemical_formula_structural   LiVCrP2(HO5)2
_chemical_formula_sum   'Li3 V3 Cr3 P6 H6 O30'
_cell_volume   532.86094523
_cell_formula_units_Z   3
loop_
 _symmetry_equiv_pos_site_id
 _symmetry_equiv_pos_as_xyz
  1  'x, y, z'
loop_
 _atom_site_type_symbol
 _atom_site_label
 _atom_site_symmetry_multiplicity
 _atom_site_fract_x
 _atom_site_fract_y
 _atom_site_fract_z
 _atom_site_occupancy
  Li  Li0  1  0.24991700  0.31166800  0.15950200  1
  Li  Li1  1  0.08419900  0.35233800  0.50638000  1
  Li  Li2  1  0.75028100  0.68909400  0.83997600  1
  V  V3  1  0.16983700  0.33227100  0.83459200  1
  V  V4  1  0.82827400  0.66529900  0.16686800  1
  V  V5  1  0.50316000  0.99913300  0.50122500  1
  Cr  Cr6  1  0.66601900  0.33176300  0.33297600  1
  Cr  Cr7  1  0.33177000  0.66909800  0.66529200  1
  Cr  Cr8  1  0.99963300  0.99861000  0.99969400  1
  P  P9  1  0.05287500  0.07294100  0.30035800  1
  P  P10  1  0.61638200  0.25737600  0.03244800  1
  P  P11  1  0.28036800  0.59312400  0.36510400  1
  P  P12  1  0.71932400  0.40596600  0.63477700  1
  P  P13  1  0.38377600  0.74159000  0.96641500  1
  P  P14  1  0.94909200  0.92430600  0.70004100  1
  H  H15  1  0.04420700  0.67162000  0.01723900  1
  H  H16  1  0.69057900  0.00082400  0.33889000  1
  H  H17  1  0.37653400  0.33760100  0.68230800  1
  H  H18  1  0.64178600  0.66534700  0.32870800  1
  H  H19  1  0.30735900  0.99892800  0.66020700  1
  H  H20  1  0.95516100  0.32832400  0.98342100  1
  O  O21  1  0.14009900  0.07664800  0.18765900  1
  O  O22  1  0.22774800  0.08846600  0.42956500  1
  O  O23  1  0.10495900  0.57981800  0.23558700  1
  O  O24  1  0.08621200  0.10019100  0.71815700  1
  O  O25  1  0.52297900  0.27051200  0.14402700  1
  O  O26  1  0.73746700  0.08748400  0.02143900  1
  O  O27  1  0.19312000  0.58814700  0.47754600  1
  O  O28  1  0.59897600  0.08681200  0.36915200  1
  O  O29  1  0.40033600  0.42073700  0.34586000  1
  O  O30  1  0.75879300  0.42901900  0.04800900  1
  O  O31  1  0.06954200  0.25203000  0.97170100  1
  O  O32  1  0.26172200  0.41343800  0.69386400  1
  O  O33  1  0.07307900  0.75639700  0.68639100  1
  O  O34  1  0.56300200  0.74541500  0.09290800  1
  O  O35  1  0.42055200  0.76460100  0.38397800  1
  O  O36  1  0.57373900  0.23811000  0.61792000  1
  O  O37  1  0.43697000  0.25525400  0.90549600  1
  O  O38  1  0.93156500  0.24477600  0.31939600  1
  O  O39  1  0.73282600  0.57918300  0.29749600  1
  O  O40  1  0.92892700  0.74705800  0.02752100  1
  O  O41  1  0.24195500  0.56913800  0.95114800  1
  O  O42  1  0.60163400  0.58005800  0.65153700  1
  O  O43  1  0.39815900  0.91260600  0.62939600  1
  O  O44  1  0.81024400  0.39582200  0.52273200  1
  O  O45  1  0.26216300  0.91122100  0.97788100  1
  O  O46  1  0.47602200  0.72699900  0.85411800  1
  O  O47  1  0.91391200  0.90030200  0.28159500  1
  O  O48  1  0.89500300  0.41911600  0.76443700  1
  O  O49  1  0.77094200  0.92094900  0.57362400  1
  O  O50  1  0.85922000  0.92405400  0.81246200  1
