# generated using pymatgen
data_Li2MnPHO5
_symmetry_space_group_name_H-M   'P 1'
_cell_length_a   5.24022411
_cell_length_b   11.00838545
_cell_length_c   7.84522585
_cell_angle_alpha   102.39872501
_cell_angle_beta   72.95200617
_cell_angle_gamma   80.53871410
_symmetry_Int_Tables_number   1
_chemical_formula_structural   Li2MnPHO5
_chemical_formula_sum   'Li8 Mn4 P4 H4 O20'
_cell_volume   409.87102871
_cell_formula_units_Z   4
loop_
 _symmetry_equiv_pos_site_id
 _symmetry_equiv_pos_as_xyz
  1  'x, y, z'
loop_
 _atom_site_type_symbol
 _atom_site_label
 _atom_site_symmetry_multiplicity
 _atom_site_fract_x
 _atom_site_fract_y
 _atom_site_fract_z
 _atom_site_occupancy
  Li  Li0  1  0.78968500  0.15353300  0.43987600  1
  Li  Li1  1  0.28992700  0.65359800  0.93958500  1
  Li  Li2  1  0.01595200  0.34075500  0.52488300  1
  Li  Li3  1  0.51652200  0.84073000  0.02506600  1
  Li  Li4  1  0.67350500  0.26412000  0.11452500  1
  Li  Li5  1  0.17379600  0.76415700  0.61456000  1
  Li  Li6  1  0.16326100  0.00508200  0.58803200  1
  Li  Li7  1  0.66301100  0.50509200  0.08804000  1
  Mn  Mn8  1  0.99976800  0.99902400  0.99442300  1
  Mn  Mn9  1  0.27554200  0.25123200  0.77209500  1
  Mn  Mn10  1  0.49940600  0.49891900  0.49406800  1
  Mn  Mn11  1  0.77563600  0.75127100  0.27231500  1
  P  P12  1  0.36272500  0.07855800  0.29596900  1
  P  P13  1  0.86276300  0.57846200  0.79581900  1
  P  P14  1  0.14328900  0.43509000  0.18662700  1
  P  P15  1  0.64340200  0.93513300  0.68673100  1
  H  H16  1  0.82930100  0.15488100  0.81084000  1
  H  H17  1  0.32961000  0.65501600  0.31073500  1
  H  H18  1  0.63101800  0.36953000  0.71035100  1
  H  H19  1  0.13131200  0.86961500  0.21033400  1
  O  O20  1  0.63091000  0.12405800  0.23592700  1
  O  O21  1  0.13093300  0.62399000  0.73573800  1
  O  O22  1  0.18439200  0.09569600  0.17529200  1
  O  O23  1  0.68420700  0.59562700  0.67528600  1
  O  O24  1  0.63204100  0.07447400  0.66678600  1
  O  O25  1  0.13208300  0.57444000  0.16674600  1
  O  O26  1  0.18047100  0.16063500  0.50009500  1
  O  O27  1  0.68086000  0.66045200  0.99998000  1
  O  O28  1  0.96255800  0.15973600  0.87653400  1
  O  O29  1  0.46270000  0.65974800  0.37654400  1
  O  O30  1  0.59410300  0.33118700  0.59741100  1
  O  O31  1  0.09423100  0.83121500  0.09748300  1
  O  O32  1  0.37378100  0.34222000  0.00982100  1
  O  O33  1  0.87396000  0.84230700  0.50987300  1
  O  O34  1  0.93105400  0.43485500  0.79923100  1
  O  O35  1  0.43110900  0.93494700  0.29942700  1
  O  O36  1  0.23116600  0.41806400  0.35481700  1
  O  O37  1  0.73116500  0.91820000  0.85498600  1
  O  O38  1  0.85538900  0.40519500  0.21157600  1
  O  O39  1  0.35565200  0.90512100  0.71160800  1
