# generated using pymatgen
data_Li2Mn(PO3)4
_symmetry_space_group_name_H-M   'P 1'
_cell_length_a   11.14232900
_cell_length_b   7.49057200
_cell_length_c   13.21386225
_cell_angle_alpha   74.52130082
_cell_angle_beta   90.00000000
_cell_angle_gamma   90.00000000
_symmetry_Int_Tables_number   1
_chemical_formula_structural   Li2Mn(PO3)4
_chemical_formula_sum   'Li8 Mn4 P16 O48'
_cell_volume   1062.85983575
_cell_formula_units_Z   4
loop_
 _symmetry_equiv_pos_site_id
 _symmetry_equiv_pos_as_xyz
  1  'x, y, z'
loop_
 _atom_site_type_symbol
 _atom_site_label
 _atom_site_symmetry_multiplicity
 _atom_site_fract_x
 _atom_site_fract_y
 _atom_site_fract_z
 _atom_site_occupancy
  Li  Li0  1  0.90302900  0.62849200  0.26234200  1
  Li  Li1  1  0.40302900  0.37150800  0.23765800  1
  Li  Li2  1  0.05691700  0.33678200  0.46942700  1
  Li  Li3  1  0.55691700  0.66321800  0.03057300  1
  Li  Li4  1  0.44308300  0.33678200  0.96942700  1
  Li  Li5  1  0.94308300  0.66321800  0.53057300  1
  Li  Li6  1  0.59697100  0.62849200  0.76234200  1
  Li  Li7  1  0.09697100  0.37150800  0.73765800  1
  Mn  Mn8  1  0.74040200  0.02966200  0.66770400  1
  Mn  Mn9  1  0.24040200  0.97033800  0.83229600  1
  Mn  Mn10  1  0.75959800  0.02966200  0.16770400  1
  Mn  Mn11  1  0.25959800  0.97033800  0.33229600  1
  P  P12  1  0.27502000  0.96301400  0.08160900  1
  P  P13  1  0.61621100  0.63124400  0.29823400  1
  P  P14  1  0.25470300  0.59788300  0.02410900  1
  P  P15  1  0.75470300  0.40211700  0.47589100  1
  P  P16  1  0.72498000  0.03698600  0.91839100  1
  P  P17  1  0.11621100  0.36875600  0.20176600  1
  P  P18  1  0.95535300  0.99088100  0.82354800  1
  P  P19  1  0.45535300  0.00911900  0.67645200  1
  P  P20  1  0.77502000  0.03698600  0.41839100  1
  P  P21  1  0.22498000  0.96301400  0.58160900  1
  P  P22  1  0.54464700  0.99088100  0.32354800  1
  P  P23  1  0.04464700  0.00911900  0.17645200  1
  P  P24  1  0.88378900  0.63124400  0.79823400  1
  P  P25  1  0.24529700  0.59788300  0.52410900  1
  P  P26  1  0.74529700  0.40211700  0.97589100  1
  P  P27  1  0.38378900  0.36875600  0.70176600  1
  O  O28  1  0.24189000  0.75057900  0.08829900  1
  O  O29  1  0.64692300  0.53551900  0.42142200  1
  O  O30  1  0.54772600  0.50914500  0.24623100  1
  O  O31  1  0.87677200  0.49689800  0.44813000  1
  O  O32  1  0.72548300  0.32537200  0.58941800  1
  O  O33  1  0.37677200  0.50310200  0.05187000  1
  O  O34  1  0.26844900  0.28086300  0.75306500  1
  O  O35  1  0.47744500  0.21719400  0.68404800  1
  O  O36  1  0.04772600  0.49085500  0.25376900  1
  O  O37  1  0.65976700  0.03596500  0.82026600  1
  O  O38  1  0.33086900  0.05675700  0.97622800  1
  O  O39  1  0.14692300  0.46448100  0.07857800  1
  O  O40  1  0.74189000  0.24942100  0.41170100  1
  O  O41  1  0.06842200  0.06123300  0.86177300  1
  O  O42  1  0.85799500  0.95209600  0.91780700  1
  O  O43  1  0.90441600  0.10575100  0.72208000  1
  O  O44  1  0.40441600  0.89424900  0.77792000  1
  O  O45  1  0.77451700  0.32537200  0.08941800  1
  O  O46  1  0.35799500  0.04790400  0.58219300  1
  O  O47  1  0.56842200  0.93876700  0.63822700  1
  O  O48  1  0.23155100  0.28086300  0.25306500  1
  O  O49  1  0.02255500  0.21719400  0.18404800  1
  O  O50  1  0.83086900  0.94324300  0.52377200  1
  O  O51  1  0.15976700  0.96403500  0.67973400  1
  O  O52  1  0.84023300  0.03596500  0.32026600  1
  O  O53  1  0.16913100  0.05675700  0.47622800  1
  O  O54  1  0.97744500  0.78280600  0.81595200  1
  O  O55  1  0.76844900  0.71913700  0.74693500  1
  O  O56  1  0.43157800  0.06123300  0.36177300  1
  O  O57  1  0.64200500  0.95209600  0.41780700  1
  O  O58  1  0.22548300  0.67462800  0.91058200  1
  O  O59  1  0.59558400  0.10575100  0.22208000  1
  O  O60  1  0.09558400  0.89424900  0.27792000  1
  O  O61  1  0.14200500  0.04790400  0.08219300  1
  O  O62  1  0.93157800  0.93876700  0.13822700  1
  O  O63  1  0.25811000  0.75057900  0.58829900  1
  O  O64  1  0.85307700  0.53551900  0.92142200  1
  O  O65  1  0.66913100  0.94324300  0.02377200  1
  O  O66  1  0.34023300  0.96403500  0.17973400  1
  O  O67  1  0.95227400  0.50914500  0.74623100  1
  O  O68  1  0.52255500  0.78280600  0.31595200  1
  O  O69  1  0.73155100  0.71913700  0.24693500  1
  O  O70  1  0.62322800  0.49689800  0.94813000  1
  O  O71  1  0.27451700  0.67462800  0.41058200  1
  O  O72  1  0.12322800  0.50310200  0.55187000  1
  O  O73  1  0.45227400  0.49085500  0.75376900  1
  O  O74  1  0.35307700  0.46448100  0.57857800  1
  O  O75  1  0.75811000  0.24942100  0.91170100  1
