# generated using pymatgen
data_LiMnF3
_symmetry_space_group_name_H-M   'P 1'
_cell_length_a   7.00080000
_cell_length_b   8.05082218
_cell_length_c   21.51586593
_cell_angle_alpha   82.98214646
_cell_angle_beta   82.39544831
_cell_angle_gamma   88.73692166
_symmetry_Int_Tables_number   1
_chemical_formula_structural   LiMnF3
_chemical_formula_sum   'Li18 Mn18 F54'
_cell_volume   1192.98933445
_cell_formula_units_Z   18
loop_
 _symmetry_equiv_pos_site_id
 _symmetry_equiv_pos_as_xyz
  1  'x, y, z'
loop_
 _atom_site_type_symbol
 _atom_site_label
 _atom_site_symmetry_multiplicity
 _atom_site_fract_x
 _atom_site_fract_y
 _atom_site_fract_z
 _atom_site_occupancy
  Li  Li0  1  0.74672300  0.70328300  0.86569400  1
  Li  Li1  1  0.89769000  0.29330900  0.29558800  1
  Li  Li2  1  0.66009700  0.39818900  0.65157100  1
  Li  Li3  1  0.74803700  0.30924700  0.44618100  1
  Li  Li4  1  0.82686400  0.99602700  0.08749600  1
  Li  Li5  1  0.53691900  0.43106500  0.79712900  1
  Li  Li6  1  0.37866900  0.28102000  0.98189800  1
  Li  Li7  1  0.69671800  0.02055000  0.23205000  1
  Li  Li8  1  0.51337700  0.86550600  0.42138800  1
  Li  Li9  1  0.48662300  0.13449400  0.57861200  1
  Li  Li10  1  0.30328200  0.97945000  0.76795000  1
  Li  Li11  1  0.62133100  0.71898000  0.01810200  1
  Li  Li12  1  0.46308100  0.56893500  0.20287100  1
  Li  Li13  1  0.17313600  0.00397300  0.91250400  1
  Li  Li14  1  0.25196300  0.69075300  0.55381900  1
  Li  Li15  1  0.33990300  0.60181100  0.34842900  1
  Li  Li16  1  0.10231000  0.70669100  0.70441200  1
  Li  Li17  1  0.25327700  0.29671700  0.13430600  1
  Mn  Mn18  1  0.89240100  0.35203600  0.96694600  1
  Mn  Mn19  1  0.94020700  0.00980300  0.58313600  1
  Mn  Mn20  1  0.80150600  0.04724800  0.74053700  1
  Mn  Mn21  1  0.99074100  0.66970500  0.18765300  1
  Mn  Mn22  1  0.76423800  0.69261400  0.50838000  1
  Mn  Mn23  1  0.60304400  0.03839100  0.90281000  1
  Mn  Mn24  1  0.84989800  0.67648200  0.34756200  1
  Mn  Mn25  1  0.57009000  0.75689200  0.66393000  1
  Mn  Mn26  1  0.75534700  0.35961400  0.13518100  1
  Mn  Mn27  1  0.24465300  0.64038600  0.86481900  1
  Mn  Mn28  1  0.42991000  0.24310800  0.33607000  1
  Mn  Mn29  1  0.15010200  0.32351800  0.65243800  1
  Mn  Mn30  1  0.39695600  0.96160900  0.09719000  1
  Mn  Mn31  1  0.23576200  0.30738600  0.49162000  1
  Mn  Mn32  1  0.00925900  0.33029500  0.81234700  1
  Mn  Mn33  1  0.19849400  0.95275200  0.25946300  1
  Mn  Mn34  1  0.05979300  0.99019700  0.41686400  1
  Mn  Mn35  1  0.10759900  0.64796400  0.03305400  1
  F  F36  1  0.97801300  0.16897600  0.90038200  1
  F  F37  1  0.94146600  0.52901200  0.87263200  1
  F  F38  1  0.90399400  0.86381600  0.67337100  1
  F  F39  1  0.81011400  0.92533400  0.82631100  1
  F  F40  1  0.96350300  0.17116500  0.48414100  1
  F  F41  1  0.86110900  0.21591200  0.64489400  1
  F  F42  1  0.63005500  0.78849800  0.93503300  1
  F  F43  1  0.96561900  0.52188600  0.28200500  1
  F  F44  1  0.72899900  0.25341600  0.79462100  1
  F  F45  1  0.85353400  0.53109600  0.43997600  1
  F  F46  1  0.89643200  0.85841700  0.26131600  1
  F  F47  1  0.63302000  0.28841400  0.93712000  1
  F  F48  1  0.74173600  0.60037600  0.59934500  1
  F  F49  1  0.79175300  0.87966600  0.42311300  1
  F  F50  1  0.65862800  0.94645000  0.57761300  1
  F  F51  1  0.53550200  0.61633200  0.83973400  1
  F  F52  1  0.53945600  0.97243000  0.71165500  1
  F  F53  1  0.56802400  0.52903500  0.71395100  1
  F  F54  1  0.88130600  0.22360900  0.06050000  1
  F  F55  1  0.80286300  0.23482900  0.22551700  1
  F  F56  1  0.70285500  0.25931600  0.36675600  1
  F  F57  1  0.81795000  0.55038600  0.02926000  1
  F  F58  1  0.72223300  0.60976800  0.17215800  1
  F  F59  1  0.37892300  0.98531800  0.84546500  1
  F  F60  1  0.52286200  0.27697100  0.50181700  1
  F  F61  1  0.65839400  0.93101600  0.03864200  1
  F  F62  1  0.44106300  0.29308100  0.63567600  1
  F  F63  1  0.55893700  0.70691900  0.36432400  1
  F  F64  1  0.34160600  0.06898400  0.96135800  1
  F  F65  1  0.47713800  0.72302900  0.49818300  1
  F  F66  1  0.62107700  0.01468200  0.15453500  1
  F  F67  1  0.27776700  0.39023200  0.82784200  1
  F  F68  1  0.18205000  0.44961400  0.97074000  1
  F  F69  1  0.29714500  0.74068400  0.63324400  1
  F  F70  1  0.19713700  0.76517100  0.77448300  1
  F  F71  1  0.11869400  0.77639100  0.93950000  1
  F  F72  1  0.43197600  0.47096500  0.28604900  1
  F  F73  1  0.46054400  0.02757000  0.28834500  1
  F  F74  1  0.46449800  0.38366800  0.16026600  1
  F  F75  1  0.34137200  0.05355000  0.42238700  1
  F  F76  1  0.20824700  0.12033400  0.57688700  1
  F  F77  1  0.25826400  0.39962400  0.40065500  1
  F  F78  1  0.36698000  0.71158600  0.06288000  1
  F  F79  1  0.10356800  0.14158300  0.73868400  1
  F  F80  1  0.14646600  0.46890400  0.56002400  1
  F  F81  1  0.27100100  0.74658400  0.20537900  1
  F  F82  1  0.03438100  0.47811400  0.71799500  1
  F  F83  1  0.36994500  0.21150200  0.06496700  1
  F  F84  1  0.13889100  0.78408800  0.35510600  1
  F  F85  1  0.03649700  0.82883500  0.51585900  1
  F  F86  1  0.18988600  0.07466600  0.17368900  1
  F  F87  1  0.09600600  0.13618400  0.32662900  1
  F  F88  1  0.05853400  0.47098800  0.12736800  1
  F  F89  1  0.02198700  0.83102400  0.09961800  1
