# generated using pymatgen
data_Li3Cu3(PO4)2
_symmetry_space_group_name_H-M   'P 1'
_cell_length_a   5.44901800
_cell_length_b   6.22257648
_cell_length_c   10.19925378
_cell_angle_alpha   89.95372628
_cell_angle_beta   89.90314053
_cell_angle_gamma   89.49314490
_symmetry_Int_Tables_number   1
_chemical_formula_structural   Li3Cu3(PO4)2
_chemical_formula_sum   'Li6 Cu6 P4 O16'
_cell_volume   345.81126221
_cell_formula_units_Z   2
loop_
 _symmetry_equiv_pos_site_id
 _symmetry_equiv_pos_as_xyz
  1  'x, y, z'
loop_
 _atom_site_type_symbol
 _atom_site_label
 _atom_site_symmetry_multiplicity
 _atom_site_fract_x
 _atom_site_fract_y
 _atom_site_fract_z
 _atom_site_occupancy
  Li  Li0  1  0.15433000  0.99885400  0.25397300  1
  Li  Li1  1  0.15314200  0.99951400  0.75291000  1
  Li  Li2  1  0.32749800  0.25027600  0.00309800  1
  Li  Li3  1  0.67059100  0.25338300  0.75356700  1
  Li  Li4  1  0.67436200  0.25449800  0.25287800  1
  Li  Li5  1  0.84759900  0.50024500  0.50363600  1
  Cu  Cu6  1  0.34215700  0.24002800  0.49766300  1
  Cu  Cu7  1  0.81835700  0.50120300  0.00257000  1
  Cu  Cu8  1  0.66569100  0.73829600  0.25429200  1
  Cu  Cu9  1  0.66186000  0.74366600  0.75557800  1
  Cu  Cu10  1  0.34162900  0.75926800  0.50081700  1
  Cu  Cu11  1  0.33250700  0.75254300  0.00055600  1
  P  P12  1  0.83035700  0.01090000  0.00076000  1
  P  P13  1  0.82846700  0.00457200  0.50139300  1
  P  P14  1  0.17108900  0.49385000  0.75006800  1
  P  P15  1  0.17464200  0.49260700  0.25041900  1
  O  O16  1  0.83451600  0.01280900  0.34881900  1
  O  O17  1  0.09217600  0.00046600  0.56079500  1
  O  O18  1  0.83135000  0.01343200  0.84794700  1
  O  O19  1  0.09715700  0.01639800  0.05569100  1
  O  O20  1  0.69637800  0.20900600  0.55822600  1
  O  O21  1  0.67838500  0.20543600  0.05583600  1
  O  O22  1  0.31622800  0.29457900  0.80406300  1
  O  O23  1  0.32115800  0.28916900  0.29769000  1
  O  O24  1  0.17692400  0.48967200  0.09798700  1
  O  O25  1  0.90780100  0.48511700  0.30634200  1
  O  O26  1  0.16469600  0.49527600  0.59782300  1
  O  O27  1  0.89942000  0.48529600  0.79919000  1
  O  O28  1  0.29731200  0.70635300  0.29743700  1
  O  O29  1  0.29213900  0.70842700  0.79786700  1
  O  O30  1  0.70040600  0.79221100  0.54686900  1
  O  O31  1  0.69967500  0.80264700  0.05064700  1
