# generated using pymatgen
data_LiFeSiO4
_symmetry_space_group_name_H-M   'P 1'
_cell_length_a   8.62418896
_cell_length_b   8.62418896
_cell_length_c   8.62418923
_cell_angle_alpha   107.78008097
_cell_angle_beta   107.78008097
_cell_angle_gamma   107.78007953
_symmetry_Int_Tables_number   1
_chemical_formula_structural   LiFeSiO4
_chemical_formula_sum   'Li6 Fe6 Si6 O24'
_cell_volume   522.41159707
_cell_formula_units_Z   6
loop_
 _symmetry_equiv_pos_site_id
 _symmetry_equiv_pos_as_xyz
  1  'x, y, z'
loop_
 _atom_site_type_symbol
 _atom_site_label
 _atom_site_symmetry_multiplicity
 _atom_site_fract_x
 _atom_site_fract_y
 _atom_site_fract_z
 _atom_site_occupancy
  Li  Li0  1  0.89312300  0.12655800  0.72437100  1
  Li  Li1  1  0.43359700  0.21094600  0.60732100  1
  Li  Li2  1  0.60732100  0.43359700  0.21094600  1
  Li  Li3  1  0.72437100  0.89312300  0.12655800  1
  Li  Li4  1  0.21094600  0.60732100  0.43359700  1
  Li  Li5  1  0.12655800  0.72437100  0.89312300  1
  Fe  Fe6  1  0.45835300  0.05451000  0.23428800  1
  Fe  Fe7  1  0.76843600  0.53431100  0.94515500  1
  Fe  Fe8  1  0.94515500  0.76843600  0.53431100  1
  Fe  Fe9  1  0.05451000  0.23428800  0.45835300  1
  Fe  Fe10  1  0.23428800  0.45835300  0.05451000  1
  Fe  Fe11  1  0.53431100  0.94515500  0.76843600  1
  Si  Si12  1  0.87316600  0.28058500  0.09689100  1
  Si  Si13  1  0.79575200  0.38759600  0.56766200  1
  Si  Si14  1  0.28058500  0.09689100  0.87316600  1
  Si  Si15  1  0.38759600  0.56766200  0.79575200  1
  Si  Si16  1  0.56766200  0.79575200  0.38759600  1
  Si  Si17  1  0.09689100  0.87316600  0.28058500  1
  O  O18  1  0.98672200  0.30796900  0.97605200  1
  O  O19  1  0.72957300  0.06422100  0.00781600  1
  O  O20  1  0.90898600  0.26487300  0.57955800  1
  O  O21  1  0.76040300  0.40401300  0.08740000  1
  O  O22  1  0.93622600  0.59991200  0.63542600  1
  O  O23  1  0.63530800  0.30085800  0.35953700  1
  O  O24  1  0.40401300  0.08740000  0.76040300  1
  O  O25  1  0.69624600  0.37763500  0.70234300  1
  O  O26  1  0.30636900  0.02053800  0.35197700  1
  O  O27  1  0.06422100  0.00781600  0.72957300  1
  O  O28  1  0.35197700  0.30636900  0.02053800  1
  O  O29  1  0.70234300  0.69624600  0.37763500  1
  O  O30  1  0.97605200  0.98672200  0.30796900  1
  O  O31  1  0.59991200  0.63542600  0.93622600  1
  O  O32  1  0.30085800  0.35953700  0.63530800  1
  O  O33  1  0.35953700  0.63530800  0.30085800  1
  O  O34  1  0.63542600  0.93622600  0.59991200  1
  O  O35  1  0.26487300  0.57955800  0.90898600  1
  O  O36  1  0.37763500  0.70234300  0.69624600  1
  O  O37  1  0.02053800  0.35197700  0.30636900  1
  O  O38  1  0.57955800  0.90898600  0.26487300  1
  O  O39  1  0.30796900  0.97605200  0.98672200  1
  O  O40  1  0.08740000  0.76040300  0.40401300  1
  O  O41  1  0.00781600  0.72957300  0.06422100  1
