# generated using pymatgen
data_Li2AgF5
_symmetry_space_group_name_H-M   'P 1'
_cell_length_a   10.00859500
_cell_length_b   6.12254700
_cell_length_c   8.05305101
_cell_angle_alpha   70.97044735
_cell_angle_beta   90.00000000
_cell_angle_gamma   90.00000000
_symmetry_Int_Tables_number   1
_chemical_formula_structural   Li2AgF5
_chemical_formula_sum   'Li8 Ag4 F20'
_cell_volume   466.50742799
_cell_formula_units_Z   4
loop_
 _symmetry_equiv_pos_site_id
 _symmetry_equiv_pos_as_xyz
  1  'x, y, z'
loop_
 _atom_site_type_symbol
 _atom_site_label
 _atom_site_symmetry_multiplicity
 _atom_site_fract_x
 _atom_site_fract_y
 _atom_site_fract_z
 _atom_site_occupancy
  Li  Li0  1  0.72961700  0.89721800  0.53700800  1
  Li  Li1  1  0.32114300  0.61569300  0.98094700  1
  Li  Li2  1  0.77038300  0.89721800  0.03700800  1
  Li  Li3  1  0.17885700  0.61569300  0.48094700  1
  Li  Li4  1  0.82114300  0.38430700  0.51905300  1
  Li  Li5  1  0.22961700  0.10278200  0.96299200  1
  Li  Li6  1  0.67885700  0.38430700  0.01905300  1
  Li  Li7  1  0.27038300  0.10278200  0.46299200  1
  Ag  Ag8  1  0.98932600  0.66200100  0.77303600  1
  Ag  Ag9  1  0.51067400  0.66200100  0.27303600  1
  Ag  Ag10  1  0.48932600  0.33799900  0.72696400  1
  Ag  Ag11  1  0.01067400  0.33799900  0.22696400  1
  F  F12  1  0.87868200  0.88180700  0.84676100  1
  F  F13  1  0.15049400  0.87359900  0.53836300  1
  F  F14  1  0.12763000  0.68043700  0.94475000  1
  F  F15  1  0.62131800  0.88180700  0.34676100  1
  F  F16  1  0.58661200  0.57766600  0.79324800  1
  F  F17  1  0.83886600  0.62437300  0.62215500  1
  F  F18  1  0.34950600  0.87359900  0.03836300  1
  F  F19  1  0.37237000  0.68043700  0.44475000  1
  F  F20  1  0.33886600  0.37562700  0.87784500  1
  F  F21  1  0.08661200  0.42233400  0.70675200  1
  F  F22  1  0.91338800  0.57766600  0.29324800  1
  F  F23  1  0.66113400  0.62437300  0.12215500  1
  F  F24  1  0.62763000  0.31956300  0.55525000  1
  F  F25  1  0.65049400  0.12640100  0.96163700  1
  F  F26  1  0.16113400  0.37562700  0.37784500  1
  F  F27  1  0.41338800  0.42233400  0.20675200  1
  F  F28  1  0.37868200  0.11819300  0.65323900  1
  F  F29  1  0.87237000  0.31956300  0.05525000  1
  F  F30  1  0.84950600  0.12640100  0.46163700  1
  F  F31  1  0.12131800  0.11819300  0.15323900  1
