# generated using pymatgen
data_Li2Si2NiO6
_symmetry_space_group_name_H-M   'P 1'
_cell_length_a   5.56998683
_cell_length_b   10.86492264
_cell_length_c   9.91116819
_cell_angle_alpha   114.68633068
_cell_angle_beta   87.16278621
_cell_angle_gamma   75.59200253
_symmetry_Int_Tables_number   1
_chemical_formula_structural   Li2Si2NiO6
_chemical_formula_sum   'Li8 Si8 Ni4 O24'
_cell_volume   519.75826282
_cell_formula_units_Z   4
loop_
 _symmetry_equiv_pos_site_id
 _symmetry_equiv_pos_as_xyz
  1  'x, y, z'
loop_
 _atom_site_type_symbol
 _atom_site_label
 _atom_site_symmetry_multiplicity
 _atom_site_fract_x
 _atom_site_fract_y
 _atom_site_fract_z
 _atom_site_occupancy
  Li  Li0  1  0.53209400  0.88130500  0.07058900  1
  Li  Li1  1  0.03198500  0.88119700  0.57044200  1
  Li  Li2  1  0.26673700  0.38133400  0.99232800  1
  Li  Li3  1  0.76686800  0.38136900  0.49255800  1
  Li  Li4  1  0.73335300  0.61855900  0.00747100  1
  Li  Li5  1  0.23330800  0.61864200  0.50769400  1
  Li  Li6  1  0.46831700  0.11877600  0.92954200  1
  Li  Li7  1  0.96817400  0.11867800  0.42940400  1
  Si  Si8  1  0.22575300  0.63191800  0.91387400  1
  Si  Si9  1  0.72572300  0.63194500  0.41397100  1
  Si  Si10  1  0.55984700  0.13201800  0.63584600  1
  Si  Si11  1  0.05994800  0.13195400  0.13589700  1
  Si  Si12  1  0.44010400  0.86805100  0.36413400  1
  Si  Si13  1  0.94012400  0.86803700  0.86413600  1
  Si  Si14  1  0.77416000  0.36811700  0.08604900  1
  Si  Si15  1  0.27406700  0.36813600  0.58610600  1
  Ni  Ni16  1  0.51065400  0.75050100  0.74637300  1
  Ni  Ni17  1  0.98965200  0.24919700  0.75363100  1
  Ni  Ni18  1  0.01076000  0.75027800  0.24620200  1
  Ni  Ni19  1  0.48922500  0.24962200  0.25370200  1
  O  O20  1  0.95278000  0.74986000  0.93228300  1
  O  O21  1  0.45282400  0.74986600  0.43224800  1
  O  O22  1  0.04711000  0.25022800  0.06787300  1
  O  O23  1  0.54714000  0.25021500  0.56775700  1
  O  O24  1  0.74948000  0.50018700  0.24995700  1
  O  O25  1  0.24949300  0.50018400  0.74995200  1
  O  O26  1  0.00007900  0.00001300  0.00001000  1
  O  O27  1  0.49986300  0.00005500  0.50006400  1
  O  O28  1  0.45720800  0.69976600  0.91675700  1
  O  O29  1  0.95719500  0.69980600  0.41685100  1
  O  O30  1  0.34696000  0.19990700  0.78710000  1
  O  O31  1  0.84680000  0.19958700  0.28695300  1
  O  O32  1  0.65327000  0.80038600  0.21303400  1
  O  O33  1  0.15317000  0.80026100  0.71297700  1
  O  O34  1  0.54285200  0.30015900  0.08316300  1
  O  O35  1  0.04279300  0.30018600  0.58328800  1
  O  O36  1  0.18236400  0.58661100  0.04811300  1
  O  O37  1  0.68214900  0.58668400  0.54823300  1
  O  O38  1  0.85000700  0.08645400  0.65912300  1
  O  O39  1  0.35020700  0.08651200  0.15915900  1
  O  O40  1  0.14995700  0.91339800  0.34082200  1
  O  O41  1  0.64995100  0.91347900  0.84085300  1
  O  O42  1  0.81793200  0.41321000  0.95166800  1
  O  O43  1  0.31756500  0.41335400  0.45181100  1
