# generated using pymatgen
data_Li6V3P8O29
_symmetry_space_group_name_H-M   'P 1'
_cell_length_a   9.81076300
_cell_length_b   9.83388117
_cell_length_c   13.94256529
_cell_angle_alpha   89.75415990
_cell_angle_beta   89.52054080
_cell_angle_gamma   60.07850543
_symmetry_Int_Tables_number   1
_chemical_formula_structural   Li6V3P8O29
_chemical_formula_sum   'Li12 V6 P16 O58'
_cell_volume   1165.81292138
_cell_formula_units_Z   2
loop_
 _symmetry_equiv_pos_site_id
 _symmetry_equiv_pos_as_xyz
  1  'x, y, z'
loop_
 _atom_site_type_symbol
 _atom_site_label
 _atom_site_symmetry_multiplicity
 _atom_site_fract_x
 _atom_site_fract_y
 _atom_site_fract_z
 _atom_site_occupancy
  Li  Li0  1  0.22321300  0.07930200  0.55873600  1
  Li  Li1  1  0.08635200  0.68575300  0.56054700  1
  Li  Li2  1  0.32521800  0.34011900  0.38394900  1
  Li  Li3  1  0.32408400  0.33856700  0.88588000  1
  Li  Li4  1  0.23621800  0.67239000  0.06513600  1
  Li  Li5  1  0.67558500  0.09027000  0.06270800  1
  Li  Li6  1  0.68521600  0.22716700  0.56106700  1
  Li  Li7  1  0.33477100  0.89966600  0.94167600  1
  Li  Li8  1  0.76690100  0.33753300  0.94242900  1
  Li  Li9  1  0.90846200  0.31867700  0.43594400  1
  Li  Li10  1  0.77460900  0.90443500  0.43954100  1
  Li  Li11  1  0.00014900  0.99925500  0.00431800  1
  V  V12  1  0.43529200  0.56830000  0.25404600  1
  V  V13  1  0.56842100  0.43448600  0.74624800  1
  V  V14  1  0.43161200  0.99869800  0.74814000  1
  V  V15  1  0.56414100  0.99838900  0.24862000  1
  V  V16  1  0.00329000  0.43401800  0.24224400  1
  V  V17  1  0.99247200  0.57011600  0.75627000  1
  P  P18  1  0.08610100  0.22219500  0.84019800  1
  P  P19  1  0.22783500  0.09143500  0.34142300  1
  P  P20  1  0.08932600  0.67868700  0.34390400  1
  P  P21  1  0.33689500  0.33622000  0.12710200  1
  P  P22  1  0.33040700  0.33427300  0.62734500  1
  P  P23  1  0.22733800  0.68266200  0.84503700  1
  P  P24  1  0.31414400  0.76909100  0.65857600  1
  P  P25  1  0.68076000  0.09412000  0.84379600  1
  P  P26  1  0.31273400  0.91393800  0.15718700  1
  P  P27  1  0.67769900  0.22889800  0.34189900  1
  P  P28  1  0.77190600  0.31425600  0.15769500  1
  P  P29  1  0.67237600  0.66349600  0.37060400  1
  P  P30  1  0.66237400  0.66532900  0.87408900  1
  P  P31  1  0.91590600  0.32047700  0.65428600  1
  P  P32  1  0.77010400  0.91428400  0.65998200  1
  P  P33  1  0.91692200  0.77639600  0.15834500  1
  O  O34  1  0.00084400  0.24421300  0.56257600  1
  O  O35  1  0.07921800  0.25527400  0.33887100  1
  O  O36  1  0.22719900  0.98959600  0.06619100  1
  O  O37  1  0.25732600  0.07880500  0.84031600  1
  O  O38  1  0.10113700  0.37206300  0.83394700  1
  O  O39  1  0.19111500  0.33092000  0.16964100  1
  O  O40  1  0.10975300  0.51349900  0.32619100  1
  O  O41  1  0.01031700  0.79112000  0.07708900  1
  O  O42  1  0.08384600  0.66150400  0.84153500  1
  O  O43  1  0.32725800  0.18422200  0.66527600  1
  O  O44  1  0.37158600  0.11663700  0.32117500  1
  O  O45  1  0.18314300  0.48219900  0.67093400  1
  O  O46  1  0.33758800  0.33869300  0.01909000  1
  O  O47  1  0.32881300  0.33609900  0.51953000  1
  O  O48  1  0.32834100  0.48926800  0.16658100  1
  O  O49  1  0.51708000  0.10961600  0.83022500  1
  O  O50  1  0.49018500  0.18761200  0.16441400  1
  O  O51  1  0.25411900  0.65941400  0.34096000  1
  O  O52  1  0.21398600  0.79365000  0.75607600  1
  O  O53  1  0.22996300  0.75861100  0.57439200  1
  O  O54  1  0.23146300  0.76732000  0.93455200  1
  O  O55  1  0.37577800  0.51935900  0.83002200  1
  O  O56  1  0.48535400  0.32746700  0.66401800  1
  O  O57  1  0.33981400  0.74557200  0.16311900  1
  O  O58  1  0.51021800  0.37082600  0.32564900  1
  O  O59  1  0.66376600  0.07951500  0.34394900  1
  O  O60  1  0.20852400  0.00191200  0.25042300  1
  O  O61  1  0.24556200  0.00410700  0.43192200  1
  O  O62  1  0.75436400  0.00331900  0.56897600  1
  O  O63  1  0.33740700  0.91414500  0.65805400  1
  O  O64  1  0.47592100  0.61795300  0.67643800  1
  O  O65  1  0.65950500  0.26214700  0.83686800  1
  O  O66  1  0.52825200  0.65858800  0.32596200  1
  O  O67  1  0.61453400  0.46720700  0.16876300  1
  O  O68  1  0.77780500  0.22193200  0.06891800  1
  O  O69  1  0.75316400  0.24703300  0.43077700  1
  O  O70  1  0.78741800  0.20747100  0.25092300  1
  O  O71  1  0.75210700  0.33189700  0.65799500  1
  O  O72  1  0.51240800  0.81266500  0.83390300  1
  O  O73  1  0.46955000  0.91427300  0.16872000  1
  O  O74  1  0.67312500  0.51241400  0.83169600  1
  O  O75  1  0.66499100  0.66115000  0.98046000  1
  O  O76  1  0.67629100  0.65935500  0.47721900  1
  O  O77  1  0.82267000  0.51808600  0.32632100  1
  O  O78  1  0.61903500  0.90499800  0.68049600  1
  O  O79  1  0.66710400  0.81738100  0.32988500  1
  O  O80  1  0.91232900  0.33934700  0.16108200  1
  O  O81  1  0.01414600  0.20286000  0.74095200  1
  O  O82  1  0.99195100  0.21164100  0.92156400  1
  O  O83  1  0.90221700  0.47914000  0.67396300  1
  O  O84  1  0.81177100  0.66700800  0.82806100  1
  O  O85  1  0.91576100  0.62090100  0.16480400  1
  O  O86  1  0.74795800  0.91786000  0.15945400  1
  O  O87  1  0.76629400  0.01696300  0.93369400  1
  O  O88  1  0.78809300  0.00475900  0.75090900  1
  O  O89  1  0.91565300  0.75054200  0.66018500  1
  O  O90  1  0.99807900  0.75204800  0.43480500  1
  O  O91  1  0.99115800  0.79420100  0.25810300  1
