# generated using pymatgen
data_Li2FeNi3O8
_symmetry_space_group_name_H-M   'P 1'
_cell_length_a   8.10247500
_cell_length_b   8.14140320
_cell_length_c   8.30533051
_cell_angle_alpha   89.88060489
_cell_angle_beta   89.75891818
_cell_angle_gamma   89.96892908
_symmetry_Int_Tables_number   1
_chemical_formula_structural   Li2FeNi3O8
_chemical_formula_sum   'Li8 Fe4 Ni12 O32'
_cell_volume   547.85929450
_cell_formula_units_Z   4
loop_
 _symmetry_equiv_pos_site_id
 _symmetry_equiv_pos_as_xyz
  1  'x, y, z'
loop_
 _atom_site_type_symbol
 _atom_site_label
 _atom_site_symmetry_multiplicity
 _atom_site_fract_x
 _atom_site_fract_y
 _atom_site_fract_z
 _atom_site_occupancy
  Li  Li0  1  0.99976100  0.99447800  0.00111100  1
  Li  Li1  1  0.25066800  0.25470100  0.74716000  1
  Li  Li2  1  0.74957100  0.25222800  0.24421300  1
  Li  Li3  1  0.99909400  0.49611900  0.50366800  1
  Li  Li4  1  0.50036300  0.49949800  0.00289000  1
  Li  Li5  1  0.24963600  0.75182500  0.24861200  1
  Li  Li6  1  0.75159000  0.74904400  0.74755400  1
  Li  Li7  1  0.49977300  0.00055800  0.50515700  1
  Fe  Fe8  1  0.87524100  0.12756100  0.62797900  1
  Fe  Fe9  1  0.12262900  0.37855100  0.12467000  1
  Fe  Fe10  1  0.62703200  0.62712600  0.37855200  1
  Fe  Fe11  1  0.37643100  0.87413100  0.87292700  1
  Ni  Ni12  1  0.12872400  0.11817400  0.37325600  1
  Ni  Ni13  1  0.37696300  0.12250900  0.12869400  1
  Ni  Ni14  1  0.62460200  0.13081900  0.88049800  1
  Ni  Ni15  1  0.37674600  0.37139200  0.37595200  1
  Ni  Ni16  1  0.62018600  0.37776400  0.63298800  1
  Ni  Ni17  1  0.87206600  0.37654700  0.87613800  1
  Ni  Ni18  1  0.37184500  0.62423600  0.62081100  1
  Ni  Ni19  1  0.12035300  0.62033000  0.86604800  1
  Ni  Ni20  1  0.87388800  0.62913600  0.12199100  1
  Ni  Ni21  1  0.12736600  0.87133600  0.61696900  1
  Ni  Ni22  1  0.87808600  0.87397100  0.37763700  1
  Ni  Ni23  1  0.62704700  0.87848300  0.12420000  1
  O  O24  1  0.12605700  0.10377100  0.60231500  1
  O  O25  1  0.89424300  0.10747700  0.38094600  1
  O  O26  1  0.60995500  0.11116500  0.10907200  1
  O  O27  1  0.14523600  0.12549600  0.14537800  1
  O  O28  1  0.39261500  0.12755400  0.89952800  1
  O  O29  1  0.35868400  0.11979900  0.35489400  1
  O  O30  1  0.62507800  0.14591300  0.65213800  1
  O  O31  1  0.85646800  0.14254300  0.87349000  1
  O  O32  1  0.13753300  0.34796200  0.36969900  1
  O  O33  1  0.37172300  0.35317600  0.14723000  1
  O  O34  1  0.64179400  0.36052900  0.87471000  1
  O  O35  1  0.61419400  0.39123100  0.38433100  1
  O  O36  1  0.86288400  0.37007200  0.64986900  1
  O  O37  1  0.38117800  0.39387000  0.60415800  1
  O  O38  1  0.10375500  0.38168100  0.88132900  1
  O  O39  1  0.87668300  0.39209600  0.10220900  1
  O  O40  1  0.39181100  0.62668400  0.39482000  1
  O  O41  1  0.60277000  0.60697200  0.62551300  1
  O  O42  1  0.89084500  0.60598200  0.87603300  1
  O  O43  1  0.35347800  0.62477800  0.84953300  1
  O  O44  1  0.10688600  0.61912800  0.11651400  1
  O  O45  1  0.14232300  0.64341100  0.61985600  1
  O  O46  1  0.86187500  0.64321600  0.37358800  1
  O  O47  1  0.63931600  0.64804800  0.13169600  1
  O  O48  1  0.35794100  0.85562400  0.62866800  1
  O  O49  1  0.12724900  0.86283100  0.84275300  1
  O  O50  1  0.86479500  0.86433600  0.15085100  1
  O  O51  1  0.89574100  0.87879200  0.60450200  1
  O  O52  1  0.64874800  0.86502700  0.37742400  1
  O  O53  1  0.11099900  0.88707800  0.38865500  1
  O  O54  1  0.38760900  0.89194000  0.11344700  1
  O  O55  1  0.62001300  0.90130300  0.87504000  1
