# generated using pymatgen
data_Li2Fe2Si5O13
_symmetry_space_group_name_H-M   'P 1'
_cell_length_a   7.54549300
_cell_length_b   7.67104055
_cell_length_c   9.87278754
_cell_angle_alpha   83.87765782
_cell_angle_beta   68.08125405
_cell_angle_gamma   74.22610177
_symmetry_Int_Tables_number   1
_chemical_formula_structural   Li2Fe2Si5O13
_chemical_formula_sum   'Li4 Fe4 Si10 O26'
_cell_volume   510.17361434
_cell_formula_units_Z   2
loop_
 _symmetry_equiv_pos_site_id
 _symmetry_equiv_pos_as_xyz
  1  'x, y, z'
loop_
 _atom_site_type_symbol
 _atom_site_label
 _atom_site_symmetry_multiplicity
 _atom_site_fract_x
 _atom_site_fract_y
 _atom_site_fract_z
 _atom_site_occupancy
  Li  Li0  1  0.18471600  0.07980700  0.86751200  1
  Li  Li1  1  0.15925400  0.40803000  0.74453500  1
  Li  Li2  1  0.84074600  0.59197000  0.25546500  1
  Li  Li3  1  0.81528400  0.92019300  0.13248800  1
  Fe  Fe4  1  0.02884900  0.15624500  0.60080700  1
  Fe  Fe5  1  0.44090900  0.84031300  0.40090200  1
  Fe  Fe6  1  0.55909100  0.15968700  0.59909800  1
  Fe  Fe7  1  0.97115100  0.84375500  0.39919300  1
  Si  Si8  1  0.14956200  0.22295400  0.26579500  1
  Si  Si9  1  0.21418100  0.69272900  0.04353700  1
  Si  Si10  1  0.30849200  0.45764300  0.40789900  1
  Si  Si11  1  0.26475500  0.76577100  0.72812200  1
  Si  Si12  1  0.62925500  0.70490700  0.04538300  1
  Si  Si13  1  0.37074500  0.29509300  0.95461700  1
  Si  Si14  1  0.73524500  0.23422900  0.27187800  1
  Si  Si15  1  0.69150800  0.54235700  0.59210100  1
  Si  Si16  1  0.78581900  0.30727100  0.95646300  1
  Si  Si17  1  0.85043800  0.77704600  0.73420500  1
  O  O18  1  0.02275100  0.77150200  0.18422400  1
  O  O19  1  0.15885800  0.05494200  0.38050800  1
  O  O20  1  0.29559700  0.16162400  0.09633700  1
  O  O21  1  0.20039200  0.39966500  0.30679700  1
  O  O22  1  0.07399400  0.69265700  0.74057200  1
  O  O23  1  0.41410100  0.68111000  0.06997500  1
  O  O24  1  0.23753400  0.67753000  0.42259000  1
  O  O25  1  0.27772500  0.32434700  0.55011700  1
  O  O26  1  0.54988300  0.41134000  0.30997100  1
  O  O27  1  0.36927300  0.21643900  0.80997400  1
  O  O28  1  0.21126700  0.49556700  0.99457100  1
  O  O29  1  0.30183500  0.93639500  0.61812400  1
  O  O30  1  0.21276000  0.82989700  0.89909000  1
  O  O31  1  0.78724000  0.17010300  0.10091000  1
  O  O32  1  0.69816500  0.06360500  0.38187600  1
  O  O33  1  0.78873300  0.50443300  0.00542900  1
  O  O34  1  0.63072700  0.78356100  0.19002600  1
  O  O35  1  0.45011700  0.58866000  0.69002900  1
  O  O36  1  0.72227500  0.67565300  0.44988300  1
  O  O37  1  0.76246600  0.32247000  0.57741000  1
  O  O38  1  0.58589900  0.31889000  0.93002500  1
  O  O39  1  0.92600600  0.30734300  0.25942800  1
  O  O40  1  0.79960800  0.60033500  0.69320300  1
  O  O41  1  0.70440300  0.83837600  0.90366300  1
  O  O42  1  0.84114200  0.94505800  0.61949200  1
  O  O43  1  0.97724900  0.22849800  0.81577600  1
