# generated using pymatgen
data_Li2CrP3O10
_symmetry_space_group_name_H-M   'P 1'
_cell_length_a   8.02673600
_cell_length_b   9.70995800
_cell_length_c   12.03625763
_cell_angle_alpha   84.13840541
_cell_angle_beta   90.00000000
_cell_angle_gamma   90.00000000
_symmetry_Int_Tables_number   1
_chemical_formula_structural   Li2CrP3O10
_chemical_formula_sum   'Li8 Cr4 P12 O40'
_cell_volume   933.19228117
_cell_formula_units_Z   4
loop_
 _symmetry_equiv_pos_site_id
 _symmetry_equiv_pos_as_xyz
  1  'x, y, z'
loop_
 _atom_site_type_symbol
 _atom_site_label
 _atom_site_symmetry_multiplicity
 _atom_site_fract_x
 _atom_site_fract_y
 _atom_site_fract_z
 _atom_site_occupancy
  Li  Li0  1  0.54240800  0.61482800  0.14805700  1
  Li  Li1  1  0.95759200  0.11482800  0.14805700  1
  Li  Li2  1  0.88913800  0.09296300  0.44879000  1
  Li  Li3  1  0.61086200  0.59296300  0.44879000  1
  Li  Li4  1  0.38913800  0.40703700  0.55121000  1
  Li  Li5  1  0.11086200  0.90703700  0.55121000  1
  Li  Li6  1  0.04240800  0.88517200  0.85194300  1
  Li  Li7  1  0.45759200  0.38517200  0.85194300  1
  Cr  Cr8  1  0.14326100  0.37088700  0.16919300  1
  Cr  Cr9  1  0.35673900  0.87088700  0.16919300  1
  Cr  Cr10  1  0.64326100  0.12911300  0.83080700  1
  Cr  Cr11  1  0.85673900  0.62911300  0.83080700  1
  P  P12  1  0.43276000  0.19199800  0.06369600  1
  P  P13  1  0.06724000  0.69199800  0.06369600  1
  P  P14  1  0.57589100  0.08508200  0.27463900  1
  P  P15  1  0.92410900  0.58508200  0.27463900  1
  P  P16  1  0.21550700  0.07503200  0.33281700  1
  P  P17  1  0.28449300  0.57503200  0.33281700  1
  P  P18  1  0.71550700  0.42496800  0.66718300  1
  P  P19  1  0.78449300  0.92496800  0.66718300  1
  P  P20  1  0.07589100  0.41491800  0.72536100  1
  P  P21  1  0.42410900  0.91491800  0.72536100  1
  P  P22  1  0.93276000  0.30800200  0.93630400  1
  P  P23  1  0.56724000  0.80800200  0.93630400  1
  O  O24  1  0.33523100  0.05748600  0.08247800  1
  O  O25  1  0.00677600  0.28266600  0.05355600  1
  O  O26  1  0.34134100  0.32458600  0.08293400  1
  O  O27  1  0.16476900  0.55748600  0.08247800  1
  O  O28  1  0.49322400  0.78266600  0.05355600  1
  O  O29  1  0.15865900  0.82458600  0.08293400  1
  O  O30  1  0.58467500  0.18167100  0.15526200  1
  O  O31  1  0.91532500  0.68167100  0.15526200  1
  O  O32  1  0.12083800  0.17738000  0.24857200  1
  O  O33  1  0.94206600  0.43592700  0.24885300  1
  O  O34  1  0.28015400  0.43040000  0.29266200  1
  O  O35  1  0.37916200  0.67738000  0.24857200  1
  O  O36  1  0.55793400  0.93592700  0.24885300  1
  O  O37  1  0.21984600  0.93040000  0.29266200  1
  O  O38  1  0.40870100  0.13196500  0.33628500  1
  O  O39  1  0.72614400  0.12269300  0.33697500  1
  O  O40  1  0.09129900  0.63196500  0.33628500  1
  O  O41  1  0.77385600  0.62269300  0.33697500  1
  O  O42  1  0.14002800  0.07207300  0.44783200  1
  O  O43  1  0.35997200  0.57207300  0.44783200  1
  O  O44  1  0.64002800  0.42792700  0.55216800  1
  O  O45  1  0.85997200  0.92792700  0.55216800  1
  O  O46  1  0.22614400  0.37730700  0.66302500  1
  O  O47  1  0.90870100  0.36803500  0.66371500  1
  O  O48  1  0.27385600  0.87730700  0.66302500  1
  O  O49  1  0.59129900  0.86803500  0.66371500  1
  O  O50  1  0.78015400  0.06960000  0.70733800  1
  O  O51  1  0.44206600  0.06407300  0.75114700  1
  O  O52  1  0.62083800  0.32262000  0.75142800  1
  O  O53  1  0.71984600  0.56960000  0.70733800  1
  O  O54  1  0.05793400  0.56407300  0.75114700  1
  O  O55  1  0.87916200  0.82262000  0.75142800  1
  O  O56  1  0.08467500  0.31832900  0.84473800  1
  O  O57  1  0.41532500  0.81832900  0.84473800  1
  O  O58  1  0.84134100  0.17541400  0.91706600  1
  O  O59  1  0.50677600  0.21733400  0.94644400  1
  O  O60  1  0.83523100  0.44251400  0.91752200  1
  O  O61  1  0.65865900  0.67541400  0.91706600  1
  O  O62  1  0.99322400  0.71733400  0.94644400  1
  O  O63  1  0.66476900  0.94251400  0.91752200  1
