# generated using pymatgen
data_Li7Mn2P7O24
_symmetry_space_group_name_H-M   'P 1'
_cell_length_a   5.00097900
_cell_length_b   12.61555300
_cell_length_c   14.86060182
_cell_angle_alpha   81.40539359
_cell_angle_beta   90.00000000
_cell_angle_gamma   90.00000000
_symmetry_Int_Tables_number   1
_chemical_formula_structural   Li7Mn2P7O24
_chemical_formula_sum   'Li14 Mn4 P14 O48'
_cell_volume   927.02874614
_cell_formula_units_Z   2
loop_
 _symmetry_equiv_pos_site_id
 _symmetry_equiv_pos_as_xyz
  1  'x, y, z'
loop_
 _atom_site_type_symbol
 _atom_site_label
 _atom_site_symmetry_multiplicity
 _atom_site_fract_x
 _atom_site_fract_y
 _atom_site_fract_z
 _atom_site_occupancy
  Li  Li0  1  0.25258100  0.48063700  0.05548100  1
  Li  Li1  1  0.17488900  0.10592300  0.13903700  1
  Li  Li2  1  0.74741900  0.98063700  0.05548100  1
  Li  Li3  1  0.82511100  0.60592300  0.13903700  1
  Li  Li4  1  0.81313200  0.43348900  0.40211800  1
  Li  Li5  1  0.18686800  0.93348900  0.40211800  1
  Li  Li6  1  0.29149300  0.25000000  0.50000000  1
  Li  Li7  1  0.70850700  0.75000000  0.50000000  1
  Li  Li8  1  0.81313200  0.06651100  0.59788200  1
  Li  Li9  1  0.18686800  0.56651100  0.59788200  1
  Li  Li10  1  0.17488900  0.39407700  0.86096300  1
  Li  Li11  1  0.25258100  0.01936300  0.94451900  1
  Li  Li12  1  0.82511100  0.89407700  0.86096300  1
  Li  Li13  1  0.74741900  0.51936300  0.94451900  1
  Mn  Mn14  1  0.35614800  0.29429100  0.28097700  1
  Mn  Mn15  1  0.64385200  0.79429100  0.28097700  1
  Mn  Mn16  1  0.35614800  0.20570900  0.71902300  1
  Mn  Mn17  1  0.64385200  0.70570900  0.71902300  1
  P  P18  1  0.53562700  0.25000000  0.00000000  1
  P  P19  1  0.46437300  0.75000000  0.00000000  1
  P  P20  1  0.85626600  0.34172600  0.13674700  1
  P  P21  1  0.14373400  0.84172600  0.13674700  1
  P  P22  1  0.62282800  0.04854000  0.27013900  1
  P  P23  1  0.37717200  0.54854000  0.27013900  1
  P  P24  1  0.85577700  0.18823000  0.39392900  1
  P  P25  1  0.14422300  0.68823000  0.39392900  1
  P  P26  1  0.85577700  0.31177000  0.60607100  1
  P  P27  1  0.14422300  0.81177000  0.60607100  1
  P  P28  1  0.62282800  0.45146000  0.72986100  1
  P  P29  1  0.37717200  0.95146000  0.72986100  1
  P  P30  1  0.85626600  0.15827400  0.86325200  1
  P  P31  1  0.14373400  0.65827400  0.86325200  1
  O  O32  1  0.38685600  0.14515400  0.01869500  1
  O  O33  1  0.61314400  0.64515400  0.01869500  1
  O  O34  1  0.74526800  0.24831200  0.08291600  1
  O  O35  1  0.85670700  0.44724000  0.07283100  1
  O  O36  1  0.25473200  0.74831200  0.08291600  1
  O  O37  1  0.14329300  0.94724000  0.07283100  1
  O  O38  1  0.13538600  0.29974500  0.16711400  1
  O  O39  1  0.76248600  0.01956700  0.18667500  1
  O  O40  1  0.67277200  0.34377700  0.21833000  1
  O  O41  1  0.86461400  0.79974500  0.16711400  1
  O  O42  1  0.23751400  0.51956700  0.18667500  1
  O  O43  1  0.39345600  0.12893700  0.24937800  1
  O  O44  1  0.32722800  0.84377700  0.21833000  1
  O  O45  1  0.60654400  0.62893700  0.24937800  1
  O  O46  1  0.86251900  0.11069500  0.31863400  1
  O  O47  1  0.13748100  0.61069500  0.31863400  1
  O  O48  1  0.04963300  0.28269400  0.35908500  1
  O  O49  1  0.45503900  0.45256600  0.34204600  1
  O  O50  1  0.57026600  0.23421400  0.39871800  1
  O  O51  1  0.95036700  0.78269400  0.35908500  1
  O  O52  1  0.54496100  0.95256600  0.34204600  1
  O  O53  1  0.42973400  0.73421400  0.39871800  1
  O  O54  1  0.95908700  0.12795400  0.48220400  1
  O  O55  1  0.04091300  0.62795400  0.48220400  1
  O  O56  1  0.95908700  0.37204600  0.51779600  1
  O  O57  1  0.04091300  0.87204600  0.51779600  1
  O  O58  1  0.57026600  0.26578600  0.60128200  1
  O  O59  1  0.45503900  0.04743400  0.65795400  1
  O  O60  1  0.04963300  0.21730600  0.64091500  1
  O  O61  1  0.42973400  0.76578600  0.60128200  1
  O  O62  1  0.54496100  0.54743400  0.65795400  1
  O  O63  1  0.95036700  0.71730600  0.64091500  1
  O  O64  1  0.86251900  0.38930500  0.68136600  1
  O  O65  1  0.13748100  0.88930500  0.68136600  1
  O  O66  1  0.39345600  0.37106300  0.75062200  1
  O  O67  1  0.67277200  0.15622300  0.78167000  1
  O  O68  1  0.60654400  0.87106300  0.75062200  1
  O  O69  1  0.76248600  0.48043300  0.81332500  1
  O  O70  1  0.13538600  0.20025500  0.83288600  1
  O  O71  1  0.32722800  0.65622300  0.78167000  1
  O  O72  1  0.23751400  0.98043300  0.81332500  1
  O  O73  1  0.86461400  0.70025500  0.83288600  1
  O  O74  1  0.85670700  0.05276000  0.92716900  1
  O  O75  1  0.74526800  0.25168800  0.91708400  1
  O  O76  1  0.14329300  0.55276000  0.92716900  1
  O  O77  1  0.25473200  0.75168800  0.91708400  1
  O  O78  1  0.38685600  0.35484600  0.98130500  1
  O  O79  1  0.61314400  0.85484600  0.98130500  1
