# generated using pymatgen
data_Li2VAsCO7
_symmetry_space_group_name_H-M   'P 1'
_cell_length_a   5.11913325
_cell_length_b   8.76229442
_cell_length_c   6.59727500
_cell_angle_alpha   89.99994922
_cell_angle_beta   90.00013537
_cell_angle_gamma   86.19594509
_symmetry_Int_Tables_number   1
_chemical_formula_structural   Li2VAsCO7
_chemical_formula_sum   'Li4 V2 As2 C2 O14'
_cell_volume   295.27111181
_cell_formula_units_Z   2
loop_
 _symmetry_equiv_pos_site_id
 _symmetry_equiv_pos_as_xyz
  1  'x, y, z'
loop_
 _atom_site_type_symbol
 _atom_site_label
 _atom_site_symmetry_multiplicity
 _atom_site_fract_x
 _atom_site_fract_y
 _atom_site_fract_z
 _atom_site_occupancy
  Li  Li0  1  0.21664600  0.20641400  0.50712100  1
  Li  Li1  1  0.21664200  0.20641400  0.99288000  1
  Li  Li2  1  0.78342500  0.79344800  0.49295500  1
  Li  Li3  1  0.78342600  0.79344700  0.00704400  1
  V  V4  1  0.20344400  0.66511200  0.25000000  1
  V  V5  1  0.79650000  0.33507600  0.74999400  1
  As  As6  1  0.71771900  0.41763400  0.25000100  1
  As  As7  1  0.28220800  0.58236200  0.75000100  1
  C  C8  1  0.73267400  0.05484000  0.75000000  1
  C  C9  1  0.26737600  0.94519600  0.25000000  1
  O  O10  1  0.30240000  0.08676700  0.24999900  1
  O  O11  1  0.69772900  0.91326700  0.75000000  1
  O  O12  1  0.96555700  0.10979000  0.75000400  1
  O  O13  1  0.03450900  0.89031200  0.25000000  1
  O  O14  1  0.53566700  0.16186800  0.74999600  1
  O  O15  1  0.46443500  0.83816100  0.25000100  1
  O  O16  1  0.16438400  0.40185400  0.75000000  1
  O  O17  1  0.83581800  0.59807400  0.25000000  1
  O  O18  1  0.38254900  0.44303900  0.25000100  1
  O  O19  1  0.61738200  0.55713000  0.75000000  1
  O  O20  1  0.83115400  0.31049700  0.04691700  1
  O  O21  1  0.83115800  0.31049700  0.45308400  1
  O  O22  1  0.16859900  0.68940100  0.54698100  1
  O  O23  1  0.16860000  0.68940100  0.95302000  1
