# generated using pymatgen
data_Li24Ti5Cr7O36
_symmetry_space_group_name_H-M   'P 1'
_cell_length_a   5.05169600
_cell_length_b   9.78413815
_cell_length_c   13.39815184
_cell_angle_alpha   97.18501343
_cell_angle_beta   100.66401271
_cell_angle_gamma   94.68122908
_symmetry_Int_Tables_number   1
_chemical_formula_structural   Li24Ti5Cr7O36
_chemical_formula_sum   'Li24 Ti5 Cr7 O36'
_cell_volume   641.93862808
_cell_formula_units_Z   1
loop_
 _symmetry_equiv_pos_site_id
 _symmetry_equiv_pos_as_xyz
  1  'x, y, z'
loop_
 _atom_site_type_symbol
 _atom_site_label
 _atom_site_symmetry_multiplicity
 _atom_site_fract_x
 _atom_site_fract_y
 _atom_site_fract_z
 _atom_site_occupancy
  Li  Li0  1  0.16464400  0.00128800  0.83316100  1
  Li  Li1  1  0.04966700  0.00076300  0.61447700  1
  Li  Li2  1  0.99763300  0.75093400  0.24981200  1
  Li  Li3  1  0.33313000  0.75034500  0.91718800  1
  Li  Li4  1  0.04620700  0.49728800  0.11228800  1
  Li  Li5  1  0.37662300  0.50089500  0.77890600  1
  Li  Li6  1  0.17358400  0.49885400  0.33286500  1
  Li  Li7  1  0.50117100  0.50212600  0.99884400  1
  Li  Li8  1  0.28437400  0.50136100  0.55475900  1
  Li  Li9  1  0.33492900  0.24971300  0.41521900  1
  Li  Li10  1  0.50930500  0.99924100  0.49781400  1
  Li  Li11  1  0.28239200  0.00085900  0.05258700  1
  Li  Li12  1  0.61434200  0.99778100  0.71836500  1
  Li  Li13  1  0.38176400  0.99932900  0.28039800  1
  Li  Li14  1  0.71855300  0.00001200  0.94745400  1
  Li  Li15  1  0.66363000  0.75004400  0.58262200  1
  Li  Li16  1  0.70674300  0.49965800  0.44561500  1
  Li  Li17  1  0.84124400  0.49954800  0.66555100  1
  Li  Li18  1  0.62127600  0.50205900  0.22272800  1
  Li  Li19  1  0.95352800  0.49836400  0.88737800  1
  Li  Li20  1  0.66640500  0.25037300  0.08391400  1
  Li  Li21  1  0.83328800  0.99833500  0.16770300  1
  Li  Li22  1  0.00068900  0.25015600  0.75038300  1
  Li  Li23  1  0.94929500  0.99982400  0.38749400  1
  Ti  Ti24  1  0.11280600  0.75036300  0.47296500  1
  Ti  Ti25  1  0.44884300  0.25575000  0.63946800  1
  Ti  Ti26  1  0.55237800  0.24511200  0.86039400  1
  Ti  Ti27  1  0.77600300  0.74618400  0.80778400  1
  Ti  Ti28  1  0.77290700  0.24874500  0.30617000  1
  Cr  Cr29  1  0.10466400  0.24999600  0.97438400  1
  Cr  Cr30  1  0.21919400  0.75126700  0.69434100  1
  Cr  Cr31  1  0.22554100  0.25175300  0.19309400  1
  Cr  Cr32  1  0.44564600  0.75182500  0.13532600  1
  Cr  Cr33  1  0.55210600  0.74876900  0.35800800  1
  Cr  Cr34  1  0.89560100  0.24847900  0.52643800  1
  Cr  Cr35  1  0.89438400  0.75070400  0.03138700  1
  O  O36  1  0.99903500  0.86203600  0.93086500  1
  O  O37  1  0.06964400  0.63354800  0.78709200  1
  O  O38  1  0.99949100  0.36263000  0.43184000  1
  O  O39  1  0.14597100  0.36366800  0.64442800  1
  O  O40  1  0.26242400  0.36406600  0.88421700  1
  O  O41  1  0.33560700  0.86451800  0.59402900  1
  O  O42  1  0.07146200  0.13595100  0.28315700  1
  O  O43  1  0.18140900  0.13758700  0.52150200  1
  O  O44  1  0.40167800  0.13565600  0.95364500  1
  O  O45  1  0.13348100  0.86231400  0.14057000  1
  O  O46  1  0.26915900  0.86480200  0.38015100  1
  O  O47  1  0.47169000  0.86180900  0.80942600  1
  O  O48  1  0.33372800  0.13603800  0.73771000  1
  O  O49  1  0.19992200  0.63727200  0.02770400  1
  O  O50  1  0.39938300  0.63234500  0.45177600  1
  O  O51  1  0.51930500  0.63866200  0.68986000  1
  O  O52  1  0.33743000  0.64115800  0.23890700  1
  O  O53  1  0.66801700  0.63677500  0.90719900  1
  O  O54  1  0.33719200  0.36151600  0.09955600  1
  O  O55  1  0.66723200  0.36478900  0.76258200  1
  O  O56  1  0.47932500  0.36514700  0.31096400  1
  O  O57  1  0.59821000  0.36398900  0.54637100  1
  O  O58  1  0.81877300  0.36316900  0.97842200  1
  O  O59  1  0.66512100  0.86217800  0.25837400  1
  O  O60  1  0.51472400  0.13678600  0.18877600  1
  O  O61  1  0.73944700  0.13635300  0.61676500  1
  O  O62  1  0.85428900  0.13569000  0.85614100  1
  O  O63  1  0.59177000  0.86529600  0.05015200  1
  O  O64  1  0.80468900  0.86104200  0.47413900  1
  O  O65  1  0.93666500  0.86489000  0.71469400  1
  O  O66  1  0.66202300  0.13514400  0.40247200  1
  O  O67  1  0.74346700  0.63575900  0.11611000  1
  O  O68  1  0.85234600  0.63748700  0.35557400  1
  O  O69  1  0.00109600  0.63852000  0.57517700  1
  O  O70  1  0.93362500  0.36461500  0.21442200  1
  O  O71  1  0.99667600  0.13869600  0.06794500  1
