# generated using pymatgen
data_Li3V3P8O29
_symmetry_space_group_name_H-M   'P 1'
_cell_length_a   9.77397500
_cell_length_b   9.78137034
_cell_length_c   14.50299997
_cell_angle_alpha   89.87395566
_cell_angle_beta   90.74202143
_cell_angle_gamma   119.95030393
_symmetry_Int_Tables_number   1
_chemical_formula_structural   Li3V3P8O29
_chemical_formula_sum   'Li6 V6 P16 O58'
_cell_volume   1201.25437830
_cell_formula_units_Z   2
loop_
 _symmetry_equiv_pos_site_id
 _symmetry_equiv_pos_as_xyz
  1  'x, y, z'
loop_
 _atom_site_type_symbol
 _atom_site_label
 _atom_site_symmetry_multiplicity
 _atom_site_fract_x
 _atom_site_fract_y
 _atom_site_fract_z
 _atom_site_occupancy
  Li  Li0  1  0.29063700  0.07340200  0.05288100  1
  Li  Li1  1  0.07878200  0.29977700  0.44730300  1
  Li  Li2  1  0.23096700  0.32120200  0.93937600  1
  Li  Li3  1  0.21823000  0.92504500  0.45432400  1
  Li  Li4  1  0.69833000  0.77901000  0.44542600  1
  Li  Li5  1  0.69584500  0.91705500  0.94017800  1
  V  V6  1  0.56868300  0.00256900  0.74908100  1
  V  V7  1  0.43520600  0.43354200  0.74631800  1
  V  V8  1  0.99987600  0.43559200  0.24590700  1
  V  V9  1  0.00284400  0.56958400  0.75650300  1
  V  V10  1  0.56944300  0.56582600  0.25025900  1
  V  V11  1  0.43222200  0.99629100  0.25211500  1
  P  P12  1  0.32221900  0.09242500  0.84043000  1
  P  P13  1  0.31487800  0.22800600  0.33733000  1
  P  P14  1  0.77561200  0.08921700  0.33376300  1
  P  P15  1  0.66960300  0.33546900  0.63474500  1
  P  P16  1  0.65958500  0.32814800  0.13484900  1
  P  P17  1  0.91622400  0.22667500  0.83681200  1
  P  P18  1  0.08416400  0.31904500  0.65934900  1
  P  P19  1  0.77349900  0.68671000  0.83628900  1
  P  P20  1  0.23108700  0.31860500  0.15901300  1
  P  P21  1  0.91835400  0.68723900  0.33742900  1
  P  P22  1  0.08208100  0.77164000  0.15634700  1
  P  P23  1  0.33957900  0.66671900  0.86921900  1
  P  P24  1  0.33416600  0.66533700  0.36693000  1
  P  P25  1  0.22583600  0.90920200  0.66515500  1
  P  P26  1  0.68146100  0.77074000  0.65900300  1
  P  P27  1  0.67904400  0.91057000  0.15786600  1
  O  O28  1  0.23336300  0.98742900  0.57651300  1
  O  O29  1  0.33998700  0.08253000  0.33886500  1
  O  O30  1  0.21731900  0.20216900  0.24092800  1
  O  O31  1  0.23987100  0.24862000  0.06949200  1
  O  O32  1  0.48103600  0.09852900  0.82134400  1
  O  O33  1  0.34362300  0.26104700  0.83564600  1
  O  O34  1  0.51007800  0.17985200  0.17662900  1
  O  O35  1  0.62046500  0.09720900  0.31970400  1
  O  O36  1  0.73621600  0.97622400  0.06588200  1
  O  O37  1  0.74470700  0.08348700  0.83890500  1
  O  O38  1  0.52047200  0.33715800  0.67722000  1
  O  O39  1  0.66285800  0.18225200  0.67833800  1
  O  O40  1  0.47563400  0.38174600  0.32325400  1
  O  O41  1  0.66367900  0.33040100  0.53294900  1
  O  O42  1  0.65040700  0.32630000  0.03314700  1
  O  O43  1  0.61930200  0.52625700  0.82076400  1
  O  O44  1  0.81135900  0.33192400  0.17730500  1
  O  O45  1  0.66153800  0.47709800  0.18031200  1
  O  O46  1  0.91954300  0.25910600  0.33658500  1
  O  O47  1  0.98243100  0.20048000  0.74031600  1
  O  O48  1  0.01308700  0.22636800  0.91624600  1
  O  O49  1  0.01500700  0.25173800  0.56792500  1
  O  O50  1  0.90977200  0.38123000  0.82601900  1
  O  O51  1  0.81650800  0.47804600  0.68019100  1
  O  O52  1  0.74648900  0.65943700  0.33795000  1
  O  O53  1  0.08576400  0.34051400  0.16925200  1
  O  O54  1  0.90946200  0.52572600  0.31998500  1
  O  O55  1  0.22287800  0.23206000  0.41631800  1
  O  O56  1  0.74529300  0.76654100  0.56789700  1
  O  O57  1  0.09307600  0.47799500  0.68116400  1
  O  O58  1  0.91417700  0.65536100  0.83541400  1
  O  O59  1  0.79856400  0.78442000  0.74091100  1
  O  O60  1  0.25287100  0.34141000  0.67373200  1
  O  O61  1  0.18500100  0.51672900  0.32461500  1
  O  O62  1  0.09173200  0.61775800  0.17777600  1
  O  O63  1  0.00486400  0.76947600  0.06879200  1
  O  O64  1  0.01126400  0.77425600  0.41978700  1
  O  O65  1  0.99335200  0.78857400  0.24525800  1
  O  O66  1  0.08165900  0.74195700  0.67413800  1
  O  O67  1  0.33671900  0.51612100  0.82812500  1
  O  O68  1  0.38265000  0.47977300  0.17992000  1
  O  O69  1  0.18828200  0.66455000  0.82587700  1
  O  O70  1  0.33355100  0.67357400  0.46893400  1
  O  O71  1  0.33758700  0.66117200  0.97166000  1
  O  O72  1  0.51975000  0.61916400  0.67868400  1
  O  O73  1  0.33253700  0.81556900  0.32386600  1
  O  O74  1  0.48466000  0.66615100  0.32893600  1
  O  O75  1  0.25367700  0.91757900  0.16692400  1
  O  O76  1  0.21116000  0.00375500  0.75188400  1
  O  O77  1  0.25027400  0.01510200  0.92875900  1
  O  O78  1  0.37978800  0.90049800  0.68378600  1
  O  O79  1  0.48772900  0.81865200  0.83075200  1
  O  O80  1  0.65975600  0.74493400  0.17598200  1
  O  O81  1  0.51844500  0.90061900  0.18203200  1
  O  O82  1  0.77044800  0.77817200  0.91633900  1
  O  O83  1  0.65891200  0.91565300  0.67351900  1
  O  O84  1  0.76798100  0.99052700  0.41309900  1
  O  O85  1  0.79959600  0.01990300  0.23756900  1
