# generated using pymatgen
data_LiNiPO4
_symmetry_space_group_name_H-M   'P 1'
_cell_length_a   5.22958604
_cell_length_b   7.93091129
_cell_length_c   8.47754759
_cell_angle_alpha   104.57737664
_cell_angle_beta   89.98893711
_cell_angle_gamma   89.99450448
_symmetry_Int_Tables_number   1
_chemical_formula_structural   LiNiPO4
_chemical_formula_sum   'Li4 Ni4 P4 O16'
_cell_volume   340.29072899
_cell_formula_units_Z   4
loop_
 _symmetry_equiv_pos_site_id
 _symmetry_equiv_pos_as_xyz
  1  'x, y, z'
loop_
 _atom_site_type_symbol
 _atom_site_label
 _atom_site_symmetry_multiplicity
 _atom_site_fract_x
 _atom_site_fract_y
 _atom_site_fract_z
 _atom_site_occupancy
  Li  Li0  1  0.33934000  0.87395000  0.20861700  1
  Li  Li1  1  0.66059400  0.87390600  0.70874700  1
  Li  Li2  1  0.82332400  0.35585800  0.38311800  1
  Li  Li3  1  0.17682600  0.35592300  0.88319100  1
  Ni  Ni4  1  0.16751200  0.95356900  0.55223100  1
  Ni  Ni5  1  0.32298300  0.48963100  0.26684200  1
  Ni  Ni6  1  0.83233200  0.95372400  0.05229800  1
  Ni  Ni7  1  0.67727800  0.48931600  0.76663400  1
  P  P8  1  0.67762200  0.25344200  0.01162900  1
  P  P9  1  0.32236200  0.25328800  0.51157100  1
  P  P10  1  0.82216500  0.74114800  0.33527400  1
  P  P11  1  0.17778200  0.74103300  0.83523100  1
  O  O12  1  0.19289400  0.87697500  0.00338100  1
  O  O13  1  0.80681000  0.87704900  0.50342200  1
  O  O14  1  0.40099100  0.32064500  0.05812000  1
  O  O15  1  0.59897000  0.32047000  0.55797100  1
  O  O16  1  0.70696200  0.81518700  0.19841000  1
  O  O17  1  0.29306500  0.81513200  0.69840800  1
  O  O18  1  0.11796000  0.70806800  0.30542000  1
  O  O19  1  0.88206800  0.70784000  0.80528700  1
  O  O20  1  0.81780500  0.21652900  0.16183400  1
  O  O21  1  0.18212100  0.21646700  0.66184700  1
  O  O22  1  0.67716500  0.57311700  0.34102000  1
  O  O23  1  0.32304800  0.57310400  0.84103800  1
  O  O24  1  0.18087200  0.38966500  0.44000600  1
  O  O25  1  0.81919000  0.38984600  0.94008900  1
  O  O26  1  0.31991700  0.07126500  0.38797000  1
  O  O27  1  0.68004400  0.07144900  0.88799500  1
