# generated using pymatgen
data_Li3SiNiO5
_symmetry_space_group_name_H-M   'P 1'
_cell_length_a   6.33674908
_cell_length_b   8.42154667
_cell_length_c   6.51634555
_cell_angle_alpha   72.31721600
_cell_angle_beta   88.64786743
_cell_angle_gamma   95.76348994
_symmetry_Int_Tables_number   1
_chemical_formula_structural   Li3SiNiO5
_chemical_formula_sum   'Li12 Si4 Ni4 O20'
_cell_volume   329.10411055
_cell_formula_units_Z   4
loop_
 _symmetry_equiv_pos_site_id
 _symmetry_equiv_pos_as_xyz
  1  'x, y, z'
loop_
 _atom_site_type_symbol
 _atom_site_label
 _atom_site_symmetry_multiplicity
 _atom_site_fract_x
 _atom_site_fract_y
 _atom_site_fract_z
 _atom_site_occupancy
  Li  Li0  1  0.62053500  0.86904700  0.00414300  1
  Li  Li1  1  0.12054100  0.36905200  0.00414500  1
  Li  Li2  1  0.37946200  0.13094800  0.99586200  1
  Li  Li3  1  0.87946300  0.63094700  0.99585900  1
  Li  Li4  1  0.42643300  0.87533300  0.40187100  1
  Li  Li5  1  0.92643100  0.37532900  0.40188800  1
  Li  Li6  1  0.57357100  0.12466500  0.59812800  1
  Li  Li7  1  0.07356300  0.62466600  0.59812000  1
  Li  Li8  1  0.17410000  0.12446400  0.40321100  1
  Li  Li9  1  0.67410300  0.62446400  0.40320600  1
  Li  Li10  1  0.82589400  0.87553400  0.59679100  1
  Li  Li11  1  0.32589200  0.37552800  0.59679800  1
  Si  Si12  1  0.53388500  0.37539200  0.22760600  1
  Si  Si13  1  0.03388400  0.87539100  0.22758600  1
  Si  Si14  1  0.46610500  0.62460500  0.77240400  1
  Si  Si15  1  0.96611200  0.12460600  0.77241300  1
  Ni  Ni16  1  0.27801900  0.62516000  0.20630200  1
  Ni  Ni17  1  0.72198200  0.37483400  0.79371600  1
  Ni  Ni18  1  0.77802400  0.12520900  0.20626900  1
  Ni  Ni19  1  0.22196400  0.87480900  0.79369300  1
  O  O20  1  0.75960500  0.88570600  0.28022300  1
  O  O21  1  0.25959400  0.38568600  0.28024100  1
  O  O22  1  0.24040300  0.11430800  0.71976500  1
  O  O23  1  0.74040300  0.61431400  0.71976200  1
  O  O24  1  0.49415800  0.15415600  0.27938300  1
  O  O25  1  0.99414700  0.65414600  0.27939200  1
  O  O26  1  0.50585800  0.84584500  0.72060600  1
  O  O27  1  0.00585100  0.34585100  0.72061500  1
  O  O28  1  0.55445000  0.60205700  0.10201000  1
  O  O29  1  0.05445300  0.10206100  0.10199200  1
  O  O30  1  0.44555100  0.39793900  0.89799500  1
  O  O31  1  0.94556100  0.89794000  0.89799900  1
  O  O32  1  0.61801700  0.37754400  0.47224500  1
  O  O33  1  0.11801600  0.87754500  0.47223000  1
  O  O34  1  0.38197900  0.62244900  0.52776100  1
  O  O35  1  0.88198300  0.12245100  0.52777200  1
  O  O36  1  0.29497000  0.86604800  0.11376200  1
  O  O37  1  0.79497300  0.36607300  0.11375500  1
  O  O38  1  0.70502900  0.13395400  0.88624100  1
  O  O39  1  0.20503300  0.63394200  0.88623900  1
