# generated using pymatgen
data_Li2VF7
_symmetry_space_group_name_H-M   'P 1'
_cell_length_a   6.97349100
_cell_length_b   7.04796600
_cell_length_c   10.19833600
_cell_angle_alpha   90.00000000
_cell_angle_beta   90.00000000
_cell_angle_gamma   90.00000000
_symmetry_Int_Tables_number   1
_chemical_formula_structural   Li2VF7
_chemical_formula_sum   'Li8 V4 F28'
_cell_volume   501.23727637
_cell_formula_units_Z   4
loop_
 _symmetry_equiv_pos_site_id
 _symmetry_equiv_pos_as_xyz
  1  'x, y, z'
loop_
 _atom_site_type_symbol
 _atom_site_label
 _atom_site_symmetry_multiplicity
 _atom_site_fract_x
 _atom_site_fract_y
 _atom_site_fract_z
 _atom_site_occupancy
  Li  Li0  1  0.13081100  0.25000000  0.74892700  1
  Li  Li1  1  0.16911500  0.75000000  0.00078900  1
  Li  Li2  1  0.33088500  0.25000000  0.50078900  1
  Li  Li3  1  0.36918900  0.75000000  0.24892700  1
  Li  Li4  1  0.63081100  0.25000000  0.75107300  1
  Li  Li5  1  0.66911500  0.75000000  0.49921100  1
  Li  Li6  1  0.83088500  0.25000000  0.99921100  1
  Li  Li7  1  0.86918900  0.75000000  0.25107300  1
  V  V8  1  0.19475400  0.75000000  0.55864400  1
  V  V9  1  0.30524600  0.25000000  0.05864400  1
  V  V10  1  0.69475400  0.75000000  0.94135600  1
  V  V11  1  0.80524600  0.25000000  0.44135600  1
  F  F12  1  0.04631400  0.25000000  0.51395500  1
  F  F13  1  0.05700100  0.25000000  0.11381900  1
  F  F14  1  0.11692700  0.75000000  0.17744600  1
  F  F15  1  0.12893600  0.56989600  0.67327800  1
  F  F16  1  0.12893600  0.93010400  0.67327800  1
  F  F17  1  0.23606400  0.06763000  0.93943100  1
  F  F18  1  0.23606400  0.43237000  0.93943100  1
  F  F19  1  0.26393600  0.56763000  0.43943100  1
  F  F20  1  0.26393600  0.93237000  0.43943100  1
  F  F21  1  0.37106400  0.06989600  0.17327800  1
  F  F22  1  0.37106400  0.43010400  0.17327800  1
  F  F23  1  0.38307300  0.25000000  0.67744600  1
  F  F24  1  0.44299900  0.75000000  0.61381900  1
  F  F25  1  0.45368600  0.75000000  0.01395500  1
  F  F26  1  0.54631400  0.25000000  0.98604500  1
  F  F27  1  0.55700100  0.25000000  0.38618100  1
  F  F28  1  0.61692700  0.75000000  0.32255400  1
  F  F29  1  0.62893600  0.93010400  0.82672200  1
  F  F30  1  0.62893600  0.56989600  0.82672200  1
  F  F31  1  0.73606400  0.06763000  0.56056900  1
  F  F32  1  0.73606400  0.43237000  0.56056900  1
  F  F33  1  0.76393600  0.93237000  0.06056900  1
  F  F34  1  0.76393600  0.56763000  0.06056900  1
  F  F35  1  0.87106400  0.06989600  0.32672200  1
  F  F36  1  0.87106400  0.43010400  0.32672200  1
  F  F37  1  0.88307300  0.25000000  0.82255400  1
  F  F38  1  0.94299900  0.75000000  0.88618100  1
  F  F39  1  0.95368600  0.75000000  0.48604500  1
