# generated using pymatgen
data_Li4V2Fe3Co3O16
_symmetry_space_group_name_H-M   'P 1'
_cell_length_a   5.82605700
_cell_length_b   5.84981708
_cell_length_c   9.38656771
_cell_angle_alpha   90.24664697
_cell_angle_beta   89.94148687
_cell_angle_gamma   119.74773499
_symmetry_Int_Tables_number   1
_chemical_formula_structural   Li4V2Fe3Co3O16
_chemical_formula_sum   'Li4 V2 Fe3 Co3 O16'
_cell_volume   277.74640807
_cell_formula_units_Z   1
loop_
 _symmetry_equiv_pos_site_id
 _symmetry_equiv_pos_as_xyz
  1  'x, y, z'
loop_
 _atom_site_type_symbol
 _atom_site_label
 _atom_site_symmetry_multiplicity
 _atom_site_fract_x
 _atom_site_fract_y
 _atom_site_fract_z
 _atom_site_occupancy
  Li  Li0  1  0.33682500  0.67406500  0.09919300  1
  Li  Li1  1  0.99518600  0.98690300  0.00564200  1
  Li  Li2  1  0.99248100  0.98187100  0.50799900  1
  Li  Li3  1  0.66744400  0.33479300  0.60311300  1
  V  V4  1  0.33469600  0.66265400  0.50466200  1
  V  V5  1  0.66640500  0.33600000  0.00299200  1
  Fe  Fe6  1  0.17165700  0.34378700  0.78006000  1
  Fe  Fe7  1  0.34367000  0.17229900  0.28199600  1
  Fe  Fe8  1  0.82985300  0.17439600  0.28081500  1
  Co  Co9  1  0.17276000  0.82774800  0.78607100  1
  Co  Co10  1  0.65665100  0.82090800  0.78534700  1
  Co  Co11  1  0.82668500  0.65186400  0.28630300  1
  O  O12  1  0.16932200  0.81985100  0.40859200  1
  O  O13  1  0.47718300  0.95454800  0.66319400  1
  O  O14  1  0.34585800  0.67924100  0.88869700  1
  O  O15  1  0.98939800  0.98819100  0.69967300  1
  O  O16  1  0.99399100  0.98728000  0.19693900  1
  O  O17  1  0.65109500  0.82088500  0.40890000  1
  O  O18  1  0.04201900  0.53697000  0.65867900  1
  O  O19  1  0.47147900  0.51213200  0.64552200  1
  O  O20  1  0.82855200  0.65669800  0.90255800  1
  O  O21  1  0.16736000  0.34361900  0.41412100  1
  O  O22  1  0.53308600  0.49314100  0.15622800  1
  O  O23  1  0.96027100  0.49463800  0.15656900  1
  O  O24  1  0.66817400  0.33676400  0.39469500  1
  O  O25  1  0.34502200  0.17007400  0.90859800  1
  O  O26  1  0.52229900  0.04521300  0.14772600  1
  O  O27  1  0.84028000  0.19346800  0.91727700  1
