# generated using pymatgen
data_Li3Fe3(PO4)4
_symmetry_space_group_name_H-M   'P 1'
_cell_length_a   8.52776900
_cell_length_b   9.21324108
_cell_length_c   10.03660871
_cell_angle_alpha   108.15266091
_cell_angle_beta   105.36546497
_cell_angle_gamma   109.61331428
_symmetry_Int_Tables_number   1
_chemical_formula_structural   Li3Fe3(PO4)4
_chemical_formula_sum   'Li6 Fe6 P8 O32'
_cell_volume   642.87202532
_cell_formula_units_Z   2
loop_
 _symmetry_equiv_pos_site_id
 _symmetry_equiv_pos_as_xyz
  1  'x, y, z'
loop_
 _atom_site_type_symbol
 _atom_site_label
 _atom_site_symmetry_multiplicity
 _atom_site_fract_x
 _atom_site_fract_y
 _atom_site_fract_z
 _atom_site_occupancy
  Li  Li0  1  0.94815300  0.52739900  0.19931400  1
  Li  Li1  1  0.63833400  0.61302300  0.15054400  1
  Li  Li2  1  0.71626700  0.66388400  0.74350800  1
  Li  Li3  1  0.28373300  0.33611600  0.25649200  1
  Li  Li4  1  0.36166600  0.38697700  0.84945600  1
  Li  Li5  1  0.05184700  0.47260100  0.80068600  1
  Fe  Fe6  1  0.23284700  0.94840000  0.45511200  1
  Fe  Fe7  1  0.13856500  0.88672200  0.82248800  1
  Fe  Fe8  1  0.55416700  0.96236200  0.75722300  1
  Fe  Fe9  1  0.44583300  0.03763800  0.24277700  1
  Fe  Fe10  1  0.86143500  0.11327800  0.17751200  1
  Fe  Fe11  1  0.76715300  0.05160000  0.54488800  1
  P  P12  1  0.40750400  0.72755000  0.39070500  1
  P  P13  1  0.98887200  0.81340300  0.08370100  1
  P  P14  1  0.45833500  0.77683300  0.95915200  1
  P  P15  1  0.91673700  0.75024300  0.51090500  1
  P  P16  1  0.08326300  0.24975700  0.48909500  1
  P  P17  1  0.54166500  0.22316700  0.04084800  1
  P  P18  1  0.01112800  0.18659700  0.91629900  1
  P  P19  1  0.59249600  0.27245000  0.60929500  1
  O  O20  1  0.19555500  0.92621500  0.21209900  1
  O  O21  1  0.56514700  0.94527700  0.11937700  1
  O  O22  1  0.13392000  0.85934500  0.58758000  1
  O  O23  1  0.52043400  0.89729100  0.37432800  1
  O  O24  1  0.21357300  0.71559600  0.34965400  1
  O  O25  1  0.87944300  0.90086800  0.14827900  1
  O  O26  1  0.49512200  0.77967100  0.56684600  1
  O  O27  1  0.25826500  0.75070500  0.88552800  1
  O  O28  1  0.83870600  0.88032500  0.51502900  1
  O  O29  1  0.56653200  0.81541600  0.85975500  1
  O  O30  1  0.41793400  0.57123600  0.29684800  1
  O  O31  1  0.91834000  0.63173400  0.06242600  1
  O  O32  1  0.84363800  0.61937900  0.34677400  1
  O  O33  1  0.10621500  0.30843700  0.36258000  1
  O  O34  1  0.98277500  0.82768200  0.93235000  1
  O  O35  1  0.54087300  0.37451400  0.01359100  1
  O  O36  1  0.45912700  0.62548600  0.98640900  1
  O  O37  1  0.01722500  0.17231800  0.06765000  1
  O  O38  1  0.89378500  0.69156300  0.63742000  1
  O  O39  1  0.15636200  0.38062100  0.65322600  1
  O  O40  1  0.08166000  0.36826600  0.93757400  1
  O  O41  1  0.58206600  0.42876400  0.70315200  1
  O  O42  1  0.43346800  0.18458400  0.14024500  1
  O  O43  1  0.16129400  0.11967500  0.48497100  1
  O  O44  1  0.74173500  0.24929500  0.11447200  1
  O  O45  1  0.50487800  0.22032900  0.43315400  1
  O  O46  1  0.12055700  0.09913200  0.85172100  1
  O  O47  1  0.78642700  0.28440400  0.65034600  1
  O  O48  1  0.47956600  0.10270900  0.62567200  1
  O  O49  1  0.86608000  0.14065500  0.41242000  1
  O  O50  1  0.43485300  0.05472300  0.88062300  1
  O  O51  1  0.80444500  0.07378500  0.78790100  1
