# generated using pymatgen
data_LiNb5O8
_symmetry_space_group_name_H-M   'P 1'
_cell_length_a   9.76951900
_cell_length_b   8.20879600
_cell_length_c   10.30486307
_cell_angle_alpha   70.17699224
_cell_angle_beta   90.00000000
_cell_angle_gamma   90.00000000
_symmetry_Int_Tables_number   1
_chemical_formula_structural   LiNb5O8
_chemical_formula_sum   'Li4 Nb20 O32'
_cell_volume   777.43956043
_cell_formula_units_Z   4
loop_
 _symmetry_equiv_pos_site_id
 _symmetry_equiv_pos_as_xyz
  1  'x, y, z'
loop_
 _atom_site_type_symbol
 _atom_site_label
 _atom_site_symmetry_multiplicity
 _atom_site_fract_x
 _atom_site_fract_y
 _atom_site_fract_z
 _atom_site_occupancy
  Li  Li0  1  0.43123000  0.61623800  0.51979500  1
  Li  Li1  1  0.06877000  0.61623800  0.01979500  1
  Li  Li2  1  0.93123000  0.38376200  0.98020500  1
  Li  Li3  1  0.56877000  0.38376200  0.48020500  1
  Nb  Nb4  1  0.64635200  0.00706600  0.90041600  1
  Nb  Nb5  1  0.38813400  0.79365500  0.89467300  1
  Nb  Nb6  1  0.85364800  0.00706600  0.40041600  1
  Nb  Nb7  1  0.87946300  0.79086600  0.70648000  1
  Nb  Nb8  1  0.11186600  0.79365500  0.39467300  1
  Nb  Nb9  1  0.11911200  0.60321600  0.68933400  1
  Nb  Nb10  1  0.62053700  0.79086600  0.20648000  1
  Nb  Nb11  1  0.86744900  0.62259900  0.51679500  1
  Nb  Nb12  1  0.36744900  0.37740100  0.98320500  1
  Nb  Nb13  1  0.61911200  0.39678400  0.81066600  1
  Nb  Nb14  1  0.38088800  0.60321600  0.18933400  1
  Nb  Nb15  1  0.63255100  0.62259900  0.01679500  1
  Nb  Nb16  1  0.13255100  0.37740100  0.48320500  1
  Nb  Nb17  1  0.37946300  0.20913400  0.79352000  1
  Nb  Nb18  1  0.88088800  0.39678400  0.31066600  1
  Nb  Nb19  1  0.88813400  0.20634500  0.60532700  1
  Nb  Nb20  1  0.12053700  0.20913400  0.29352000  1
  Nb  Nb21  1  0.14635200  0.99293400  0.59958400  1
  Nb  Nb22  1  0.61186600  0.20634500  0.10532700  1
  Nb  Nb23  1  0.35364800  0.99293400  0.09958400  1
  O  O24  1  0.26974800  0.98924300  0.92192400  1
  O  O25  1  0.99461800  0.99309500  0.73452900  1
  O  O26  1  0.23025200  0.98924300  0.42192400  1
  O  O27  1  0.75089600  0.79914400  0.87231200  1
  O  O28  1  0.25638700  0.78223600  0.72934800  1
  O  O29  1  0.50538200  0.99309500  0.23452900  1
  O  O30  1  0.50007200  0.59223300  0.85618200  1
  O  O31  1  0.99667700  0.60431900  0.84833900  1
  O  O32  1  0.74910400  0.79914400  0.37231200  1
  O  O33  1  0.74696400  0.60592500  0.68146800  1
  O  O34  1  0.24361300  0.78223600  0.22934800  1
  O  O35  1  0.73830400  0.39812700  0.98083900  1
  O  O36  1  0.23830400  0.60187300  0.51916100  1
  O  O37  1  0.99992800  0.59223300  0.35618200  1
  O  O38  1  0.24696400  0.39407500  0.81853200  1
  O  O39  1  0.50332300  0.60431900  0.34833900  1
  O  O40  1  0.49667700  0.39568100  0.65166100  1
  O  O41  1  0.75303600  0.60592500  0.18146800  1
  O  O42  1  0.00007200  0.40776700  0.64381800  1
  O  O43  1  0.76169600  0.39812700  0.48083900  1
  O  O44  1  0.26169600  0.60187300  0.01916100  1
  O  O45  1  0.75638700  0.21776400  0.77065200  1
  O  O46  1  0.25303600  0.39407500  0.31853200  1
  O  O47  1  0.25089600  0.20085600  0.62768800  1
  O  O48  1  0.00332300  0.39568100  0.15166100  1
  O  O49  1  0.49992800  0.40776700  0.14381800  1
  O  O50  1  0.49461800  0.00690500  0.76547100  1
  O  O51  1  0.74361300  0.21776400  0.27065200  1
  O  O52  1  0.24910400  0.20085600  0.12768800  1
  O  O53  1  0.76974800  0.01075700  0.57807600  1
  O  O54  1  0.00538200  0.00690500  0.26547100  1
  O  O55  1  0.73025200  0.01075700  0.07807600  1
