# generated using pymatgen
data_Li10FeCo9O20
_symmetry_space_group_name_H-M   'P 1'
_cell_length_a   5.05063200
_cell_length_b   7.69708545
_cell_length_c   9.84718796
_cell_angle_alpha   80.32650229
_cell_angle_beta   85.19101056
_cell_angle_gamma   71.19292751
_symmetry_Int_Tables_number   1
_chemical_formula_structural   Li10FeCo9O20
_chemical_formula_sum   'Li10 Fe1 Co9 O20'
_cell_volume   357.03940236
_cell_formula_units_Z   1
loop_
 _symmetry_equiv_pos_site_id
 _symmetry_equiv_pos_as_xyz
  1  'x, y, z'
loop_
 _atom_site_type_symbol
 _atom_site_label
 _atom_site_symmetry_multiplicity
 _atom_site_fract_x
 _atom_site_fract_y
 _atom_site_fract_z
 _atom_site_occupancy
  Li  Li0  1  0.14900900  0.45040500  0.75109200  1
  Li  Li1  1  0.85099100  0.54959500  0.24890800  1
  Li  Li2  1  0.44369700  0.35192900  0.24912100  1
  Li  Li3  1  0.55630300  0.64807100  0.75087900  1
  Li  Li4  1  0.75549300  0.24907400  0.75148500  1
  Li  Li5  1  0.05313100  0.14864400  0.24898900  1
  Li  Li6  1  0.34242600  0.05011400  0.75191100  1
  Li  Li7  1  0.65757400  0.94988600  0.24808900  1
  Li  Li8  1  0.24450700  0.75092600  0.24851500  1
  Li  Li9  1  0.94686900  0.85135600  0.75101100  1
  Fe  Fe10  1  0.50000000  0.50000000  0.50000000  1
  Co  Co11  1  0.19593900  0.60340400  0.00017400  1
  Co  Co12  1  0.80406100  0.39659600  0.99982600  1
  Co  Co13  1  0.40103700  0.20002900  0.99896500  1
  Co  Co14  1  0.00000000  0.00000000  0.00000000  1
  Co  Co15  1  0.59896300  0.79997100  0.00103500  1
  Co  Co16  1  0.09955300  0.30002700  0.49933200  1
  Co  Co17  1  0.69837300  0.10006000  0.50019200  1
  Co  Co18  1  0.30162700  0.89994000  0.49980800  1
  Co  Co19  1  0.90044700  0.69997300  0.50066800  1
  O  O20  1  0.50922400  0.58212900  0.11097000  1
  O  O21  1  0.16278000  0.52399500  0.38019300  1
  O  O22  1  0.88303200  0.62708600  0.88794500  1
  O  O23  1  0.83722000  0.47600500  0.61980700  1
  O  O24  1  0.49077600  0.41787100  0.88903000  1
  O  O25  1  0.42383700  0.28006600  0.61342100  1
  O  O26  1  0.11696800  0.37291400  0.11205500  1
  O  O27  1  0.77107200  0.32681200  0.38628700  1
  O  O28  1  0.37552900  0.12153300  0.38164800  1
  O  O29  1  0.07267600  0.21420000  0.88758300  1
  O  O30  1  0.02856900  0.07467200  0.61641200  1
  O  O31  1  0.73896600  0.16971700  0.11247700  1
  O  O32  1  0.31606100  0.97946100  0.11141600  1
  O  O33  1  0.97143100  0.92532800  0.38358800  1
  O  O34  1  0.62447100  0.87846700  0.61835200  1
  O  O35  1  0.68393900  0.02053900  0.88858400  1
  O  O36  1  0.22892800  0.67318800  0.61371300  1
  O  O37  1  0.26103400  0.83028300  0.88752300  1
  O  O38  1  0.92732400  0.78580000  0.11241700  1
  O  O39  1  0.57616300  0.71993400  0.38657900  1
