# generated using pymatgen
data_Li3Cr(Si2O5)3
_symmetry_space_group_name_H-M   'P 1'
_cell_length_a   7.88768100
_cell_length_b   9.80678400
_cell_length_c   14.93311400
_cell_angle_alpha   90.00000000
_cell_angle_beta   90.00000000
_cell_angle_gamma   90.00000000
_symmetry_Int_Tables_number   1
_chemical_formula_structural   Li3Cr(Si2O5)3
_chemical_formula_sum   'Li12 Cr4 Si24 O60'
_cell_volume   1155.11793912
_cell_formula_units_Z   4
loop_
 _symmetry_equiv_pos_site_id
 _symmetry_equiv_pos_as_xyz
  1  'x, y, z'
loop_
 _atom_site_type_symbol
 _atom_site_label
 _atom_site_symmetry_multiplicity
 _atom_site_fract_x
 _atom_site_fract_y
 _atom_site_fract_z
 _atom_site_occupancy
  Li  Li0  1  0.75000000  0.07874700  0.94156800  1
  Li  Li1  1  0.75000000  0.42125300  0.44156800  1
  Li  Li2  1  0.99963900  0.50107800  0.75834400  1
  Li  Li3  1  0.50036100  0.50107800  0.75834400  1
  Li  Li4  1  0.00036100  0.49892200  0.24165600  1
  Li  Li5  1  0.49963900  0.49892200  0.24165600  1
  Li  Li6  1  0.25000000  0.57874700  0.55843200  1
  Li  Li7  1  0.25000000  0.92125300  0.05843200  1
  Li  Li8  1  0.00036100  0.00107800  0.74165600  1
  Li  Li9  1  0.49963900  0.00107800  0.74165600  1
  Li  Li10  1  0.99963900  0.99892200  0.25834400  1
  Li  Li11  1  0.50036100  0.99892200  0.25834400  1
  Cr  Cr12  1  0.75000000  0.25196500  0.74995500  1
  Cr  Cr13  1  0.75000000  0.24803500  0.24995500  1
  Cr  Cr14  1  0.25000000  0.75196500  0.75004500  1
  Cr  Cr15  1  0.25000000  0.74803500  0.25004500  1
  Si  Si16  1  0.25000000  0.02628200  0.59788300  1
  Si  Si17  1  0.25000000  0.02393200  0.40116900  1
  Si  Si18  1  0.44028500  0.20624300  0.89940500  1
  Si  Si19  1  0.05971500  0.20624300  0.89940500  1
  Si  Si20  1  0.05671800  0.20351900  0.10010900  1
  Si  Si21  1  0.44328200  0.20351900  0.10010900  1
  Si  Si22  1  0.05671800  0.29648100  0.60010900  1
  Si  Si23  1  0.44328200  0.29648100  0.60010900  1
  Si  Si24  1  0.44028500  0.29375700  0.39940500  1
  Si  Si25  1  0.05971500  0.29375700  0.39940500  1
  Si  Si26  1  0.25000000  0.47606800  0.90116900  1
  Si  Si27  1  0.25000000  0.47371800  0.09788300  1
  Si  Si28  1  0.75000000  0.52393200  0.09883100  1
  Si  Si29  1  0.75000000  0.52628200  0.90211700  1
  Si  Si30  1  0.55971500  0.70624300  0.60059500  1
  Si  Si31  1  0.94028500  0.70624300  0.60059500  1
  Si  Si32  1  0.94328200  0.70351900  0.39989100  1
  Si  Si33  1  0.55671800  0.70351900  0.39989100  1
  Si  Si34  1  0.94328200  0.79648100  0.89989100  1
  Si  Si35  1  0.55971500  0.79375700  0.10059500  1
  Si  Si36  1  0.94028500  0.79375700  0.10059500  1
  Si  Si37  1  0.55671800  0.79648100  0.89989100  1
  Si  Si38  1  0.75000000  0.97371800  0.40211700  1
  Si  Si39  1  0.75000000  0.97606800  0.59883100  1
  O  O40  1  0.75000000  0.04863300  0.50012300  1
  O  O41  1  0.75000000  0.07476900  0.68314600  1
  O  O42  1  0.75000000  0.07143800  0.31734300  1
  O  O43  1  0.41413900  0.13093400  0.60416400  1
  O  O44  1  0.08586100  0.13093400  0.60416400  1
  O  O45  1  0.41528200  0.12789000  0.39418900  1
  O  O46  1  0.08471800  0.12789000  0.39418900  1
  O  O47  1  0.25000000  0.13678500  0.89106400  1
  O  O48  1  0.25000000  0.13004900  0.10148700  1
  O  O49  1  0.92581200  0.15083300  0.82770400  1
  O  O50  1  0.57418800  0.15083300  0.82770400  1
  O  O51  1  0.93846100  0.15388900  0.17989000  1
  O  O52  1  0.56153900  0.15388900  0.17989000  1
  O  O53  1  0.52061600  0.16322200  0.99931800  1
  O  O54  1  0.97938400  0.16322200  0.99931800  1
  O  O55  1  0.52061600  0.33677800  0.49931800  1
  O  O56  1  0.97938400  0.33677800  0.49931800  1
  O  O57  1  0.92581200  0.34916700  0.32770400  1
  O  O58  1  0.93846100  0.34611100  0.67989000  1
  O  O59  1  0.56153900  0.34611100  0.67989000  1
  O  O60  1  0.57418800  0.34916700  0.32770400  1
  O  O61  1  0.25000000  0.36995100  0.60148700  1
  O  O62  1  0.25000000  0.36321500  0.39106400  1
  O  O63  1  0.08471800  0.37211000  0.89418900  1
  O  O64  1  0.08586100  0.36906600  0.10416400  1
  O  O65  1  0.41413900  0.36906600  0.10416400  1
  O  O66  1  0.41528200  0.37211000  0.89418900  1
  O  O67  1  0.75000000  0.42856200  0.81734300  1
  O  O68  1  0.75000000  0.42523100  0.18314600  1
  O  O69  1  0.75000000  0.45136700  0.00012300  1
  O  O70  1  0.25000000  0.54863300  0.99987700  1
  O  O71  1  0.25000000  0.57476900  0.81685400  1
  O  O72  1  0.25000000  0.57143800  0.18265700  1
  O  O73  1  0.91528200  0.62789000  0.10581100  1
  O  O74  1  0.58471800  0.62789000  0.10581100  1
  O  O75  1  0.91413900  0.63093400  0.89583600  1
  O  O76  1  0.58586100  0.63093400  0.89583600  1
  O  O77  1  0.75000000  0.63004900  0.39851300  1
  O  O78  1  0.75000000  0.63678500  0.60893600  1
  O  O79  1  0.43846100  0.65388900  0.32011000  1
  O  O80  1  0.06153900  0.65388900  0.32011000  1
  O  O81  1  0.42581200  0.65083300  0.67229600  1
  O  O82  1  0.07418800  0.65083300  0.67229600  1
  O  O83  1  0.02061600  0.66322200  0.50068200  1
  O  O84  1  0.47938400  0.66322200  0.50068200  1
  O  O85  1  0.02061600  0.83677800  0.00068200  1
  O  O86  1  0.47938400  0.83677800  0.00068200  1
  O  O87  1  0.43846100  0.84611100  0.82011000  1
  O  O88  1  0.06153900  0.84611100  0.82011000  1
  O  O89  1  0.42581200  0.84916700  0.17229600  1
  O  O90  1  0.07418800  0.84916700  0.17229600  1
  O  O91  1  0.75000000  0.86995100  0.89851300  1
  O  O92  1  0.75000000  0.86321500  0.10893600  1
  O  O93  1  0.58586100  0.86906600  0.39583600  1
  O  O94  1  0.91528200  0.87211000  0.60581100  1
  O  O95  1  0.58471800  0.87211000  0.60581100  1
  O  O96  1  0.91413900  0.86906600  0.39583600  1
  O  O97  1  0.25000000  0.92856200  0.68265700  1
  O  O98  1  0.25000000  0.92523100  0.31685400  1
  O  O99  1  0.25000000  0.95136700  0.49987700  1
