# generated using pymatgen
data_Li5Fe4(PO4)4
_symmetry_space_group_name_H-M   'P 1'
_cell_length_a   8.46982816
_cell_length_b   8.46982816
_cell_length_c   10.38752000
_cell_angle_alpha   89.99931954
_cell_angle_beta   89.99931954
_cell_angle_gamma   74.51929136
_symmetry_Int_Tables_number   1
_chemical_formula_structural   Li5Fe4(PO4)4
_chemical_formula_sum   'Li10 Fe8 P8 O32'
_cell_volume   718.14495401
_cell_formula_units_Z   2
loop_
 _symmetry_equiv_pos_site_id
 _symmetry_equiv_pos_as_xyz
  1  'x, y, z'
loop_
 _atom_site_type_symbol
 _atom_site_label
 _atom_site_symmetry_multiplicity
 _atom_site_fract_x
 _atom_site_fract_y
 _atom_site_fract_z
 _atom_site_occupancy
  Li  Li0  1  0.12191900  0.06760300  0.91632500  1
  Li  Li1  1  0.75802900  0.19314800  0.84408200  1
  Li  Li2  1  0.25763800  0.69280100  0.83869000  1
  Li  Li3  1  0.76075500  0.70170000  0.65316700  1
  Li  Li4  1  0.26129600  0.19871500  0.65411100  1
  Li  Li5  1  0.06760300  0.12191900  0.41632500  1
  Li  Li6  1  0.69280100  0.25763800  0.33869000  1
  Li  Li7  1  0.19314800  0.75802900  0.34408200  1
  Li  Li8  1  0.70170000  0.76075500  0.15316700  1
  Li  Li9  1  0.19871500  0.26129600  0.15411100  1
  Fe  Fe10  1  0.51714100  0.94032700  0.84187100  1
  Fe  Fe11  1  0.00202500  0.45504600  0.84523000  1
  Fe  Fe12  1  0.00592000  0.93601300  0.65565800  1
  Fe  Fe13  1  0.50838000  0.45183400  0.64870100  1
  Fe  Fe14  1  0.45504600  0.00202500  0.34523000  1
  Fe  Fe15  1  0.94032700  0.51714100  0.34187100  1
  Fe  Fe16  1  0.45183400  0.50838000  0.14870100  1
  Fe  Fe17  1  0.93601300  0.00592000  0.15565800  1
  P  P18  1  0.89187200  0.82313300  0.90761900  1
  P  P19  1  0.37943500  0.31551700  0.90327600  1
  P  P20  1  0.38294900  0.82261200  0.59605500  1
  P  P21  1  0.88715400  0.32160100  0.59389400  1
  P  P22  1  0.82313300  0.89187200  0.40761900  1
  P  P23  1  0.31551700  0.37943500  0.40327600  1
  P  P24  1  0.32160100  0.88715400  0.09389400  1
  P  P25  1  0.82261200  0.38294900  0.09605500  1
  O  O26  1  0.34582600  0.85708400  0.94472500  1
  O  O27  1  0.86452300  0.34091900  0.95042000  1
  O  O28  1  0.53349400  0.17111400  0.87960300  1
  O  O29  1  0.04151900  0.67290000  0.87789100  1
  O  O30  1  0.74402300  0.79164700  0.83039500  1
  O  O31  1  0.22625200  0.26454400  0.84747400  1
  O  O32  1  0.93466100  0.98232900  0.86079000  1
  O  O33  1  0.40315700  0.46845400  0.83168700  1
  O  O34  1  0.91723100  0.47790300  0.65610700  1
  O  O35  1  0.41472000  0.97747200  0.66036200  1
  O  O36  1  0.24337300  0.76871700  0.66190500  1
  O  O37  1  0.73609400  0.28298400  0.65882600  1
  O  O38  1  0.04346700  0.17697600  0.60852700  1
  O  O39  1  0.54096700  0.67666700  0.61108600  1
  O  O40  1  0.83572700  0.84939900  0.55060500  1
  O  O41  1  0.35544200  0.34791600  0.54823800  1
  O  O42  1  0.34091900  0.86452300  0.45042000  1
  O  O43  1  0.85708400  0.34582600  0.44472500  1
  O  O44  1  0.67290000  0.04151900  0.37789100  1
  O  O45  1  0.17111400  0.53349400  0.37960300  1
  O  O46  1  0.26454400  0.22625200  0.34747400  1
  O  O47  1  0.79164700  0.74402300  0.33039500  1
  O  O48  1  0.98232900  0.93466100  0.36079000  1
  O  O49  1  0.46845400  0.40315700  0.33168700  1
  O  O50  1  0.47790300  0.91723100  0.15610700  1
  O  O51  1  0.97747200  0.41472000  0.16036200  1
  O  O52  1  0.28298400  0.73609400  0.15882600  1
  O  O53  1  0.76871700  0.24337300  0.16190500  1
  O  O54  1  0.67666700  0.54096700  0.11108600  1
  O  O55  1  0.17697600  0.04346700  0.10852700  1
  O  O56  1  0.84939900  0.83572700  0.05060500  1
  O  O57  1  0.34791600  0.35544200  0.04823800  1
