# generated using pymatgen
data_LiVSiO5
_symmetry_space_group_name_H-M   'P 1'
_cell_length_a   6.29329600
_cell_length_b   4.66233600
_cell_length_c   6.38834301
_cell_angle_alpha   87.48407057
_cell_angle_beta   90.00000000
_cell_angle_gamma   90.00000000
_symmetry_Int_Tables_number   1
_chemical_formula_structural   LiVSiO5
_chemical_formula_sum   'Li2 V2 Si2 O10'
_cell_volume   187.26262908
_cell_formula_units_Z   2
loop_
 _symmetry_equiv_pos_site_id
 _symmetry_equiv_pos_as_xyz
  1  'x, y, z'
loop_
 _atom_site_type_symbol
 _atom_site_label
 _atom_site_symmetry_multiplicity
 _atom_site_fract_x
 _atom_site_fract_y
 _atom_site_fract_z
 _atom_site_occupancy
  Li  Li0  1  0.00000000  0.50000000  0.50000000  1
  Li  Li1  1  0.50000000  0.50000000  0.50000000  1
  V  V2  1  0.75000000  0.89500000  0.75943300  1
  V  V3  1  0.25000000  0.10500000  0.24056700  1
  Si  Si4  1  0.25000000  0.99839500  0.74136800  1
  Si  Si5  1  0.75000000  0.00160500  0.25863200  1
  O  O6  1  0.25000000  0.17371800  0.95942500  1
  O  O7  1  0.75000000  0.24437400  0.72530200  1
  O  O8  1  0.46129500  0.79076000  0.73150700  1
  O  O9  1  0.03870500  0.79076000  0.73150700  1
  O  O10  1  0.25000000  0.23589300  0.54431500  1
  O  O11  1  0.75000000  0.76410700  0.45568500  1
  O  O12  1  0.96129500  0.20924000  0.26849300  1
  O  O13  1  0.53870500  0.20924000  0.26849300  1
  O  O14  1  0.25000000  0.75562600  0.27469800  1
  O  O15  1  0.75000000  0.82628200  0.04057500  1
