# generated using pymatgen
data_Li4Mn5V3O16
_symmetry_space_group_name_H-M   'P 1'
_cell_length_a   5.79832400
_cell_length_b   5.96418682
_cell_length_c   9.65618747
_cell_angle_alpha   89.81518551
_cell_angle_beta   91.35075077
_cell_angle_gamma   118.35744245
_symmetry_Int_Tables_number   1
_chemical_formula_structural   Li4Mn5V3O16
_chemical_formula_sum   'Li4 Mn5 V3 O16'
_cell_volume   293.76790730
_cell_formula_units_Z   1
loop_
 _symmetry_equiv_pos_site_id
 _symmetry_equiv_pos_as_xyz
  1  'x, y, z'
loop_
 _atom_site_type_symbol
 _atom_site_label
 _atom_site_symmetry_multiplicity
 _atom_site_fract_x
 _atom_site_fract_y
 _atom_site_fract_z
 _atom_site_occupancy
  Li  Li0  1  0.67095000  0.33602400  0.89564500  1
  Li  Li1  1  0.98599200  0.97172900  0.99434600  1
  Li  Li2  1  0.99720200  0.02146100  0.49473200  1
  Li  Li3  1  0.33857300  0.66653000  0.39684600  1
  Mn  Mn4  1  0.67335400  0.35053900  0.48730900  1
  Mn  Mn5  1  0.83020100  0.15417600  0.21228800  1
  Mn  Mn6  1  0.32595700  0.64618400  0.98716600  1
  Mn  Mn7  1  0.66908900  0.84400400  0.71384900  1
  Mn  Mn8  1  0.17083000  0.35705100  0.71425200  1
  V  V9  1  0.82835100  0.64480900  0.21516300  1
  V  V10  1  0.33399300  0.14654200  0.21293100  1
  V  V11  1  0.18574300  0.86214900  0.71269200  1
  O  O12  1  0.85689200  0.70688700  0.60802200  1
  O  O13  1  0.51132000  0.46746700  0.33860100  1
  O  O14  1  0.66283900  0.31717900  0.10601500  1
  O  O15  1  0.99387800  0.98476700  0.30999400  1
  O  O16  1  0.01119300  0.03163400  0.80921700  1
  O  O17  1  0.32461800  0.18023100  0.60357000  1
  O  O18  1  0.96402400  0.49829900  0.34209900  1
  O  O19  1  0.51305500  0.02834200  0.33139300  1
  O  O20  1  0.16047900  0.81489000  0.10422300  1
  O  O21  1  0.84725200  0.19665900  0.59839700  1
  O  O22  1  0.48151700  0.97767500  0.82694000  1
  O  O23  1  0.04427400  0.53493000  0.83664500  1
  O  O24  1  0.33049900  0.67033100  0.60893700  1
  O  O25  1  0.66088700  0.78792500  0.09789900  1
  O  O26  1  0.47089500  0.51356000  0.84352700  1
  O  O27  1  0.15644500  0.28832600  0.10514900  1
