# generated using pymatgen
data_Li3V(OF)2
_symmetry_space_group_name_H-M   'P 1'
_cell_length_a   5.17364766
_cell_length_b   10.22841872
_cell_length_c   5.87352096
_cell_angle_alpha   73.31293376
_cell_angle_beta   89.99761191
_cell_angle_gamma   81.47122946
_symmetry_Int_Tables_number   1
_chemical_formula_structural   Li3V(OF)2
_chemical_formula_sum   'Li12 V4 O8 F8'
_cell_volume   294.13756491
_cell_formula_units_Z   4
loop_
 _symmetry_equiv_pos_site_id
 _symmetry_equiv_pos_as_xyz
  1  'x, y, z'
loop_
 _atom_site_type_symbol
 _atom_site_label
 _atom_site_symmetry_multiplicity
 _atom_site_fract_x
 _atom_site_fract_y
 _atom_site_fract_z
 _atom_site_occupancy
  Li  Li0  1  0.74925800  0.75026800  0.12538700  1
  Li  Li1  1  0.74926000  0.75026500  0.62538800  1
  Li  Li2  1  0.24891700  0.25021700  0.87540400  1
  Li  Li3  1  0.24961000  0.25030000  0.37536300  1
  Li  Li4  1  0.99911000  0.50024500  0.50094200  1
  Li  Li5  1  0.99907200  0.50022400  0.00033700  1
  Li  Li6  1  0.49912500  0.00025100  0.25093900  1
  Li  Li7  1  0.49907500  0.00022400  0.75034000  1
  Li  Li8  1  0.24914700  0.75033500  0.37587600  1
  Li  Li9  1  0.24916600  0.75037000  0.87528600  1
  Li  Li10  1  0.74916100  0.25033500  0.12559400  1
  Li  Li11  1  0.74916300  0.25034200  0.62558000  1
  V  V12  1  0.49892300  0.50032200  0.25063300  1
  V  V13  1  0.99894800  0.00031700  0.00062900  1
  V  V14  1  0.49894100  0.50030500  0.75060800  1
  V  V15  1  0.99896000  0.00031000  0.50064600  1
  O  O16  1  0.61555600  0.61698100  0.94229100  1
  O  O17  1  0.61564700  0.61694400  0.44229100  1
  O  O18  1  0.11554900  0.11698400  0.69224100  1
  O  O19  1  0.11568300  0.11693800  0.19235900  1
  O  O20  1  0.88238400  0.88377600  0.80890000  1
  O  O21  1  0.88251000  0.88373000  0.30889200  1
  O  O22  1  0.38249100  0.38373300  0.55894200  1
  O  O23  1  0.38238200  0.38376800  0.05883800  1
  F  F24  1  0.12682800  0.62435000  0.68868600  1
  F  F25  1  0.12745100  0.62413600  0.18882200  1
  F  F26  1  0.62687500  0.12434700  0.43867800  1
  F  F27  1  0.62742100  0.12412200  0.93886300  1
  F  F28  1  0.37043000  0.87653700  0.06236800  1
  F  F29  1  0.37110600  0.87631200  0.56254600  1
  F  F30  1  0.87104900  0.37629800  0.81256800  1
  F  F31  1  0.87044600  0.37653500  0.31236900  1
