# generated using pymatgen
data_Li2CoP2O7
_symmetry_space_group_name_H-M   'P 1'
_cell_length_a   5.02570419
_cell_length_b   11.01822886
_cell_length_c   11.04326204
_cell_angle_alpha   81.03719561
_cell_angle_beta   102.55894037
_cell_angle_gamma   77.46240050
_symmetry_Int_Tables_number   1
_chemical_formula_structural   Li2CoP2O7
_chemical_formula_sum   'Li8 Co4 P8 O28'
_cell_volume   569.27119534
_cell_formula_units_Z   4
loop_
 _symmetry_equiv_pos_site_id
 _symmetry_equiv_pos_as_xyz
  1  'x, y, z'
loop_
 _atom_site_type_symbol
 _atom_site_label
 _atom_site_symmetry_multiplicity
 _atom_site_fract_x
 _atom_site_fract_y
 _atom_site_fract_z
 _atom_site_occupancy
  Li  Li0  1  0.17611000  0.24986700  0.89751800  1
  Li  Li1  1  0.17696000  0.74948000  0.39759700  1
  Li  Li2  1  0.82374000  0.64772900  0.99894000  1
  Li  Li3  1  0.82405700  0.14821700  0.49929800  1
  Li  Li4  1  0.64771400  0.20382600  0.11670800  1
  Li  Li5  1  0.65085400  0.70329400  0.61749900  1
  Li  Li6  1  0.35157400  0.86700300  0.95377400  1
  Li  Li7  1  0.34982700  0.36794900  0.45323900  1
  Co  Co8  1  0.19970400  0.89188000  0.61313000  1
  Co  Co9  1  0.80029500  0.86273500  0.14145000  1
  Co  Co10  1  0.19668200  0.39110200  0.11370600  1
  Co  Co11  1  0.80018900  0.36295600  0.64186500  1
  P  P12  1  0.38673600  0.64739300  0.16645300  1
  P  P13  1  0.38784600  0.14819600  0.66648800  1
  P  P14  1  0.61171400  0.41691900  0.89705100  1
  P  P15  1  0.61425500  0.91626700  0.39850000  1
  P  P16  1  0.21693200  0.56110000  0.64598900  1
  P  P17  1  0.21897800  0.06071400  0.14779100  1
  P  P18  1  0.78192000  0.39634300  0.31112500  1
  P  P19  1  0.78225300  0.89647700  0.81076900  1
  O  O20  1  0.07216000  0.39581100  0.28831000  1
  O  O21  1  0.07391300  0.89422900  0.78870900  1
  O  O22  1  0.92700700  0.53741700  0.64511500  1
  O  O23  1  0.92735500  0.03893600  0.14584700  1
  O  O24  1  0.20149200  0.20077800  0.09444300  1
  O  O25  1  0.19372600  0.70158600  0.59270800  1
  O  O26  1  0.80013100  0.84367700  0.95056100  1
  O  O27  1  0.80328700  0.34311500  0.45109500  1
  O  O28  1  0.19820300  0.73759500  0.22428900  1
  O  O29  1  0.20025700  0.23757500  0.72525400  1
  O  O30  1  0.79998700  0.47528100  0.98671800  1
  O  O31  1  0.80121000  0.97520500  0.48809600  1
  O  O32  1  0.22065400  0.57649200  0.08282000  1
  O  O33  1  0.22101700  0.07741600  0.58309000  1
  O  O34  1  0.77918000  0.33293800  0.82700700  1
  O  O35  1  0.78072700  0.83312800  0.32762200  1
  O  O36  1  0.43424500  0.34614400  0.96379000  1
  O  O37  1  0.43806400  0.84456800  0.46547800  1
  O  O38  1  0.56421200  0.71417500  0.09545300  1
  O  O39  1  0.56366600  0.21563500  0.59504200  1
  O  O40  1  0.61617800  0.32668900  0.22518300  1
  O  O41  1  0.61529200  0.82728100  0.72482200  1
  O  O42  1  0.38428500  0.47571100  0.57656200  1
  O  O43  1  0.38521300  0.97417500  0.07871500  1
  O  O44  1  0.60087600  0.54322300  0.28823900  1
  O  O45  1  0.60505000  0.04386900  0.78740900  1
  O  O46  1  0.39698900  0.53856600  0.79257200  1
  O  O47  1  0.39729200  0.03769200  0.29450700  1
