# generated using pymatgen
data_Li2VBO4
_symmetry_space_group_name_H-M   'P 1'
_cell_length_a   5.17383200
_cell_length_b   6.71568100
_cell_length_c   10.68890767
_cell_angle_alpha   82.79049274
_cell_angle_beta   90.00000000
_cell_angle_gamma   90.00000000
_symmetry_Int_Tables_number   1
_chemical_formula_structural   Li2VBO4
_chemical_formula_sum   'Li8 V4 B4 O16'
_cell_volume   368.45841729
_cell_formula_units_Z   4
loop_
 _symmetry_equiv_pos_site_id
 _symmetry_equiv_pos_as_xyz
  1  'x, y, z'
loop_
 _atom_site_type_symbol
 _atom_site_label
 _atom_site_symmetry_multiplicity
 _atom_site_fract_x
 _atom_site_fract_y
 _atom_site_fract_z
 _atom_site_occupancy
  Li  Li0  1  0.64768800  0.89196200  0.79497400  1
  Li  Li1  1  0.85231200  0.89196200  0.29497400  1
  Li  Li2  1  0.82250900  0.79041500  0.57553600  1
  Li  Li3  1  0.67749100  0.79041500  0.07553600  1
  Li  Li4  1  0.32250900  0.20958500  0.92446400  1
  Li  Li5  1  0.17749100  0.20958500  0.42446400  1
  Li  Li6  1  0.14768800  0.10803800  0.70502600  1
  Li  Li7  1  0.35231200  0.10803800  0.20502600  1
  V  V8  1  0.86806100  0.49036100  0.85334600  1
  V  V9  1  0.36806100  0.50963900  0.64665400  1
  V  V10  1  0.63193900  0.49036100  0.35334600  1
  V  V11  1  0.13193900  0.50963900  0.14665400  1
  B  B12  1  0.18655000  0.80757300  0.93899600  1
  B  B13  1  0.31345000  0.80757300  0.43899600  1
  B  B14  1  0.68655000  0.19242700  0.56100400  1
  B  B15  1  0.81345000  0.19242700  0.06100400  1
  O  O16  1  0.29616500  0.94953800  0.85416000  1
  O  O17  1  0.20383500  0.94953800  0.35416000  1
  O  O18  1  0.92457900  0.74443200  0.93080300  1
  O  O19  1  0.57542100  0.74443200  0.43080300  1
  O  O20  1  0.17378800  0.71475400  0.54221300  1
  O  O21  1  0.65556900  0.62107900  0.72062600  1
  O  O22  1  0.32621200  0.71475400  0.04221300  1
  O  O23  1  0.84443100  0.62107900  0.22062600  1
  O  O24  1  0.15556900  0.37892100  0.77937400  1
  O  O25  1  0.67378800  0.28524600  0.95778700  1
  O  O26  1  0.34443100  0.37892100  0.27937400  1
  O  O27  1  0.82621200  0.28524600  0.45778700  1
  O  O28  1  0.42457900  0.25556800  0.56919700  1
  O  O29  1  0.07542100  0.25556800  0.06919700  1
  O  O30  1  0.79616500  0.05046200  0.64584000  1
  O  O31  1  0.70383500  0.05046200  0.14584000  1
