# generated using pymatgen
data_Li3BiO3
_symmetry_space_group_name_H-M   'P 1'
_cell_length_a   7.74887488
_cell_length_b   7.74887488
_cell_length_c   7.74887488
_cell_angle_alpha   109.47122063
_cell_angle_beta   109.47122063
_cell_angle_gamma   109.47122063
_symmetry_Int_Tables_number   1
_chemical_formula_structural   Li3BiO3
_chemical_formula_sum   'Li12 Bi4 O12'
_cell_volume   358.17399851
_cell_formula_units_Z   4
loop_
 _symmetry_equiv_pos_site_id
 _symmetry_equiv_pos_as_xyz
  1  'x, y, z'
loop_
 _atom_site_type_symbol
 _atom_site_label
 _atom_site_symmetry_multiplicity
 _atom_site_fract_x
 _atom_site_fract_y
 _atom_site_fract_z
 _atom_site_occupancy
  Li  Li0  1  0.70759400  0.46349800  0.00000000  1
  Li  Li1  1  0.70759400  0.00000000  0.46349800  1
  Li  Li2  1  0.75590400  0.29240600  0.29240600  1
  Li  Li3  1  0.53650200  0.53650200  0.24409600  1
  Li  Li4  1  0.53650200  0.24409600  0.53650200  1
  Li  Li5  1  0.46349800  0.70759400  0.00000000  1
  Li  Li6  1  0.46349800  0.00000000  0.70759400  1
  Li  Li7  1  0.29240600  0.29240600  0.75590400  1
  Li  Li8  1  0.29240600  0.75590400  0.29240600  1
  Li  Li9  1  0.24409600  0.53650200  0.53650200  1
  Li  Li10  1  0.00000000  0.70759400  0.46349800  1
  Li  Li11  1  0.00000000  0.46349800  0.70759400  1
  Bi  Bi12  1  0.28149100  0.00000000  0.00000000  1
  Bi  Bi13  1  0.00000000  0.28149100  0.00000000  1
  Bi  Bi14  1  0.00000000  0.00000000  0.28149100  1
  Bi  Bi15  1  0.71850900  0.71850900  0.71850900  1
  O  O16  1  0.50095700  0.24467700  0.00000000  1
  O  O17  1  0.50095700  0.00000000  0.24467700  1
  O  O18  1  0.75532300  0.25628000  0.75532300  1
  O  O19  1  0.75532300  0.75532300  0.25628000  1
  O  O20  1  0.24467700  0.50095700  0.00000000  1
  O  O21  1  0.24467700  0.00000000  0.50095700  1
  O  O22  1  0.74372000  0.49904300  0.49904300  1
  O  O23  1  0.00000000  0.50095700  0.24467700  1
  O  O24  1  0.00000000  0.24467700  0.50095700  1
  O  O25  1  0.49904300  0.74372000  0.49904300  1
  O  O26  1  0.49904300  0.49904300  0.74372000  1
  O  O27  1  0.25628000  0.75532300  0.75532300  1
