# generated using pymatgen
data_Li2Mn3OF6
_symmetry_space_group_name_H-M   'P 1'
_cell_length_a   5.16104900
_cell_length_b   10.83290554
_cell_length_c   12.10151170
_cell_angle_alpha   116.20895854
_cell_angle_beta   101.02515755
_cell_angle_gamma   90.05245681
_symmetry_Int_Tables_number   1
_chemical_formula_structural   Li2Mn3OF6
_chemical_formula_sum   'Li8 Mn12 O4 F24'
_cell_volume   593.01475419
_cell_formula_units_Z   4
loop_
 _symmetry_equiv_pos_site_id
 _symmetry_equiv_pos_as_xyz
  1  'x, y, z'
loop_
 _atom_site_type_symbol
 _atom_site_label
 _atom_site_symmetry_multiplicity
 _atom_site_fract_x
 _atom_site_fract_y
 _atom_site_fract_z
 _atom_site_occupancy
  Li  Li0  1  0.01603800  0.24985000  0.99580300  1
  Li  Li1  1  0.17317200  0.52516400  0.20969200  1
  Li  Li2  1  0.47066200  0.81525900  0.79946500  1
  Li  Li3  1  0.17692400  0.84556900  0.49401200  1
  Li  Li4  1  0.47884100  0.74871000  0.00292300  1
  Li  Li5  1  0.54030100  0.01942300  0.20825200  1
  Li  Li6  1  0.83000600  0.29703800  0.77974800  1
  Li  Li7  1  0.79773600  0.35094600  0.50086600  1
  Mn  Mn8  1  0.61549400  0.32748300  0.19847500  1
  Mn  Mn9  1  0.32338700  0.53480500  0.52080300  1
  Mn  Mn10  1  0.48281200  0.47611500  0.97079800  1
  Mn  Mn11  1  0.82886000  0.81149300  0.65235200  1
  Mn  Mn12  1  0.68553200  0.68727100  0.33380300  1
  Mn  Mn13  1  0.05525600  0.83702600  0.21902600  1
  Mn  Mn14  1  0.40763700  0.11515900  0.77854900  1
  Mn  Mn15  1  0.72581800  0.02408500  0.49947900  1
  Mn  Mn16  1  0.01022800  0.98543600  0.99286800  1
  Mn  Mn17  1  0.17581100  0.19066500  0.34661900  1
  Mn  Mn18  1  0.34818900  0.30798900  0.63493800  1
  Mn  Mn19  1  0.88339800  0.61958900  0.78843800  1
  O  O20  1  0.60505800  0.66929100  0.66948600  1
  O  O21  1  0.90509400  0.86154200  0.37098700  1
  O  O22  1  0.56911500  0.15353000  0.65005700  1
  O  O23  1  0.43395600  0.34299800  0.49167800  1
  F  F24  1  0.83691300  0.17665200  0.07909600  1
  F  F25  1  0.30651700  0.38881200  0.07694400  1
  F  F26  1  0.43867900  0.51821800  0.34038200  1
  F  F27  1  0.82051000  0.50070000  0.20387000  1
  F  F28  1  0.02893600  0.67748500  0.49748800  1
  F  F29  1  0.31646300  0.68433900  0.21310700  1
  F  F30  1  0.65786200  0.96986400  0.80315500  1
  F  F31  1  0.53737700  0.82898100  0.50259800  1
  F  F32  1  0.73364600  0.66785800  0.07845700  1
  F  F33  1  0.20762000  0.09954900  0.92005900  1
  F  F34  1  0.07558300  0.96737300  0.64605400  1
  F  F35  1  0.27093800  0.88531000  0.08483100  1
  F  F36  1  0.71445000  0.30466400  0.92430500  1
  F  F37  1  0.40459900  0.01400400  0.34230300  1
  F  F38  1  0.89584500  0.01680500  0.20707800  1
  F  F39  1  0.19847800  0.30447500  0.80375900  1
  F  F40  1  0.97148300  0.18833900  0.49699500  1
  F  F41  1  0.37284200  0.17052000  0.19608600  1
  F  F42  1  0.65301700  0.46317900  0.80214300  1
  F  F43  1  0.21510600  0.59873300  0.91803200  1
  F  F44  1  0.90224200  0.34429700  0.35494000  1
  F  F45  1  0.06458300  0.47800800  0.64129900  1
  F  F46  1  0.71576600  0.81920700  0.94045800  1
  F  F47  1  0.12122500  0.81039600  0.81744800  1
