# generated using pymatgen
data_LiFeSiO4
_symmetry_space_group_name_H-M   'P 1'
_cell_length_a   5.33554000
_cell_length_b   8.28780100
_cell_length_c   8.49908886
_cell_angle_alpha   74.29572299
_cell_angle_beta   90.00000000
_cell_angle_gamma   90.00000000
_symmetry_Int_Tables_number   1
_chemical_formula_structural   LiFeSiO4
_chemical_formula_sum   'Li4 Fe4 Si4 O16'
_cell_volume   361.79969748
_cell_formula_units_Z   4
loop_
 _symmetry_equiv_pos_site_id
 _symmetry_equiv_pos_as_xyz
  1  'x, y, z'
loop_
 _atom_site_type_symbol
 _atom_site_label
 _atom_site_symmetry_multiplicity
 _atom_site_fract_x
 _atom_site_fract_y
 _atom_site_fract_z
 _atom_site_occupancy
  Li  Li0  1  0.85024800  0.02877300  0.07725800  1
  Li  Li1  1  0.33396100  0.49637200  0.28450100  1
  Li  Li2  1  0.14975200  0.02877300  0.57725800  1
  Li  Li3  1  0.66603900  0.49637200  0.78450100  1
  Fe  Fe4  1  0.33573200  0.13461000  0.21004200  1
  Fe  Fe5  1  0.82702900  0.63236500  0.38093000  1
  Fe  Fe6  1  0.66426800  0.13461000  0.71004200  1
  Fe  Fe7  1  0.17297100  0.63236500  0.88093000  1
  Si  Si8  1  0.67112700  0.75318300  0.00577100  1
  Si  Si9  1  0.83246600  0.25959800  0.33139500  1
  Si  Si10  1  0.32887300  0.75318300  0.50577100  1
  Si  Si11  1  0.16753400  0.25959800  0.83139500  1
  O  O12  1  0.18354300  0.12233300  0.01292700  1
  O  O13  1  0.38219800  0.68253500  0.04076800  1
  O  O14  1  0.68565700  0.18183200  0.19693500  1
  O  O15  1  0.13159900  0.29451700  0.28130300  1
  O  O16  1  0.78625300  0.78601300  0.17455300  1
  O  O17  1  0.69243500  0.43354100  0.34152400  1
  O  O18  1  0.81645700  0.12233300  0.51292700  1
  O  O19  1  0.17119400  0.61513700  0.43605600  1
  O  O20  1  0.29178000  0.94039200  0.37983600  1
  O  O21  1  0.61780200  0.68253500  0.54076800  1
  O  O22  1  0.31434300  0.18183200  0.69693500  1
  O  O23  1  0.86840100  0.29451700  0.78130300  1
  O  O24  1  0.21374700  0.78601300  0.67455300  1
  O  O25  1  0.30756500  0.43354100  0.84152400  1
  O  O26  1  0.82880600  0.61513700  0.93605600  1
  O  O27  1  0.70822000  0.94039200  0.87983600  1
