# generated using pymatgen
data_Li6Mn2O5F2
_symmetry_space_group_name_H-M   'P 1'
_cell_length_a   5.83026100
_cell_length_b   5.84022666
_cell_length_c   9.85552360
_cell_angle_alpha   92.72432593
_cell_angle_beta   97.58863374
_cell_angle_gamma   117.96514629
_symmetry_Int_Tables_number   1
_chemical_formula_structural   Li6Mn2O5F2
_chemical_formula_sum   'Li12 Mn4 O10 F4'
_cell_volume   291.49510619
_cell_formula_units_Z   2
loop_
 _symmetry_equiv_pos_site_id
 _symmetry_equiv_pos_as_xyz
  1  'x, y, z'
loop_
 _atom_site_type_symbol
 _atom_site_label
 _atom_site_symmetry_multiplicity
 _atom_site_fract_x
 _atom_site_fract_y
 _atom_site_fract_z
 _atom_site_occupancy
  Li  Li0  1  0.13032900  0.47145300  0.60995000  1
  Li  Li1  1  0.12130700  0.90121800  0.59932100  1
  Li  Li2  1  0.14545900  0.67927500  0.10662900  1
  Li  Li3  1  0.14876800  0.22667200  0.10263600  1
  Li  Li4  1  0.40835100  0.33620500  0.88046500  1
  Li  Li5  1  0.40910200  0.06708100  0.39263100  1
  Li  Li6  1  0.57725900  0.91232300  0.61192300  1
  Li  Li7  1  0.58673700  0.67047300  0.10689100  1
  Li  Li8  1  0.88940400  0.82443700  0.89960700  1
  Li  Li9  1  0.86992500  0.31935300  0.89190600  1
  Li  Li10  1  0.84340000  0.05922300  0.40424900  1
  Li  Li11  1  0.85324500  0.51623200  0.39113100  1
  Mn  Mn12  1  0.40066600  0.82433800  0.87423400  1
  Mn  Mn13  1  0.35216700  0.53762000  0.36821100  1
  Mn  Mn14  1  0.61551600  0.42484100  0.63494900  1
  Mn  Mn15  1  0.64575800  0.20043200  0.13210000  1
  O  O16  1  0.25275400  0.51890800  0.97101700  1
  O  O17  1  0.23630800  0.72925300  0.47482300  1
  O  O18  1  0.51098500  0.13992400  0.75541100  1
  O  O19  1  0.49630000  0.62898800  0.74548500  1
  O  O20  1  0.30127400  0.01761700  0.00668800  1
  O  O21  1  0.76965500  0.02607800  0.01102100  1
  O  O22  1  0.49245400  0.36155000  0.24762500  1
  O  O23  1  0.68961800  0.68893200  0.49852200  1
  O  O24  1  0.74741300  0.25030500  0.52727600  1
  O  O25  1  0.99984500  0.36910000  0.24676500  1
  F  F26  1  0.19720100  0.19404200  0.49883300  1
  F  F27  1  0.51788100  0.87065100  0.25219300  1
  F  F28  1  0.00944200  0.68927500  0.74794500  1
  F  F29  1  0.78147900  0.54420300  0.00956000  1
