# generated using pymatgen
data_Rb4LiH3(SO4)4
_symmetry_space_group_name_H-M   'P 1'
_cell_length_a   30.62441100
_cell_length_b   7.65100300
_cell_length_c   7.75927630
_cell_angle_alpha   88.70125777
_cell_angle_beta   90.00000000
_cell_angle_gamma   90.00000000
_symmetry_Int_Tables_number   1
_chemical_formula_structural   Rb4LiH3(SO4)4
_chemical_formula_sum   'Rb16 Li4 H12 S16 O64'
_cell_volume   1817.58927960
_cell_formula_units_Z   4
loop_
 _symmetry_equiv_pos_site_id
 _symmetry_equiv_pos_as_xyz
  1  'x, y, z'
loop_
 _atom_site_type_symbol
 _atom_site_label
 _atom_site_symmetry_multiplicity
 _atom_site_fract_x
 _atom_site_fract_y
 _atom_site_fract_z
 _atom_site_occupancy
  Rb  Rb0  1  0.46010900  0.99492900  0.75793600  1
  Rb  Rb1  1  0.96010900  0.00507100  0.24206400  1
  Rb  Rb2  1  0.69061800  0.97959700  0.01255200  1
  Rb  Rb3  1  0.19061800  0.02040300  0.98744800  1
  Rb  Rb4  1  0.80521900  0.38616100  0.92387600  1
  Rb  Rb5  1  0.30521900  0.61383900  0.07612400  1
  Rb  Rb6  1  0.57902400  0.84289700  0.38887800  1
  Rb  Rb7  1  0.07902400  0.15710300  0.61112200  1
  Rb  Rb8  1  0.69798000  0.27516700  0.50045100  1
  Rb  Rb9  1  0.19798000  0.72483300  0.49954900  1
  Rb  Rb10  1  0.94329600  0.52866800  0.50265600  1
  Rb  Rb11  1  0.44329600  0.47133200  0.49734400  1
  Rb  Rb12  1  0.81690200  0.87857600  0.63343800  1
  Rb  Rb13  1  0.31690200  0.12142400  0.36656200  1
  Rb  Rb14  1  0.57000000  0.54822300  0.87193700  1
  Rb  Rb15  1  0.07000000  0.45177700  0.12806300  1
  Li  Li16  1  0.51677800  0.17936700  0.13542600  1
  Li  Li17  1  0.01677800  0.82063300  0.86457400  1
  Li  Li18  1  0.75383100  0.62356500  0.26621400  1
  Li  Li19  1  0.25383100  0.37643500  0.73378600  1
  H  H20  1  0.37253700  0.27590500  0.93417000  1
  H  H21  1  0.87253700  0.72409500  0.06583000  1
  H  H22  1  0.66114400  0.64436500  0.74733300  1
  H  H23  1  0.16114400  0.35563500  0.25266700  1
  H  H24  1  0.60633300  0.19203300  0.66186000  1
  H  H25  1  0.10633300  0.80796700  0.33814000  1
  H  H26  1  0.90494700  0.22802900  0.83376600  1
  H  H27  1  0.40494700  0.77197100  0.16623400  1
  H  H28  1  0.85971600  0.18369700  0.30671700  1
  H  H29  1  0.35971600  0.81630300  0.69328300  1
  H  H30  1  0.49604600  0.50421400  0.14779500  1
  H  H31  1  0.99604600  0.49578600  0.85220500  1
  S  S32  1  0.82134000  0.91259400  0.12573700  1
  S  S33  1  0.32134000  0.08740600  0.87426300  1
  S  S34  1  0.69525700  0.79644100  0.53503400  1
  S  S35  1  0.19525700  0.20355900  0.46496600  1
  S  S36  1  0.57284500  0.03234600  0.86443800  1
  S  S37  1  0.07284500  0.96765400  0.13556200  1
  S  S38  1  0.44312500  0.96398400  0.29955900  1
  S  S39  1  0.94312500  0.03601600  0.70044100  1
  S  S40  1  0.82404900  0.37631300  0.45587400  1
  S  S41  1  0.32404900  0.62368700  0.54412600  1
  S  S42  1  0.56374600  0.36511500  0.41288900  1
  S  S43  1  0.06374600  0.63488500  0.58711100  1
  S  S44  1  0.94173300  0.50179200  0.03081600  1
  S  S45  1  0.44173300  0.49820800  0.96918400  1
  S  S46  1  0.69567400  0.45441400  0.99105000  1
  S  S47  1  0.19567400  0.54558600  0.00895000  1
  O  O48  1  0.79333600  0.82976300  0.25659300  1
  O  O49  1  0.29333600  0.17023700  0.74340700  1
  O  O50  1  0.84328800  0.75796700  0.01730800  1
  O  O51  1  0.34328800  0.24203300  0.98269200  1
  O  O52  1  0.85868200  0.00477600  0.20331700  1
  O  O53  1  0.35868200  0.99522400  0.79668300  1
  O  O54  1  0.79739500  0.01475000  0.99670300  1
  O  O55  1  0.29739500  0.98525000  0.00329700  1
  O  O56  1  0.72232900  0.64642100  0.48282900  1
  O  O57  1  0.22232900  0.35357900  0.51717100  1
  O  O58  1  0.65398600  0.71790000  0.62877000  1
  O  O59  1  0.15398600  0.28210000  0.37123000  1
  O  O60  1  0.67745500  0.89702500  0.38717700  1
  O  O61  1  0.17745500  0.10297500  0.61282300  1
  O  O62  1  0.71863300  0.90758400  0.65690900  1
  O  O63  1  0.21863300  0.09241600  0.34309100  1
  O  O64  1  0.55308900  0.91596800  0.73804900  1
  O  O65  1  0.05308900  0.08403200  0.26195100  1
  O  O66  1  0.54220100  0.17512400  0.90867300  1
  O  O67  1  0.04220100  0.82487600  0.09132700  1
  O  O68  1  0.61395000  0.12132800  0.77884300  1
  O  O69  1  0.11395000  0.87867200  0.22115700  1
  O  O70  1  0.58912000  0.93880200  0.01814700  1
  O  O71  1  0.08912000  0.06119800  0.98185300  1
  O  O72  1  0.42775900  0.11266400  0.39786400  1
  O  O73  1  0.92775900  0.88733600  0.60213600  1
  O  O74  1  0.46531000  0.82919000  0.40435100  1
  O  O75  1  0.96531000  0.17081000  0.59564900  1
  O  O76  1  0.39842100  0.88080100  0.23139000  1
  O  O77  1  0.89842100  0.11919900  0.76861000  1
  O  O78  1  0.46831400  0.01271700  0.14360600  1
  O  O79  1  0.96831400  0.98728300  0.85639400  1
  O  O80  1  0.79515200  0.42872000  0.31227500  1
  O  O81  1  0.29515200  0.57128000  0.68772500  1
  O  O82  1  0.84189200  0.52193800  0.55259300  1
  O  O83  1  0.34189200  0.47806200  0.44740700  1
  O  O84  1  0.80455000  0.23912300  0.56567900  1
  O  O85  1  0.30455000  0.76087700  0.43432100  1
  O  O86  1  0.86691300  0.29566600  0.36816800  1
  O  O87  1  0.36691300  0.70433400  0.63183200  1
  O  O88  1  0.53744600  0.20820100  0.36397300  1
  O  O89  1  0.03744600  0.79179900  0.63602700  1
  O  O90  1  0.60444400  0.29852500  0.50499200  1
  O  O91  1  0.10444400  0.70147500  0.49500800  1
  O  O92  1  0.53797800  0.47516500  0.53237200  1
  O  O93  1  0.03797800  0.52483500  0.46762800  1
  O  O94  1  0.57568200  0.46916000  0.25675300  1
  O  O95  1  0.07568200  0.53084000  0.74324700  1
  O  O96  1  0.72892300  0.58883200  0.04209500  1
  O  O97  1  0.22892300  0.41116800  0.95790500  1
  O  O98  1  0.97818100  0.59011200  0.89981800  1
  O  O99  1  0.47818100  0.40988800  0.10018200  1
  O  O100  1  0.96620700  0.37885500  0.13864300  1
  O  O101  1  0.46620700  0.62114500  0.86135700  1
  O  O102  1  0.90959900  0.42298300  0.91588000  1
  O  O103  1  0.40959900  0.57701700  0.08412000  1
  O  O104  1  0.92406400  0.65177800  0.12232200  1
  O  O105  1  0.42406400  0.34822200  0.87767800  1
  O  O106  1  0.71558500  0.33290600  0.86603900  1
  O  O107  1  0.21558500  0.66709400  0.13396100  1
  O  O108  1  0.65863100  0.55366700  0.90345400  1
  O  O109  1  0.15863100  0.44633300  0.09654600  1
  O  O110  1  0.67903500  0.35678600  0.14280300  1
  O  O111  1  0.17903500  0.64321400  0.85719700  1
