# generated using pymatgen
data_LiCr2P3O13
_symmetry_space_group_name_H-M   'P 1'
_cell_length_a   6.19495500
_cell_length_b   7.40920233
_cell_length_c   10.75049939
_cell_angle_alpha   74.89071873
_cell_angle_beta   85.73532593
_cell_angle_gamma   80.59068874
_symmetry_Int_Tables_number   1
_chemical_formula_structural   LiCr2P3O13
_chemical_formula_sum   'Li2 Cr4 P6 O26'
_cell_volume   469.71557935
_cell_formula_units_Z   2
loop_
 _symmetry_equiv_pos_site_id
 _symmetry_equiv_pos_as_xyz
  1  'x, y, z'
loop_
 _atom_site_type_symbol
 _atom_site_label
 _atom_site_symmetry_multiplicity
 _atom_site_fract_x
 _atom_site_fract_y
 _atom_site_fract_z
 _atom_site_occupancy
  Li  Li0  1  0.28521100  0.56609100  0.77674700  1
  Li  Li1  1  0.71478900  0.43390900  0.22325300  1
  Cr  Cr2  1  0.22087100  0.20419400  0.08841600  1
  Cr  Cr3  1  0.24554800  0.19533400  0.59202300  1
  Cr  Cr4  1  0.75445200  0.80466600  0.40797700  1
  Cr  Cr5  1  0.77912900  0.79580600  0.91158400  1
  P  P6  1  0.11535800  0.46882700  0.30623400  1
  P  P7  1  0.25408600  0.80330600  0.33632400  1
  P  P8  1  0.26341000  0.93185800  0.89032500  1
  P  P9  1  0.73659000  0.06814200  0.10967500  1
  P  P10  1  0.74591400  0.19669400  0.66367600  1
  P  P11  1  0.88464200  0.53117300  0.69376600  1
  O  O12  1  0.13263700  0.38650300  0.18979900  1
  O  O13  1  0.12416600  0.47202600  0.65943100  1
  O  O14  1  0.06122800  0.78081100  0.43557500  1
  O  O15  1  0.22040600  0.11308800  0.77975800  1
  O  O16  1  0.25767700  0.34449800  0.41699900  1
  O  O17  1  0.08938800  0.79930200  0.90052000  1
  O  O18  1  0.23648700  0.65487000  0.25170500  1
  O  O19  1  0.24687600  0.35549600  0.95158200  1
  O  O20  1  0.27265500  0.98823900  0.01753600  1
  O  O21  1  0.23527900  0.00209100  0.25348100  1
  O  O22  1  0.52539800  0.20207800  0.13220600  1
  O  O23  1  0.31481000  0.98609100  0.57755000  1
  O  O24  1  0.52786100  0.26927800  0.59660200  1
  O  O25  1  0.47213900  0.73072200  0.40339800  1
  O  O26  1  0.68519000  0.01390900  0.42245000  1
  O  O27  1  0.47460200  0.79792200  0.86779400  1
  O  O28  1  0.76472100  0.99790900  0.74651900  1
  O  O29  1  0.72734500  0.01176100  0.98246400  1
  O  O30  1  0.75312400  0.64450400  0.04841800  1
  O  O31  1  0.76351300  0.34513000  0.74829500  1
  O  O32  1  0.91061200  0.20069800  0.09948000  1
  O  O33  1  0.74232300  0.65550200  0.58300100  1
  O  O34  1  0.77959400  0.88691200  0.22024200  1
  O  O35  1  0.93877200  0.21918900  0.56442500  1
  O  O36  1  0.87583400  0.52797400  0.34056900  1
  O  O37  1  0.86736300  0.61349700  0.81020100  1
