# generated using pymatgen
data_LiMn5O8
_symmetry_space_group_name_H-M   'P 1'
_cell_length_a   8.52340600
_cell_length_b   8.52340600
_cell_length_c   8.52340600
_cell_angle_alpha   90.00000000
_cell_angle_beta   90.00000000
_cell_angle_gamma   90.00000000
_symmetry_Int_Tables_number   1
_chemical_formula_structural   LiMn5O8
_chemical_formula_sum   'Li4 Mn20 O32'
_cell_volume   619.21223326
_cell_formula_units_Z   4
loop_
 _symmetry_equiv_pos_site_id
 _symmetry_equiv_pos_as_xyz
  1  'x, y, z'
loop_
 _atom_site_type_symbol
 _atom_site_label
 _atom_site_symmetry_multiplicity
 _atom_site_fract_x
 _atom_site_fract_y
 _atom_site_fract_z
 _atom_site_occupancy
  Li  Li0  1  0.62500000  0.37500000  0.87500000  1
  Li  Li1  1  0.87500000  0.62500000  0.37500000  1
  Li  Li2  1  0.12500000  0.12500000  0.12500000  1
  Li  Li3  1  0.37500000  0.87500000  0.62500000  1
  Mn  Mn4  1  0.50104600  0.50104600  0.50104600  1
  Mn  Mn5  1  0.49895400  0.00104600  0.99895400  1
  Mn  Mn6  1  0.62662500  0.62337500  0.12500000  1
  Mn  Mn7  1  0.62337500  0.12500000  0.62662500  1
  Mn  Mn8  1  0.62500000  0.87337500  0.37662500  1
  Mn  Mn9  1  0.74895400  0.74895400  0.74895400  1
  Mn  Mn10  1  0.75104600  0.25104600  0.24895400  1
  Mn  Mn11  1  0.87662500  0.87500000  0.12662500  1
  Mn  Mn12  1  0.87500000  0.12662500  0.87662500  1
  Mn  Mn13  1  0.87337500  0.37662500  0.62500000  1
  Mn  Mn14  1  0.99895400  0.49895400  0.00104600  1
  Mn  Mn15  1  0.00104600  0.99895400  0.49895400  1
  Mn  Mn16  1  0.12500000  0.62662500  0.62337500  1
  Mn  Mn17  1  0.12662500  0.87662500  0.87500000  1
  Mn  Mn18  1  0.12337500  0.37500000  0.37337500  1
  Mn  Mn19  1  0.24895400  0.75104600  0.25104600  1
  Mn  Mn20  1  0.25104600  0.24895400  0.75104600  1
  Mn  Mn21  1  0.37662500  0.62500000  0.87337500  1
  Mn  Mn22  1  0.37337500  0.12337500  0.37500000  1
  Mn  Mn23  1  0.37500000  0.37337500  0.12337500  1
  O  O24  1  0.62616700  0.89101800  0.60508900  1
  O  O25  1  0.63834400  0.86165600  0.13834400  1
  O  O26  1  0.64491100  0.35898200  0.62383300  1
  O  O27  1  0.60508900  0.62616700  0.89101800  1
  O  O28  1  0.60898200  0.39491100  0.12616700  1
  O  O29  1  0.62383300  0.64491100  0.35898200  1
  O  O30  1  0.64101800  0.12383300  0.85508900  1
  O  O31  1  0.61165600  0.11165600  0.38834400  1
  O  O32  1  0.89101800  0.60508900  0.62616700  1
  O  O33  1  0.88834400  0.88834400  0.88834400  1
  O  O34  1  0.85508900  0.64101800  0.12383300  1
  O  O35  1  0.85898200  0.87616700  0.35508900  1
  O  O36  1  0.86165600  0.13834400  0.63834400  1
  O  O37  1  0.87616700  0.35508900  0.85898200  1
  O  O38  1  0.87383300  0.10898200  0.10508900  1
  O  O39  1  0.89491100  0.37383300  0.39101800  1
  O  O40  1  0.13834400  0.63834400  0.86165600  1
  O  O41  1  0.12383300  0.85508900  0.64101800  1
  O  O42  1  0.10508900  0.87383300  0.10898200  1
  O  O43  1  0.10898200  0.10508900  0.87383300  1
  O  O44  1  0.12616700  0.60898200  0.39491100  1
  O  O45  1  0.14491100  0.14101800  0.37616700  1
  O  O46  1  0.11165600  0.38834400  0.61165600  1
  O  O47  1  0.14101800  0.37616700  0.14491100  1
  O  O48  1  0.35898200  0.62383300  0.64491100  1
  O  O49  1  0.38834400  0.61165600  0.11165600  1
  O  O50  1  0.35508900  0.85898200  0.87616700  1
  O  O51  1  0.39491100  0.12616700  0.60898200  1
  O  O52  1  0.37616700  0.14491100  0.14101800  1
  O  O53  1  0.39101800  0.89491100  0.37383300  1
  O  O54  1  0.37383300  0.39101800  0.89491100  1
  O  O55  1  0.36165600  0.36165600  0.36165600  1
