# generated using pymatgen
data_Li3Cu5O4
_symmetry_space_group_name_H-M   'P 1'
_cell_length_a   6.64175200
_cell_length_b   7.65335300
_cell_length_c   12.71301223
_cell_angle_alpha   72.42798925
_cell_angle_beta   90.00000000
_cell_angle_gamma   90.00000000
_symmetry_Int_Tables_number   1
_chemical_formula_structural   Li3Cu5O4
_chemical_formula_sum   'Li12 Cu20 O16'
_cell_volume   616.06975634
_cell_formula_units_Z   4
loop_
 _symmetry_equiv_pos_site_id
 _symmetry_equiv_pos_as_xyz
  1  'x, y, z'
loop_
 _atom_site_type_symbol
 _atom_site_label
 _atom_site_symmetry_multiplicity
 _atom_site_fract_x
 _atom_site_fract_y
 _atom_site_fract_z
 _atom_site_occupancy
  Li  Li0  1  0.62432100  0.93292800  0.57205500  1
  Li  Li1  1  0.93969200  0.63706800  0.92163900  1
  Li  Li2  1  0.28061000  0.74112900  0.56402000  1
  Li  Li3  1  0.87567900  0.93292800  0.07205500  1
  Li  Li4  1  0.56030800  0.63706800  0.42163900  1
  Li  Li5  1  0.21939000  0.74112900  0.06402000  1
  Li  Li6  1  0.78061000  0.25887100  0.93598000  1
  Li  Li7  1  0.43969200  0.36293200  0.57836100  1
  Li  Li8  1  0.12432100  0.06707200  0.92794500  1
  Li  Li9  1  0.71939000  0.25887100  0.43598000  1
  Li  Li10  1  0.06030800  0.36293200  0.07836100  1
  Li  Li11  1  0.37567900  0.06707200  0.42794500  1
  Cu  Cu12  1  0.57202200  0.96522500  0.91216300  1
  Cu  Cu13  1  0.32863400  0.93965000  0.74296800  1
  Cu  Cu14  1  0.92797800  0.96522500  0.41216300  1
  Cu  Cu15  1  0.47142200  0.67311300  0.89332700  1
  Cu  Cu16  1  0.17136600  0.93965000  0.24296800  1
  Cu  Cu17  1  0.55856400  0.54132500  0.72960800  1
  Cu  Cu18  1  0.02857800  0.67311300  0.39332700  1
  Cu  Cu19  1  0.32621800  0.37325800  0.91340200  1
  Cu  Cu20  1  0.82621800  0.62674200  0.58659800  1
  Cu  Cu21  1  0.05856400  0.45867500  0.77039200  1
  Cu  Cu22  1  0.94143600  0.54132500  0.22960800  1
  Cu  Cu23  1  0.17378200  0.37325800  0.41340200  1
  Cu  Cu24  1  0.67378200  0.62674200  0.08659800  1
  Cu  Cu25  1  0.97142200  0.32688700  0.60667300  1
  Cu  Cu26  1  0.44143600  0.45867500  0.27039200  1
  Cu  Cu27  1  0.82863400  0.06035000  0.75703200  1
  Cu  Cu28  1  0.52857800  0.32688700  0.10667300  1
  Cu  Cu29  1  0.07202200  0.03477500  0.58783700  1
  Cu  Cu30  1  0.67136600  0.06035000  0.25703200  1
  Cu  Cu31  1  0.42797800  0.03477500  0.08783700  1
  O  O32  1  0.84293700  0.02410000  0.90572100  1
  O  O33  1  0.30872900  0.87987700  0.89803000  1
  O  O34  1  0.65706300  0.02410000  0.40572100  1
  O  O35  1  0.19127100  0.87987700  0.39803000  1
  O  O36  1  0.59553700  0.45839500  0.88104300  1
  O  O37  1  0.54597600  0.62016300  0.57661000  1
  O  O38  1  0.04597600  0.37983700  0.92339000  1
  O  O39  1  0.09553700  0.54160500  0.61895700  1
  O  O40  1  0.90446300  0.45839500  0.38104300  1
  O  O41  1  0.95402400  0.62016300  0.07661000  1
  O  O42  1  0.45402400  0.37983700  0.42339000  1
  O  O43  1  0.40446300  0.54160500  0.11895700  1
  O  O44  1  0.80872900  0.12012300  0.60197000  1
  O  O45  1  0.34293700  0.97590000  0.59427900  1
  O  O46  1  0.69127100  0.12012300  0.10197000  1
  O  O47  1  0.15706300  0.97590000  0.09427900  1
