# generated using pymatgen
data_Li3Cr5O10
_symmetry_space_group_name_H-M   'P 1'
_cell_length_a   5.13014900
_cell_length_b   5.96981432
_cell_length_c   6.64090518
_cell_angle_alpha   103.58930038
_cell_angle_beta   97.60112156
_cell_angle_gamma   106.68063246
_symmetry_Int_Tables_number   1
_chemical_formula_structural   Li3Cr5O10
_chemical_formula_sum   'Li3 Cr5 O10'
_cell_volume   184.96424751
_cell_formula_units_Z   1
loop_
 _symmetry_equiv_pos_site_id
 _symmetry_equiv_pos_as_xyz
  1  'x, y, z'
loop_
 _atom_site_type_symbol
 _atom_site_label
 _atom_site_symmetry_multiplicity
 _atom_site_fract_x
 _atom_site_fract_y
 _atom_site_fract_z
 _atom_site_occupancy
  Li  Li0  1  0.20322000  0.90148800  0.90180100  1
  Li  Li1  1  0.79678000  0.09851200  0.09819900  1
  Li  Li2  1  0.00000000  0.50000000  0.50000000  1
  Cr  Cr3  1  0.39876500  0.79635300  0.30609400  1
  Cr  Cr4  1  0.00000000  0.00000000  0.50000000  1
  Cr  Cr5  1  0.20274100  0.40116300  0.90386400  1
  Cr  Cr6  1  0.60123500  0.20364700  0.69390600  1
  Cr  Cr7  1  0.79725900  0.59883700  0.09613600  1
  O  O8  1  0.29030900  0.87278900  0.58759900  1
  O  O9  1  0.49168200  0.72980000  0.02134800  1
  O  O10  1  0.08881000  0.92344600  0.21139000  1
  O  O11  1  0.27874700  0.31707100  0.61649200  1
  O  O12  1  0.70969100  0.12721100  0.41240100  1
  O  O13  1  0.50831800  0.27020000  0.97865200  1
  O  O14  1  0.91119000  0.07655400  0.78861000  1
  O  O15  1  0.09487400  0.47120800  0.18553200  1
  O  O16  1  0.72125300  0.68292900  0.38350800  1
  O  O17  1  0.90512600  0.52879200  0.81446800  1
