# generated using pymatgen
data_Li14Fe4O13
_symmetry_space_group_name_H-M   'P 1'
_cell_length_a   27.39099300
_cell_length_b   5.31866500
_cell_length_c   5.36533089
_cell_angle_alpha   62.34152342
_cell_angle_beta   90.00000000
_cell_angle_gamma   90.00000000
_symmetry_Int_Tables_number   1
_chemical_formula_structural   Li14Fe4O13
_chemical_formula_sum   'Li28 Fe8 O26'
_cell_volume   692.32244832
_cell_formula_units_Z   2
loop_
 _symmetry_equiv_pos_site_id
 _symmetry_equiv_pos_as_xyz
  1  'x, y, z'
loop_
 _atom_site_type_symbol
 _atom_site_label
 _atom_site_symmetry_multiplicity
 _atom_site_fract_x
 _atom_site_fract_y
 _atom_site_fract_z
 _atom_site_occupancy
  Li  Li0  1  0.32342200  0.16541300  0.84989300  1
  Li  Li1  1  0.55770500  0.20930300  0.79181300  1
  Li  Li2  1  0.17657800  0.66541300  0.84989300  1
  Li  Li3  1  0.94229500  0.70930300  0.79181300  1
  Li  Li4  1  0.38771200  0.69379800  0.77809000  1
  Li  Li5  1  0.72527000  0.76879300  0.65425100  1
  Li  Li6  1  0.50129500  0.73240900  0.73341900  1
  Li  Li7  1  0.28049300  0.73210000  0.70036000  1
  Li  Li8  1  0.61395800  0.77896100  0.69537100  1
  Li  Li9  1  0.11228800  0.19379800  0.77809000  1
  Li  Li10  1  0.11395800  0.72103900  0.30462900  1
  Li  Li11  1  0.77473000  0.26879300  0.65425100  1
  Li  Li12  1  0.99870500  0.23240900  0.73341900  1
  Li  Li13  1  0.21950700  0.23210000  0.70036000  1
  Li  Li14  1  0.78049300  0.76790000  0.29964000  1
  Li  Li15  1  0.00129500  0.76759100  0.26658100  1
  Li  Li16  1  0.22527000  0.73120700  0.34574900  1
  Li  Li17  1  0.88604200  0.27896100  0.69537100  1
  Li  Li18  1  0.88771200  0.80620200  0.22191000  1
  Li  Li19  1  0.38604200  0.22103900  0.30462900  1
  Li  Li20  1  0.71950700  0.26790000  0.29964000  1
  Li  Li21  1  0.49870500  0.26759100  0.26658100  1
  Li  Li22  1  0.27473000  0.23120700  0.34574900  1
  Li  Li23  1  0.61228800  0.30620200  0.22191000  1
  Li  Li24  1  0.05770500  0.29069700  0.20818700  1
  Li  Li25  1  0.82342200  0.33458700  0.15010700  1
  Li  Li26  1  0.44229500  0.79069700  0.20818700  1
  Li  Li27  1  0.67657800  0.83458700  0.15010700  1
  Fe  Fe28  1  0.66861100  0.31576300  0.69353100  1
  Fe  Fe29  1  0.05540200  0.77063700  0.72818500  1
  Fe  Fe30  1  0.83138900  0.81576300  0.69353100  1
  Fe  Fe31  1  0.55540200  0.72936300  0.27181500  1
  Fe  Fe32  1  0.44459800  0.27063700  0.72818500  1
  Fe  Fe33  1  0.16861100  0.18423700  0.30646900  1
  Fe  Fe34  1  0.94459800  0.22936300  0.27181500  1
  Fe  Fe35  1  0.33138900  0.68423700  0.30646900  1
  O  O36  1  0.44109100  0.22669000  0.09077000  1
  O  O37  1  0.67230900  0.25170600  0.06336800  1
  O  O38  1  0.05890900  0.72669000  0.09077000  1
  O  O39  1  0.27945400  0.45382600  0.55094600  1
  O  O40  1  0.05647300  0.40355000  0.77577900  1
  O  O41  1  0.82573900  0.44781600  0.73455800  1
  O  O42  1  0.82769100  0.75170600  0.06336800  1
  O  O43  1  0.39121400  0.50065300  0.49419200  1
  O  O44  1  0.22054600  0.95382600  0.55094600  1
  O  O45  1  0.44352700  0.90355000  0.77577900  1
  O  O46  1  0.67426100  0.94781600  0.73455800  1
  O  O47  1  0.89121400  0.99934700  0.50580800  1
  O  O48  1  0.00000000  0.00000000  0.50000000  1
  O  O49  1  0.10878600  0.00065300  0.49419200  1
  O  O50  1  0.32573900  0.05218400  0.26544200  1
  O  O51  1  0.55647300  0.09645000  0.22422100  1
  O  O52  1  0.77945400  0.04617400  0.44905400  1
  O  O53  1  0.60878600  0.49934700  0.50580800  1
  O  O54  1  0.50000000  0.50000000  0.50000000  1
  O  O55  1  0.17230900  0.24829400  0.93663200  1
  O  O56  1  0.17426100  0.55218400  0.26544200  1
  O  O57  1  0.94352700  0.59645000  0.22422100  1
  O  O58  1  0.72054600  0.54617400  0.44905400  1
  O  O59  1  0.94109100  0.27331000  0.90923000  1
  O  O60  1  0.32769100  0.74829400  0.93663200  1
  O  O61  1  0.55890900  0.77331000  0.90923000  1
