# generated using pymatgen
data_Li4Cr3GaO8
_symmetry_space_group_name_H-M   'P 1'
_cell_length_a   5.13889000
_cell_length_b   7.84203606
_cell_length_c   7.84337966
_cell_angle_alpha   81.78007113
_cell_angle_beta   83.75558666
_cell_angle_gamma   70.94471955
_symmetry_Int_Tables_number   1
_chemical_formula_structural   Li4Cr3GaO8
_chemical_formula_sum   'Li8 Cr6 Ga2 O16'
_cell_volume   295.04172267
_cell_formula_units_Z   2
loop_
 _symmetry_equiv_pos_site_id
 _symmetry_equiv_pos_as_xyz
  1  'x, y, z'
loop_
 _atom_site_type_symbol
 _atom_site_label
 _atom_site_symmetry_multiplicity
 _atom_site_fract_x
 _atom_site_fract_y
 _atom_site_fract_z
 _atom_site_occupancy
  Li  Li0  1  0.00034700  0.56235300  0.81260800  1
  Li  Li1  1  0.00001100  0.31236700  0.56248300  1
  Li  Li2  1  0.99965300  0.43764700  0.18739200  1
  Li  Li3  1  0.00008200  0.93751100  0.68734400  1
  Li  Li4  1  0.99991800  0.06248900  0.31265600  1
  Li  Li5  1  0.99969000  0.18777200  0.93733100  1
  Li  Li6  1  0.99998900  0.68763300  0.43751700  1
  Li  Li7  1  0.00031000  0.81222800  0.06266900  1
  Cr  Cr8  1  0.49979800  0.24974900  0.75026000  1
  Cr  Cr9  1  0.50000500  0.37481600  0.37483900  1
  Cr  Cr10  1  0.50000000  0.50000000  0.00000000  1
  Cr  Cr11  1  0.50000000  0.00000000  0.50000000  1
  Cr  Cr12  1  0.49999500  0.62518400  0.62516100  1
  Cr  Cr13  1  0.50020200  0.75025100  0.24974000  1
  Ga  Ga14  1  0.50003100  0.12487600  0.12486600  1
  Ga  Ga15  1  0.49996900  0.87512400  0.87513400  1
  O  O16  1  0.72427500  0.41157200  0.78235200  1
  O  O17  1  0.27578500  0.46327000  0.59259500  1
  O  O18  1  0.72421500  0.53673000  0.40740500  1
  O  O19  1  0.27418100  0.08848700  0.71771000  1
  O  O20  1  0.72428400  0.16160200  0.53248400  1
  O  O21  1  0.72556900  0.28614200  0.15716300  1
  O  O22  1  0.27415100  0.21347200  0.34244900  1
  O  O23  1  0.72584900  0.78652800  0.65755100  1
  O  O24  1  0.72581900  0.91151300  0.28229000  1
  O  O25  1  0.27425300  0.33852000  0.96782100  1
  O  O26  1  0.27571600  0.83839800  0.46751600  1
  O  O27  1  0.72644200  0.03573200  0.90771200  1
  O  O28  1  0.27355800  0.96426800  0.09228800  1
  O  O29  1  0.72574700  0.66148000  0.03217900  1
  O  O30  1  0.27572500  0.58842800  0.21764800  1
  O  O31  1  0.27443100  0.71385800  0.84283700  1
