# generated using pymatgen
data_Li3Fe2(SiO4)2
_symmetry_space_group_name_H-M   'P 1'
_cell_length_a   5.11104400
_cell_length_b   6.62236600
_cell_length_c   10.74845171
_cell_angle_alpha   89.33925653
_cell_angle_beta   90.00000000
_cell_angle_gamma   90.00000000
_symmetry_Int_Tables_number   1
_chemical_formula_structural   Li3Fe2(SiO4)2
_chemical_formula_sum   'Li6 Fe4 Si4 O16'
_cell_volume   363.78084689
_cell_formula_units_Z   2
loop_
 _symmetry_equiv_pos_site_id
 _symmetry_equiv_pos_as_xyz
  1  'x, y, z'
loop_
 _atom_site_type_symbol
 _atom_site_label
 _atom_site_symmetry_multiplicity
 _atom_site_fract_x
 _atom_site_fract_y
 _atom_site_fract_z
 _atom_site_occupancy
  Li  Li0  1  0.06922600  0.00912700  0.08235600  1
  Li  Li1  1  0.93077400  0.00912700  0.58235600  1
  Li  Li2  1  0.56636600  0.78539500  0.17736000  1
  Li  Li3  1  0.43363400  0.78539500  0.67736000  1
  Li  Li4  1  0.56415500  0.00611200  0.41336200  1
  Li  Li5  1  0.43584500  0.00611200  0.91336200  1
  Fe  Fe6  1  0.54974800  0.49097800  0.40065200  1
  Fe  Fe7  1  0.06328400  0.50265200  0.09453000  1
  Fe  Fe8  1  0.45025200  0.49097800  0.90065200  1
  Fe  Fe9  1  0.93671600  0.50265200  0.59453000  1
  Si  Si10  1  0.57270500  0.23967200  0.16181700  1
  Si  Si11  1  0.42729500  0.23967200  0.66181700  1
  Si  Si12  1  0.06491800  0.76048300  0.34243000  1
  Si  Si13  1  0.93508200  0.76048300  0.84243000  1
  O  O14  1  0.46069800  0.03776200  0.09765100  1
  O  O15  1  0.53930200  0.03776200  0.59765100  1
  O  O16  1  0.88983200  0.26343200  0.13356300  1
  O  O17  1  0.50905700  0.24637300  0.31008100  1
  O  O18  1  0.11016800  0.26343200  0.63356300  1
  O  O19  1  0.49094300  0.24637300  0.81008100  1
  O  O20  1  0.44106700  0.45605400  0.09788900  1
  O  O21  1  0.55893300  0.45605400  0.59788900  1
  O  O22  1  0.96104600  0.55036500  0.41826400  1
  O  O23  1  0.03895400  0.55036500  0.91826400  1
  O  O24  1  0.96791800  0.73353200  0.19256500  1
  O  O25  1  0.39033400  0.74831900  0.34226700  1
  O  O26  1  0.03208200  0.73353200  0.69256500  1
  O  O27  1  0.60966600  0.74831900  0.84226700  1
  O  O28  1  0.94060700  0.95035800  0.40787500  1
  O  O29  1  0.05939300  0.95035800  0.90787500  1
