# generated using pymatgen
data_LiMn3(P3O10)2
_symmetry_space_group_name_H-M   'P 1'
_cell_length_a   8.61391153
_cell_length_b   8.61391153
_cell_length_c   12.31518200
_cell_angle_alpha   90.00000000
_cell_angle_beta   90.00000000
_cell_angle_gamma   106.45724471
_symmetry_Int_Tables_number   1
_chemical_formula_structural   LiMn3(P3O10)2
_chemical_formula_sum   'Li2 Mn6 P12 O40'
_cell_volume   876.34371911
_cell_formula_units_Z   2
loop_
 _symmetry_equiv_pos_site_id
 _symmetry_equiv_pos_as_xyz
  1  'x, y, z'
loop_
 _atom_site_type_symbol
 _atom_site_label
 _atom_site_symmetry_multiplicity
 _atom_site_fract_x
 _atom_site_fract_y
 _atom_site_fract_z
 _atom_site_occupancy
  Li  Li0  1  0.10466200  0.10466200  0.00000000  1
  Li  Li1  1  0.60466200  0.60466200  0.50000000  1
  Mn  Mn2  1  0.38010900  0.38010900  0.00000000  1
  Mn  Mn3  1  0.77047700  0.32364700  0.78688400  1
  Mn  Mn4  1  0.32364700  0.77047700  0.21311600  1
  Mn  Mn5  1  0.82364700  0.27047700  0.28688400  1
  Mn  Mn6  1  0.27047700  0.82364700  0.71311600  1
  Mn  Mn7  1  0.88010900  0.88010900  0.50000000  1
  P  P8  1  0.13780100  0.40783600  0.69637500  1
  P  P9  1  0.40783600  0.13780100  0.30362500  1
  P  P10  1  0.22068400  0.35636400  0.21824400  1
  P  P11  1  0.35636400  0.22068400  0.78175600  1
  P  P12  1  0.75797900  0.37379400  0.05354000  1
  P  P13  1  0.37379400  0.75797900  0.94646000  1
  P  P14  1  0.87379400  0.25797900  0.55354000  1
  P  P15  1  0.25797900  0.87379400  0.44646000  1
  P  P16  1  0.90783600  0.63780100  0.19637500  1
  P  P17  1  0.63780100  0.90783600  0.80362500  1
  P  P18  1  0.85636400  0.72068400  0.71824400  1
  P  P19  1  0.72068400  0.85636400  0.28175600  1
  O  O20  1  0.01416000  0.32731500  0.77986700  1
  O  O21  1  0.32731500  0.01416000  0.22013300  1
  O  O22  1  0.34796100  0.06403400  0.72478400  1
  O  O23  1  0.06403400  0.34796100  0.27521600  1
  O  O24  1  0.05871900  0.37073900  0.57691100  1
  O  O25  1  0.37073900  0.05871900  0.42308900  1
  O  O26  1  0.25812000  0.20492600  0.88938300  1
  O  O27  1  0.20492600  0.25812000  0.11061700  1
  O  O28  1  0.31893100  0.27846100  0.30579200  1
  O  O29  1  0.27846100  0.31893100  0.69420800  1
  O  O30  1  0.08556800  0.72009500  0.20125000  1
  O  O31  1  0.22009500  0.58556800  0.70125000  1
  O  O32  1  0.72009500  0.08556800  0.79875000  1
  O  O33  1  0.58556800  0.22009500  0.29875000  1
  O  O34  1  0.32683800  0.52720900  0.19206900  1
  O  O35  1  0.52720900  0.32683800  0.80793200  1
  O  O36  1  0.02720900  0.82683800  0.69206900  1
  O  O37  1  0.82683800  0.02720900  0.30793100  1
  O  O38  1  0.37222800  0.58326400  0.92948400  1
  O  O39  1  0.08326400  0.87222800  0.42948400  1
  O  O40  1  0.87222800  0.08326400  0.57051600  1
  O  O41  1  0.58326400  0.37222800  0.07051600  1
  O  O42  1  0.31155800  0.75754300  0.36831900  1
  O  O43  1  0.75754300  0.31155800  0.63168100  1
  O  O44  1  0.25754300  0.81155800  0.86831900  1
  O  O45  1  0.81155800  0.25754300  0.13168100  1
  O  O46  1  0.30631000  0.83532300  0.55895800  1
  O  O47  1  0.80631000  0.33532300  0.94104200  1
  O  O48  1  0.83532300  0.30631000  0.44104200  1
  O  O49  1  0.33532300  0.80631000  0.05895800  1
  O  O50  1  0.82731500  0.51416000  0.27986700  1
  O  O51  1  0.51416000  0.82731500  0.72013300  1
  O  O52  1  0.84796100  0.56403400  0.77521600  1
  O  O53  1  0.56403400  0.84796100  0.22478400  1
  O  O54  1  0.55871900  0.87073900  0.92308900  1
  O  O55  1  0.87073900  0.55871900  0.07691100  1
  O  O56  1  0.70492600  0.75812000  0.38938300  1
  O  O57  1  0.75812000  0.70492600  0.61061700  1
  O  O58  1  0.77846100  0.81893100  0.80579200  1
  O  O59  1  0.81893100  0.77846100  0.19420800  1
