# generated using pymatgen
data_Li3V4(OF3)3
_symmetry_space_group_name_H-M   'P 1'
_cell_length_a   5.23375100
_cell_length_b   5.54304875
_cell_length_c   17.25089738
_cell_angle_alpha   87.55550781
_cell_angle_beta   98.10060489
_cell_angle_gamma   117.83985523
_symmetry_Int_Tables_number   1
_chemical_formula_structural   Li3V4(OF3)3
_chemical_formula_sum   'Li6 V8 O6 F18'
_cell_volume   437.97022701
_cell_formula_units_Z   2
loop_
 _symmetry_equiv_pos_site_id
 _symmetry_equiv_pos_as_xyz
  1  'x, y, z'
loop_
 _atom_site_type_symbol
 _atom_site_label
 _atom_site_symmetry_multiplicity
 _atom_site_fract_x
 _atom_site_fract_y
 _atom_site_fract_z
 _atom_site_occupancy
  Li  Li0  1  0.32107500  0.10619200  0.55346200  1
  Li  Li1  1  0.17513000  0.16364400  0.19727500  1
  Li  Li2  1  0.20151300  0.67695200  0.70277800  1
  Li  Li3  1  0.95197400  0.56120200  0.32380700  1
  Li  Li4  1  0.91217000  0.04015100  0.82494900  1
  Li  Li5  1  0.41684700  0.77791900  0.07048500  1
  V  V6  1  0.49980300  0.21963600  0.74948200  1
  V  V7  1  0.22246800  0.10003200  0.37497100  1
  V  V8  1  0.25954000  0.62917600  0.87582800  1
  V  V9  1  0.00843400  0.03648200  0.99485100  1
  V  V10  1  0.99358900  0.51502400  0.49813600  1
  V  V11  1  0.74189100  0.40419400  0.12668300  1
  V  V12  1  0.54171300  0.75989500  0.25067500  1
  V  V13  1  0.72593900  0.88109400  0.62714500  1
  O  O14  1  0.53965100  0.07656600  0.65315700  1
  O  O15  1  0.48429600  0.92400600  0.80896900  1
  O  O16  1  0.03686700  0.81647500  0.44101900  1
  O  O17  1  0.04476300  0.32237200  0.93393300  1
  O  O18  1  0.94504700  0.96226300  0.28143300  1
  O  O19  1  0.53770800  0.57739500  0.15620300  1
  F  F20  1  0.47802800  0.54662300  0.68543600  1
  F  F21  1  0.43171300  0.70784700  0.53358900  1
  F  F22  1  0.43396900  0.40585300  0.83590500  1
  F  F23  1  0.92817400  0.15574400  0.09706600  1
  F  F24  1  0.06758100  0.52332800  0.22232100  1
  F  F25  1  0.56271500  0.79691700  0.97314700  1
  F  F26  1  0.03947100  0.34082900  0.40340300  1
  F  F27  1  0.03993500  0.00302900  0.72355800  1
  F  F28  1  0.00949200  0.70203500  0.06435300  1
  F  F29  1  0.00083700  0.18730500  0.56245400  1
  F  F30  1  0.49343500  0.06346800  0.18328800  1
  F  F31  1  0.44127300  0.19598400  0.03510500  1
  F  F32  1  0.94930900  0.45154600  0.77743500  1
  F  F33  1  0.95251300  0.67287700  0.59916000  1
  F  F34  1  0.04498000  0.84129100  0.90449600  1
  F  F35  1  0.55236900  0.28936100  0.47153100  1
  F  F36  1  0.51486700  0.42099000  0.31310700  1
  F  F37  1  0.40664000  0.87445700  0.33820600  1
