# generated using pymatgen
data_Li24Mn5Cr7O36
_symmetry_space_group_name_H-M   'P 1'
_cell_length_a   5.03676600
_cell_length_b   9.75458225
_cell_length_c   13.25991653
_cell_angle_alpha   96.85031480
_cell_angle_beta   100.51657737
_cell_angle_gamma   95.10874702
_symmetry_Int_Tables_number   1
_chemical_formula_structural   Li24Mn5Cr7O36
_chemical_formula_sum   'Li24 Mn5 Cr7 O36'
_cell_volume   631.85298137
_cell_formula_units_Z   1
loop_
 _symmetry_equiv_pos_site_id
 _symmetry_equiv_pos_as_xyz
  1  'x, y, z'
loop_
 _atom_site_type_symbol
 _atom_site_label
 _atom_site_symmetry_multiplicity
 _atom_site_fract_x
 _atom_site_fract_y
 _atom_site_fract_z
 _atom_site_occupancy
  Li  Li0  1  0.16668000  0.99958500  0.83322200  1
  Li  Li1  1  0.04761700  0.00119200  0.61398300  1
  Li  Li2  1  0.00209100  0.75032200  0.25126800  1
  Li  Li3  1  0.33292400  0.75013600  0.91510300  1
  Li  Li4  1  0.04707500  0.49867000  0.11304900  1
  Li  Li5  1  0.38005300  0.49932800  0.78045200  1
  Li  Li6  1  0.16538900  0.50079300  0.33255700  1
  Li  Li7  1  0.49586100  0.49957600  0.99858900  1
  Li  Li8  1  0.27967800  0.50035400  0.55366000  1
  Li  Li9  1  0.33362000  0.25050500  0.41605500  1
  Li  Li10  1  0.49953400  0.99993400  0.49981700  1
  Li  Li11  1  0.28135500  0.00077700  0.05235800  1
  Li  Li12  1  0.61941100  0.00020600  0.72151200  1
  Li  Li13  1  0.38336700  0.99956700  0.28062200  1
  Li  Li14  1  0.71929500  0.99912400  0.94595200  1
  Li  Li15  1  0.67001100  0.74968300  0.58378900  1
  Li  Li16  1  0.71952600  0.49919600  0.44570800  1
  Li  Li17  1  0.83593800  0.49949800  0.66731800  1
  Li  Li18  1  0.62046500  0.50084700  0.22183900  1
  Li  Li19  1  0.95200200  0.50112000  0.88718200  1
  Li  Li20  1  0.67068400  0.24960200  0.08375000  1
  Li  Li21  1  0.83225400  0.00134900  0.16662900  1
  Li  Li22  1  0.00073700  0.24991600  0.74988300  1
  Li  Li23  1  0.94996700  0.00014200  0.38646300  1
  Mn  Mn24  1  0.11082000  0.24961300  0.97216600  1
  Mn  Mn25  1  0.11003800  0.74988400  0.47176000  1
  Mn  Mn26  1  0.77885200  0.75113900  0.80693700  1
  Mn  Mn27  1  0.78017200  0.25179200  0.30673400  1
  Mn  Mn28  1  0.88705700  0.24910200  0.52751000  1
  Cr  Cr29  1  0.22851000  0.74982100  0.69320800  1
  Cr  Cr30  1  0.22987100  0.24958000  0.19412000  1
  Cr  Cr31  1  0.43689400  0.24807700  0.63677200  1
  Cr  Cr32  1  0.56240700  0.25166100  0.86186700  1
  Cr  Cr33  1  0.43882800  0.74787500  0.13582900  1
  Cr  Cr34  1  0.56133300  0.75108600  0.36144600  1
  Cr  Cr35  1  0.88918000  0.74977700  0.03095200  1
  O  O36  1  0.00050400  0.86077800  0.92842000  1
  O  O37  1  0.06732000  0.63614300  0.78476200  1
  O  O38  1  0.00321600  0.36145200  0.42864500  1
  O  O39  1  0.13857500  0.36183300  0.64184000  1
  O  O40  1  0.26061300  0.36480600  0.88189200  1
  O  O41  1  0.33045400  0.86175200  0.59548900  1
  O  O42  1  0.06729600  0.13660300  0.28400900  1
  O  O43  1  0.18784800  0.13839100  0.52328200  1
  O  O44  1  0.40055200  0.13689400  0.95054100  1
  O  O45  1  0.13535800  0.86250700  0.14048200  1
  O  O46  1  0.26047200  0.86545400  0.38143800  1
  O  O47  1  0.48361200  0.86305600  0.81152300  1
  O  O48  1  0.33709400  0.13682000  0.73607900  1
  O  O49  1  0.19669100  0.63694300  0.02543000  1
  O  O50  1  0.40082800  0.63700100  0.45061400  1
  O  O51  1  0.51873700  0.63858500  0.69151300  1
  O  O52  1  0.33454700  0.63729900  0.23709900  1
  O  O53  1  0.66638200  0.63830000  0.90482000  1
  O  O54  1  0.32920100  0.36156000  0.09610100  1
  O  O55  1  0.66012600  0.36228500  0.76297600  1
  O  O56  1  0.48327200  0.36263400  0.31142600  1
  O  O57  1  0.59916200  0.36321900  0.54993100  1
  O  O58  1  0.81290400  0.36195100  0.97721700  1
  O  O59  1  0.66219300  0.86190200  0.26276500  1
  O  O60  1  0.52243000  0.13877400  0.19184100  1
  O  O61  1  0.73971000  0.13444300  0.61754400  1
  O  O62  1  0.85868100  0.13892400  0.85755600  1
  O  O63  1  0.59271300  0.86531200  0.05143900  1
  O  O64  1  0.81227000  0.86168400  0.47682100  1
  O  O65  1  0.93203200  0.86346600  0.71526800  1
  O  O66  1  0.66486200  0.13822400  0.40472600  1
  O  O67  1  0.73916900  0.63378500  0.11584800  1
  O  O68  1  0.85895600  0.63865800  0.35694300  1
  O  O69  1  0.99585000  0.63688200  0.56881800  1
  O  O70  1  0.92999600  0.36423100  0.21533200  1
  O  O71  1  0.99688000  0.13661700  0.06950600  1
