# generated using pymatgen
data_Li3Cu5O8
_symmetry_space_group_name_H-M   'P 1'
_cell_length_a   5.88255631
_cell_length_b   5.88255631
_cell_length_c   5.88255648
_cell_angle_alpha   59.97269563
_cell_angle_beta   59.97269563
_cell_angle_gamma   59.97269139
_symmetry_Int_Tables_number   1
_chemical_formula_structural   Li3Cu5O8
_chemical_formula_sum   'Li3 Cu5 O8'
_cell_volume   143.85146745
_cell_formula_units_Z   1
loop_
 _symmetry_equiv_pos_site_id
 _symmetry_equiv_pos_as_xyz
  1  'x, y, z'
loop_
 _atom_site_type_symbol
 _atom_site_label
 _atom_site_symmetry_multiplicity
 _atom_site_fract_x
 _atom_site_fract_y
 _atom_site_fract_z
 _atom_site_occupancy
  Li  Li0  1  0.00000000  0.00000000  0.50000000  1
  Li  Li1  1  0.00000000  0.50000000  0.00000000  1
  Li  Li2  1  0.50000000  0.00000000  0.00000000  1
  Cu  Cu3  1  0.50000000  0.50000000  0.50000000  1
  Cu  Cu4  1  0.00000000  0.00000000  0.00000000  1
  Cu  Cu5  1  0.00000000  0.50000000  0.50000000  1
  Cu  Cu6  1  0.50000000  0.50000000  0.00000000  1
  Cu  Cu7  1  0.50000000  0.00000000  0.50000000  1
  O  O8  1  0.74316300  0.74316300  0.74316300  1
  O  O9  1  0.73820400  0.25002400  0.25002400  1
  O  O10  1  0.25002400  0.25002400  0.73820400  1
  O  O11  1  0.25002400  0.73820400  0.25002400  1
  O  O12  1  0.74997600  0.26179600  0.74997600  1
  O  O13  1  0.74997600  0.74997600  0.26179600  1
  O  O14  1  0.26179600  0.74997600  0.74997600  1
  O  O15  1  0.25683700  0.25683700  0.25683700  1
