# generated using pymatgen
data_Li4Mn3Co2Te3O16
_symmetry_space_group_name_H-M   'P 1'
_cell_length_a   6.26057400
_cell_length_b   6.27556070
_cell_length_c   9.83400590
_cell_angle_alpha   89.09313725
_cell_angle_beta   88.74404241
_cell_angle_gamma   60.10706734
_symmetry_Int_Tables_number   1
_chemical_formula_structural   Li4Mn3Co2Te3O16
_chemical_formula_sum   'Li4 Mn3 Co2 Te3 O16'
_cell_volume   334.87600268
_cell_formula_units_Z   1
loop_
 _symmetry_equiv_pos_site_id
 _symmetry_equiv_pos_as_xyz
  1  'x, y, z'
loop_
 _atom_site_type_symbol
 _atom_site_label
 _atom_site_symmetry_multiplicity
 _atom_site_fract_x
 _atom_site_fract_y
 _atom_site_fract_z
 _atom_site_occupancy
  Li  Li0  1  0.65937500  0.65623600  0.12440200  1
  Li  Li1  1  0.98960500  0.99445000  0.00501700  1
  Li  Li2  1  0.98478700  0.00661100  0.49547200  1
  Li  Li3  1  0.33887500  0.29851700  0.60485500  1
  Mn  Mn4  1  0.84012900  0.82381600  0.78447300  1
  Mn  Mn5  1  0.66106800  0.16942400  0.28453700  1
  Mn  Mn6  1  0.16829600  0.66736800  0.28497700  1
  Co  Co7  1  0.68992300  0.67513900  0.49696100  1
  Co  Co8  1  0.33083200  0.36339300  0.01627500  1
  Te  Te9  1  0.83497400  0.33372800  0.78548400  1
  Te  Te10  1  0.34696700  0.82506900  0.78246600  1
  Te  Te11  1  0.16851900  0.17479900  0.28476800  1
  O  O12  1  0.86797800  0.32415200  0.39983900  1
  O  O13  1  0.53546800  0.49172800  0.66664900  1
  O  O14  1  0.67739700  0.63479400  0.90083100  1
  O  O15  1  0.97989800  0.03163200  0.67842800  1
  O  O16  1  0.99439000  0.03785200  0.18566000  1
  O  O17  1  0.30763600  0.85926400  0.39028700  1
  O  O18  1  0.97347400  0.48312100  0.66595800  1
  O  O19  1  0.53103400  0.94112500  0.64782300  1
  O  O20  1  0.12344200  0.19230500  0.90239400  1
  O  O21  1  0.84740700  0.85167600  0.38600200  1
  O  O22  1  0.45308900  0.03839300  0.15907500  1
  O  O23  1  0.03415200  0.48205600  0.17565100  1
  O  O24  1  0.33793600  0.30234900  0.39706900  1
  O  O25  1  0.68422500  0.18379900  0.89839700  1
  O  O26  1  0.47641800  0.47539100  0.17891300  1
  O  O27  1  0.16300400  0.68151900  0.90949800  1
