# generated using pymatgen
data_Li2BiBO4
_symmetry_space_group_name_H-M   'P 1'
_cell_length_a   4.93924600
_cell_length_b   6.67169900
_cell_length_c   10.50478800
_cell_angle_alpha   90.00000000
_cell_angle_beta   90.00000000
_cell_angle_gamma   90.00000000
_symmetry_Int_Tables_number   1
_chemical_formula_structural   Li2BiBO4
_chemical_formula_sum   'Li8 Bi4 B4 O16'
_cell_volume   346.16598703
_cell_formula_units_Z   4
loop_
 _symmetry_equiv_pos_site_id
 _symmetry_equiv_pos_as_xyz
  1  'x, y, z'
loop_
 _atom_site_type_symbol
 _atom_site_label
 _atom_site_symmetry_multiplicity
 _atom_site_fract_x
 _atom_site_fract_y
 _atom_site_fract_z
 _atom_site_occupancy
  Li  Li0  1  0.18347900  0.99916600  0.58279600  1
  Li  Li1  1  0.31652100  0.99916600  0.08279600  1
  Li  Li2  1  0.31652100  0.50083400  0.08279600  1
  Li  Li3  1  0.18347900  0.50083400  0.58279600  1
  Li  Li4  1  0.68347900  0.49916600  0.91720400  1
  Li  Li5  1  0.81652100  0.49916600  0.41720400  1
  Li  Li6  1  0.81652100  0.00083400  0.41720400  1
  Li  Li7  1  0.68347900  0.00083400  0.91720400  1
  Bi  Bi8  1  0.19397100  0.25000000  0.82913100  1
  Bi  Bi9  1  0.30602900  0.25000000  0.32913100  1
  Bi  Bi10  1  0.69397100  0.75000000  0.67086900  1
  Bi  Bi11  1  0.80602900  0.75000000  0.17086900  1
  B  B12  1  0.67103500  0.25000000  0.65439600  1
  B  B13  1  0.82896500  0.25000000  0.15439600  1
  B  B14  1  0.32896500  0.75000000  0.34560400  1
  B  B15  1  0.17103500  0.75000000  0.84560400  1
  O  O16  1  0.79523300  0.07017600  0.59739900  1
  O  O17  1  0.70476700  0.07017600  0.09739900  1
  O  O18  1  0.36501000  0.25000000  0.63356200  1
  O  O19  1  0.79234400  0.25000000  0.30100700  1
  O  O20  1  0.70765600  0.25000000  0.80100700  1
  O  O21  1  0.13499000  0.25000000  0.13356200  1
  O  O22  1  0.70476700  0.42982400  0.09739900  1
  O  O23  1  0.79523300  0.42982400  0.59739900  1
  O  O24  1  0.20476700  0.57017600  0.40260100  1
  O  O25  1  0.29523300  0.57017600  0.90260100  1
  O  O26  1  0.63499000  0.75000000  0.36643800  1
  O  O27  1  0.86501000  0.75000000  0.86643800  1
  O  O28  1  0.20765600  0.75000000  0.69899300  1
  O  O29  1  0.29234400  0.75000000  0.19899300  1
  O  O30  1  0.20476700  0.92982400  0.40260100  1
  O  O31  1  0.29523300  0.92982400  0.90260100  1
