# generated using pymatgen
data_LiVFeP2(HO5)2
_symmetry_space_group_name_H-M   'P 1'
_cell_length_a   5.20947600
_cell_length_b   7.42053571
_cell_length_c   10.24889442
_cell_angle_alpha   103.50386803
_cell_angle_beta   100.09604749
_cell_angle_gamma   105.17855670
_symmetry_Int_Tables_number   1
_chemical_formula_structural   LiVFeP2(HO5)2
_chemical_formula_sum   'Li2 V2 Fe2 P4 H4 O20'
_cell_volume   359.80602303
_cell_formula_units_Z   2
loop_
 _symmetry_equiv_pos_site_id
 _symmetry_equiv_pos_as_xyz
  1  'x, y, z'
loop_
 _atom_site_type_symbol
 _atom_site_label
 _atom_site_symmetry_multiplicity
 _atom_site_fract_x
 _atom_site_fract_y
 _atom_site_fract_z
 _atom_site_occupancy
  Li  Li0  1  0.35234400  0.12604300  0.28064100  1
  Li  Li1  1  0.64765600  0.87395700  0.71935900  1
  V  V2  1  0.74401000  0.74379100  0.24844100  1
  V  V3  1  0.25599000  0.25620900  0.75155900  1
  Fe  Fe4  1  0.00000000  0.00000000  0.00000000  1
  Fe  Fe5  1  0.50000000  0.50000000  0.50000000  1
  P  P6  1  0.61422300  0.28816900  0.06495700  1
  P  P7  1  0.88878900  0.20519600  0.43637000  1
  P  P8  1  0.11121100  0.79480400  0.56363000  1
  P  P9  1  0.38577700  0.71183100  0.93504300  1
  H  H10  1  0.14739200  0.79373900  0.14382600  1
  H  H11  1  0.33509800  0.68720800  0.34658500  1
  H  H12  1  0.66490200  0.31279200  0.65341500  1
  H  H13  1  0.85260800  0.20626100  0.85617400  1
  O  O14  1  0.79125400  0.15790700  0.08490200  1
  O  O15  1  0.34802000  0.21983800  0.11059800  1
  O  O16  1  0.44662400  0.71572400  0.09177300  1
  O  O17  1  0.78179800  0.50296400  0.15354600  1
  O  O18  1  0.70389800  0.99818200  0.34166700  1
  O  O19  1  0.03548200  0.88065500  0.16537400  1
  O  O20  1  0.16181500  0.26635800  0.39571600  1
  O  O21  1  0.48210900  0.62619700  0.34226200  1
  O  O22  1  0.71284900  0.33876100  0.41402500  1
  O  O23  1  0.05724700  0.79037600  0.40733100  1
  O  O24  1  0.94275300  0.20962400  0.59266900  1
  O  O25  1  0.28715100  0.66123900  0.58597500  1
  O  O26  1  0.51789100  0.37380300  0.65773800  1
  O  O27  1  0.83818500  0.73364200  0.60428400  1
  O  O28  1  0.96451800  0.11934500  0.83462600  1
  O  O29  1  0.29610200  0.00181800  0.65833300  1
  O  O30  1  0.21820200  0.49703600  0.84645400  1
  O  O31  1  0.55337600  0.28427600  0.90822700  1
  O  O32  1  0.65198000  0.78016200  0.88940200  1
  O  O33  1  0.20874600  0.84209300  0.91509800  1
