# generated using pymatgen
data_LiCr4(PO4)3
_symmetry_space_group_name_H-M   'P 1'
_cell_length_a   10.72749351
_cell_length_b   10.72749351
_cell_length_c   10.72749351
_cell_angle_alpha   142.67533324
_cell_angle_beta   142.67533324
_cell_angle_gamma   53.81282396
_symmetry_Int_Tables_number   1
_chemical_formula_structural   LiCr4(PO4)3
_chemical_formula_sum   'Li2 Cr8 P6 O24'
_cell_volume   450.88915038
_cell_formula_units_Z   2
loop_
 _symmetry_equiv_pos_site_id
 _symmetry_equiv_pos_as_xyz
  1  'x, y, z'
loop_
 _atom_site_type_symbol
 _atom_site_label
 _atom_site_symmetry_multiplicity
 _atom_site_fract_x
 _atom_site_fract_y
 _atom_site_fract_z
 _atom_site_occupancy
  Li  Li0  1  0.25000000  0.75000000  0.50000000  1
  Li  Li1  1  0.50000000  0.50000000  0.00000000  1
  Cr  Cr2  1  0.37500000  0.37241700  0.49741700  1
  Cr  Cr3  1  0.77529800  0.77529800  0.00000000  1
  Cr  Cr4  1  0.62758300  0.12500000  0.00258300  1
  Cr  Cr5  1  0.87500000  0.87758300  0.50258300  1
  Cr  Cr6  1  0.22470200  0.22470200  0.00000000  1
  Cr  Cr7  1  0.52529800  0.02529800  0.50000000  1
  Cr  Cr8  1  0.97470200  0.47470200  0.50000000  1
  Cr  Cr9  1  0.12241700  0.62500000  0.99741700  1
  P  P10  1  0.00000000  0.00000000  0.00000000  1
  P  P11  1  0.87500000  0.48086700  0.10586700  1
  P  P12  1  0.37500000  0.76913300  0.89413300  1
  P  P13  1  0.23086700  0.12500000  0.60586700  1
  P  P14  1  0.75000000  0.25000000  0.50000000  1
  P  P15  1  0.51913300  0.62500000  0.39413300  1
  O  O16  1  0.23126400  0.09289900  0.24049900  1
  O  O17  1  0.67485200  0.34188000  0.80680000  1
  O  O18  1  0.07514800  0.38194800  0.16702800  1
  O  O19  1  0.61805200  0.78508000  0.69320000  1
  O  O20  1  0.27874800  0.55985500  0.71572100  1
  O  O21  1  0.47125200  0.68697400  0.78110800  1
  O  O22  1  0.90586600  0.69014500  0.21889200  1
  O  O23  1  0.84413400  0.56302600  0.28427900  1
  O  O24  1  0.09188000  0.92485200  0.30680000  1
  O  O25  1  0.90710100  0.14760000  0.13836500  1
  O  O26  1  0.44014500  0.15586600  0.71889200  1
  O  O27  1  0.21492000  0.90812000  0.83297200  1
  O  O28  1  0.53508000  0.86805200  0.19320000  1
  O  O29  1  0.31302600  0.09413400  0.78427900  1
  O  O30  1  0.74076600  0.10240000  0.25950100  1
  O  O31  1  0.89760000  0.15710100  0.63836500  1
  O  O32  1  0.85240000  0.99076600  0.75950100  1
  O  O33  1  0.13194800  0.32514800  0.66702800  1
  O  O34  1  0.65812000  0.46492000  0.33297200  1
  O  O35  1  0.51873600  0.25923400  0.36163500  1
  O  O36  1  0.84289900  0.48126400  0.74049900  1
  O  O37  1  0.30985500  0.52874800  0.21572100  1
  O  O38  1  0.43697400  0.72125200  0.28110800  1
  O  O39  1  0.00923400  0.76873600  0.86163500  1
