# generated using pymatgen
data_Li9Mn3(WO4)7
_symmetry_space_group_name_H-M   'P 1'
_cell_length_a   8.59095056
_cell_length_b   8.59095056
_cell_length_c   8.59095050
_cell_angle_alpha   89.95853206
_cell_angle_beta   89.95853206
_cell_angle_gamma   89.95853763
_symmetry_Int_Tables_number   1
_chemical_formula_structural   Li9Mn3(WO4)7
_chemical_formula_sum   'Li9 Mn3 W7 O28'
_cell_volume   634.04971973
_cell_formula_units_Z   1
loop_
 _symmetry_equiv_pos_site_id
 _symmetry_equiv_pos_as_xyz
  1  'x, y, z'
loop_
 _atom_site_type_symbol
 _atom_site_label
 _atom_site_symmetry_multiplicity
 _atom_site_fract_x
 _atom_site_fract_y
 _atom_site_fract_z
 _atom_site_occupancy
  Li  Li0  1  0.90387800  0.35977200  0.64362100  1
  Li  Li1  1  0.90387800  0.64362100  0.35977200  1
  Li  Li2  1  0.64362100  0.35977200  0.90387800  1
  Li  Li3  1  0.64362100  0.90387800  0.35977200  1
  Li  Li4  1  0.35407400  0.09314500  0.35407400  1
  Li  Li5  1  0.35407400  0.35407400  0.09314500  1
  Li  Li6  1  0.35977200  0.64362100  0.90387800  1
  Li  Li7  1  0.35977200  0.90387800  0.64362100  1
  Li  Li8  1  0.09314500  0.35407400  0.35407400  1
  Mn  Mn9  1  0.64045600  0.09463700  0.64045600  1
  Mn  Mn10  1  0.64045600  0.64045600  0.09463700  1
  Mn  Mn11  1  0.09463700  0.64045600  0.64045600  1
  W  W12  1  0.64114300  0.35852100  0.35852100  1
  W  W13  1  0.64196100  0.64196100  0.64196100  1
  W  W14  1  0.35852100  0.35852100  0.64114300  1
  W  W15  1  0.35852100  0.64114300  0.35852100  1
  W  W16  1  0.00328900  0.00328900  0.49656800  1
  W  W17  1  0.00328900  0.49656800  0.00328900  1
  W  W18  1  0.49656800  0.00328900  0.00328900  1
  O  O19  1  0.84980900  0.38235200  0.38235200  1
  O  O20  1  0.85843300  0.61202600  0.61202600  1
  O  O21  1  0.88117700  0.12764000  0.61947600  1
  O  O22  1  0.88117700  0.61947600  0.12764000  1
  O  O23  1  0.87988200  0.37967100  0.87988200  1
  O  O24  1  0.87988200  0.87988200  0.37967100  1
  O  O25  1  0.61947600  0.12764000  0.88117700  1
  O  O26  1  0.61947600  0.88117700  0.12764000  1
  O  O27  1  0.60822300  0.38561500  0.60822300  1
  O  O28  1  0.60822300  0.60822300  0.38561500  1
  O  O29  1  0.61534500  0.14675600  0.38523100  1
  O  O30  1  0.61534500  0.38523100  0.14675600  1
  O  O31  1  0.61202600  0.61202600  0.85843300  1
  O  O32  1  0.61202600  0.85843300  0.61202600  1
  O  O33  1  0.38523100  0.14675600  0.61534500  1
  O  O34  1  0.38523100  0.61534500  0.14675600  1
  O  O35  1  0.38235200  0.38235200  0.84980900  1
  O  O36  1  0.38235200  0.84980900  0.38235200  1
  O  O37  1  0.39245900  0.39245900  0.39245900  1
  O  O38  1  0.38561500  0.60822300  0.60822300  1
  O  O39  1  0.37533900  0.12389200  0.12389200  1
  O  O40  1  0.37967100  0.87988200  0.87988200  1
  O  O41  1  0.12389200  0.12389200  0.37533900  1
  O  O42  1  0.12389200  0.37533900  0.12389200  1
  O  O43  1  0.12764000  0.61947600  0.88117700  1
  O  O44  1  0.12764000  0.88117700  0.61947600  1
  O  O45  1  0.14675600  0.38523100  0.61534500  1
  O  O46  1  0.14675600  0.61534500  0.38523100  1
