# generated using pymatgen
data_LiFeF5
_symmetry_space_group_name_H-M   'P 1'
_cell_length_a   5.21425385
_cell_length_b   5.21425385
_cell_length_c   7.71948960
_cell_angle_alpha   67.75763238
_cell_angle_beta   67.75763238
_cell_angle_gamma   71.20935363
_symmetry_Int_Tables_number   1
_chemical_formula_structural   LiFeF5
_chemical_formula_sum   'Li2 Fe2 F10'
_cell_volume   175.84796846
_cell_formula_units_Z   2
loop_
 _symmetry_equiv_pos_site_id
 _symmetry_equiv_pos_as_xyz
  1  'x, y, z'
loop_
 _atom_site_type_symbol
 _atom_site_label
 _atom_site_symmetry_multiplicity
 _atom_site_fract_x
 _atom_site_fract_y
 _atom_site_fract_z
 _atom_site_occupancy
  Li  Li0  1  0.50209600  0.49790400  0.25000000  1
  Li  Li1  1  0.49790400  0.50209600  0.75000000  1
  Fe  Fe2  1  0.00000000  0.00000000  0.00000000  1
  Fe  Fe3  1  0.00000000  0.00000000  0.50000000  1
  F  F4  1  0.78724500  0.73545900  0.12664100  1
  F  F5  1  0.26989900  0.69080800  0.45691800  1
  F  F6  1  0.73545900  0.78724500  0.62664100  1
  F  F7  1  0.90420600  0.09579400  0.25000000  1
  F  F8  1  0.30919200  0.73010100  0.04308200  1
  F  F9  1  0.69080800  0.26989900  0.95691800  1
  F  F10  1  0.09579400  0.90420600  0.75000000  1
  F  F11  1  0.26454100  0.21275500  0.37335900  1
  F  F12  1  0.73010100  0.30919200  0.54308200  1
  F  F13  1  0.21275500  0.26454100  0.87335900  1
