# generated using pymatgen
data_LiMnNbO4
_symmetry_space_group_name_H-M   'P 1'
_cell_length_a   6.22740400
_cell_length_b   9.08416972
_cell_length_c   6.18143534
_cell_angle_alpha   90.00022404
_cell_angle_beta   89.99983561
_cell_angle_gamma   90.00012977
_symmetry_Int_Tables_number   1
_chemical_formula_structural   LiMnNbO4
_chemical_formula_sum   'Li4 Mn4 Nb4 O16'
_cell_volume   349.68871023
_cell_formula_units_Z   4
loop_
 _symmetry_equiv_pos_site_id
 _symmetry_equiv_pos_as_xyz
  1  'x, y, z'
loop_
 _atom_site_type_symbol
 _atom_site_label
 _atom_site_symmetry_multiplicity
 _atom_site_fract_x
 _atom_site_fract_y
 _atom_site_fract_z
 _atom_site_occupancy
  Li  Li0  1  0.24999600  0.14736800  0.00000300  1
  Li  Li1  1  0.74999300  0.64734600  0.49999700  1
  Li  Li2  1  0.74999300  0.85262100  0.00000000  1
  Li  Li3  1  0.24999600  0.35264100  0.50000300  1
  Mn  Mn4  1  0.25008100  0.75004000  0.74978500  1
  Mn  Mn5  1  0.75010000  0.25008800  0.74998000  1
  Mn  Mn6  1  0.75001800  0.24999800  0.25019200  1
  Mn  Mn7  1  0.24988400  0.74992900  0.25005000  1
  Nb  Nb8  1  0.49999900  0.49999900  0.00000200  1
  Nb  Nb9  1  0.99999600  0.00000000  0.49999800  1
  Nb  Nb10  1  0.99999400  0.50000400  0.99999500  1
  Nb  Nb11  1  0.49999700  0.00000500  0.49999200  1
  O  O12  1  0.51386100  0.28159800  0.00003400  1
  O  O13  1  0.01379400  0.78159900  0.49997500  1
  O  O14  1  0.98614500  0.28160200  0.00004400  1
  O  O15  1  0.48619900  0.78159900  0.49995000  1
  O  O16  1  0.01386100  0.71839700  0.99994800  1
  O  O17  1  0.51380900  0.21839600  0.50003900  1
  O  O18  1  0.48612900  0.71839600  0.99997500  1
  O  O19  1  0.98619300  0.21840000  0.50003300  1
  O  O20  1  0.74999500  0.50263800  0.21898500  1
  O  O21  1  0.24999700  0.00264300  0.71896600  1
  O  O22  1  0.74999400  0.50264400  0.78101800  1
  O  O23  1  0.24999500  0.00264200  0.28104200  1
  O  O24  1  0.24999800  0.49735600  0.78102300  1
  O  O25  1  0.74999500  0.99735100  0.28103300  1
  O  O26  1  0.24999400  0.49734900  0.21898800  1
  O  O27  1  0.74999200  0.99735200  0.71895500  1
