# generated using pymatgen
data_LiTi(PO3)4
_symmetry_space_group_name_H-M   'P 1'
_cell_length_a   7.62334081
_cell_length_b   7.62334081
_cell_length_c   17.13718200
_cell_angle_alpha   90.00000000
_cell_angle_beta   90.00000000
_cell_angle_gamma   100.87331976
_symmetry_Int_Tables_number   1
_chemical_formula_structural   LiTi(PO3)4
_chemical_formula_sum   'Li4 Ti4 P16 O48'
_cell_volume   978.05258166
_cell_formula_units_Z   4
loop_
 _symmetry_equiv_pos_site_id
 _symmetry_equiv_pos_as_xyz
  1  'x, y, z'
loop_
 _atom_site_type_symbol
 _atom_site_label
 _atom_site_symmetry_multiplicity
 _atom_site_fract_x
 _atom_site_fract_y
 _atom_site_fract_z
 _atom_site_occupancy
  Li  Li0  1  0.19811400  0.09340000  0.63776300  1
  Li  Li1  1  0.90660000  0.80188600  0.86223700  1
  Li  Li2  1  0.80188600  0.90660000  0.13776300  1
  Li  Li3  1  0.09340000  0.19811400  0.36223700  1
  Ti  Ti4  1  0.58161200  0.97096800  0.86928500  1
  Ti  Ti5  1  0.02903200  0.41838800  0.63071500  1
  Ti  Ti6  1  0.41838800  0.02903200  0.36928500  1
  Ti  Ti7  1  0.97096800  0.58161200  0.13071500  1
  P  P8  1  0.03523700  0.75935900  0.34264400  1
  P  P9  1  0.24064100  0.96476300  0.15735600  1
  P  P10  1  0.30788700  0.78139100  0.01223200  1
  P  P11  1  0.21860900  0.69211300  0.48776800  1
  P  P12  1  0.37601000  0.62399000  0.75000000  1
  P  P13  1  0.25467400  0.33890400  0.19075700  1
  P  P14  1  0.66109600  0.74532600  0.30924300  1
  P  P15  1  0.35326200  0.35326200  0.50000000  1
  P  P16  1  0.64673800  0.64673800  0.00000000  1
  P  P17  1  0.33890400  0.25467400  0.80924300  1
  P  P18  1  0.74532600  0.66109600  0.69075700  1
  P  P19  1  0.62399000  0.37601000  0.25000000  1
  P  P20  1  0.78139100  0.30788700  0.98776800  1
  P  P21  1  0.69211300  0.21860900  0.51223200  1
  P  P22  1  0.75935900  0.03523700  0.65735600  1
  P  P23  1  0.96476300  0.24064100  0.84264400  1
  O  O24  1  0.05054400  0.85982000  0.14578800  1
  O  O25  1  0.14018000  0.94945600  0.35421200  1
  O  O26  1  0.34207300  0.95853100  0.23024900  1
  O  O27  1  0.04146900  0.65792700  0.26975100  1
  O  O28  1  0.12028200  0.67984700  0.01874300  1
  O  O29  1  0.32015300  0.87971800  0.48125700  1
  O  O30  1  0.09009600  0.63920500  0.41337600  1
  O  O31  1  0.36079500  0.90990400  0.08662400  1
  O  O32  1  0.10998300  0.63888900  0.56005300  1
  O  O33  1  0.36111100  0.89001700  0.93994700  1
  O  O34  1  0.41411800  0.79415800  0.79687600  1
  O  O35  1  0.20584200  0.58588200  0.70312400  1
  O  O36  1  0.51323300  0.80544400  0.35396700  1
  O  O37  1  0.19455600  0.48676700  0.14603300  1
  O  O38  1  0.44396600  0.64200900  0.02290500  1
  O  O39  1  0.35799100  0.55603400  0.47709500  1
  O  O40  1  0.77906500  0.83366400  0.63351100  1
  O  O41  1  0.16633600  0.22093500  0.86648900  1
  O  O42  1  0.52965600  0.61065300  0.68811100  1
  O  O43  1  0.38934700  0.47034400  0.81188900  1
  O  O44  1  0.23749000  0.30552200  0.57166500  1
  O  O45  1  0.69447800  0.76251000  0.92833500  1
  O  O46  1  0.18309100  0.29647600  0.26996000  1
  O  O47  1  0.70352400  0.81690900  0.23004000  1
  O  O48  1  0.29647600  0.18309100  0.73004000  1
  O  O49  1  0.81690900  0.70352400  0.76996000  1
  O  O50  1  0.30552200  0.23749000  0.42833500  1
  O  O51  1  0.76251000  0.69447800  0.07166500  1
  O  O52  1  0.61065300  0.52965600  0.31188900  1
  O  O53  1  0.47034400  0.38934700  0.18811100  1
  O  O54  1  0.22093500  0.16633600  0.13351100  1
  O  O55  1  0.83366400  0.77906500  0.36648900  1
  O  O56  1  0.64200900  0.44396600  0.97709500  1
  O  O57  1  0.55603400  0.35799100  0.52290500  1
  O  O58  1  0.80544400  0.51323300  0.64603300  1
  O  O59  1  0.48676700  0.19455600  0.85396700  1
  O  O60  1  0.79415800  0.41411800  0.20312400  1
  O  O61  1  0.58588200  0.20584200  0.29687600  1
  O  O62  1  0.63888900  0.10998300  0.43994700  1
  O  O63  1  0.89001700  0.36111100  0.06005300  1
  O  O64  1  0.63920500  0.09009600  0.58662400  1
  O  O65  1  0.90990400  0.36079500  0.91337600  1
  O  O66  1  0.67984700  0.12028200  0.98125700  1
  O  O67  1  0.87971800  0.32015300  0.51874300  1
  O  O68  1  0.65792700  0.04146900  0.73024900  1
  O  O69  1  0.95853100  0.34207300  0.76975100  1
  O  O70  1  0.94945600  0.14018000  0.64578800  1
  O  O71  1  0.85982000  0.05054400  0.85421200  1
