# generated using pymatgen
data_Li7BiO6
_symmetry_space_group_name_H-M   'P 1'
_cell_length_a   6.08299079
_cell_length_b   6.08299079
_cell_length_c   6.08299036
_cell_angle_alpha   56.00751180
_cell_angle_beta   56.00751180
_cell_angle_gamma   56.00750609
_symmetry_Int_Tables_number   1
_chemical_formula_structural   Li7BiO6
_chemical_formula_sum   'Li7 Bi1 O6'
_cell_volume   144.43994779
_cell_formula_units_Z   1
loop_
 _symmetry_equiv_pos_site_id
 _symmetry_equiv_pos_as_xyz
  1  'x, y, z'
loop_
 _atom_site_type_symbol
 _atom_site_label
 _atom_site_symmetry_multiplicity
 _atom_site_fract_x
 _atom_site_fract_y
 _atom_site_fract_z
 _atom_site_occupancy
  Li  Li0  1  0.26890100  0.50202900  0.87850400  1
  Li  Li1  1  0.06634700  0.77207700  0.50891000  1
  Li  Li2  1  0.50891000  0.06634700  0.77207700  1
  Li  Li3  1  0.34959300  0.34959300  0.34959300  1
  Li  Li4  1  0.87850400  0.26890100  0.50202900  1
  Li  Li5  1  0.50202900  0.87850400  0.26890100  1
  Li  Li6  1  0.77207700  0.50891000  0.06634700  1
  Bi  Bi7  1  0.99781900  0.99781900  0.99781900  1
  O  O8  1  0.12322500  0.36698300  0.75833800  1
  O  O9  1  0.20256200  0.92351600  0.61138000  1
  O  O10  1  0.61138000  0.20256200  0.92351600  1
  O  O11  1  0.36698300  0.75833800  0.12322500  1
  O  O12  1  0.75833800  0.12322500  0.36698300  1
  O  O13  1  0.92351600  0.61138000  0.20256200  1
