# generated using pymatgen
data_Li17Cr2O12
_symmetry_space_group_name_H-M   'P 1'
_cell_length_a   5.47705100
_cell_length_b   5.93237923
_cell_length_c   8.07882831
_cell_angle_alpha   96.64678595
_cell_angle_beta   90.02954565
_cell_angle_gamma   90.29982883
_symmetry_Int_Tables_number   1
_chemical_formula_structural   Li17Cr2O12
_chemical_formula_sum   'Li17 Cr2 O12'
_cell_volume   260.72874608
_cell_formula_units_Z   1
loop_
 _symmetry_equiv_pos_site_id
 _symmetry_equiv_pos_as_xyz
  1  'x, y, z'
loop_
 _atom_site_type_symbol
 _atom_site_label
 _atom_site_symmetry_multiplicity
 _atom_site_fract_x
 _atom_site_fract_y
 _atom_site_fract_z
 _atom_site_occupancy
  Li  Li0  1  0.99424300  0.32085400  0.84143200  1
  Li  Li1  1  0.86472200  0.72960400  0.37792300  1
  Li  Li2  1  0.82307800  0.42185200  0.07908700  1
  Li  Li3  1  0.79760800  0.04342900  0.69866800  1
  Li  Li4  1  0.67048500  0.08534600  0.42873100  1
  Li  Li5  1  0.65444000  0.45896200  0.78967200  1
  Li  Li6  1  0.64633800  0.77674100  0.12891900  1
  Li  Li7  1  0.48690600  0.17467900  0.15704800  1
  Li  Li8  1  0.51436100  0.83087100  0.85108100  1
  Li  Li9  1  0.37385300  0.21753600  0.87534300  1
  Li  Li10  1  0.32867600  0.91431900  0.57012400  1
  Li  Li11  1  0.30900700  0.55856000  0.20444200  1
  Li  Li12  1  0.19655100  0.93824600  0.29280200  1
  Li  Li13  1  0.18835700  0.60680800  0.94343000  1
  Li  Li14  1  0.14508200  0.26311600  0.60181800  1
  Li  Li15  1  0.99952400  0.31698700  0.33665400  1
  Li  Li16  1  0.00759500  0.67253100  0.66220200  1
  Cr  Cr17  1  0.49732500  0.50099700  0.49582700  1
  Cr  Cr18  1  0.00217100  0.99560200  0.00352500  1
  O  O19  1  0.86173300  0.99847200  0.23927100  1
  O  O20  1  0.84356200  0.67710400  0.92751900  1
  O  O21  1  0.80110300  0.33752900  0.58142800  1
  O  O22  1  0.70111500  0.16789100  0.92123100  1
  O  O23  1  0.65118300  0.79366200  0.57249100  1
  O  O24  1  0.64300300  0.50323800  0.27498500  1
  O  O25  1  0.34813900  0.19833500  0.42141100  1
  O  O26  1  0.33064500  0.49520700  0.72943900  1
  O  O27  1  0.32171900  0.84958000  0.07574400  1
  O  O28  1  0.19845900  0.65677500  0.42545400  1
  O  O29  1  0.15871900  0.31804800  0.06144000  1
  O  O30  1  0.13782600  0.01596400  0.76055200  1
