# generated using pymatgen
data_Li6Mn11(OF12)2
_symmetry_space_group_name_H-M   'P 1'
_cell_length_a   8.38560300
_cell_length_b   8.54034249
_cell_length_c   9.02314298
_cell_angle_alpha   109.21672315
_cell_angle_beta   107.09843281
_cell_angle_gamma   90.18284300
_symmetry_Int_Tables_number   1
_chemical_formula_structural   Li6Mn11(OF12)2
_chemical_formula_sum   'Li6 Mn11 O2 F24'
_cell_volume   579.63633693
_cell_formula_units_Z   1
loop_
 _symmetry_equiv_pos_site_id
 _symmetry_equiv_pos_as_xyz
  1  'x, y, z'
loop_
 _atom_site_type_symbol
 _atom_site_label
 _atom_site_symmetry_multiplicity
 _atom_site_fract_x
 _atom_site_fract_y
 _atom_site_fract_z
 _atom_site_occupancy
  Li  Li0  1  0.41180200  0.09427400  0.23748000  1
  Li  Li1  1  0.08579700  0.21067000  0.45180200  1
  Li  Li2  1  0.29385500  0.57342800  0.93639000  1
  Li  Li3  1  0.70403600  0.38349600  0.08479400  1
  Li  Li4  1  0.92594100  0.80253900  0.55107300  1
  Li  Li5  1  0.58107500  0.89745800  0.74180800  1
  Mn  Mn6  1  0.28538100  0.11244700  0.85157400  1
  Mn  Mn7  1  0.86999600  0.21716200  0.74039300  1
  Mn  Mn8  1  0.00832700  0.00050000  0.99219700  1
  Mn  Mn9  1  0.48427100  0.28412300  0.67289700  1
  Mn  Mn10  1  0.70760800  0.39140200  0.47424300  1
  Mn  Mn11  1  0.15192400  0.35577400  0.15383000  1
  Mn  Mn12  1  0.86861000  0.61277800  0.85165500  1
  Mn  Mn13  1  0.28197500  0.63016700  0.57337500  1
  Mn  Mn14  1  0.53007100  0.72071100  0.33360800  1
  Mn  Mn15  1  0.12613800  0.79776700  0.25328200  1
  Mn  Mn16  1  0.72220400  0.88233800  0.15686500  1
  O  O17  1  0.23318100  0.13360200  0.06496200  1
  O  O18  1  0.71853100  0.40404700  0.72081000  1
  F  F19  1  0.99645200  0.00162900  0.74544300  1
  F  F20  1  0.63559600  0.06913500  0.67692500  1
  F  F21  1  0.62109500  0.10063500  0.19904900  1
  F  F22  1  0.24828000  0.14764000  0.61890100  1
  F  F23  1  0.89616800  0.23434700  0.51689200  1
  F  F24  1  0.49685000  0.28840800  0.92059400  1
  F  F25  1  0.11078500  0.39280400  0.90753300  1
  F  F26  1  0.45465300  0.29354200  0.42734800  1
  F  F27  1  0.89011000  0.24939300  0.02352000  1
  F  F28  1  0.12861200  0.40423000  0.39176300  1
  F  F29  1  0.65457900  0.49202000  0.28579500  1
  F  F30  1  0.34290500  0.50460500  0.73458600  1
  F  F31  1  0.88835100  0.62700300  0.62512200  1
  F  F32  1  0.10712000  0.75501700  0.98641600  1
  F  F33  1  0.27732900  0.59229200  0.24244700  1
  F  F34  1  0.51980900  0.69122100  0.55501100  1
  F  F35  1  0.87274700  0.66028500  0.10819400  1
  F  F36  1  0.76590000  0.86051400  0.91388700  1
  F  F37  1  0.50693900  0.70590800  0.08617200  1
  F  F38  1  0.10561600  0.76202000  0.46421300  1
  F  F39  1  0.75927000  0.85862200  0.39191400  1
  F  F40  1  0.36917000  0.87573300  0.77407900  1
  F  F41  1  0.36681600  0.92000700  0.32250300  1
  F  F42  1  0.99412700  0.00830700  0.23865900  1
