# generated using pymatgen
data_Li2Mn3(BO3)3
_symmetry_space_group_name_H-M   'P 1'
_cell_length_a   5.25880700
_cell_length_b   6.13532178
_cell_length_c   12.86381984
_cell_angle_alpha   94.09848726
_cell_angle_beta   89.24197404
_cell_angle_gamma   115.29589922
_symmetry_Int_Tables_number   1
_chemical_formula_structural   Li2Mn3(BO3)3
_chemical_formula_sum   'Li4 Mn6 B6 O18'
_cell_volume   374.21848090
_cell_formula_units_Z   2
loop_
 _symmetry_equiv_pos_site_id
 _symmetry_equiv_pos_as_xyz
  1  'x, y, z'
loop_
 _atom_site_type_symbol
 _atom_site_label
 _atom_site_symmetry_multiplicity
 _atom_site_fract_x
 _atom_site_fract_y
 _atom_site_fract_z
 _atom_site_occupancy
  Li  Li0  1  0.03502900  0.89214200  0.07861300  1
  Li  Li1  1  0.96497100  0.10785800  0.92138700  1
  Li  Li2  1  0.71188100  0.24348300  0.40502900  1
  Li  Li3  1  0.28811900  0.75651700  0.59497100  1
  Mn  Mn4  1  0.53980700  0.95206500  0.20167100  1
  Mn  Mn5  1  0.12994700  0.39383200  0.14383200  1
  Mn  Mn6  1  0.46019300  0.04793500  0.79832900  1
  Mn  Mn7  1  0.87005300  0.60616800  0.85616800  1
  Mn  Mn8  1  0.21072700  0.27829900  0.53725900  1
  Mn  Mn9  1  0.78927300  0.72170100  0.46274100  1
  B  B10  1  0.10672400  0.06259400  0.31063500  1
  B  B11  1  0.54653600  0.24501300  0.02254300  1
  B  B12  1  0.89327600  0.93740600  0.68936500  1
  B  B13  1  0.45346400  0.75498700  0.97745700  1
  B  B14  1  0.76786200  0.38201700  0.63920300  1
  B  B15  1  0.23213800  0.61798300  0.36079700  1
  O  O16  1  0.37872600  0.08613800  0.31605800  1
  O  O17  1  0.97263200  0.03809700  0.21458300  1
  O  O18  1  0.38395100  0.64235700  0.26654700  1
  O  O19  1  0.68495700  0.23970600  0.11416300  1
  O  O20  1  0.27643500  0.22257100  0.02196300  1
  O  O21  1  0.69493300  0.26103100  0.92929000  1
  O  O22  1  0.02736800  0.96190300  0.78541700  1
  O  O23  1  0.30506700  0.73896900  0.07071000  1
  O  O24  1  0.62127400  0.91386200  0.68394200  1
  O  O25  1  0.72356500  0.77742900  0.97803700  1
  O  O26  1  0.03308200  0.92425300  0.59832000  1
  O  O27  1  0.31504300  0.76029400  0.88583700  1
  O  O28  1  0.61604900  0.35764300  0.73345300  1
  O  O29  1  0.04673700  0.44083100  0.64571400  1
  O  O30  1  0.63407400  0.36585600  0.54467200  1
  O  O31  1  0.96691800  0.07574700  0.40168000  1
  O  O32  1  0.36592600  0.63414400  0.45532800  1
  O  O33  1  0.95326300  0.55916900  0.35428600  1
