# generated using pymatgen
data_Li2VP2O7
_symmetry_space_group_name_H-M   'P 1'
_cell_length_a   5.36537373
_cell_length_b   12.28491785
_cell_length_c   8.88312786
_cell_angle_alpha   73.47354116
_cell_angle_beta   97.72565820
_cell_angle_gamma   88.79110355
_symmetry_Int_Tables_number   1
_chemical_formula_structural   Li2VP2O7
_chemical_formula_sum   'Li8 V4 P8 O28'
_cell_volume   555.14543184
_cell_formula_units_Z   4
loop_
 _symmetry_equiv_pos_site_id
 _symmetry_equiv_pos_as_xyz
  1  'x, y, z'
loop_
 _atom_site_type_symbol
 _atom_site_label
 _atom_site_symmetry_multiplicity
 _atom_site_fract_x
 _atom_site_fract_y
 _atom_site_fract_z
 _atom_site_occupancy
  Li  Li0  1  0.81080400  0.40057000  0.58457100  1
  Li  Li1  1  0.31071500  0.90055500  0.08451000  1
  Li  Li2  1  0.68930800  0.09943700  0.91550500  1
  Li  Li3  1  0.18919000  0.59942000  0.41545700  1
  Li  Li4  1  0.21554500  0.11119500  0.63594200  1
  Li  Li5  1  0.71553800  0.61126900  0.13586600  1
  Li  Li6  1  0.28445900  0.38873900  0.86413500  1
  Li  Li7  1  0.78447500  0.88880300  0.36405700  1
  V  V8  1  0.29359500  0.79771900  0.56839800  1
  V  V9  1  0.70640300  0.20226500  0.43160400  1
  V  V10  1  0.79371900  0.29786000  0.06845300  1
  V  V11  1  0.20629800  0.70213200  0.93154600  1
  P  P12  1  0.15707900  0.07011200  0.31487600  1
  P  P13  1  0.65707400  0.57011300  0.81479900  1
  P  P14  1  0.34293800  0.42988700  0.18518900  1
  P  P15  1  0.84292000  0.92988700  0.68512600  1
  P  P16  1  0.25997600  0.35162400  0.52886900  1
  P  P17  1  0.75988800  0.85163700  0.02884800  1
  P  P18  1  0.24011100  0.14836700  0.97114300  1
  P  P19  1  0.74001800  0.64837100  0.47113800  1
  O  O20  1  0.61481000  0.44573800  0.89238800  1
  O  O21  1  0.11483800  0.94567200  0.39237100  1
  O  O22  1  0.88516500  0.05432700  0.60763300  1
  O  O23  1  0.38519200  0.55427200  0.10761700  1
  O  O24  1  0.90766700  0.14487800  0.26440300  1
  O  O25  1  0.40778500  0.64483300  0.76441700  1
  O  O26  1  0.59223500  0.35516000  0.23559200  1
  O  O27  1  0.09232600  0.85512400  0.73559400  1
  O  O28  1  0.04603100  0.27147800  0.52775100  1
  O  O29  1  0.54580700  0.77151100  0.02774100  1
  O  O30  1  0.45419200  0.22849800  0.97226400  1
  O  O31  1  0.95395000  0.72851400  0.47224300  1
  O  O32  1  0.97605900  0.20920600  0.92328200  1
  O  O33  1  0.47606200  0.70916600  0.42323600  1
  O  O34  1  0.52396000  0.29083600  0.57676200  1
  O  O35  1  0.02392500  0.79079500  0.07671400  1
  O  O36  1  0.29437000  0.06677000  0.87608200  1
  O  O37  1  0.79439300  0.56688700  0.37602800  1
  O  O38  1  0.20559100  0.43313200  0.62396000  1
  O  O39  1  0.70563700  0.93322800  0.12391400  1
  O  O40  1  0.14047100  0.38212000  0.08964300  1
  O  O41  1  0.64042900  0.88209100  0.58958500  1
  O  O42  1  0.35957400  0.11791500  0.41040600  1
  O  O43  1  0.85950800  0.61788300  0.91035100  1
  O  O44  1  0.24691700  0.43808700  0.34970400  1
  O  O45  1  0.74685200  0.93810400  0.84961400  1
  O  O46  1  0.25313500  0.06189600  0.15038300  1
  O  O47  1  0.75306800  0.56191900  0.65028800  1
