# generated using pymatgen
data_Li4Mn(PO4)2
_symmetry_space_group_name_H-M   'P 1'
_cell_length_a   5.24513359
_cell_length_b   6.23273045
_cell_length_c   10.06696962
_cell_angle_alpha   94.25850406
_cell_angle_beta   97.87971582
_cell_angle_gamma   93.70096053
_symmetry_Int_Tables_number   1
_chemical_formula_structural   Li4Mn(PO4)2
_chemical_formula_sum   'Li8 Mn2 P4 O16'
_cell_volume   324.16537684
_cell_formula_units_Z   2
loop_
 _symmetry_equiv_pos_site_id
 _symmetry_equiv_pos_as_xyz
  1  'x, y, z'
loop_
 _atom_site_type_symbol
 _atom_site_label
 _atom_site_symmetry_multiplicity
 _atom_site_fract_x
 _atom_site_fract_y
 _atom_site_fract_z
 _atom_site_occupancy
  Li  Li0  1  0.29391200  0.51202500  0.07680800  1
  Li  Li1  1  0.29397600  0.51205500  0.57680100  1
  Li  Li2  1  0.70611800  0.48798000  0.42314800  1
  Li  Li3  1  0.70605100  0.48793900  0.92316200  1
  Li  Li4  1  0.62156700  0.20943700  0.18100600  1
  Li  Li5  1  0.62148800  0.20942700  0.68106300  1
  Li  Li6  1  0.37844900  0.79059800  0.31896000  1
  Li  Li7  1  0.37854100  0.79063200  0.81893500  1
  Mn  Mn8  1  0.99981800  0.99989300  0.50003100  1
  Mn  Mn9  1  0.00006100  0.99995900  0.00004000  1
  P  P10  1  0.81855800  0.73001700  0.18318500  1
  P  P11  1  0.81864200  0.73003500  0.68321400  1
  P  P12  1  0.18142600  0.26993900  0.31677600  1
  P  P13  1  0.18136900  0.27000300  0.81682800  1
  O  O14  1  0.69108500  0.92062100  0.11378100  1
  O  O15  1  0.69100000  0.92057900  0.61379600  1
  O  O16  1  0.30889900  0.07936800  0.38621300  1
  O  O17  1  0.30901500  0.07946400  0.88627400  1
  O  O18  1  0.67497600  0.51276800  0.12090200  1
  O  O19  1  0.67510800  0.51276200  0.62099100  1
  O  O20  1  0.32500900  0.48720300  0.37905000  1
  O  O21  1  0.32486200  0.48732700  0.87901400  1
  O  O22  1  0.20056900  0.24489500  0.16325700  1
  O  O23  1  0.20053400  0.24492800  0.66330700  1
  O  O24  1  0.79947600  0.75509800  0.33671500  1
  O  O25  1  0.79949800  0.75507100  0.83672300  1
  O  O26  1  0.10261500  0.74268400  0.15055800  1
  O  O27  1  0.10272600  0.74277200  0.65059700  1
  O  O28  1  0.89738800  0.25731000  0.34941100  1
  O  O29  1  0.89726500  0.25721000  0.84945500  1
