# generated using pymatgen
data_Li6Cr3Sb3O16
_symmetry_space_group_name_H-M   'P 1'
_cell_length_a   6.04711615
_cell_length_b   6.04711615
_cell_length_c   10.02636895
_cell_angle_alpha   89.85000666
_cell_angle_beta   89.85000666
_cell_angle_gamma   60.31100107
_symmetry_Int_Tables_number   1
_chemical_formula_structural   Li6Cr3Sb3O16
_chemical_formula_sum   'Li6 Cr3 Sb3 O16'
_cell_volume   318.50880723
_cell_formula_units_Z   1
loop_
 _symmetry_equiv_pos_site_id
 _symmetry_equiv_pos_as_xyz
  1  'x, y, z'
loop_
 _atom_site_type_symbol
 _atom_site_label
 _atom_site_symmetry_multiplicity
 _atom_site_fract_x
 _atom_site_fract_y
 _atom_site_fract_z
 _atom_site_occupancy
  Li  Li0  1  0.33999200  0.33999200  0.49915100  1
  Li  Li1  1  0.32936700  0.32936700  0.11131900  1
  Li  Li2  1  0.98985900  0.98985900  0.99603800  1
  Li  Li3  1  0.98883500  0.98883500  0.50305700  1
  Li  Li4  1  0.66995400  0.66995400  0.99984700  1
  Li  Li5  1  0.66721500  0.66721500  0.62012400  1
  Cr  Cr6  1  0.66562900  0.16943300  0.78452600  1
  Cr  Cr7  1  0.16943300  0.66562900  0.78452600  1
  Cr  Cr8  1  0.83265400  0.83265400  0.28384000  1
  Sb  Sb9  1  0.17027400  0.17027400  0.78470700  1
  Sb  Sb10  1  0.83262800  0.33734200  0.28400600  1
  Sb  Sb11  1  0.33734200  0.83262800  0.28400600  1
  O  O12  1  0.69276400  0.16067600  0.39090600  1
  O  O13  1  0.48415400  0.48415400  0.68823500  1
  O  O14  1  0.33402800  0.33402800  0.89512200  1
  O  O15  1  0.00152400  0.00152400  0.68225700  1
  O  O16  1  0.00020600  0.00020600  0.17727100  1
  O  O17  1  0.16067600  0.69276400  0.39090600  1
  O  O18  1  0.49123300  0.03237900  0.67702600  1
  O  O19  1  0.03237900  0.49123300  0.67702600  1
  O  O20  1  0.84769000  0.84769000  0.87963100  1
  O  O21  1  0.15464700  0.15464700  0.39620700  1
  O  O22  1  0.97143100  0.50969200  0.17520200  1
  O  O23  1  0.50969200  0.97143100  0.17520200  1
  O  O24  1  0.66734600  0.66734600  0.39763300  1
  O  O25  1  0.84348900  0.30369200  0.89105000  1
  O  O26  1  0.51207000  0.51207000  0.17228400  1
  O  O27  1  0.30369200  0.84348900  0.89105000  1
