# generated using pymatgen
data_Li3Bi2(PO4)3
_symmetry_space_group_name_H-M   'P 1'
_cell_length_a   9.02465358
_cell_length_b   9.02465358
_cell_length_c   8.87696845
_cell_angle_alpha   63.29495429
_cell_angle_beta   63.29495429
_cell_angle_gamma   63.64377254
_symmetry_Int_Tables_number   1
_chemical_formula_structural   Li3Bi2(PO4)3
_chemical_formula_sum   'Li6 Bi4 P6 O24'
_cell_volume   549.80185481
_cell_formula_units_Z   2
loop_
 _symmetry_equiv_pos_site_id
 _symmetry_equiv_pos_as_xyz
  1  'x, y, z'
loop_
 _atom_site_type_symbol
 _atom_site_label
 _atom_site_symmetry_multiplicity
 _atom_site_fract_x
 _atom_site_fract_y
 _atom_site_fract_z
 _atom_site_occupancy
  Li  Li0  1  0.00000000  0.50000000  0.00000000  1
  Li  Li1  1  0.72239700  0.66570200  0.38418400  1
  Li  Li2  1  0.66570200  0.72239700  0.88418400  1
  Li  Li3  1  0.50000000  0.00000000  0.50000000  1
  Li  Li4  1  0.33429800  0.27760300  0.11581600  1
  Li  Li5  1  0.27760300  0.33429800  0.61581600  1
  Bi  Bi6  1  0.85948500  0.33149500  0.85199500  1
  Bi  Bi7  1  0.66850500  0.14051500  0.64800500  1
  Bi  Bi8  1  0.33149500  0.85948500  0.35199500  1
  Bi  Bi9  1  0.14051500  0.66850500  0.14800500  1
  P  P10  1  0.90097400  0.74347900  0.56397000  1
  P  P11  1  0.44015600  0.55984400  0.75000000  1
  P  P12  1  0.74347900  0.90097400  0.06397000  1
  P  P13  1  0.25652100  0.09902600  0.93603000  1
  P  P14  1  0.55984400  0.44015600  0.25000000  1
  P  P15  1  0.09902600  0.25652100  0.43603000  1
  O  O16  1  0.67382200  0.90576600  0.93148700  1
  O  O17  1  0.94363500  0.19005400  0.50506300  1
  O  O18  1  0.89955700  0.60202100  0.75116100  1
  O  O19  1  0.90576600  0.67382200  0.43148700  1
  O  O20  1  0.88895000  0.71986200  0.09759200  1
  O  O21  1  0.47055800  0.40940500  0.69004500  1
  O  O22  1  0.59059500  0.52944200  0.80995500  1
  O  O23  1  0.71986200  0.88895000  0.59759200  1
  O  O24  1  0.43156600  0.73636400  0.59345000  1
  O  O25  1  0.26363600  0.56843400  0.90655000  1
  O  O26  1  0.80994600  0.05636500  0.99493700  1
  O  O27  1  0.60202100  0.89955700  0.25116100  1
  O  O28  1  0.39797900  0.10044300  0.74883900  1
  O  O29  1  0.19005400  0.94363500  0.00506300  1
  O  O30  1  0.73636400  0.43156600  0.09345000  1
  O  O31  1  0.56843400  0.26363600  0.40655000  1
  O  O32  1  0.28013800  0.11105000  0.40240800  1
  O  O33  1  0.40940500  0.47055800  0.19004500  1
  O  O34  1  0.52944200  0.59059500  0.30995500  1
  O  O35  1  0.11105000  0.28013800  0.90240800  1
  O  O36  1  0.09423400  0.32617800  0.56851300  1
  O  O37  1  0.10044300  0.39797900  0.24883900  1
  O  O38  1  0.05636500  0.80994600  0.49493700  1
  O  O39  1  0.32617800  0.09423400  0.06851300  1
