# generated using pymatgen
data_Li2V3CuO8
_symmetry_space_group_name_H-M   'P 1'
_cell_length_a   8.35747100
_cell_length_b   8.39637900
_cell_length_c   8.50330900
_cell_angle_alpha   90.00000000
_cell_angle_beta   90.00000000
_cell_angle_gamma   90.00000000
_symmetry_Int_Tables_number   1
_chemical_formula_structural   Li2V3CuO8
_chemical_formula_sum   'Li8 V12 Cu4 O32'
_cell_volume   596.69839976
_cell_formula_units_Z   4
loop_
 _symmetry_equiv_pos_site_id
 _symmetry_equiv_pos_as_xyz
  1  'x, y, z'
loop_
 _atom_site_type_symbol
 _atom_site_label
 _atom_site_symmetry_multiplicity
 _atom_site_fract_x
 _atom_site_fract_y
 _atom_site_fract_z
 _atom_site_occupancy
  Li  Li0  1  0.37943700  0.87323000  0.12523000  1
  Li  Li1  1  0.25341700  0.24773500  0.24662400  1
  Li  Li2  1  0.74658300  0.74773500  0.25337600  1
  Li  Li3  1  0.62056300  0.37323000  0.37477000  1
  Li  Li4  1  0.12056300  0.12677000  0.62523000  1
  Li  Li5  1  0.24658300  0.75226500  0.74662400  1
  Li  Li6  1  0.75341700  0.25226500  0.75337600  1
  Li  Li7  1  0.87943700  0.62677000  0.87477000  1
  V  V8  1  0.13152900  0.62304400  0.13209300  1
  V  V9  1  0.86721700  0.38480300  0.12378700  1
  V  V10  1  0.62512000  0.11504100  0.11684000  1
  V  V11  1  0.37488000  0.61504100  0.38316000  1
  V  V12  1  0.13278300  0.88480300  0.37621300  1
  V  V13  1  0.86847100  0.12304400  0.36790700  1
  V  V14  1  0.36847100  0.37695600  0.63209300  1
  V  V15  1  0.63278300  0.61519700  0.62378700  1
  V  V16  1  0.87488000  0.88495900  0.61684000  1
  V  V17  1  0.12512000  0.38495900  0.88316000  1
  V  V18  1  0.36721700  0.11519700  0.87621300  1
  V  V19  1  0.63152900  0.87695600  0.86790700  1
  Cu  Cu20  1  0.00729900  0.99358200  0.99783100  1
  Cu  Cu21  1  0.99270100  0.49358200  0.50216900  1
  Cu  Cu22  1  0.49270100  0.00641800  0.49783100  1
  Cu  Cu23  1  0.50729900  0.50641800  0.00216900  1
  O  O24  1  0.63087400  0.89572300  0.10172900  1
  O  O25  1  0.39520600  0.13164200  0.09776300  1
  O  O26  1  0.11162700  0.38269700  0.11601600  1
  O  O27  1  0.89407000  0.60107400  0.12893000  1
  O  O28  1  0.64962200  0.36047200  0.11946000  1
  O  O29  1  0.86846800  0.13901400  0.13340000  1
  O  O30  1  0.12004300  0.85516700  0.15237300  1
  O  O31  1  0.35596300  0.62194100  0.14815700  1
  O  O32  1  0.64403700  0.12194100  0.35184300  1
  O  O33  1  0.87995700  0.35516700  0.34762700  1
  O  O34  1  0.13153200  0.63901400  0.36660000  1
  O  O35  1  0.35037800  0.86047200  0.38054000  1
  O  O36  1  0.10593000  0.10107400  0.37107000  1
  O  O37  1  0.88837300  0.88269700  0.38398400  1
  O  O38  1  0.60479400  0.63164200  0.40223700  1
  O  O39  1  0.36912600  0.39572300  0.39827100  1
  O  O40  1  0.86912600  0.10427700  0.60172900  1
  O  O41  1  0.10479400  0.86835800  0.59776300  1
  O  O42  1  0.38837300  0.61730300  0.61601600  1
  O  O43  1  0.60593000  0.39892600  0.62893000  1
  O  O44  1  0.85037800  0.63952800  0.61946000  1
  O  O45  1  0.63153200  0.86098600  0.63340000  1
  O  O46  1  0.37995700  0.14483300  0.65237300  1
  O  O47  1  0.14403700  0.37805900  0.64815700  1
  O  O48  1  0.85596300  0.87805900  0.85184300  1
  O  O49  1  0.62004300  0.64483300  0.84762700  1
  O  O50  1  0.36846800  0.36098600  0.86660000  1
  O  O51  1  0.14962200  0.13952800  0.88054000  1
  O  O52  1  0.39407000  0.89892600  0.87107000  1
  O  O53  1  0.61162700  0.11730300  0.88398400  1
  O  O54  1  0.89520600  0.36835800  0.90223700  1
  O  O55  1  0.13087400  0.60427700  0.89827100  1
