# generated using pymatgen
data_LiCrPO4
_symmetry_space_group_name_H-M   'P 1'
_cell_length_a   9.41633894
_cell_length_b   9.41633894
_cell_length_c   6.58279800
_cell_angle_alpha   90.00000000
_cell_angle_beta   90.00000000
_cell_angle_gamma   120.00000658
_symmetry_Int_Tables_number   1
_chemical_formula_structural   LiCrPO4
_chemical_formula_sum   'Li6 Cr6 P6 O24'
_cell_volume   505.48153551
_cell_formula_units_Z   6
loop_
 _symmetry_equiv_pos_site_id
 _symmetry_equiv_pos_as_xyz
  1  'x, y, z'
loop_
 _atom_site_type_symbol
 _atom_site_label
 _atom_site_symmetry_multiplicity
 _atom_site_fract_x
 _atom_site_fract_y
 _atom_site_fract_z
 _atom_site_occupancy
  Li  Li0  1  0.33333300  0.66666700  0.21862000  1
  Li  Li1  1  0.33333300  0.66666700  0.76032000  1
  Li  Li2  1  0.00000000  0.00000000  0.11371300  1
  Li  Li3  1  0.00000000  0.00000000  0.61371300  1
  Li  Li4  1  0.66666700  0.33333300  0.71862000  1
  Li  Li5  1  0.66666700  0.33333300  0.26032000  1
  Cr  Cr6  1  0.10822300  0.71836700  0.49057100  1
  Cr  Cr7  1  0.28163300  0.38985600  0.49057100  1
  Cr  Cr8  1  0.61014400  0.89177700  0.49057100  1
  Cr  Cr9  1  0.38985600  0.10822300  0.99057100  1
  Cr  Cr10  1  0.71836700  0.61014400  0.99057100  1
  Cr  Cr11  1  0.89177700  0.28163300  0.99057100  1
  P  P12  1  0.05329100  0.69076900  0.99127700  1
  P  P13  1  0.30923100  0.36252100  0.99127700  1
  P  P14  1  0.63747900  0.94670900  0.99127700  1
  P  P15  1  0.36252100  0.05329100  0.49127700  1
  P  P16  1  0.69076900  0.63747900  0.49127700  1
  P  P17  1  0.94670900  0.30923100  0.49127700  1
  O  O18  1  0.17094800  0.96331600  0.49251700  1
  O  O19  1  0.16583300  0.73281800  0.17981500  1
  O  O20  1  0.16480000  0.73243000  0.80200200  1
  O  O21  1  0.08415000  0.49229800  0.49113000  1
  O  O22  1  0.40814800  0.91585000  0.49113000  1
  O  O23  1  0.03668400  0.20763100  0.49251700  1
  O  O24  1  0.26757000  0.43237000  0.80200200  1
  O  O25  1  0.26718200  0.43301500  0.17981500  1
  O  O26  1  0.20763100  0.17094800  0.99251700  1
  O  O27  1  0.56698500  0.83416700  0.17981500  1
  O  O28  1  0.56763000  0.83520000  0.80200200  1
  O  O29  1  0.50770200  0.59185200  0.49113000  1
  O  O30  1  0.49229800  0.40814800  0.99113000  1
  O  O31  1  0.43237000  0.16480000  0.30200200  1
  O  O32  1  0.43301500  0.16583300  0.67981500  1
  O  O33  1  0.79236900  0.82905200  0.49251700  1
  O  O34  1  0.73281800  0.56698500  0.67981500  1
  O  O35  1  0.73243000  0.56763000  0.30200200  1
  O  O36  1  0.96331600  0.79236900  0.99251700  1
  O  O37  1  0.59185200  0.08415000  0.99113000  1
  O  O38  1  0.91585000  0.50770200  0.99113000  1
  O  O39  1  0.83520000  0.26757000  0.30200200  1
  O  O40  1  0.83416700  0.26718200  0.67981500  1
  O  O41  1  0.82905200  0.03668400  0.99251700  1
