# generated using pymatgen
data_Li7Mn8(BO3)8
_symmetry_space_group_name_H-M   'P 1'
_cell_length_a   5.24928800
_cell_length_b   9.14671789
_cell_length_c   11.53834801
_cell_angle_alpha   111.48063050
_cell_angle_beta   102.18051708
_cell_angle_gamma   89.90015050
_symmetry_Int_Tables_number   1
_chemical_formula_structural   Li7Mn8(BO3)8
_chemical_formula_sum   'Li7 Mn8 B8 O24'
_cell_volume   502.17405991
_cell_formula_units_Z   1
loop_
 _symmetry_equiv_pos_site_id
 _symmetry_equiv_pos_as_xyz
  1  'x, y, z'
loop_
 _atom_site_type_symbol
 _atom_site_label
 _atom_site_symmetry_multiplicity
 _atom_site_fract_x
 _atom_site_fract_y
 _atom_site_fract_z
 _atom_site_occupancy
  Li  Li0  1  0.97040200  0.95751100  0.08440000  1
  Li  Li1  1  0.73072800  0.75701900  0.33536100  1
  Li  Li2  1  0.70920900  0.71210900  0.58691200  1
  Li  Li3  1  0.51236800  0.49111000  0.83936400  1
  Li  Li4  1  0.22636500  0.25563300  0.33146400  1
  Li  Li5  1  0.21550500  0.21745600  0.59788200  1
  Li  Li6  1  0.01719700  0.98835700  0.83553200  1
  Mn  Mn7  1  0.98142700  0.63704000  0.12189400  1
  Mn  Mn8  1  0.75944400  0.43623000  0.36412400  1
  Mn  Mn9  1  0.72678400  0.05479600  0.61628700  1
  Mn  Mn10  1  0.47721300  0.15449600  0.11396500  1
  Mn  Mn11  1  0.52253400  0.84290300  0.87059000  1
  Mn  Mn12  1  0.25012600  0.93683200  0.36670400  1
  Mn  Mn13  1  0.23291300  0.55717700  0.61772500  1
  Mn  Mn14  1  0.01410800  0.34232600  0.86848100  1
  B  B15  1  0.96133200  0.30462400  0.11348000  1
  B  B16  1  0.76230300  0.11414600  0.37800600  1
  B  B17  1  0.73946200  0.39751000  0.63355800  1
  B  B18  1  0.48345600  0.82633800  0.13059700  1
  B  B19  1  0.51304000  0.17864800  0.86435100  1
  B  B20  1  0.27451300  0.60862700  0.37894100  1
  B  B21  1  0.23359000  0.89189100  0.62682700  1
  B  B22  1  0.03025700  0.68094100  0.87515500  1
  O  O23  1  0.97988500  0.88787100  0.64240800  1
  O  O24  1  0.74002100  0.34633700  0.16001000  1
  O  O25  1  0.91105400  0.29490600  0.67461400  1
  O  O26  1  0.83296200  0.50025800  0.58628200  1
  O  O27  1  0.62935100  0.71426500  0.15530500  1
  O  O28  1  0.58285000  0.92550900  0.07934400  1
  O  O29  1  0.92578100  0.82362200  0.88985500  1
  O  O30  1  0.89938200  0.56877100  0.90407600  1
  O  O31  1  0.66075200  0.99816000  0.41296500  1
  O  O32  1  0.59341900  0.20832100  0.33217400  1
  O  O33  1  0.75832800  0.15034700  0.83175300  1
  O  O34  1  0.54203600  0.63339800  0.39797000  1
  O  O35  1  0.48441000  0.39002600  0.64296600  1
  O  O36  1  0.23290800  0.84588000  0.15834700  1
  O  O37  1  0.40365100  0.78661800  0.65799700  1
  O  O38  1  0.32202400  0.00166600  0.58351500  1
  O  O39  1  0.09515300  0.18175600  0.13103400  1
  O  O40  1  0.05257500  0.39729200  0.05329700  1
  O  O41  1  0.38926500  0.30730800  0.85716900  1
  O  O42  1  0.17137900  0.48774000  0.40751000  1
  O  O43  1  0.39853300  0.07205500  0.90271400  1
  O  O44  1  0.10440500  0.70307900  0.33370600  1
  O  O45  1  0.26237000  0.64728300  0.83483100  1
  O  O46  1  0.03054400  0.13496900  0.39452900  1
