# generated using pymatgen
data_Li4V2(PO4)3
_symmetry_space_group_name_H-M   'P 1'
_cell_length_a   8.80587900
_cell_length_b   9.02245700
_cell_length_c   12.30537600
_cell_angle_alpha   90.00000000
_cell_angle_beta   90.00000000
_cell_angle_gamma   90.00000000
_symmetry_Int_Tables_number   1
_chemical_formula_structural   Li4V2(PO4)3
_chemical_formula_sum   'Li16 V8 P12 O48'
_cell_volume   977.67030166
_cell_formula_units_Z   4
loop_
 _symmetry_equiv_pos_site_id
 _symmetry_equiv_pos_as_xyz
  1  'x, y, z'
loop_
 _atom_site_type_symbol
 _atom_site_label
 _atom_site_symmetry_multiplicity
 _atom_site_fract_x
 _atom_site_fract_y
 _atom_site_fract_z
 _atom_site_occupancy
  Li  Li0  1  0.23873100  0.70633100  0.67983200  1
  Li  Li1  1  0.73873100  0.29366900  0.67983200  1
  Li  Li2  1  0.57365400  0.04307700  0.71223800  1
  Li  Li3  1  0.07365400  0.95692300  0.71223800  1
  Li  Li4  1  0.57365400  0.54307700  0.78776200  1
  Li  Li5  1  0.07365400  0.45692300  0.78776200  1
  Li  Li6  1  0.23873100  0.20633100  0.82016800  1
  Li  Li7  1  0.73873100  0.79366900  0.82016800  1
  Li  Li8  1  0.26126900  0.20633100  0.17983200  1
  Li  Li9  1  0.76126900  0.79366900  0.17983200  1
  Li  Li10  1  0.92634600  0.54307700  0.21223800  1
  Li  Li11  1  0.42634600  0.45692300  0.21223800  1
  Li  Li12  1  0.92634600  0.04307700  0.28776200  1
  Li  Li13  1  0.42634600  0.95692300  0.28776200  1
  Li  Li14  1  0.26126900  0.70633100  0.32016800  1
  Li  Li15  1  0.76126900  0.29366900  0.32016800  1
  V  V16  1  0.04398300  0.25036300  0.60810100  1
  V  V17  1  0.54398300  0.74963700  0.60810100  1
  V  V18  1  0.04398300  0.75036300  0.89189900  1
  V  V19  1  0.54398300  0.24963700  0.89189900  1
  V  V20  1  0.95601700  0.24963700  0.10810100  1
  V  V21  1  0.45601700  0.75036300  0.10810100  1
  V  V22  1  0.45601700  0.25036300  0.39189900  1
  V  V23  1  0.95601700  0.74963700  0.39189900  1
  P  P24  1  0.75000000  0.05068100  0.50000000  1
  P  P25  1  0.25000000  0.94931900  0.50000000  1
  P  P26  1  0.89437800  0.60328100  0.65143600  1
  P  P27  1  0.39437800  0.39671900  0.65143600  1
  P  P28  1  0.39437800  0.89671900  0.84856400  1
  P  P29  1  0.89437800  0.10328100  0.84856400  1
  P  P30  1  0.25000000  0.44931900  0.00000000  1
  P  P31  1  0.75000000  0.55068100  0.00000000  1
  P  P32  1  0.60562200  0.10328100  0.15143600  1
  P  P33  1  0.10562200  0.89671900  0.15143600  1
  P  P34  1  0.10562200  0.39671900  0.34856400  1
  P  P35  1  0.60562200  0.60328100  0.34856400  1
  O  O36  1  0.92058600  0.64832100  0.53495500  1
  O  O37  1  0.42058600  0.35167900  0.53495500  1
  O  O38  1  0.33967300  0.84431200  0.57690100  1
  O  O39  1  0.83967300  0.15568800  0.57690100  1
  O  O40  1  0.14580300  0.04295200  0.57388900  1
  O  O41  1  0.64580300  0.95704800  0.57388900  1
  O  O42  1  0.90622100  0.43249700  0.67138700  1
  O  O43  1  0.40622100  0.56750300  0.67138700  1
  O  O44  1  0.23446400  0.34570400  0.69252100  1
  O  O45  1  0.73446400  0.65429600  0.69252100  1
  O  O46  1  0.52337400  0.32934100  0.72536800  1
  O  O47  1  0.02337400  0.67065900  0.72536800  1
  O  O48  1  0.52337400  0.82934100  0.77463200  1
  O  O49  1  0.02337400  0.17065900  0.77463200  1
  O  O50  1  0.23446400  0.84570400  0.80747900  1
  O  O51  1  0.73446400  0.15429600  0.80747900  1
  O  O52  1  0.90622100  0.93249700  0.82861300  1
  O  O53  1  0.40622100  0.06750300  0.82861300  1
  O  O54  1  0.14580300  0.54295200  0.92611100  1
  O  O55  1  0.64580300  0.45704800  0.92611100  1
  O  O56  1  0.33967300  0.34431200  0.92309900  1
  O  O57  1  0.83967300  0.65568800  0.92309900  1
  O  O58  1  0.42058600  0.85167900  0.96504500  1
  O  O59  1  0.92058600  0.14832100  0.96504500  1
  O  O60  1  0.57941400  0.14832100  0.03495500  1
  O  O61  1  0.07941400  0.85167900  0.03495500  1
  O  O62  1  0.16032700  0.34431200  0.07690100  1
  O  O63  1  0.66032700  0.65568800  0.07690100  1
  O  O64  1  0.85419700  0.45704800  0.07388900  1
  O  O65  1  0.35419700  0.54295200  0.07388900  1
  O  O66  1  0.09377900  0.06750300  0.17138700  1
  O  O67  1  0.59377900  0.93249700  0.17138700  1
  O  O68  1  0.76553600  0.15429600  0.19252100  1
  O  O69  1  0.26553600  0.84570400  0.19252100  1
  O  O70  1  0.47662600  0.17065900  0.22536800  1
  O  O71  1  0.97662600  0.82934100  0.22536800  1
  O  O72  1  0.97662600  0.32934100  0.27463200  1
  O  O73  1  0.47662600  0.67065900  0.27463200  1
  O  O74  1  0.26553600  0.34570400  0.30747900  1
  O  O75  1  0.76553600  0.65429600  0.30747900  1
  O  O76  1  0.59377900  0.43249700  0.32861300  1
  O  O77  1  0.09377900  0.56750300  0.32861300  1
  O  O78  1  0.35419700  0.04295200  0.42611100  1
  O  O79  1  0.85419700  0.95704800  0.42611100  1
  O  O80  1  0.66032700  0.15568800  0.42309900  1
  O  O81  1  0.16032700  0.84431200  0.42309900  1
  O  O82  1  0.07941400  0.35167900  0.46504500  1
  O  O83  1  0.57941400  0.64832100  0.46504500  1
