# generated using pymatgen
data_Li4Cr3NiO8
_symmetry_space_group_name_H-M   'P 1'
_cell_length_a   5.11808800
_cell_length_b   7.78612342
_cell_length_c   7.79531720
_cell_angle_alpha   81.96622472
_cell_angle_beta   83.78186574
_cell_angle_gamma   71.10924003
_symmetry_Int_Tables_number   1
_chemical_formula_structural   Li4Cr3NiO8
_chemical_formula_sum   'Li8 Cr6 Ni2 O16'
_cell_volume   290.36722486
_cell_formula_units_Z   2
loop_
 _symmetry_equiv_pos_site_id
 _symmetry_equiv_pos_as_xyz
  1  'x, y, z'
loop_
 _atom_site_type_symbol
 _atom_site_label
 _atom_site_symmetry_multiplicity
 _atom_site_fract_x
 _atom_site_fract_y
 _atom_site_fract_z
 _atom_site_occupancy
  Li  Li0  1  0.99686400  0.56447900  0.81500200  1
  Li  Li1  1  0.00082100  0.31084300  0.56425200  1
  Li  Li2  1  0.00313600  0.43552100  0.18499800  1
  Li  Li3  1  0.00025100  0.93708100  0.69064500  1
  Li  Li4  1  0.99974900  0.06291900  0.30935500  1
  Li  Li5  1  0.00512100  0.18459800  0.94046000  1
  Li  Li6  1  0.99917900  0.68915700  0.43574800  1
  Li  Li7  1  0.99487900  0.81540200  0.05954000  1
  Cr  Cr8  1  0.49808100  0.24669900  0.75411500  1
  Cr  Cr9  1  0.49996200  0.37421900  0.37425400  1
  Cr  Cr10  1  0.50000000  0.50000000  0.00000000  1
  Cr  Cr11  1  0.50000000  0.00000000  0.50000000  1
  Cr  Cr12  1  0.50003800  0.62578100  0.62574600  1
  Cr  Cr13  1  0.50191900  0.75330100  0.24588500  1
  Ni  Ni14  1  0.50039100  0.12524200  0.12543300  1
  Ni  Ni15  1  0.49960900  0.87475800  0.87456700  1
  O  O16  1  0.72261600  0.41184600  0.78222200  1
  O  O17  1  0.28048000  0.46153900  0.59312500  1
  O  O18  1  0.71952000  0.53846100  0.40687500  1
  O  O19  1  0.26738000  0.09656800  0.71155200  1
  O  O20  1  0.72311200  0.16185500  0.53299400  1
  O  O21  1  0.72639200  0.29055000  0.15611900  1
  O  O22  1  0.27326200  0.21234000  0.34788400  1
  O  O23  1  0.72673800  0.78766000  0.65211600  1
  O  O24  1  0.73262000  0.90343200  0.28844800  1
  O  O25  1  0.26845200  0.34575800  0.96087600  1
  O  O26  1  0.27688800  0.83814500  0.46700600  1
  O  O27  1  0.72637500  0.04021000  0.90260900  1
  O  O28  1  0.27362500  0.95979000  0.09739100  1
  O  O29  1  0.73154800  0.65424200  0.03912400  1
  O  O30  1  0.27738400  0.58815400  0.21777800  1
  O  O31  1  0.27360800  0.70945000  0.84388100  1
