# generated using pymatgen
data_Li3MnFeCo(PO4)3
_symmetry_space_group_name_H-M   'P 1'
_cell_length_a   6.09222900
_cell_length_b   10.46145000
_cell_length_c   14.27934102
_cell_angle_alpha   89.94740020
_cell_angle_beta   90.00000000
_cell_angle_gamma   90.00000000
_symmetry_Int_Tables_number   1
_chemical_formula_structural   Li3MnFeCo(PO4)3
_chemical_formula_sum   'Li12 Mn4 Fe4 Co4 P12 O48'
_cell_volume   910.07269794
_cell_formula_units_Z   4
loop_
 _symmetry_equiv_pos_site_id
 _symmetry_equiv_pos_as_xyz
  1  'x, y, z'
loop_
 _atom_site_type_symbol
 _atom_site_label
 _atom_site_symmetry_multiplicity
 _atom_site_fract_x
 _atom_site_fract_y
 _atom_site_fract_z
 _atom_site_occupancy
  Li  Li0  1  0.75060100  0.99819000  0.66700100  1
  Li  Li1  1  0.24954900  0.99906600  0.99955200  1
  Li  Li2  1  0.75045100  0.99906600  0.99955200  1
  Li  Li3  1  0.24976700  0.99916000  0.33347800  1
  Li  Li4  1  0.75023300  0.99916000  0.33347800  1
  Li  Li5  1  0.24939900  0.99819000  0.66700100  1
  Li  Li6  1  0.24977200  0.50204200  0.50048800  1
  Li  Li7  1  0.75022800  0.50204200  0.50048800  1
  Li  Li8  1  0.24963700  0.50056000  0.16662200  1
  Li  Li9  1  0.75036300  0.50056000  0.16662200  1
  Li  Li10  1  0.24918600  0.50142500  0.83343800  1
  Li  Li11  1  0.75081400  0.50142500  0.83343800  1
  Mn  Mn12  1  0.50000000  0.21782000  0.49344200  1
  Mn  Mn13  1  0.50000000  0.21802600  0.82623300  1
  Mn  Mn14  1  0.00000000  0.28064800  0.32628900  1
  Mn  Mn15  1  0.50000000  0.71959700  0.00744400  1
  Fe  Fe16  1  0.50000000  0.21965200  0.15976100  1
  Fe  Fe17  1  0.00000000  0.28161200  0.65907100  1
  Fe  Fe18  1  0.00000000  0.28120100  0.99267900  1
  Fe  Fe19  1  0.50000000  0.72021700  0.34078800  1
  Co  Co20  1  0.50000000  0.72074500  0.67318800  1
  Co  Co21  1  0.00000000  0.77906000  0.83867000  1
  Co  Co22  1  0.00000000  0.77848300  0.50736000  1
  Co  Co23  1  0.00000000  0.77984300  0.17301200  1
  P  P24  1  0.00000000  0.09309700  0.80489300  1
  P  P25  1  0.00000000  0.09332400  0.13862500  1
  P  P26  1  0.00000000  0.09119800  0.47294200  1
  P  P27  1  0.50000000  0.40753100  0.30460400  1
  P  P28  1  0.50000000  0.40850900  0.64012300  1
  P  P29  1  0.50000000  0.40576600  0.97345200  1
  P  P30  1  0.00000000  0.59680900  0.36129900  1
  P  P31  1  0.00000000  0.59477300  0.02847600  1
  P  P32  1  0.00000000  0.59630200  0.69395700  1
  P  P33  1  0.50000000  0.90450500  0.85951500  1
  P  P34  1  0.50000000  0.90541100  0.19448900  1
  P  P35  1  0.50000000  0.90304700  0.52775500  1
  O  O36  1  0.50000000  0.04234500  0.23610100  1
  O  O37  1  0.50000000  0.03960500  0.56978800  1
  O  O38  1  0.50000000  0.04089600  0.90229600  1
  O  O39  1  0.00000000  0.09653800  0.58022700  1
  O  O40  1  0.00000000  0.09776000  0.91238700  1
  O  O41  1  0.00000000  0.09505000  0.24603400  1
  O  O42  1  0.20214000  0.16424600  0.09471700  1
  O  O43  1  0.79786000  0.16424600  0.09471700  1
  O  O44  1  0.20146600  0.16140600  0.42778300  1
  O  O45  1  0.79853400  0.16140600  0.42778300  1
  O  O46  1  0.20093400  0.16349500  0.75936300  1
  O  O47  1  0.79906600  0.16349500  0.75936300  1
  O  O48  1  0.70256000  0.33721400  0.59655200  1
  O  O49  1  0.29744000  0.33721400  0.59655200  1
  O  O50  1  0.70018100  0.33663400  0.25948100  1
  O  O51  1  0.29981900  0.33663400  0.25948100  1
  O  O52  1  0.70297500  0.33505400  0.93002700  1
  O  O53  1  0.29702500  0.33505400  0.93002700  1
  O  O54  1  0.50000000  0.40404100  0.41203600  1
  O  O55  1  0.50000000  0.40400800  0.08068800  1
  O  O56  1  0.50000000  0.40597100  0.74741000  1
  O  O57  1  0.00000000  0.45979000  0.40319500  1
  O  O58  1  0.00000000  0.45673200  0.06839300  1
  O  O59  1  0.00000000  0.45910300  0.73507000  1
  O  O60  1  0.50000000  0.54543000  0.26463400  1
  O  O61  1  0.50000000  0.54194400  0.93068300  1
  O  O62  1  0.50000000  0.54540500  0.59796000  1
  O  O63  1  0.00000000  0.59782500  0.25359800  1
  O  O64  1  0.00000000  0.59886800  0.92071500  1
  O  O65  1  0.00000000  0.59854700  0.58637000  1
  O  O66  1  0.20084000  0.66469800  0.07410300  1
  O  O67  1  0.20207900  0.66738200  0.40543500  1
  O  O68  1  0.20287200  0.66753500  0.73860700  1
  O  O69  1  0.79712800  0.66753500  0.73860700  1
  O  O70  1  0.79916000  0.66469800  0.07410300  1
  O  O71  1  0.79792100  0.66738200  0.40543500  1
  O  O72  1  0.70431400  0.83463600  0.90306600  1
  O  O73  1  0.29568600  0.83463600  0.90306600  1
  O  O74  1  0.70294500  0.83458500  0.23834000  1
  O  O75  1  0.70297200  0.83201600  0.57194600  1
  O  O76  1  0.29705500  0.83458500  0.23834000  1
  O  O77  1  0.29702800  0.83201600  0.57194600  1
  O  O78  1  0.50000000  0.90317800  0.75203900  1
  O  O79  1  0.50000000  0.90228800  0.42048000  1
  O  O80  1  0.50000000  0.90519300  0.08687900  1
  O  O81  1  0.00000000  0.95497900  0.76521100  1
  O  O82  1  0.00000000  0.95522300  0.09698200  1
  O  O83  1  0.00000000  0.95341300  0.43276000  1
