# generated using pymatgen
data_Li7Ni(O2F)2
_symmetry_space_group_name_H-M   'P 1'
_cell_length_a   5.35613720
_cell_length_b   5.83111594
_cell_length_c   10.11206996
_cell_angle_alpha   83.23851003
_cell_angle_beta   80.05091845
_cell_angle_gamma   119.66297238
_symmetry_Int_Tables_number   1
_chemical_formula_structural   Li7Ni(O2F)2
_chemical_formula_sum   'Li14 Ni2 O8 F4'
_cell_volume   262.57587188
_cell_formula_units_Z   2
loop_
 _symmetry_equiv_pos_site_id
 _symmetry_equiv_pos_as_xyz
  1  'x, y, z'
loop_
 _atom_site_type_symbol
 _atom_site_label
 _atom_site_symmetry_multiplicity
 _atom_site_fract_x
 _atom_site_fract_y
 _atom_site_fract_z
 _atom_site_occupancy
  Li  Li0  1  0.09391196  0.03680477  0.22695318  1
  Li  Li1  1  0.09564234  0.62189720  0.74595470  1
  Li  Li2  1  0.48557975  0.94330021  0.38432093  1
  Li  Li3  1  0.53857222  0.57254554  0.11505682  1
  Li  Li4  1  0.26546835  0.21703372  0.44223148  1
  Li  Li5  1  0.23709389  0.72000095  0.96208681  1
  Li  Li6  1  0.30475275  0.34842238  0.67677096  1
  Li  Li7  1  0.72289437  0.23868293  0.06057732  1
  Li  Li8  1  0.75489198  0.77454860  0.52706727  1
  Li  Li9  1  0.47673743  0.49489216  0.89262601  1
  Li  Li10  1  0.52480713  0.02977135  0.61641973  1
  Li  Li11  1  0.93141649  0.46393517  0.27901563  1
  Li  Li12  1  0.89096406  0.90326993  0.75118957  1
  Li  Li13  1  0.65238811  0.14914116  0.83672459  1
  Ni  Ni14  1  0.04248229  0.03998977  0.95712834  1
  Ni  Ni15  1  0.00482109  0.49373587  0.50835690  1
  O  O16  1  0.08601122  0.82435320  0.39762234  1
  O  O17  1  0.24363694  0.96338943  0.80226045  1
  O  O18  1  0.36516090  0.19369792  0.02897272  1
  O  O19  1  0.34794828  0.68046140  0.56537087  1
  O  O20  1  0.06525569  0.36953968  0.89225546  1
  O  O21  1  0.65211943  0.30975855  0.46264847  1
  O  O22  1  0.65603790  0.83563251  0.93778868  1
  O  O23  1  0.93835279  0.15955970  0.60802278  1
  F  F24  1  0.25345050  0.39885195  0.27878299  1
  F  F25  1  0.90636754  0.60948299  0.11056655  1
  F  F26  1  0.75112719  0.05398123  0.21345588  1
  F  F27  1  0.71210740  0.55331772  0.71977456  1
