# generated using pymatgen
data_LiV4OF11
_symmetry_space_group_name_H-M   'P 1'
_cell_length_a   5.48826400
_cell_length_b   9.27606670
_cell_length_c   9.28587519
_cell_angle_alpha   68.79398461
_cell_angle_beta   87.42428631
_cell_angle_gamma   86.44090830
_symmetry_Int_Tables_number   1
_chemical_formula_structural   LiV4OF11
_chemical_formula_sum   'Li2 V8 O2 F22'
_cell_volume   439.74966772
_cell_formula_units_Z   2
loop_
 _symmetry_equiv_pos_site_id
 _symmetry_equiv_pos_as_xyz
  1  'x, y, z'
loop_
 _atom_site_type_symbol
 _atom_site_label
 _atom_site_symmetry_multiplicity
 _atom_site_fract_x
 _atom_site_fract_y
 _atom_site_fract_z
 _atom_site_occupancy
  Li  Li0  1  0.44978700  0.86642600  0.87273500  1
  Li  Li1  1  0.03615100  0.88460800  0.39122200  1
  V  V2  1  0.49463800  0.49844300  0.00085400  1
  V  V3  1  0.50196500  0.24996000  0.75348900  1
  V  V4  1  0.98549800  0.75538400  0.73900700  1
  V  V5  1  0.52307600  0.99512800  0.50186200  1
  V  V6  1  0.99375600  0.49935800  0.50125500  1
  V  V7  1  0.00184400  0.25207600  0.25248800  1
  V  V8  1  0.49059400  0.75572400  0.23791500  1
  V  V9  1  0.01878000  0.99391400  0.00454200  1
  O  O10  1  0.81052400  0.87558800  0.56593800  1
  O  O11  1  0.30582200  0.87456800  0.06791500  1
  F  F12  1  0.01748500  0.92451400  0.81989000  1
  F  F13  1  0.20030400  0.63128800  0.92337900  1
  F  F14  1  0.67509800  0.69176400  0.87730500  1
  F  F15  1  0.99617400  0.56803100  0.67884900  1
  F  F16  1  0.20173600  0.18149900  0.87456200  1
  F  F17  1  0.30542200  0.82536100  0.61889600  1
  F  F18  1  0.50246600  0.43138300  0.82425800  1
  F  F19  1  0.70300100  0.12318500  0.92643700  1
  F  F20  1  0.29900200  0.37478200  0.57559900  1
  F  F21  1  0.49849100  0.05818100  0.69481700  1
  F  F22  1  0.18403200  0.68968600  0.37867400  1
  F  F23  1  0.49038600  0.92745700  0.31981900  1
  F  F24  1  0.79516200  0.31900200  0.62484700  1
  F  F25  1  0.69754000  0.62634100  0.42372200  1
  F  F26  1  0.19845600  0.11887000  0.42715300  1
  F  F27  1  0.49711700  0.56741000  0.17647600  1
  F  F28  1  0.69956100  0.18284900  0.37445000  1
  F  F29  1  0.80401300  0.82231100  0.12275100  1
  F  F30  1  0.29755000  0.31808200  0.12618900  1
  F  F31  1  0.00570200  0.43122600  0.32374200  1
  F  F32  1  0.80159900  0.37522300  0.07382200  1
  F  F33  1  0.99685700  0.06045200  0.19583400  1
