# generated using pymatgen
data_Li4V3O8
_symmetry_space_group_name_H-M   'P 1'
_cell_length_a   5.85549591
_cell_length_b   5.85388460
_cell_length_c   10.83095362
_cell_angle_alpha   74.03455827
_cell_angle_beta   105.86124424
_cell_angle_gamma   120.03313071
_symmetry_Int_Tables_number   1
_chemical_formula_structural   Li4V3O8
_chemical_formula_sum   'Li8 V6 O16'
_cell_volume   304.88210115
_cell_formula_units_Z   2
loop_
 _symmetry_equiv_pos_site_id
 _symmetry_equiv_pos_as_xyz
  1  'x, y, z'
loop_
 _atom_site_type_symbol
 _atom_site_label
 _atom_site_symmetry_multiplicity
 _atom_site_fract_x
 _atom_site_fract_y
 _atom_site_fract_z
 _atom_site_occupancy
  Li  Li0  1  0.00038200  0.00027200  0.99996600  1
  Li  Li1  1  0.50027200  0.49982100  0.50004500  1
  Li  Li2  1  0.74966500  0.24977000  0.24998300  1
  Li  Li3  1  0.25014800  0.75012300  0.74998600  1
  Li  Li4  1  0.67862900  0.32262900  0.03686500  1
  Li  Li5  1  0.17854700  0.82293300  0.53693700  1
  Li  Li6  1  0.82109900  0.17748800  0.46313300  1
  Li  Li7  1  0.32169900  0.67749900  0.96303600  1
  V  V8  1  0.25013100  0.25018100  0.74999300  1
  V  V9  1  0.24978800  0.74956000  0.25007300  1
  V  V10  1  0.75017800  0.25020500  0.75003700  1
  V  V11  1  0.24969000  0.24966600  0.24988500  1
  V  V12  1  0.75015500  0.75018100  0.75000300  1
  V  V13  1  0.74977700  0.74966800  0.25005400  1
  O  O14  1  0.11790500  0.88069500  0.35387200  1
  O  O15  1  0.61810600  0.38090400  0.85386300  1
  O  O16  1  0.38170100  0.61878100  0.14611000  1
  O  O17  1  0.88212300  0.11938500  0.64616400  1
  O  O18  1  0.62313300  0.86454200  0.35310800  1
  O  O19  1  0.12348400  0.36451000  0.85342600  1
  O  O20  1  0.13441200  0.40345900  0.35283800  1
  O  O21  1  0.63556000  0.90423800  0.85323800  1
  O  O22  1  0.59515500  0.37605700  0.35321900  1
  O  O23  1  0.09511300  0.87593100  0.85336800  1
  O  O24  1  0.87677100  0.63531500  0.14688300  1
  O  O25  1  0.37661200  0.13588900  0.64661300  1
  O  O26  1  0.36526200  0.09604400  0.14715900  1
  O  O27  1  0.86476600  0.59608800  0.64671300  1
  O  O28  1  0.90466900  0.12383600  0.14677200  1
  O  O29  1  0.40507100  0.62432800  0.64665800  1
