# generated using pymatgen
data_Li6CoNiP2(CO7)2
_symmetry_space_group_name_H-M   'P 1'
_cell_length_a   8.14477746
_cell_length_b   8.14479721
_cell_length_c   9.35014783
_cell_angle_alpha   74.23523466
_cell_angle_beta   105.76437253
_cell_angle_gamma   75.61643510
_symmetry_Int_Tables_number   1
_chemical_formula_structural   Li6CoNiP2(CO7)2
_chemical_formula_sum   'Li12 Co2 Ni2 P4 C4 O28'
_cell_volume   538.59443666
_cell_formula_units_Z   2
loop_
 _symmetry_equiv_pos_site_id
 _symmetry_equiv_pos_as_xyz
  1  'x, y, z'
loop_
 _atom_site_type_symbol
 _atom_site_label
 _atom_site_symmetry_multiplicity
 _atom_site_fract_x
 _atom_site_fract_y
 _atom_site_fract_z
 _atom_site_occupancy
  Li  Li0  1  0.57152900  0.67848100  0.10409900  1
  Li  Li1  1  0.07140400  0.17858600  0.10398400  1
  Li  Li2  1  0.92865200  0.82128700  0.89559000  1
  Li  Li3  1  0.42871700  0.32134000  0.89558600  1
  Li  Li4  1  0.27799300  0.73933800  0.27441200  1
  Li  Li5  1  0.77797400  0.23932300  0.27447400  1
  Li  Li6  1  0.51066300  0.97200200  0.27441600  1
  Li  Li7  1  0.01067600  0.47203300  0.27447600  1
  Li  Li8  1  0.98794500  0.52708900  0.72651300  1
  Li  Li9  1  0.48782800  0.02707200  0.72647700  1
  Li  Li10  1  0.22292600  0.76215000  0.72646900  1
  Li  Li11  1  0.72292500  0.26205400  0.72652100  1
  Co  Co12  1  0.06444500  0.18555000  0.66707300  1
  Co  Co13  1  0.56449600  0.68550200  0.66699100  1
  Ni  Ni14  1  0.93734300  0.81273800  0.33195700  1
  Ni  Ni15  1  0.43727000  0.31266800  0.33193000  1
  P  P16  1  0.69546100  0.55454200  0.41155500  1
  P  P17  1  0.19544600  0.05455600  0.41152500  1
  P  P18  1  0.80234800  0.94767100  0.58623400  1
  P  P19  1  0.30232800  0.44765200  0.58622900  1
  C  C20  1  0.73851400  0.01144400  0.04180300  1
  C  C21  1  0.23855700  0.51148900  0.04180000  1
  C  C22  1  0.76331200  0.48668400  0.96037900  1
  C  C23  1  0.26333400  0.98666500  0.96032800  1
  O  O24  1  0.87800300  0.87193400  0.07110500  1
  O  O25  1  0.37806500  0.37199600  0.07109900  1
  O  O26  1  0.37011800  0.87988000  0.10436200  1
  O  O27  1  0.87007300  0.37993000  0.10441900  1
  O  O28  1  0.70872300  0.04126300  0.16469900  1
  O  O29  1  0.20874700  0.54127800  0.16469900  1
  O  O30  1  0.66656000  0.08343800  0.42109100  1
  O  O31  1  0.16656000  0.58344600  0.42109200  1
  O  O32  1  0.54877600  0.70122400  0.43306700  1
  O  O33  1  0.04878300  0.20121400  0.43308500  1
  O  O34  1  0.94788100  0.80219900  0.56266900  1
  O  O35  1  0.44780100  0.30212600  0.56266100  1
  O  O36  1  0.83022600  0.41977500  0.57773400  1
  O  O37  1  0.33023500  0.91975800  0.57764900  1
  O  O38  1  0.79400000  0.45598700  0.83783500  1
  O  O39  1  0.29395700  0.95606800  0.83773400  1
  O  O40  1  0.13149900  0.61856300  0.89771900  1
  O  O41  1  0.63144100  0.11849900  0.89772000  1
  O  O42  1  0.62394100  0.62606200  0.93058900  1
  O  O43  1  0.12395000  0.12602000  0.93059400  1
  O  O44  1  0.60183000  0.46047900  0.30640100  1
  O  O45  1  0.10178400  0.96054900  0.30630200  1
  O  O46  1  0.78952100  0.64817900  0.30640300  1
  O  O47  1  0.28945700  0.14821500  0.30630400  1
  O  O48  1  0.89757600  0.03959900  0.69303900  1
  O  O49  1  0.39757500  0.53956200  0.69303900  1
  O  O50  1  0.71043700  0.85242100  0.69303800  1
  O  O51  1  0.21040100  0.35241900  0.69303500  1
