# generated using pymatgen
data_Li4V3Fe3(SbO8)2
_symmetry_space_group_name_H-M   'P 1'
_cell_length_a   6.00392463
_cell_length_b   6.00874442
_cell_length_c   9.77736989
_cell_angle_alpha   89.48595933
_cell_angle_beta   89.59490974
_cell_angle_gamma   119.68250991
_symmetry_Int_Tables_number   1
_chemical_formula_structural   Li4V3Fe3(SbO8)2
_chemical_formula_sum   'Li4 V3 Fe3 Sb2 O16'
_cell_volume   306.40550584
_cell_formula_units_Z   1
loop_
 _symmetry_equiv_pos_site_id
 _symmetry_equiv_pos_as_xyz
  1  'x, y, z'
loop_
 _atom_site_type_symbol
 _atom_site_label
 _atom_site_symmetry_multiplicity
 _atom_site_fract_x
 _atom_site_fract_y
 _atom_site_fract_z
 _atom_site_occupancy
  Li  Li0  1  0.34367600  0.67328900  0.90187400  1
  Li  Li1  1  0.99494500  0.99935600  0.98958800  1
  Li  Li2  1  0.99276700  0.99394300  0.48931100  1
  Li  Li3  1  0.67586000  0.34123700  0.39980100  1
  V  V4  1  0.65328700  0.82684800  0.22034500  1
  V  V5  1  0.82641000  0.65121700  0.71960400  1
  V  V6  1  0.82347900  0.17011600  0.71317200  1
  Fe  Fe7  1  0.16501800  0.82402900  0.21162800  1
  Fe  Fe8  1  0.16865200  0.34178800  0.21075600  1
  Fe  Fe9  1  0.33657800  0.16385200  0.71134600  1
  Sb  Sb10  1  0.32608400  0.66174000  0.48974000  1
  Sb  Sb11  1  0.66302000  0.32657600  0.99057500  1
  O  O12  1  0.15822000  0.82716300  0.59323500  1
  O  O13  1  0.04277600  0.53214200  0.34767500  1
  O  O14  1  0.37196100  0.69860700  0.10630400  1
  O  O15  1  0.97518900  0.97761000  0.30049600  1
  O  O16  1  0.97429800  0.97418600  0.80060400  1
  O  O17  1  0.15165900  0.32554000  0.58925800  1
  O  O18  1  0.48947600  0.96493500  0.34552500  1
  O  O19  1  0.49393900  0.53257100  0.34865100  1
  O  O20  1  0.32886800  0.15596300  0.09131300  1
  O  O21  1  0.65820400  0.82605500  0.59650700  1
  O  O22  1  0.53072300  0.48932100  0.84841500  1
  O  O23  1  0.53514200  0.04067700  0.84816600  1
  O  O24  1  0.69185300  0.36704000  0.60613300  1
  O  O25  1  0.83052400  0.66026400  0.09710600  1
  O  O26  1  0.96708900  0.49138300  0.84640100  1
  O  O27  1  0.83030000  0.16285300  0.09430900  1
