# generated using pymatgen
data_LiMn4(PO4)3
_symmetry_space_group_name_H-M   'P 1'
_cell_length_a   6.69112000
_cell_length_b   9.31283600
_cell_length_c   15.06182573
_cell_angle_alpha   89.84413309
_cell_angle_beta   90.00000000
_cell_angle_gamma   90.00000000
_symmetry_Int_Tables_number   1
_chemical_formula_structural   LiMn4(PO4)3
_chemical_formula_sum   'Li4 Mn16 P12 O48'
_cell_volume   938.54864098
_cell_formula_units_Z   4
loop_
 _symmetry_equiv_pos_site_id
 _symmetry_equiv_pos_as_xyz
  1  'x, y, z'
loop_
 _atom_site_type_symbol
 _atom_site_label
 _atom_site_symmetry_multiplicity
 _atom_site_fract_x
 _atom_site_fract_y
 _atom_site_fract_z
 _atom_site_occupancy
  Li  Li0  1  0.50000000  0.34208100  0.67761000  1
  Li  Li1  1  0.00000000  0.15538800  0.50863800  1
  Li  Li2  1  0.00000000  0.16138000  0.83609800  1
  Li  Li3  1  0.00000000  0.15812700  0.17249400  1
  Mn  Mn4  1  0.74073000  0.99905900  0.66777900  1
  Mn  Mn5  1  0.25332600  0.00763300  0.99450000  1
  Mn  Mn6  1  0.74667400  0.00763300  0.99450000  1
  Mn  Mn7  1  0.24863100  0.99404700  0.33875800  1
  Mn  Mn8  1  0.75136900  0.99404700  0.33875800  1
  Mn  Mn9  1  0.25927000  0.99905900  0.66777900  1
  Mn  Mn10  1  0.50000000  0.84980100  0.15976500  1
  Mn  Mn11  1  0.00000000  0.65537100  0.65956300  1
  Mn  Mn12  1  0.00000000  0.64499800  0.99417900  1
  Mn  Mn13  1  0.24762800  0.49448600  0.16735700  1
  Mn  Mn14  1  0.75237200  0.49448600  0.16735700  1
  Mn  Mn15  1  0.25195900  0.50938100  0.49754200  1
  Mn  Mn16  1  0.25949100  0.49457400  0.83329100  1
  Mn  Mn17  1  0.74804100  0.50938100  0.49754200  1
  Mn  Mn18  1  0.74050900  0.49457400  0.83329100  1
  Mn  Mn19  1  0.50000000  0.35304700  0.34058800  1
  P  P20  1  0.00000000  0.82130300  0.49327700  1
  P  P21  1  0.00000000  0.82346600  0.16257400  1
  P  P22  1  0.00000000  0.82280500  0.82523200  1
  P  P23  1  0.50000000  0.67254200  0.32367900  1
  P  P24  1  0.50000000  0.68192400  0.66562300  1
  P  P25  1  0.50000000  0.68246000  0.99524900  1
  P  P26  1  0.00000000  0.31848200  0.33763200  1
  P  P27  1  0.00000000  0.32344000  0.00807200  1
  P  P28  1  0.00000000  0.31955800  0.67037800  1
  P  P29  1  0.50000000  0.17987700  0.83591600  1
  P  P30  1  0.50000000  0.17269600  0.17356200  1
  P  P31  1  0.50000000  0.17947100  0.50703400  1
  O  O32  1  0.19077900  0.88094100  0.11492100  1
  O  O33  1  0.18954300  0.87937300  0.78216300  1
  O  O34  1  0.19029400  0.87780400  0.45013400  1
  O  O35  1  0.80970600  0.87780400  0.45013400  1
  O  O36  1  0.81045700  0.87937300  0.78216300  1
  O  O37  1  0.80922100  0.88094100  0.11492100  1
  O  O38  1  0.00000000  0.87014200  0.26014900  1
  O  O39  1  0.00000000  0.86416100  0.59610700  1
  O  O40  1  0.00000000  0.85498700  0.92908600  1
  O  O41  1  0.50000000  0.84276900  0.30689300  1
  O  O42  1  0.50000000  0.85038600  0.99270200  1
  O  O43  1  0.50000000  0.84611700  0.65488600  1
  O  O44  1  0.00000000  0.65584000  0.14088200  1
  O  O45  1  0.00000000  0.65115300  0.49337200  1
  O  O46  1  0.00000000  0.65019200  0.81245000  1
  O  O47  1  0.50000000  0.63891700  0.09690200  1
  O  O48  1  0.50000000  0.62071300  0.42226800  1
  O  O49  1  0.50000000  0.62202300  0.76246800  1
  O  O50  1  0.31103800  0.61587000  0.27769500  1
  O  O51  1  0.30865700  0.62173600  0.61880600  1
  O  O52  1  0.30794200  0.62498900  0.95104800  1
  O  O53  1  0.69134300  0.62173600  0.61880600  1
  O  O54  1  0.69205800  0.62498900  0.95104800  1
  O  O55  1  0.68896200  0.61587000  0.27769500  1
  O  O56  1  0.18773900  0.38630500  0.05156200  1
  O  O57  1  0.19163000  0.37923600  0.38122200  1
  O  O58  1  0.81226100  0.38630500  0.05156200  1
  O  O59  1  0.80837000  0.37923600  0.38122200  1
  O  O60  1  0.18982100  0.38283700  0.71396400  1
  O  O61  1  0.81017900  0.38283700  0.71396400  1
  O  O62  1  0.00000000  0.35375100  0.23592000  1
  O  O63  1  0.00000000  0.36504200  0.90626000  1
  O  O64  1  0.00000000  0.36034600  0.56904400  1
  O  O65  1  0.50000000  0.34106200  0.19300100  1
  O  O66  1  0.50000000  0.34717400  0.84389100  1
  O  O67  1  0.50000000  0.34989400  0.51634700  1
  O  O68  1  0.00000000  0.15302900  0.68735100  1
  O  O69  1  0.00000000  0.15479900  0.02285900  1
  O  O70  1  0.00000000  0.15243400  0.35578700  1
  O  O71  1  0.50000000  0.14016800  0.73449900  1
  O  O72  1  0.50000000  0.14383100  0.40357700  1
  O  O73  1  0.50000000  0.12513100  0.07488900  1
  O  O74  1  0.69442700  0.12395000  0.87966000  1
  O  O75  1  0.30557300  0.12395000  0.87966000  1
  O  O76  1  0.69347900  0.12366700  0.54934800  1
  O  O77  1  0.69163200  0.11460800  0.21899400  1
  O  O78  1  0.30836800  0.11460800  0.21899400  1
  O  O79  1  0.30652100  0.12366700  0.54934800  1
