# generated using pymatgen
data_Li11Cr3Fe3O16
_symmetry_space_group_name_H-M   'P 1'
_cell_length_a   5.98279934
_cell_length_b   5.98279934
_cell_length_c   10.04714518
_cell_angle_alpha   83.31368913
_cell_angle_beta   83.31368913
_cell_angle_gamma   59.15949239
_symmetry_Int_Tables_number   1
_chemical_formula_structural   Li11Cr3Fe3O16
_chemical_formula_sum   'Li11 Cr3 Fe3 O16'
_cell_volume   305.99455431
_cell_formula_units_Z   1
loop_
 _symmetry_equiv_pos_site_id
 _symmetry_equiv_pos_as_xyz
  1  'x, y, z'
loop_
 _atom_site_type_symbol
 _atom_site_label
 _atom_site_symmetry_multiplicity
 _atom_site_fract_x
 _atom_site_fract_y
 _atom_site_fract_z
 _atom_site_occupancy
  Li  Li0  1  0.04552400  0.04552400  0.99656600  1
  Li  Li1  1  0.63624200  0.14293200  0.44257900  1
  Li  Li2  1  0.30241000  0.30241000  0.94444700  1
  Li  Li3  1  0.35169500  0.35169500  0.20357500  1
  Li  Li4  1  0.22529000  0.22529000  0.44381500  1
  Li  Li5  1  0.14293200  0.63624200  0.44257900  1
  Li  Li6  1  0.64067300  0.64067300  0.46287700  1
  Li  Li7  1  0.67279800  0.67279800  0.71089100  1
  Li  Li8  1  0.54455600  0.54455600  0.99050700  1
  Li  Li9  1  0.80085200  0.80085200  0.92977600  1
  Li  Li10  1  0.02851000  0.02851000  0.51213000  1
  Cr  Cr11  1  0.85029500  0.35137500  0.21938100  1
  Cr  Cr12  1  0.35137500  0.85029500  0.21938100  1
  Cr  Cr13  1  0.17030500  0.17030500  0.71630000  1
  Fe  Fe14  1  0.66904600  0.17288500  0.71347000  1
  Fe  Fe15  1  0.17288500  0.66904600  0.71347000  1
  Fe  Fe16  1  0.84892100  0.84892100  0.21158100  1
  O  O17  1  0.18428800  0.18428800  0.11472400  1
  O  O18  1  0.48865000  0.00985900  0.82051400  1
  O  O19  1  0.71527300  0.19744400  0.10741300  1
  O  O20  1  0.98856800  0.98856800  0.82503100  1
  O  O21  1  0.34198300  0.34198300  0.59041500  1
  O  O22  1  0.00985900  0.48865000  0.82051400  1
  O  O23  1  0.47699700  0.47699700  0.81824000  1
  O  O24  1  0.85582500  0.33230900  0.60411900  1
  O  O25  1  0.19744400  0.71527300  0.10741300  1
  O  O26  1  0.50420800  0.52118000  0.32746400  1
  O  O27  1  0.33230900  0.85582500  0.60411900  1
  O  O28  1  0.98797900  0.51148000  0.32830900  1
  O  O29  1  0.69218300  0.69218300  0.10690400  1
  O  O30  1  0.51148000  0.98797900  0.32830900  1
  O  O31  1  0.86161400  0.86161400  0.60168600  1
  O  O32  1  0.00252800  0.00252800  0.33132300  1
