# generated using pymatgen
data_Li3Ta5Cu2O15
_symmetry_space_group_name_H-M   'P 1'
_cell_length_a   23.62362675
_cell_length_b   23.62362675
_cell_length_c   23.62362643
_cell_angle_alpha   12.69822128
_cell_angle_beta   12.69822128
_cell_angle_gamma   12.69822138
_symmetry_Int_Tables_number   1
_chemical_formula_structural   Li3Ta5Cu2O15
_chemical_formula_sum   'Li6 Ta10 Cu4 O30'
_cell_volume   553.93978706
_cell_formula_units_Z   2
loop_
 _symmetry_equiv_pos_site_id
 _symmetry_equiv_pos_as_xyz
  1  'x, y, z'
loop_
 _atom_site_type_symbol
 _atom_site_label
 _atom_site_symmetry_multiplicity
 _atom_site_fract_x
 _atom_site_fract_y
 _atom_site_fract_z
 _atom_site_occupancy
  Li  Li0  1  0.85729400  0.85729400  0.85729400  1
  Li  Li1  1  0.65823800  0.65823800  0.65823800  1
  Li  Li2  1  0.15684500  0.15684500  0.15684500  1
  Li  Li3  1  0.05836000  0.05836000  0.05836000  1
  Li  Li4  1  0.45787900  0.45787900  0.45787900  1
  Li  Li5  1  0.25816300  0.25816300  0.25816300  1
  Ta  Ta6  1  0.00097600  0.00097600  0.00097600  1
  Ta  Ta7  1  0.60080400  0.60080400  0.60080400  1
  Ta  Ta8  1  0.90162700  0.90162700  0.90162700  1
  Ta  Ta9  1  0.70202200  0.70202200  0.70202200  1
  Ta  Ta10  1  0.50102200  0.50102200  0.50102200  1
  Ta  Ta11  1  0.80127700  0.80127700  0.80127700  1
  Ta  Ta12  1  0.30184700  0.30184700  0.30184700  1
  Ta  Ta13  1  0.10221800  0.10221800  0.10221800  1
  Ta  Ta14  1  0.20068000  0.20068000  0.20068000  1
  Ta  Ta15  1  0.40116900  0.40116900  0.40116900  1
  Cu  Cu16  1  0.75227500  0.75227500  0.75227500  1
  Cu  Cu17  1  0.55178600  0.55178600  0.55178600  1
  Cu  Cu18  1  0.95206800  0.95206800  0.95206800  1
  Cu  Cu19  1  0.35213800  0.35213800  0.35213800  1
  O  O20  1  0.46253400  0.22574500  0.85761200  1
  O  O21  1  0.62530400  0.25140800  0.87151300  1
  O  O22  1  0.13134300  0.35836700  0.75789800  1
  O  O23  1  0.33103800  0.55770800  0.95797200  1
  O  O24  1  0.15765500  0.55846500  0.92986500  1
  O  O25  1  0.95797200  0.35816500  0.73103500  1
  O  O26  1  0.35816500  0.73103500  0.95797200  1
  O  O27  1  0.15694800  0.52887600  0.76132200  1
  O  O28  1  0.25140800  0.87151300  0.62530400  1
  O  O29  1  0.05155900  0.67208700  0.42551000  1
  O  O30  1  0.45109700  0.07150100  0.82723500  1
  O  O31  1  0.07150100  0.82723500  0.45109700  1
  O  O32  1  0.27186100  0.02525600  0.65166000  1
  O  O33  1  0.22574500  0.85761200  0.46253400  1
  O  O34  1  0.42551000  0.05155900  0.67208700  1
  O  O35  1  0.73103500  0.95797200  0.35816500  1
  O  O36  1  0.92986500  0.15765500  0.55846500  1
  O  O37  1  0.55770800  0.95797200  0.33103800  1
  O  O38  1  0.76132200  0.15694800  0.52887600  1
  O  O39  1  0.95797200  0.33103800  0.55770800  1
  O  O40  1  0.75789800  0.13134300  0.35836700  1
  O  O41  1  0.55846500  0.92986500  0.15765500  1
  O  O42  1  0.65166000  0.27186100  0.02525600  1
  O  O43  1  0.85761200  0.46253400  0.22574500  1
  O  O44  1  0.67208700  0.42551000  0.05155900  1
  O  O45  1  0.87151300  0.62530400  0.25140800  1
  O  O46  1  0.02525600  0.65166000  0.27186100  1
  O  O47  1  0.82723500  0.45109700  0.07150100  1
  O  O48  1  0.52887600  0.76132200  0.15694800  1
  O  O49  1  0.35836700  0.75789800  0.13134300  1
