# generated using pymatgen
data_LiV5H18N2O19
_symmetry_space_group_name_H-M   'P 1'
_cell_length_a   8.58116400
_cell_length_b   10.31353046
_cell_length_c   11.30350207
_cell_angle_alpha   111.71414192
_cell_angle_beta   86.54934119
_cell_angle_gamma   112.92401209
_symmetry_Int_Tables_number   1
_chemical_formula_structural   LiV5H18N2O19
_chemical_formula_sum   'Li2 V10 H36 N4 O38'
_cell_volume   851.86913370
_cell_formula_units_Z   2
loop_
 _symmetry_equiv_pos_site_id
 _symmetry_equiv_pos_as_xyz
  1  'x, y, z'
loop_
 _atom_site_type_symbol
 _atom_site_label
 _atom_site_symmetry_multiplicity
 _atom_site_fract_x
 _atom_site_fract_y
 _atom_site_fract_z
 _atom_site_occupancy
  Li  Li0  1  0.43492500  0.33961400  0.86441500  1
  Li  Li1  1  0.56507500  0.66038600  0.13558500  1
  V  V2  1  0.96595200  0.79868900  0.76651900  1
  V  V3  1  0.03404800  0.20131100  0.23348100  1
  V  V4  1  0.81124500  0.50303400  0.51933500  1
  V  V5  1  0.18875500  0.49696600  0.48066500  1
  V  V6  1  0.97626800  0.49626000  0.25626700  1
  V  V7  1  0.02373200  0.50374000  0.74373300  1
  V  V8  1  0.12627700  0.79070700  0.50327100  1
  V  V9  1  0.87372300  0.20929300  0.49672900  1
  V  V10  1  0.32983600  0.79000400  0.72598400  1
  V  V11  1  0.67016400  0.20999600  0.27401600  1
  H  H12  1  0.76199800  0.56535800  0.93614700  1
  H  H13  1  0.23800200  0.43464200  0.06385300  1
  H  H14  1  0.75181200  0.49615500  0.03809200  1
  H  H15  1  0.24818800  0.50384500  0.96190800  1
  H  H16  1  0.42779900  0.46230200  0.27574800  1
  H  H17  1  0.57220100  0.53769800  0.72425200  1
  H  H18  1  0.60505300  0.46358500  0.23132100  1
  H  H19  1  0.39494700  0.53641500  0.76867900  1
  H  H20  1  0.12022300  0.08926900  0.72540300  1
  H  H21  1  0.87977700  0.91073100  0.27459700  1
  H  H22  1  0.10451200  0.24601500  0.76448400  1
  H  H23  1  0.89548800  0.75398500  0.23551600  1
  H  H24  1  0.49539000  0.09472800  0.67654400  1
  H  H25  1  0.50461000  0.90527200  0.32345600  1
  H  H26  1  0.63888800  0.25147900  0.67926400  1
  H  H27  1  0.36111200  0.74852100  0.32073600  1
  H  H28  1  0.33256200  0.10322700  0.93663100  1
  H  H29  1  0.66743800  0.89677300  0.06336900  1
  H  H30  1  0.41154200  0.25341200  0.05736200  1
  H  H31  1  0.58845800  0.74658800  0.94263800  1
  H  H32  1  0.25535600  0.08917600  0.45623400  1
  H  H33  1  0.74464400  0.91082400  0.54376600  1
  H  H34  1  0.40746600  0.25956900  0.46272600  1
  H  H35  1  0.59253400  0.74043100  0.53727400  1
  H  H36  1  0.38429600  0.21126900  0.59210700  1
  H  H37  1  0.61570400  0.78873100  0.40789300  1
  H  H38  1  0.23442700  0.25455900  0.54358300  1
  H  H39  1  0.76557300  0.74544100  0.45641700  1
  H  H40  1  0.22976000  0.92891300  0.12086900  1
  H  H41  1  0.77024000  0.07108700  0.87913100  1
  H  H42  1  0.14961200  0.74822200  0.12010200  1
  H  H43  1  0.85038800  0.25177800  0.87989800  1
  H  H44  1  0.16702900  0.77893000  0.98217400  1
  H  H45  1  0.83297100  0.22107000  0.01782600  1
  H  H46  1  0.34506800  0.82134700  0.06962500  1
  H  H47  1  0.65493200  0.17865300  0.93037500  1
  N  N48  1  0.32022300  0.20351900  0.51277300  1
  N  N49  1  0.67977700  0.79648100  0.48722700  1
  N  N50  1  0.22301200  0.81966400  0.07404200  1
  N  N51  1  0.77698800  0.18033600  0.92595800  1
  O  O52  1  0.15844800  0.88948300  0.41156800  1
  O  O53  1  0.84155200  0.11051700  0.58843200  1
  O  O54  1  0.00661000  0.60452700  0.17161600  1
  O  O55  1  0.99339000  0.39547300  0.82838400  1
  O  O56  1  0.88263500  0.90760700  0.86676900  1
  O  O57  1  0.11736500  0.09239300  0.13323100  1
  O  O58  1  0.52225000  0.89099600  0.79675200  1
  O  O59  1  0.47775000  0.10900400  0.20324800  1
  O  O60  1  0.01830800  0.87700800  0.63716900  1
  O  O61  1  0.98169200  0.12299200  0.36283100  1
  O  O62  1  0.76095100  0.63398700  0.64747100  1
  O  O63  1  0.23904900  0.36601300  0.35252900  1
  O  O64  1  0.75257100  0.36714800  0.20682900  1
  O  O65  1  0.24742900  0.63285200  0.79317100  1
  O  O66  1  0.32766900  0.87282500  0.60185200  1
  O  O67  1  0.67233100  0.12717500  0.39814800  1
  O  O68  1  0.62421700  0.37289900  0.42509000  1
  O  O69  1  0.37578300  0.62710100  0.57491000  1
  O  O70  1  0.93725800  0.64239300  0.83326200  1
  O  O71  1  0.06274200  0.35760700  0.16673800  1
  O  O72  1  0.19709600  0.88490900  0.82601300  1
  O  O73  1  0.80290400  0.11509100  0.17398700  1
  O  O74  1  0.89585300  0.62567800  0.41924600  1
  O  O75  1  0.10414700  0.37432200  0.58075400  1
  O  O76  1  0.81578900  0.37985900  0.61685400  1
  O  O77  1  0.18421100  0.62014100  0.38314600  1
  O  O78  1  0.06449000  0.62095200  0.60421000  1
  O  O79  1  0.93551000  0.37904800  0.39579000  1
  O  O80  1  0.68131700  0.51380800  0.98617500  1
  O  O81  1  0.31868300  0.48619200  0.01382500  1
  O  O82  1  0.51681800  0.49974700  0.22363800  1
  O  O83  1  0.48318200  0.50025300  0.77636200  1
  O  O84  1  0.18346200  0.19979100  0.76770700  1
  O  O85  1  0.81653800  0.80020900  0.23229300  1
  O  O86  1  0.52921400  0.20521700  0.71026400  1
  O  O87  1  0.47078600  0.79478300  0.28973600  1
  O  O88  1  0.42601800  0.20442600  0.96763900  1
  O  O89  1  0.57398200  0.79557400  0.03236100  1
