# generated using pymatgen
data_Li7V3P8O29
_symmetry_space_group_name_H-M   'P 1'
_cell_length_a   9.85674409
_cell_length_b   9.85674409
_cell_length_c   13.90191804
_cell_angle_alpha   89.40270695
_cell_angle_beta   89.40270695
_cell_angle_gamma   59.88657040
_symmetry_Int_Tables_number   1
_chemical_formula_structural   Li7V3P8O29
_chemical_formula_sum   'Li14 V6 P16 O58'
_cell_volume   1168.27035807
_cell_formula_units_Z   2
loop_
 _symmetry_equiv_pos_site_id
 _symmetry_equiv_pos_as_xyz
  1  'x, y, z'
loop_
 _atom_site_type_symbol
 _atom_site_label
 _atom_site_symmetry_multiplicity
 _atom_site_fract_x
 _atom_site_fract_y
 _atom_site_fract_z
 _atom_site_occupancy
  Li  Li0  1  0.08900300  0.67897800  0.43737700  1
  Li  Li1  1  0.34758600  0.33397600  0.61175200  1
  Li  Li2  1  0.33397600  0.34758600  0.11175200  1
  Li  Li3  1  0.67897800  0.08900300  0.93737700  1
  Li  Li4  1  0.09218100  0.23387400  0.93770200  1
  Li  Li5  1  0.76338600  0.89629500  0.55964300  1
  Li  Li6  1  0.23387400  0.09218100  0.43770200  1
  Li  Li7  1  0.89629500  0.76338600  0.05964300  1
  Li  Li8  1  0.33590000  0.89861800  0.05728800  1
  Li  Li9  1  0.32996700  0.76829600  0.56352600  1
  Li  Li10  1  0.89861800  0.33590000  0.55728800  1
  Li  Li11  1  0.76829600  0.32996700  0.06352600  1
  Li  Li12  1  0.04245400  0.94137100  0.98968000  1
  Li  Li13  1  0.94137100  0.04245400  0.48968000  1
  V  V14  1  0.56425400  0.00021600  0.75073100  1
  V  V15  1  0.43754100  0.99779600  0.25165600  1
  V  V16  1  0.00021600  0.56425400  0.25073100  1
  V  V17  1  0.99779600  0.43754000  0.75165600  1
  V  V18  1  0.43705000  0.56256800  0.75242100  1
  V  V19  1  0.56256800  0.43705000  0.25242100  1
  P  P20  1  0.21822800  0.69443200  0.15956000  1
  P  P21  1  0.09016800  0.68471100  0.65835600  1
  P  P22  1  0.69443200  0.21822800  0.65956000  1
  P  P23  1  0.33099300  0.33011600  0.87092800  1
  P  P24  1  0.33011600  0.33099300  0.37092800  1
  P  P25  1  0.68471100  0.09016800  0.15835600  1
  P  P26  1  0.77430400  0.91381500  0.34419200  1
  P  P27  1  0.09486100  0.22469800  0.15578300  1
  P  P28  1  0.91381500  0.77430400  0.84419200  1
  P  P29  1  0.22469800  0.09486100  0.65578300  1
  P  P30  1  0.31024700  0.91443800  0.84097700  1
  P  P31  1  0.67018800  0.66787500  0.62756100  1
  P  P32  1  0.66787500  0.67018800  0.12756100  1
  P  P33  1  0.30971500  0.77304400  0.34685900  1
  P  P34  1  0.91443800  0.31024700  0.34097700  1
  P  P35  1  0.77304400  0.30971500  0.84685900  1
  O  O36  1  0.22098700  0.77816300  0.43816400  1
  O  O37  1  0.25355500  0.66676600  0.65470300  1
  O  O38  1  0.98778800  0.78964800  0.93460300  1
  O  O39  1  0.07657200  0.66514400  0.15702600  1
  O  O40  1  0.36892300  0.53310900  0.16249000  1
  O  O41  1  0.32444300  0.47790900  0.82958600  1
  O  O42  1  0.53310900  0.36892300  0.66249000  1
  O  O43  1  0.77816300  0.22098700  0.93816400  1
  O  O44  1  0.66676600  0.25355500  0.15470300  1
  O  O45  1  0.18343500  0.48763900  0.33318500  1
  O  O46  1  0.10860900  0.51946200  0.67306900  1
  O  O47  1  0.47790900  0.32444300  0.32958600  1
  O  O48  1  0.32651300  0.31926300  0.97898400  1
  O  O49  1  0.31926300  0.32651300  0.47898400  1
  O  O50  1  0.48763900  0.18343500  0.83318500  1
  O  O51  1  0.11297000  0.37097500  0.16993300  1
  O  O52  1  0.18531200  0.32134700  0.82956200  1
  O  O53  1  0.66514400  0.07657200  0.65702600  1
  O  O54  1  0.79158800  0.00369000  0.25103200  1
  O  O55  1  0.78964800  0.98778800  0.43460300  1
  O  O56  1  0.76722200  0.99482900  0.07001500  1
  O  O57  1  0.51946200  0.10860900  0.17306900  1
  O  O58  1  0.32134700  0.18531200  0.32956200  1
  O  O59  1  0.74531200  0.91777800  0.83786200  1
  O  O60  1  0.37097500  0.11297000  0.66993300  1
  O  O61  1  0.07790500  0.25925400  0.65280900  1
  O  O62  1  0.00369000  0.79158800  0.75103200  1
  O  O63  1  0.99482900  0.76722200  0.57001500  1
  O  O64  1  0.00201200  0.22260100  0.43133800  1
  O  O65  1  0.91777800  0.74531200  0.33786200  1
  O  O66  1  0.61825000  0.91537600  0.33562400  1
  O  O67  1  0.25925400  0.07790500  0.15280900  1
  O  O68  1  0.67183700  0.81495900  0.66826100  1
  O  O69  1  0.46530200  0.91807400  0.82688000  1
  O  O70  1  0.22260100  0.00201200  0.93133800  1
  O  O71  1  0.23622500  0.99993500  0.56817100  1
  O  O72  1  0.20252800  0.01036300  0.74964400  1
  O  O73  1  0.32664100  0.92050200  0.34084300  1
  O  O74  1  0.81495900  0.67183700  0.16826100  1
  O  O75  1  0.91537600  0.61825000  0.83562400  1
  O  O76  1  0.51795600  0.81657200  0.17727900  1
  O  O77  1  0.65590300  0.69749600  0.02129300  1
  O  O78  1  0.69749600  0.65590300  0.52129300  1
  O  O79  1  0.51892000  0.67063900  0.66200800  1
  O  O80  1  0.91807400  0.46530200  0.32688000  1
  O  O81  1  0.81657200  0.51795600  0.67727900  1
  O  O82  1  0.33621400  0.75070200  0.83919500  1
  O  O83  1  0.19629400  0.78610900  0.25900000  1
  O  O84  1  0.20560100  0.80418000  0.07959700  1
  O  O85  1  0.46710300  0.62491200  0.33429000  1
  O  O86  1  0.67063900  0.51892000  0.16200800  1
  O  O87  1  0.62491200  0.46710300  0.83429000  1
  O  O88  1  0.92050200  0.32664100  0.84084300  1
  O  O89  1  0.99993500  0.23622500  0.06817100  1
  O  O90  1  0.01036300  0.20252800  0.24964400  1
  O  O91  1  0.75070200  0.33621400  0.33919500  1
  O  O92  1  0.80418000  0.20560100  0.57959700  1
  O  O93  1  0.78610900  0.19629400  0.75900000  1
