# generated using pymatgen
data_Rb4LiH3(SO4)4
_symmetry_space_group_name_H-M   'P 1'
_cell_length_a   7.74802800
_cell_length_b   7.74802800
_cell_length_c   30.00459700
_cell_angle_alpha   90.00000000
_cell_angle_beta   90.00000000
_cell_angle_gamma   90.00000000
_symmetry_Int_Tables_number   1
_chemical_formula_structural   Rb4LiH3(SO4)4
_chemical_formula_sum   'Rb16 Li4 H12 S16 O64'
_cell_volume   1801.23410348
_cell_formula_units_Z   4
loop_
 _symmetry_equiv_pos_site_id
 _symmetry_equiv_pos_as_xyz
  1  'x, y, z'
loop_
 _atom_site_type_symbol
 _atom_site_label
 _atom_site_symmetry_multiplicity
 _atom_site_fract_x
 _atom_site_fract_y
 _atom_site_fract_z
 _atom_site_occupancy
  Rb  Rb0  1  0.93464200  0.11442100  0.47482100  1
  Rb  Rb1  1  0.06535800  0.88557900  0.97482100  1
  Rb  Rb2  1  0.11442100  0.06535800  0.72482100  1
  Rb  Rb3  1  0.88557900  0.93464200  0.22482100  1
  Rb  Rb4  1  0.51852700  0.22708700  0.37000300  1
  Rb  Rb5  1  0.48147300  0.77291300  0.87000300  1
  Rb  Rb6  1  0.22708700  0.48147300  0.62000300  1
  Rb  Rb7  1  0.77291300  0.51852700  0.12000300  1
  Rb  Rb8  1  0.63579600  0.61799900  0.48805500  1
  Rb  Rb9  1  0.36420400  0.38200100  0.98805500  1
  Rb  Rb10  1  0.61799900  0.36420400  0.73805500  1
  Rb  Rb11  1  0.38200100  0.63579600  0.23805500  1
  Rb  Rb12  1  0.02385200  0.52860300  0.35959300  1
  Rb  Rb13  1  0.97614800  0.47139700  0.85959300  1
  Rb  Rb14  1  0.52860300  0.97614800  0.60959300  1
  Rb  Rb15  1  0.47139700  0.02385200  0.10959300  1
  Li  Li16  1  0.27923700  0.87141900  0.42245400  1
  Li  Li17  1  0.72076300  0.12858100  0.92245400  1
  Li  Li18  1  0.87141900  0.72076300  0.67245400  1
  Li  Li19  1  0.12858100  0.27923700  0.17245400  1
  H  H20  1  0.07224100  0.78388300  0.53887200  1
  H  H21  1  0.92775900  0.21611700  0.03887200  1
  H  H22  1  0.78388300  0.92775900  0.78887200  1
  H  H23  1  0.21611700  0.07224100  0.28887200  1
  H  H24  1  0.31281000  0.31812900  0.52391500  1
  H  H25  1  0.68719000  0.68187100  0.02391500  1
  H  H26  1  0.31812900  0.68719000  0.77391500  1
  H  H27  1  0.68187100  0.31281000  0.27391500  1
  H  H28  1  0.73227200  0.84628200  0.32338900  1
  H  H29  1  0.26772800  0.15371800  0.82338900  1
  H  H30  1  0.84628200  0.26772800  0.57338900  1
  H  H31  1  0.15371800  0.73227200  0.07338900  1
  S  S32  1  0.12604500  0.58624900  0.48553800  1
  S  S33  1  0.87395500  0.41375100  0.98553800  1
  S  S34  1  0.58624900  0.87395500  0.73553800  1
  S  S35  1  0.41375100  0.12604500  0.23553800  1
  S  S36  1  0.46342000  0.12492000  0.48832800  1
  S  S37  1  0.53658000  0.87508000  0.98832800  1
  S  S38  1  0.12492000  0.53658000  0.73832800  1
  S  S39  1  0.87508000  0.46342000  0.23832800  1
  S  S40  1  0.53721200  0.69551200  0.36026900  1
  S  S41  1  0.46278800  0.30448800  0.86026900  1
  S  S42  1  0.69551200  0.46278800  0.61026900  1
  S  S43  1  0.30448800  0.53721200  0.11026900  1
  S  S44  1  0.00660300  0.03649800  0.35622800  1
  S  S45  1  0.99339700  0.96350200  0.85622800  1
  S  S46  1  0.03649800  0.99339700  0.60622800  1
  S  S47  1  0.96350200  0.00660300  0.10622800  1
  O  O48  1  0.25905500  0.65271200  0.45488900  1
  O  O49  1  0.74094500  0.34728800  0.95488900  1
  O  O50  1  0.65271200  0.74094500  0.70488900  1
  O  O51  1  0.34728800  0.25905500  0.20488900  1
  O  O52  1  0.02768500  0.74546200  0.50681300  1
  O  O53  1  0.97231500  0.25453800  0.00681300  1
  O  O54  1  0.74546200  0.97231500  0.75681300  1
  O  O55  1  0.25453800  0.02768500  0.25681300  1
  O  O56  1  0.20476200  0.49368700  0.52362200  1
  O  O57  1  0.79523800  0.50631300  0.02362200  1
  O  O58  1  0.49368700  0.79523800  0.77362200  1
  O  O59  1  0.50631300  0.20476200  0.27362200  1
  O  O60  1  0.99377200  0.48767500  0.46207400  1
  O  O61  1  0.00622800  0.51232500  0.96207400  1
  O  O62  1  0.48767500  0.00622800  0.71207400  1
  O  O63  1  0.51232500  0.99377200  0.21207400  1
  O  O64  1  0.55882700  0.97708300  0.50597400  1
  O  O65  1  0.44117300  0.02291700  0.00597400  1
  O  O66  1  0.97708300  0.44117300  0.75597400  1
  O  O67  1  0.02291700  0.55882700  0.25597400  1
  O  O68  1  0.57426500  0.25571500  0.46747200  1
  O  O69  1  0.42573500  0.74428500  0.96747200  1
  O  O70  1  0.25571500  0.42573500  0.71747200  1
  O  O71  1  0.74428500  0.57426500  0.21747200  1
  O  O72  1  0.37891900  0.20854000  0.53148900  1
  O  O73  1  0.62108100  0.79146000  0.03148900  1
  O  O74  1  0.20854000  0.62108100  0.78148900  1
  O  O75  1  0.79146000  0.37891900  0.28148900  1
  O  O76  1  0.31845900  0.07713000  0.45875200  1
  O  O77  1  0.68154100  0.92287000  0.95875200  1
  O  O78  1  0.07713000  0.68154100  0.70875200  1
  O  O79  1  0.92287000  0.31845900  0.20875200  1
  O  O80  1  0.89331900  0.16641200  0.37733400  1
  O  O81  1  0.10668100  0.83358800  0.87733400  1
  O  O82  1  0.16641200  0.10668100  0.62733400  1
  O  O83  1  0.83358800  0.89331900  0.12733400  1
  O  O84  1  0.07077000  0.91355800  0.39072000  1
  O  O85  1  0.92923000  0.08644200  0.89072000  1
  O  O86  1  0.91355800  0.92923000  0.64072000  1
  O  O87  1  0.08644200  0.07077000  0.14072000  1
  O  O88  1  0.91166200  0.93685400  0.32110800  1
  O  O89  1  0.08833800  0.06314600  0.82110800  1
  O  O90  1  0.93685400  0.08833800  0.57110800  1
  O  O91  1  0.06314600  0.91166200  0.07110800  1
  O  O92  1  0.15760700  0.12635700  0.33405100  1
  O  O93  1  0.84239300  0.87364300  0.83405100  1
  O  O94  1  0.12635700  0.84239300  0.58405100  1
  O  O95  1  0.87364300  0.15760700  0.08405100  1
  O  O96  1  0.48700800  0.84567800  0.38762400  1
  O  O97  1  0.51299200  0.15432200  0.88762400  1
  O  O98  1  0.84567800  0.51299200  0.63762400  1
  O  O99  1  0.15432200  0.48700800  0.13762400  1
  O  O100  1  0.39110500  0.59604700  0.34274000  1
  O  O101  1  0.60889500  0.40395300  0.84274000  1
  O  O102  1  0.59604700  0.60889500  0.59274000  1
  O  O103  1  0.40395300  0.39110500  0.09274000  1
  O  O104  1  0.62390500  0.77311600  0.31665900  1
  O  O105  1  0.37609500  0.22688400  0.81665900  1
  O  O106  1  0.77311600  0.37609500  0.56665900  1
  O  O107  1  0.22688400  0.62390500  0.06665900  1
  O  O108  1  0.66424300  0.58703300  0.38351500  1
  O  O109  1  0.33575700  0.41296700  0.88351500  1
  O  O110  1  0.58703300  0.33575700  0.63351500  1
  O  O111  1  0.41296700  0.66424300  0.13351500  1
