# generated using pymatgen
data_Li5Mn17(SiO16)2
_symmetry_space_group_name_H-M   'P 1'
_cell_length_a   8.63365284
_cell_length_b   8.42886272
_cell_length_c   8.34877170
_cell_angle_alpha   90.63866292
_cell_angle_beta   90.04809229
_cell_angle_gamma   90.34428479
_symmetry_Int_Tables_number   1
_chemical_formula_structural   Li5Mn17(SiO16)2
_chemical_formula_sum   'Li5 Mn17 Si2 O32'
_cell_volume   607.50680591
_cell_formula_units_Z   1
loop_
 _symmetry_equiv_pos_site_id
 _symmetry_equiv_pos_as_xyz
  1  'x, y, z'
loop_
 _atom_site_type_symbol
 _atom_site_label
 _atom_site_symmetry_multiplicity
 _atom_site_fract_x
 _atom_site_fract_y
 _atom_site_fract_z
 _atom_site_occupancy
  Li  Li0  1  0.00000800  0.50149500  0.50507600  1
  Li  Li1  1  0.49201600  0.49826000  0.99357300  1
  Li  Li2  1  0.49813300  0.01169800  0.50301000  1
  Li  Li3  1  0.75641800  0.24612100  0.75393500  1
  Li  Li4  1  0.00208400  0.00676000  0.99766100  1
  Mn  Mn5  1  0.12875900  0.87389400  0.37876600  1
  Mn  Mn6  1  0.13649100  0.62197400  0.11605100  1
  Mn  Mn7  1  0.24798500  0.74776000  0.74211900  1
  Mn  Mn8  1  0.24245500  0.24822600  0.25144500  1
  Mn  Mn9  1  0.37569600  0.36330800  0.62403200  1
  Mn  Mn10  1  0.36456300  0.12162200  0.87367900  1
  Mn  Mn11  1  0.37528600  0.62627500  0.37429800  1
  Mn  Mn12  1  0.36650600  0.87687800  0.12564200  1
  Mn  Mn13  1  0.62725200  0.37041100  0.37543200  1
  Mn  Mn14  1  0.62657900  0.12607900  0.12611500  1
  Mn  Mn15  1  0.62624200  0.62157300  0.62674800  1
  Mn  Mn16  1  0.62618100  0.87808700  0.87345800  1
  Mn  Mn17  1  0.75426500  0.74623200  0.24987100  1
  Mn  Mn18  1  0.87797000  0.13568200  0.38208400  1
  Mn  Mn19  1  0.87521600  0.37561200  0.12291700  1
  Mn  Mn20  1  0.87790200  0.87850000  0.63397400  1
  Mn  Mn21  1  0.88166400  0.62327400  0.86884000  1
  Si  Si22  1  0.11335000  0.13205100  0.63661700  1
  Si  Si23  1  0.12068000  0.37018200  0.86417500  1
  O  O24  1  0.10745700  0.12595300  0.41450000  1
  O  O25  1  0.13040700  0.57834200  0.86075300  1
  O  O26  1  0.13474500  0.38743000  0.08462300  1
  O  O27  1  0.15180600  0.63349100  0.37694700  1
  O  O28  1  0.10766400  0.91457900  0.63438200  1
  O  O29  1  0.11239200  0.15510500  0.85295100  1
  O  O30  1  0.11584500  0.34518700  0.64651700  1
  O  O31  1  0.14494300  0.85577400  0.12459100  1
  O  O32  1  0.32596100  0.12542900  0.63661000  1
  O  O33  1  0.36707400  0.64646100  0.13596700  1
  O  O34  1  0.35382100  0.88569300  0.35579400  1
  O  O35  1  0.36976000  0.10237800  0.11000100  1
  O  O36  1  0.34026300  0.35579400  0.85642000  1
  O  O37  1  0.39125700  0.60745800  0.60880900  1
  O  O38  1  0.40080300  0.36345100  0.39271200  1
  O  O39  1  0.37283200  0.89005800  0.89380500  1
  O  O40  1  0.62238000  0.37327900  0.60341300  1
  O  O41  1  0.60209800  0.88680400  0.11956500  1
  O  O42  1  0.61799100  0.10897500  0.89440600  1
  O  O43  1  0.65453500  0.88313100  0.63761900  1
  O  O44  1  0.60737100  0.60756600  0.38611100  1
  O  O45  1  0.62201500  0.35892400  0.14181500  1
  O  O46  1  0.64545700  0.14131800  0.36396100  1
  O  O47  1  0.62282000  0.64466100  0.85511900  1
  O  O48  1  0.84940000  0.38960600  0.35638400  1
  O  O49  1  0.87953700  0.85561200  0.86283400  1
  O  O50  1  0.86181400  0.64625800  0.63569400  1
  O  O51  1  0.90823500  0.38592900  0.88580900  1
  O  O52  1  0.88257900  0.14479000  0.14948300  1
  O  O53  1  0.90170100  0.87205600  0.39718900  1
  O  O54  1  0.90177100  0.11285000  0.61967900  1
  O  O55  1  0.89956900  0.61379100  0.10610700  1
