# generated using pymatgen
data_Li4MnCrO6
_symmetry_space_group_name_H-M   'P 1'
_cell_length_a   5.02243400
_cell_length_b   8.68789174
_cell_length_c   9.75175993
_cell_angle_alpha   98.19491479
_cell_angle_beta   94.81953857
_cell_angle_gamma   89.70553641
_symmetry_Int_Tables_number   1
_chemical_formula_structural   Li4MnCrO6
_chemical_formula_sum   'Li16 Mn4 Cr4 O24'
_cell_volume   419.66766499
_cell_formula_units_Z   4
loop_
 _symmetry_equiv_pos_site_id
 _symmetry_equiv_pos_as_xyz
  1  'x, y, z'
loop_
 _atom_site_type_symbol
 _atom_site_label
 _atom_site_symmetry_multiplicity
 _atom_site_fract_x
 _atom_site_fract_y
 _atom_site_fract_z
 _atom_site_occupancy
  Li  Li0  1  0.99546200  0.16894000  0.50021700  1
  Li  Li1  1  0.87672100  0.37505900  0.74933400  1
  Li  Li2  1  0.75270500  0.24971700  0.99995300  1
  Li  Li3  1  0.74170000  0.91998800  0.99997600  1
  Li  Li4  1  0.75919400  0.58074700  0.00046400  1
  Li  Li5  1  0.62411100  0.12223700  0.24989600  1
  Li  Li6  1  0.50259700  0.33136000  0.50053800  1
  Li  Li7  1  0.50362900  0.00112800  0.49966300  1
  Li  Li8  1  0.49085100  0.66742800  0.49871500  1
  Li  Li9  1  0.37320900  0.87481100  0.75044900  1
  Li  Li10  1  0.25422900  0.75029600  0.99973500  1
  Li  Li11  1  0.23954200  0.42090000  0.00000000  1
  Li  Li12  1  0.25425100  0.07886400  0.99904500  1
  Li  Li13  1  0.12394700  0.62273100  0.25010100  1
  Li  Li14  1  0.00498700  0.83044300  0.49997000  1
  Li  Li15  1  0.00227100  0.50104000  0.50015000  1
  Mn  Mn16  1  0.87693800  0.04317500  0.75129500  1
  Mn  Mn17  1  0.62565400  0.79178900  0.25028200  1
  Mn  Mn18  1  0.37319300  0.20660300  0.74904700  1
  Mn  Mn19  1  0.12518200  0.29197000  0.24989600  1
  Cr  Cr20  1  0.87093600  0.71222400  0.75106500  1
  Cr  Cr21  1  0.62281700  0.45529100  0.24969900  1
  Cr  Cr22  1  0.37785200  0.53807000  0.74890800  1
  Cr  Cr23  1  0.12311100  0.95515600  0.24980600  1
  O  O24  1  0.96654300  0.10738400  0.13847800  1
  O  O25  1  0.92873300  0.78740900  0.13890200  1
  O  O26  1  0.93288500  0.42673000  0.13419000  1
  O  O27  1  0.81638100  0.96399200  0.36322000  1
  O  O28  1  0.82265200  0.32548200  0.36325600  1
  O  O29  1  0.78473500  0.64386100  0.36209200  1
  O  O30  1  0.71735900  0.85796800  0.63915600  1
  O  O31  1  0.66908700  0.53563500  0.63713500  1
  O  O32  1  0.67688800  0.17847000  0.63672600  1
  O  O33  1  0.46772600  0.60694900  0.13830800  1
  O  O34  1  0.58052100  0.71407500  0.86269500  1
  O  O35  1  0.57309800  0.07200700  0.86346900  1
  O  O36  1  0.43295300  0.92657400  0.13461900  1
  O  O37  1  0.42845200  0.28754200  0.13856400  1
  O  O38  1  0.53249600  0.39191400  0.86161200  1
  O  O39  1  0.32293700  0.82491300  0.36363000  1
  O  O40  1  0.31617300  0.46384800  0.36286200  1
  O  O41  1  0.28476200  0.14368800  0.36165500  1
  O  O42  1  0.21127200  0.35298000  0.63716600  1
  O  O43  1  0.17444700  0.67678600  0.63613500  1
  O  O44  1  0.17852700  0.03426200  0.63859300  1
  O  O45  1  0.07636600  0.57434000  0.86420000  1
  O  O46  1  0.07169000  0.21559700  0.86138000  1
  O  O47  1  0.03822800  0.89763000  0.86375300  1
