# generated using pymatgen
data_Li4Ti4V(Fe2O9)2
_symmetry_space_group_name_H-M   'P 1'
_cell_length_a   2.95209600
_cell_length_b   9.23969400
_cell_length_c   25.46873200
_cell_angle_alpha   90.00000000
_cell_angle_beta   90.00000000
_cell_angle_gamma   90.00000000
_symmetry_Int_Tables_number   1
_chemical_formula_structural   Li4Ti4V(Fe2O9)2
_chemical_formula_sum   'Li8 Ti8 V2 Fe8 O36'
_cell_volume   694.69694385
_cell_formula_units_Z   2
loop_
 _symmetry_equiv_pos_site_id
 _symmetry_equiv_pos_as_xyz
  1  'x, y, z'
loop_
 _atom_site_type_symbol
 _atom_site_label
 _atom_site_symmetry_multiplicity
 _atom_site_fract_x
 _atom_site_fract_y
 _atom_site_fract_z
 _atom_site_occupancy
  Li  Li0  1  0.00000000  0.19769800  0.48871100  1
  Li  Li1  1  0.00000000  0.19613800  0.68405700  1
  Li  Li2  1  0.00000000  0.30386200  0.18405700  1
  Li  Li3  1  0.00000000  0.30230200  0.98871100  1
  Li  Li4  1  0.00000000  0.69769800  0.01128900  1
  Li  Li5  1  0.00000000  0.69613800  0.81594300  1
  Li  Li6  1  0.00000000  0.80386200  0.31594300  1
  Li  Li7  1  0.00000000  0.80230200  0.51128900  1
  Ti  Ti8  1  0.00000000  0.99908800  0.59971500  1
  Ti  Ti9  1  0.50000000  0.15827400  0.30979500  1
  Ti  Ti10  1  0.50000000  0.34172600  0.80979500  1
  Ti  Ti11  1  0.00000000  0.50091200  0.09971500  1
  Ti  Ti12  1  0.00000000  0.49908800  0.90028500  1
  Ti  Ti13  1  0.50000000  0.65827400  0.19020500  1
  Ti  Ti14  1  0.50000000  0.84172600  0.69020500  1
  Ti  Ti15  1  0.00000000  0.00091200  0.40028500  1
  V  V16  1  0.00000000  0.00000000  0.00000000  1
  V  V17  1  0.00000000  0.50000000  0.50000000  1
  Fe  Fe18  1  0.00000000  0.99916700  0.80567300  1
  Fe  Fe19  1  0.50000000  0.15147700  0.08613900  1
  Fe  Fe20  1  0.50000000  0.34852300  0.58613900  1
  Fe  Fe21  1  0.00000000  0.50083300  0.30567300  1
  Fe  Fe22  1  0.00000000  0.49916700  0.69432700  1
  Fe  Fe23  1  0.50000000  0.65147700  0.41386100  1
  Fe  Fe24  1  0.50000000  0.84852300  0.91386100  1
  Fe  Fe25  1  0.00000000  0.00083300  0.19432700  1
  O  O26  1  0.00000000  0.99287800  0.92556400  1
  O  O27  1  0.00000000  0.00712200  0.07443600  1
  O  O28  1  0.50000000  0.06156700  0.44324000  1
  O  O29  1  0.50000000  0.04331900  0.65591300  1
  O  O30  1  0.50000000  0.12739100  0.16492600  1
  O  O31  1  0.00000000  0.10221600  0.26142800  1
  O  O32  1  0.50000000  0.14792400  0.00328000  1
  O  O33  1  0.50000000  0.13915300  0.79145400  1
  O  O34  1  0.00000000  0.18699000  0.35851500  1
  O  O35  1  0.00000000  0.19890300  0.58268200  1
  O  O36  1  0.00000000  0.30109700  0.08268200  1
  O  O37  1  0.00000000  0.31301000  0.85851500  1
  O  O38  1  0.50000000  0.36084700  0.29145400  1
  O  O39  1  0.50000000  0.35207600  0.50328000  1
  O  O40  1  0.00000000  0.39778400  0.76142800  1
  O  O41  1  0.50000000  0.37260900  0.66492600  1
  O  O42  1  0.50000000  0.45668100  0.15591300  1
  O  O43  1  0.50000000  0.43843300  0.94324000  1
  O  O44  1  0.00000000  0.49287800  0.57443600  1
  O  O45  1  0.00000000  0.50712200  0.42556400  1
  O  O46  1  0.50000000  0.56156700  0.05676000  1
  O  O47  1  0.50000000  0.54331900  0.84408700  1
  O  O48  1  0.50000000  0.62739100  0.33507400  1
  O  O49  1  0.00000000  0.60221600  0.23857200  1
  O  O50  1  0.50000000  0.64792400  0.49672000  1
  O  O51  1  0.50000000  0.63915300  0.70854600  1
  O  O52  1  0.00000000  0.68699000  0.14148500  1
  O  O53  1  0.00000000  0.69890300  0.91731800  1
  O  O54  1  0.00000000  0.80109700  0.41731800  1
  O  O55  1  0.00000000  0.81301000  0.64148500  1
  O  O56  1  0.50000000  0.86084700  0.20854600  1
  O  O57  1  0.50000000  0.85207600  0.99672000  1
  O  O58  1  0.00000000  0.89778400  0.73857200  1
  O  O59  1  0.50000000  0.87260900  0.83507400  1
  O  O60  1  0.50000000  0.95668100  0.34408700  1
  O  O61  1  0.50000000  0.93843300  0.55676000  1
