# generated using pymatgen
data_Li4Cr3GaO8
_symmetry_space_group_name_H-M   'P 1'
_cell_length_a   5.90946984
_cell_length_b   8.90532260
_cell_length_c   6.65635843
_cell_angle_alpha   81.12183623
_cell_angle_beta   116.35627475
_cell_angle_gamma   109.38039096
_symmetry_Int_Tables_number   1
_chemical_formula_structural   Li4Cr3GaO8
_chemical_formula_sum   'Li8 Cr6 Ga2 O16'
_cell_volume   296.08684165
_cell_formula_units_Z   2
loop_
 _symmetry_equiv_pos_site_id
 _symmetry_equiv_pos_as_xyz
  1  'x, y, z'
loop_
 _atom_site_type_symbol
 _atom_site_label
 _atom_site_symmetry_multiplicity
 _atom_site_fract_x
 _atom_site_fract_y
 _atom_site_fract_z
 _atom_site_occupancy
  Li  Li0  1  0.00000100  0.49990000  0.50010200  1
  Li  Li1  1  0.00000100  0.99990100  0.00010300  1
  Li  Li2  1  0.49999700  0.50009900  0.49989900  1
  Li  Li3  1  0.49999500  0.00010000  0.99990000  1
  Li  Li4  1  0.24999600  0.25000000  0.74999700  1
  Li  Li5  1  0.25000000  0.75000000  0.25000000  1
  Li  Li6  1  0.74999500  0.25000000  0.74999600  1
  Li  Li7  1  0.74999600  0.75000000  0.25000000  1
  Cr  Cr8  1  0.25126200  0.99999800  0.50000600  1
  Cr  Cr9  1  0.00004300  0.25077300  0.24933700  1
  Cr  Cr10  1  0.99991300  0.74923100  0.75065700  1
  Cr  Cr11  1  0.24873500  0.50000500  0.99999900  1
  Cr  Cr12  1  0.50008000  0.75075900  0.74934600  1
  Cr  Cr13  1  0.49996400  0.24923700  0.25065200  1
  Ga  Ga14  1  0.74929100  0.49999300  0.99999000  1
  Ga  Ga15  1  0.75070700  0.00000700  0.50000600  1
  O  O16  1  0.63681900  0.25881200  0.01531000  1
  O  O17  1  0.63725700  0.75879900  0.51531900  1
  O  O18  1  0.86274800  0.74119000  0.98469500  1
  O  O19  1  0.86318600  0.24119900  0.48467800  1
  O  O20  1  0.13787800  0.25802600  0.01590500  1
  O  O21  1  0.13601200  0.75801300  0.51593100  1
  O  O22  1  0.36398900  0.74197700  0.98408300  1
  O  O23  1  0.36212100  0.24197800  0.48408700  1
  O  O24  1  0.38774600  0.50887800  0.76709700  1
  O  O25  1  0.38852600  0.00727200  0.26621900  1
  O  O26  1  0.11147800  0.49273900  0.23377500  1
  O  O27  1  0.11224900  0.99111100  0.73290800  1
  O  O28  1  0.61177200  0.49111600  0.23290700  1
  O  O29  1  0.61503500  0.99272100  0.73378400  1
  O  O30  1  0.88496300  0.50727000  0.76621700  1
  O  O31  1  0.88824200  0.00889900  0.26709500  1
