# generated using pymatgen
data_Li4Mn2Si4O13
_symmetry_space_group_name_H-M   'P 1'
_cell_length_a   4.94372900
_cell_length_b   14.17074500
_cell_length_c   14.25281600
_cell_angle_alpha   90.00000000
_cell_angle_beta   90.00000000
_cell_angle_gamma   90.00000000
_symmetry_Int_Tables_number   1
_chemical_formula_structural   Li4Mn2Si4O13
_chemical_formula_sum   'Li16 Mn8 Si16 O52'
_cell_volume   998.49988147
_cell_formula_units_Z   4
loop_
 _symmetry_equiv_pos_site_id
 _symmetry_equiv_pos_as_xyz
  1  'x, y, z'
loop_
 _atom_site_type_symbol
 _atom_site_label
 _atom_site_symmetry_multiplicity
 _atom_site_fract_x
 _atom_site_fract_y
 _atom_site_fract_z
 _atom_site_occupancy
  Li  Li0  1  0.18200900  0.03934600  0.22490000  1
  Li  Li1  1  0.68295700  0.11354800  0.92015000  1
  Li  Li2  1  0.66308000  0.12775800  0.11178200  1
  Li  Li3  1  0.24994400  0.20999800  0.83594600  1
  Li  Li4  1  0.74994400  0.29000200  0.33594600  1
  Li  Li5  1  0.16308000  0.37224200  0.61178200  1
  Li  Li6  1  0.18295700  0.38645200  0.42015000  1
  Li  Li7  1  0.68200900  0.46065400  0.72490000  1
  Li  Li8  1  0.31799100  0.53934600  0.22490000  1
  Li  Li9  1  0.81704300  0.61354800  0.92015000  1
  Li  Li10  1  0.83692000  0.62775800  0.11178200  1
  Li  Li11  1  0.25005600  0.70999800  0.83594600  1
  Li  Li12  1  0.75005600  0.79000200  0.33594600  1
  Li  Li13  1  0.33692000  0.87224200  0.61178200  1
  Li  Li14  1  0.31704300  0.88645200  0.42015000  1
  Li  Li15  1  0.81799100  0.96065400  0.72490000  1
  Mn  Mn16  1  0.35487100  0.07698900  0.62712700  1
  Mn  Mn17  1  0.18559300  0.17688500  0.42098500  1
  Mn  Mn18  1  0.68559300  0.32311500  0.92098500  1
  Mn  Mn19  1  0.85487100  0.42301100  0.12712700  1
  Mn  Mn20  1  0.14512900  0.57698900  0.62712700  1
  Mn  Mn21  1  0.31440700  0.67688500  0.42098500  1
  Mn  Mn22  1  0.81440700  0.82311500  0.92098500  1
  Mn  Mn23  1  0.64512900  0.92301100  0.12712700  1
  Si  Si24  1  0.15547600  0.01761500  0.00630100  1
  Si  Si25  1  0.69480600  0.06818400  0.32146600  1
  Si  Si26  1  0.85263000  0.18388200  0.72333500  1
  Si  Si27  1  0.17825000  0.22411500  0.04090900  1
  Si  Si28  1  0.67825000  0.27588500  0.54090900  1
  Si  Si29  1  0.35263000  0.31611800  0.22333500  1
  Si  Si30  1  0.19480600  0.43181600  0.82146600  1
  Si  Si31  1  0.65547600  0.48238500  0.50630100  1
  Si  Si32  1  0.34452400  0.51761500  0.00630100  1
  Si  Si33  1  0.80519400  0.56818400  0.32146600  1
  Si  Si34  1  0.64737000  0.68388200  0.72333500  1
  Si  Si35  1  0.32175000  0.72411500  0.04090900  1
  Si  Si36  1  0.82175000  0.77588500  0.54090900  1
  Si  Si37  1  0.14737000  0.81611800  0.22333500  1
  Si  Si38  1  0.30519400  0.93181600  0.82146600  1
  Si  Si39  1  0.84452400  0.98238500  0.50630100  1
  O  O40  1  0.44259400  0.02342700  0.06105600  1
  O  O41  1  0.77949300  0.04330300  0.21397600  1
  O  O42  1  0.21199800  0.02149900  0.89187500  1
  O  O43  1  0.05480100  0.06578800  0.53224700  1
  O  O44  1  0.37024800  0.08307200  0.33767400  1
  O  O45  1  0.67605600  0.08943900  0.70254700  1
  O  O46  1  0.00139900  0.12240700  0.02683700  1
  O  O47  1  0.86545100  0.16219300  0.35045900  1
  O  O48  1  0.17724800  0.16976200  0.70334300  1
  O  O49  1  0.47672200  0.19019100  0.51441900  1
  O  O50  1  0.25522300  0.22620300  0.15412000  1
  O  O51  1  0.83324400  0.20839700  0.83479900  1
  O  O52  1  0.45726500  0.21301600  0.98060600  1
  O  O53  1  0.95726500  0.28698400  0.48060600  1
  O  O54  1  0.33324400  0.29160300  0.33479900  1
  O  O55  1  0.75522300  0.27379700  0.65412000  1
  O  O56  1  0.97672200  0.30980900  0.01441900  1
  O  O57  1  0.67724800  0.33023800  0.20334300  1
  O  O58  1  0.36545100  0.33780700  0.85045900  1
  O  O59  1  0.50139900  0.37759300  0.52683700  1
  O  O60  1  0.17605600  0.41056100  0.20254700  1
  O  O61  1  0.87024800  0.41692800  0.83767400  1
  O  O62  1  0.55480100  0.43421200  0.03224700  1
  O  O63  1  0.71199800  0.47850100  0.39187500  1
  O  O64  1  0.27949300  0.45669700  0.71397600  1
  O  O65  1  0.94259400  0.47657300  0.56105600  1
  O  O66  1  0.05740600  0.52342700  0.06105600  1
  O  O67  1  0.72050700  0.54330300  0.21397600  1
  O  O68  1  0.28800200  0.52149900  0.89187500  1
  O  O69  1  0.44519900  0.56578800  0.53224700  1
  O  O70  1  0.12975200  0.58307200  0.33767400  1
  O  O71  1  0.82394400  0.58943900  0.70254700  1
  O  O72  1  0.49860100  0.62240700  0.02683700  1
  O  O73  1  0.63454900  0.66219300  0.35045900  1
  O  O74  1  0.32275200  0.66976200  0.70334300  1
  O  O75  1  0.02327800  0.69019100  0.51441900  1
  O  O76  1  0.24477700  0.72620300  0.15412000  1
  O  O77  1  0.66675600  0.70839700  0.83479900  1
  O  O78  1  0.04273500  0.71301600  0.98060600  1
  O  O79  1  0.54273500  0.78698400  0.48060600  1
  O  O80  1  0.16675600  0.79160300  0.33479900  1
  O  O81  1  0.74477700  0.77379700  0.65412000  1
  O  O82  1  0.52327800  0.80980900  0.01441900  1
  O  O83  1  0.82275200  0.83023800  0.20334300  1
  O  O84  1  0.13454900  0.83780700  0.85045900  1
  O  O85  1  0.99860100  0.87759300  0.52683700  1
  O  O86  1  0.32394400  0.91056100  0.20254700  1
  O  O87  1  0.62975200  0.91692800  0.83767400  1
  O  O88  1  0.94519900  0.93421200  0.03224700  1
  O  O89  1  0.78800200  0.97850100  0.39187500  1
  O  O90  1  0.22050700  0.95669700  0.71397600  1
  O  O91  1  0.55740600  0.97657300  0.56105600  1
