# generated using pymatgen
data_Li2CoSiO4
_symmetry_space_group_name_H-M   'P 1'
_cell_length_a   5.09897400
_cell_length_b   6.19518000
_cell_length_c   10.90792100
_cell_angle_alpha   90.00000000
_cell_angle_beta   90.00000000
_cell_angle_gamma   90.00000000
_symmetry_Int_Tables_number   1
_chemical_formula_structural   Li2CoSiO4
_chemical_formula_sum   'Li8 Co4 Si4 O16'
_cell_volume   344.57098998
_cell_formula_units_Z   4
loop_
 _symmetry_equiv_pos_site_id
 _symmetry_equiv_pos_as_xyz
  1  'x, y, z'
loop_
 _atom_site_type_symbol
 _atom_site_label
 _atom_site_symmetry_multiplicity
 _atom_site_fract_x
 _atom_site_fract_y
 _atom_site_fract_z
 _atom_site_occupancy
  Li  Li0  1  0.20059400  0.99548000  0.66835700  1
  Li  Li1  1  0.29940600  0.99548000  0.16835700  1
  Li  Li2  1  0.20059400  0.50452000  0.66835700  1
  Li  Li3  1  0.29940600  0.50452000  0.16835700  1
  Li  Li4  1  0.70059400  0.49548000  0.83164300  1
  Li  Li5  1  0.79940600  0.49548000  0.33164300  1
  Li  Li6  1  0.79940600  0.00452000  0.33164300  1
  Li  Li7  1  0.70059400  0.00452000  0.83164300  1
  Co  Co8  1  0.80733300  0.25000000  0.57549000  1
  Co  Co9  1  0.69266700  0.25000000  0.07549000  1
  Co  Co10  1  0.30733300  0.75000000  0.92451000  1
  Co  Co11  1  0.19266700  0.75000000  0.42451000  1
  Si  Si12  1  0.18943900  0.25000000  0.91411600  1
  Si  Si13  1  0.31056100  0.25000000  0.41411600  1
  Si  Si14  1  0.68943900  0.75000000  0.58588400  1
  Si  Si15  1  0.81056100  0.75000000  0.08588400  1
  O  O16  1  0.29577000  0.03416200  0.83984000  1
  O  O17  1  0.20423000  0.03416200  0.33984000  1
  O  O18  1  0.86461200  0.25000000  0.91365000  1
  O  O19  1  0.20496000  0.25000000  0.55717700  1
  O  O20  1  0.29504000  0.25000000  0.05717700  1
  O  O21  1  0.63538800  0.25000000  0.41365000  1
  O  O22  1  0.29577000  0.46583800  0.83984000  1
  O  O23  1  0.20423000  0.46583800  0.33984000  1
  O  O24  1  0.70423000  0.53416200  0.16016000  1
  O  O25  1  0.79577000  0.53416200  0.66016000  1
  O  O26  1  0.70496000  0.75000000  0.94282300  1
  O  O27  1  0.36461200  0.75000000  0.58635000  1
  O  O28  1  0.79504000  0.75000000  0.44282300  1
  O  O29  1  0.13538800  0.75000000  0.08635000  1
  O  O30  1  0.79577000  0.96583800  0.66016000  1
  O  O31  1  0.70423000  0.96583800  0.16016000  1
