# generated using pymatgen
data_Li4V3Cr3(FeO8)2
_symmetry_space_group_name_H-M   'P 1'
_cell_length_a   5.86601490
_cell_length_b   5.93129056
_cell_length_c   9.58529270
_cell_angle_alpha   90.00330240
_cell_angle_beta   89.31278677
_cell_angle_gamma   120.35211625
_symmetry_Int_Tables_number   1
_chemical_formula_structural   Li4V3Cr3(FeO8)2
_chemical_formula_sum   'Li4 V3 Cr3 Fe2 O16'
_cell_volume   287.76284407
_cell_formula_units_Z   1
loop_
 _symmetry_equiv_pos_site_id
 _symmetry_equiv_pos_as_xyz
  1  'x, y, z'
loop_
 _atom_site_type_symbol
 _atom_site_label
 _atom_site_symmetry_multiplicity
 _atom_site_fract_x
 _atom_site_fract_y
 _atom_site_fract_z
 _atom_site_occupancy
  Li  Li0  1  0.33487700  0.66692200  0.89078100  1
  Li  Li1  1  0.00341500  0.00317200  0.99623700  1
  Li  Li2  1  0.99393500  0.99582700  0.49617100  1
  Li  Li3  1  0.67441900  0.33767300  0.39363800  1
  V  V4  1  0.82950200  0.65788300  0.71513000  1
  V  V5  1  0.65924000  0.83072800  0.21596900  1
  V  V6  1  0.82591400  0.16563000  0.71337400  1
  Cr  Cr7  1  0.17198200  0.83278000  0.21522700  1
  Cr  Cr8  1  0.17223100  0.34047500  0.21539900  1
  Cr  Cr9  1  0.33952200  0.17028400  0.71032600  1
  Fe  Fe10  1  0.32534900  0.66281000  0.49029900  1
  Fe  Fe11  1  0.65854700  0.33056000  0.99123700  1
  O  O12  1  0.15121500  0.83057300  0.60011700  1
  O  O13  1  0.04299300  0.52201000  0.33940100  1
  O  O14  1  0.35499900  0.67804800  0.10487700  1
  O  O15  1  0.98888000  0.99510900  0.31093400  1
  O  O16  1  0.99512200  0.99615100  0.81091900  1
  O  O17  1  0.14914900  0.31989000  0.60124300  1
  O  O18  1  0.49679700  0.96423200  0.33670100  1
  O  O19  1  0.49675300  0.53354800  0.33677400  1
  O  O20  1  0.32549700  0.16323500  0.09857400  1
  O  O21  1  0.66734600  0.83249200  0.60407100  1
  O  O22  1  0.52627500  0.48668500  0.83498400  1
  O  O23  1  0.52689100  0.03805200  0.83412800  1
  O  O24  1  0.67659300  0.33778500  0.60039800  1
  O  O25  1  0.82477200  0.67570800  0.10597200  1
  O  O26  1  0.96326100  0.48152400  0.83880600  1
  O  O27  1  0.82452500  0.15051500  0.10615700  1
