# generated using pymatgen
data_LiFeSi3O8
_symmetry_space_group_name_H-M   'P 1'
_cell_length_a   13.04974900
_cell_length_b   7.43968500
_cell_length_c   8.02696146
_cell_angle_alpha   60.62385960
_cell_angle_beta   90.00000000
_cell_angle_gamma   90.00000000
_symmetry_Int_Tables_number   1
_chemical_formula_structural   LiFeSi3O8
_chemical_formula_sum   'Li4 Fe4 Si12 O32'
_cell_volume   679.10118935
_cell_formula_units_Z   4
loop_
 _symmetry_equiv_pos_site_id
 _symmetry_equiv_pos_as_xyz
  1  'x, y, z'
loop_
 _atom_site_type_symbol
 _atom_site_label
 _atom_site_symmetry_multiplicity
 _atom_site_fract_x
 _atom_site_fract_y
 _atom_site_fract_z
 _atom_site_occupancy
  Li  Li0  1  0.05233000  0.84968200  0.26489100  1
  Li  Li1  1  0.55233000  0.15031800  0.23510900  1
  Li  Li2  1  0.44767000  0.84968200  0.76489100  1
  Li  Li3  1  0.94767000  0.15031800  0.73510900  1
  Fe  Fe4  1  0.17415200  0.82163000  0.97602900  1
  Fe  Fe5  1  0.32584800  0.82163000  0.47602900  1
  Fe  Fe6  1  0.67415200  0.17837000  0.52397100  1
  Fe  Fe7  1  0.82584800  0.17837000  0.02397100  1
  Si  Si8  1  0.83837600  0.74357200  0.01236200  1
  Si  Si9  1  0.89633400  0.29805100  0.34750000  1
  Si  Si10  1  0.11956000  0.35721300  0.32454000  1
  Si  Si11  1  0.66162400  0.74357200  0.51236200  1
  Si  Si12  1  0.39633400  0.70194900  0.15250000  1
  Si  Si13  1  0.61956000  0.64278700  0.17546000  1
  Si  Si14  1  0.38044000  0.35721300  0.82454000  1
  Si  Si15  1  0.60366600  0.29805100  0.84750000  1
  Si  Si16  1  0.33837600  0.25642800  0.48763800  1
  Si  Si17  1  0.10366600  0.70194900  0.65250000  1
  Si  Si18  1  0.88044000  0.64278700  0.67546000  1
  Si  Si19  1  0.16162400  0.25642800  0.98763800  1
  O  O20  1  0.38932300  0.83011400  0.26594700  1
  O  O21  1  0.62570100  0.73926400  0.31932000  1
  O  O22  1  0.12570100  0.26073600  0.18068000  1
  O  O23  1  0.88932300  0.16988600  0.23405300  1
  O  O24  1  0.71283200  0.73520000  0.02117000  1
  O  O25  1  0.31791800  0.78687300  0.97142400  1
  O  O26  1  0.11808400  0.04355000  0.00437600  1
  O  O27  1  0.88191600  0.95645000  0.99562400  1
  O  O28  1  0.88436600  0.54630300  0.20314500  1
  O  O29  1  0.11933200  0.60760100  0.20816300  1
  O  O30  1  0.51158500  0.72948200  0.05085400  1
  O  O31  1  0.01158500  0.27051800  0.44914600  1
  O  O32  1  0.18208200  0.78687300  0.47142400  1
  O  O33  1  0.78716800  0.73520000  0.52117000  1
  O  O34  1  0.61933200  0.39239900  0.29183700  1
  O  O35  1  0.38436600  0.45369700  0.29685500  1
  O  O36  1  0.61808400  0.95645000  0.49562400  1
  O  O37  1  0.38191600  0.04355000  0.50437600  1
  O  O38  1  0.38066800  0.60760100  0.70816300  1
  O  O39  1  0.61563400  0.54630300  0.70314500  1
  O  O40  1  0.21283200  0.26480000  0.47883000  1
  O  O41  1  0.81791800  0.21312700  0.52857600  1
  O  O42  1  0.98841500  0.72948200  0.55085400  1
  O  O43  1  0.48841500  0.27051800  0.94914600  1
  O  O44  1  0.11563400  0.45369700  0.79685500  1
  O  O45  1  0.88066800  0.39239900  0.79183700  1
  O  O46  1  0.28716800  0.26480000  0.97883000  1
  O  O47  1  0.68208200  0.21312700  0.02857600  1
  O  O48  1  0.11067700  0.83011400  0.76594700  1
  O  O49  1  0.87429900  0.73926400  0.81932000  1
  O  O50  1  0.37429900  0.26073600  0.68068000  1
  O  O51  1  0.61067700  0.16988600  0.73405300  1
