# generated using pymatgen
data_Li4Mn3P3O12F
_symmetry_space_group_name_H-M   'P 1'
_cell_length_a   8.50484900
_cell_length_b   8.50484900
_cell_length_c   8.50484900
_cell_angle_alpha   90.00000000
_cell_angle_beta   90.00000000
_cell_angle_gamma   90.00000000
_symmetry_Int_Tables_number   1
_chemical_formula_structural   Li4Mn3P3O12F
_chemical_formula_sum   'Li8 Mn6 P6 O24 F2'
_cell_volume   615.17662044
_cell_formula_units_Z   2
loop_
 _symmetry_equiv_pos_site_id
 _symmetry_equiv_pos_as_xyz
  1  'x, y, z'
loop_
 _atom_site_type_symbol
 _atom_site_label
 _atom_site_symmetry_multiplicity
 _atom_site_fract_x
 _atom_site_fract_y
 _atom_site_fract_z
 _atom_site_occupancy
  Li  Li0  1  0.14235400  0.14235400  0.14235400  1
  Li  Li1  1  0.14235400  0.85764600  0.85764600  1
  Li  Li2  1  0.35764600  0.35764600  0.64235400  1
  Li  Li3  1  0.35764600  0.64235400  0.35764600  1
  Li  Li4  1  0.64235400  0.35764600  0.35764600  1
  Li  Li5  1  0.64235400  0.64235400  0.64235400  1
  Li  Li6  1  0.85764600  0.14235400  0.85764600  1
  Li  Li7  1  0.85764600  0.85764600  0.14235400  1
  Mn  Mn8  1  0.00000000  0.50000000  0.25000000  1
  Mn  Mn9  1  0.00000000  0.50000000  0.75000000  1
  Mn  Mn10  1  0.25000000  0.00000000  0.50000000  1
  Mn  Mn11  1  0.50000000  0.25000000  0.00000000  1
  Mn  Mn12  1  0.50000000  0.75000000  0.00000000  1
  Mn  Mn13  1  0.75000000  0.00000000  0.50000000  1
  P  P14  1  0.00000000  0.25000000  0.50000000  1
  P  P15  1  0.00000000  0.75000000  0.50000000  1
  P  P16  1  0.25000000  0.50000000  0.00000000  1
  P  P17  1  0.50000000  0.00000000  0.25000000  1
  P  P18  1  0.50000000  0.00000000  0.75000000  1
  P  P19  1  0.75000000  0.50000000  0.00000000  1
  O  O20  1  0.11792900  0.35125200  0.59683600  1
  O  O21  1  0.11792900  0.64874800  0.40316400  1
  O  O22  1  0.09683600  0.14874800  0.38207100  1
  O  O23  1  0.09683600  0.85125200  0.61792900  1
  O  O24  1  0.14874800  0.38207100  0.09683600  1
  O  O25  1  0.14874800  0.61792900  0.90316400  1
  O  O26  1  0.35125200  0.40316400  0.88207100  1
  O  O27  1  0.35125200  0.59683600  0.11792900  1
  O  O28  1  0.40316400  0.11792900  0.64874800  1
  O  O29  1  0.40316400  0.88207100  0.35125200  1
  O  O30  1  0.38207100  0.09683600  0.14874800  1
  O  O31  1  0.38207100  0.90316400  0.85125200  1
  O  O32  1  0.61792900  0.09683600  0.85125200  1
  O  O33  1  0.61792900  0.90316400  0.14874800  1
  O  O34  1  0.59683600  0.88207100  0.64874800  1
  O  O35  1  0.59683600  0.11792900  0.35125200  1
  O  O36  1  0.64874800  0.59683600  0.88207100  1
  O  O37  1  0.64874800  0.40316400  0.11792900  1
  O  O38  1  0.85125200  0.38207100  0.90316400  1
  O  O39  1  0.85125200  0.61792900  0.09683600  1
  O  O40  1  0.90316400  0.14874800  0.61792900  1
  O  O41  1  0.90316400  0.85125200  0.38207100  1
  O  O42  1  0.88207100  0.35125200  0.40316400  1
  O  O43  1  0.88207100  0.64874800  0.59683600  1
  F  F44  1  0.00000000  0.00000000  0.00000000  1
  F  F45  1  0.50000000  0.50000000  0.50000000  1
