# generated using pymatgen
data_Li4CoO4
_symmetry_space_group_name_H-M   'P 1'
_cell_length_a   6.60487000
_cell_length_b   7.49565900
_cell_length_c   8.05750966
_cell_angle_alpha   89.60791864
_cell_angle_beta   90.00000000
_cell_angle_gamma   90.00000000
_symmetry_Int_Tables_number   1
_chemical_formula_structural   Li4CoO4
_chemical_formula_sum   'Li16 Co4 O16'
_cell_volume   398.90066573
_cell_formula_units_Z   4
loop_
 _symmetry_equiv_pos_site_id
 _symmetry_equiv_pos_as_xyz
  1  'x, y, z'
loop_
 _atom_site_type_symbol
 _atom_site_label
 _atom_site_symmetry_multiplicity
 _atom_site_fract_x
 _atom_site_fract_y
 _atom_site_fract_z
 _atom_site_occupancy
  Li  Li0  1  0.50000000  0.69536500  0.03461800  1
  Li  Li1  1  0.24915400  0.97295400  0.15128800  1
  Li  Li2  1  0.75084600  0.97295400  0.15128800  1
  Li  Li3  1  0.25938800  0.46865200  0.33458200  1
  Li  Li4  1  0.74061200  0.46865200  0.33458200  1
  Li  Li5  1  0.00000000  0.25183700  0.43694100  1
  Li  Li6  1  0.73506300  0.00709200  0.49141900  1
  Li  Li7  1  0.26493700  0.00709200  0.49141900  1
  Li  Li8  1  0.00000000  0.74913400  0.55656700  1
  Li  Li9  1  0.25020500  0.51187400  0.66058400  1
  Li  Li10  1  0.74979500  0.51187400  0.66058400  1
  Li  Li11  1  0.00000000  0.29117800  0.81977400  1
  Li  Li12  1  0.50000000  0.76391600  0.70327400  1
  Li  Li13  1  0.25369000  0.01605900  0.83428700  1
  Li  Li14  1  0.74631000  0.01605900  0.83428700  1
  Li  Li15  1  0.50000000  0.31720500  0.99073100  1
  Co  Co16  1  0.00000000  0.23339900  0.12711000  1
  Co  Co17  1  0.50000000  0.73738200  0.37745000  1
  Co  Co18  1  0.50000000  0.26310900  0.63237200  1
  Co  Co19  1  0.00000000  0.75985600  0.87241900  1
  O  O20  1  0.21952200  0.20565600  0.99553600  1
  O  O21  1  0.78047800  0.20565600  0.99553600  1
  O  O22  1  0.00000000  0.42743100  0.25078200  1
  O  O23  1  0.50000000  0.55565700  0.23282000  1
  O  O24  1  0.00000000  0.04826700  0.28315700  1
  O  O25  1  0.50000000  0.95672000  0.28941800  1
  O  O26  1  0.28378400  0.71939500  0.51376200  1
  O  O27  1  0.71621600  0.71939500  0.51376200  1
  O  O28  1  0.26440500  0.28990800  0.52265700  1
  O  O29  1  0.73559500  0.28990800  0.52265700  1
  O  O30  1  0.50000000  0.03157900  0.69892200  1
  O  O31  1  0.00000000  0.95240300  0.71426000  1
  O  O32  1  0.50000000  0.45191400  0.77430300  1
  O  O33  1  0.00000000  0.55241600  0.75870300  1
  O  O34  1  0.24127400  0.79841700  0.96907300  1
  O  O35  1  0.75872600  0.79841700  0.96907300  1
