# generated using pymatgen
data_Li8Mn(O2F)2
_symmetry_space_group_name_H-M   'P 1'
_cell_length_a   5.56749500
_cell_length_b   5.57421660
_cell_length_c   11.08929191
_cell_angle_alpha   75.93718494
_cell_angle_beta   76.15940301
_cell_angle_gamma   60.09525275
_symmetry_Int_Tables_number   1
_chemical_formula_structural   Li8Mn(O2F)2
_chemical_formula_sum   'Li16 Mn2 O8 F4'
_cell_volume   286.51980330
_cell_formula_units_Z   2
loop_
 _symmetry_equiv_pos_site_id
 _symmetry_equiv_pos_as_xyz
  1  'x, y, z'
loop_
 _atom_site_type_symbol
 _atom_site_label
 _atom_site_symmetry_multiplicity
 _atom_site_fract_x
 _atom_site_fract_y
 _atom_site_fract_z
 _atom_site_occupancy
  Li  Li0  1  0.22350000  0.88818900  0.32348000  1
  Li  Li1  1  0.42840900  0.79403700  0.68624600  1
  Li  Li2  1  0.58788300  0.93297400  0.18542400  1
  Li  Li3  1  0.58243900  0.72778500  0.99174500  1
  Li  Li4  1  0.76304200  0.81312800  0.51294100  1
  Li  Li5  1  0.68910600  0.40933300  0.81878900  1
  Li  Li6  1  0.91039000  0.57404300  0.32942400  1
  Li  Li7  1  0.05363800  0.72399400  0.83030000  1
  Li  Li8  1  0.94636200  0.27600600  0.16970000  1
  Li  Li9  1  0.08961000  0.42595700  0.67057600  1
  Li  Li10  1  0.31089400  0.59066700  0.18121100  1
  Li  Li11  1  0.41756100  0.27221500  0.00825500  1
  Li  Li12  1  0.23695800  0.18687200  0.48705900  1
  Li  Li13  1  0.41211700  0.06702600  0.81457600  1
  Li  Li14  1  0.57159100  0.20596300  0.31375400  1
  Li  Li15  1  0.77650000  0.11181100  0.67652000  1
  Mn  Mn16  1  0.00000000  0.00000000  0.00000000  1
  Mn  Mn17  1  0.50000000  0.50000000  0.50000000  1
  O  O18  1  0.28635000  0.96020600  0.11905400  1
  O  O19  1  0.35835800  0.73168600  0.87594300  1
  O  O20  1  0.54005200  0.86660900  0.38010200  1
  O  O21  1  0.76372800  0.47061900  0.62347700  1
  O  O22  1  0.23627200  0.52938100  0.37652300  1
  O  O23  1  0.45994800  0.13339100  0.61989800  1
  O  O24  1  0.64164200  0.26831400  0.12405700  1
  O  O25  1  0.71365000  0.03979400  0.88094600  1
  F  F26  1  0.96040100  0.61718900  0.14457500  1
  F  F27  1  0.11248300  0.77874800  0.64257200  1
  F  F28  1  0.88751700  0.22125200  0.35742800  1
  F  F29  1  0.03959900  0.38281100  0.85542500  1
