# generated using pymatgen
data_Li2Ta4O11
_symmetry_space_group_name_H-M   'P 1'
_cell_length_a   12.85132166
_cell_length_b   12.85132166
_cell_length_c   12.85132205
_cell_angle_alpha   28.24148427
_cell_angle_beta   28.24148427
_cell_angle_gamma   28.24148500
_symmetry_Int_Tables_number   1
_chemical_formula_structural   Li2Ta4O11
_chemical_formula_sum   'Li4 Ta8 O22'
_cell_volume   419.89249075
_cell_formula_units_Z   2
loop_
 _symmetry_equiv_pos_site_id
 _symmetry_equiv_pos_as_xyz
  1  'x, y, z'
loop_
 _atom_site_type_symbol
 _atom_site_label
 _atom_site_symmetry_multiplicity
 _atom_site_fract_x
 _atom_site_fract_y
 _atom_site_fract_z
 _atom_site_occupancy
  Li  Li0  1  0.64892600  0.64892600  0.64892600  1
  Li  Li1  1  0.85107400  0.85107400  0.85107400  1
  Li  Li2  1  0.14892600  0.14892600  0.14892600  1
  Li  Li3  1  0.35107400  0.35107400  0.35107400  1
  Ta  Ta4  1  0.10802600  0.75000000  0.39197400  1
  Ta  Ta5  1  0.60802600  0.89197400  0.25000000  1
  Ta  Ta6  1  0.50000000  0.50000000  0.50000000  1
  Ta  Ta7  1  0.75000000  0.39197400  0.10802600  1
  Ta  Ta8  1  0.25000000  0.60802600  0.89197400  1
  Ta  Ta9  1  0.39197400  0.10802600  0.75000000  1
  Ta  Ta10  1  0.00000000  0.00000000  0.00000000  1
  Ta  Ta11  1  0.89197400  0.25000000  0.60802600  1
  O  O12  1  0.50230800  0.75000000  0.99769200  1
  O  O13  1  0.00230800  0.49769200  0.25000000  1
  O  O14  1  0.23440200  0.75167600  0.42200200  1
  O  O15  1  0.07799800  0.74832400  0.26559800  1
  O  O16  1  0.09390800  0.09390800  0.09390800  1
  O  O17  1  0.73440200  0.92200200  0.25167600  1
  O  O18  1  0.74832400  0.26559800  0.07799800  1
  O  O19  1  0.57799800  0.76559800  0.24832400  1
  O  O20  1  0.59390800  0.59390800  0.59390800  1
  O  O21  1  0.75000000  0.99769200  0.50230800  1
  O  O22  1  0.75167600  0.42200200  0.23440200  1
  O  O23  1  0.24832400  0.57799800  0.76559800  1
  O  O24  1  0.25000000  0.00230800  0.49769200  1
  O  O25  1  0.40609200  0.40609200  0.40609200  1
  O  O26  1  0.42200200  0.23440200  0.75167600  1
  O  O27  1  0.25167600  0.73440200  0.92200200  1
  O  O28  1  0.26559800  0.07799800  0.74832400  1
  O  O29  1  0.90609200  0.90609200  0.90609200  1
  O  O30  1  0.92200200  0.25167600  0.73440200  1
  O  O31  1  0.76559800  0.24832400  0.57799800  1
  O  O32  1  0.99769200  0.50230800  0.75000000  1
  O  O33  1  0.49769200  0.25000000  0.00230800  1
