# generated using pymatgen
data_LiSb(PO3)4
_symmetry_space_group_name_H-M   'P 1'
_cell_length_a   13.42274800
_cell_length_b   7.46445700
_cell_length_c   12.03689810
_cell_angle_alpha   55.17605042
_cell_angle_beta   90.00000000
_cell_angle_gamma   90.00000000
_symmetry_Int_Tables_number   1
_chemical_formula_structural   LiSb(PO3)4
_chemical_formula_sum   'Li4 Sb4 P16 O48'
_cell_volume   990.03396517
_cell_formula_units_Z   4
loop_
 _symmetry_equiv_pos_site_id
 _symmetry_equiv_pos_as_xyz
  1  'x, y, z'
loop_
 _atom_site_type_symbol
 _atom_site_label
 _atom_site_symmetry_multiplicity
 _atom_site_fract_x
 _atom_site_fract_y
 _atom_site_fract_z
 _atom_site_occupancy
  Li  Li0  1  0.21618900  0.84235500  0.04347700  1
  Li  Li1  1  0.71618900  0.15764500  0.45652300  1
  Li  Li2  1  0.28381100  0.84235500  0.54347700  1
  Li  Li3  1  0.78381100  0.15764500  0.95652300  1
  Sb  Sb4  1  0.78703800  0.47780900  0.07158000  1
  Sb  Sb5  1  0.28703800  0.52219100  0.42842000  1
  Sb  Sb6  1  0.71296200  0.47780900  0.57158000  1
  Sb  Sb7  1  0.21296200  0.52219100  0.92842000  1
  P  P8  1  0.37590600  0.41921900  0.20426200  1
  P  P9  1  0.59082900  0.50648100  0.20127200  1
  P  P10  1  0.12524300  0.15465100  0.24306100  1
  P  P11  1  0.91296300  0.04812800  0.22573100  1
  P  P12  1  0.41296300  0.95187200  0.27426900  1
  P  P13  1  0.62524300  0.84534900  0.25693900  1
  P  P14  1  0.09082900  0.49351900  0.29872800  1
  P  P15  1  0.87590600  0.58078100  0.29573800  1
  P  P16  1  0.12409400  0.41921900  0.70426200  1
  P  P17  1  0.90917100  0.50648100  0.70127200  1
  P  P18  1  0.37475700  0.15465100  0.74306100  1
  P  P19  1  0.58703700  0.04812800  0.72573100  1
  P  P20  1  0.08703700  0.95187200  0.77426900  1
  P  P21  1  0.87475700  0.84534900  0.75693900  1
  P  P22  1  0.40917100  0.49351900  0.79872800  1
  P  P23  1  0.62409400  0.58078100  0.79573800  1
  O  O24  1  0.65592900  0.64075100  0.07430700  1
  O  O25  1  0.90326200  0.18700900  0.07359200  1
  O  O26  1  0.15813900  0.23657300  0.09870000  1
  O  O27  1  0.29515300  0.55573800  0.10364500  1
  O  O28  1  0.48059000  0.53807300  0.13991100  1
  O  O29  1  0.69820500  0.96336900  0.14598200  1
  O  O30  1  0.86522900  0.62845800  0.15545900  1
  O  O31  1  0.38717900  0.20304900  0.21178200  1
  O  O32  1  0.35500100  0.87694400  0.20126300  1
  O  O33  1  0.52853100  0.99045100  0.22551800  1
  O  O34  1  0.08005900  0.37086400  0.22529400  1
  O  O35  1  0.12204800  0.72361000  0.19974400  1
  O  O36  1  0.62204800  0.27639000  0.30025600  1
  O  O37  1  0.58005900  0.62913600  0.27470600  1
  O  O38  1  0.02853100  0.00954900  0.27448200  1
  O  O39  1  0.85500100  0.12305600  0.29873700  1
  O  O40  1  0.88717900  0.79695100  0.28821800  1
  O  O41  1  0.36522900  0.37154200  0.34454100  1
  O  O42  1  0.19820500  0.03663100  0.35401800  1
  O  O43  1  0.98059000  0.46192700  0.36008900  1
  O  O44  1  0.79515300  0.44426200  0.39635500  1
  O  O45  1  0.65813900  0.76342700  0.40130000  1
  O  O46  1  0.40326200  0.81299100  0.42640800  1
  O  O47  1  0.15592900  0.35924900  0.42569300  1
  O  O48  1  0.84407100  0.64075100  0.57430700  1
  O  O49  1  0.59673800  0.18700900  0.57359200  1
  O  O50  1  0.34186100  0.23657300  0.59870000  1
  O  O51  1  0.20484700  0.55573800  0.60364500  1
  O  O52  1  0.01941000  0.53807300  0.63991100  1
  O  O53  1  0.80179500  0.96336900  0.64598200  1
  O  O54  1  0.63477100  0.62845800  0.65545900  1
  O  O55  1  0.11282100  0.20304900  0.71178200  1
  O  O56  1  0.14499900  0.87694400  0.70126300  1
  O  O57  1  0.97146900  0.99045100  0.72551800  1
  O  O58  1  0.41994100  0.37086400  0.72529400  1
  O  O59  1  0.37795200  0.72361000  0.69974400  1
  O  O60  1  0.87795200  0.27639000  0.80025600  1
  O  O61  1  0.91994100  0.62913600  0.77470600  1
  O  O62  1  0.47146900  0.00954900  0.77448200  1
  O  O63  1  0.64499900  0.12305600  0.79873700  1
  O  O64  1  0.61282100  0.79695100  0.78821800  1
  O  O65  1  0.13477100  0.37154200  0.84454100  1
  O  O66  1  0.30179500  0.03663100  0.85401800  1
  O  O67  1  0.51941000  0.46192700  0.86008900  1
  O  O68  1  0.70484700  0.44426200  0.89635500  1
  O  O69  1  0.84186100  0.76342700  0.90130000  1
  O  O70  1  0.09673800  0.81299100  0.92640800  1
  O  O71  1  0.34407100  0.35924900  0.92569300  1
