# generated using pymatgen
data_LiAg2F5
_symmetry_space_group_name_H-M   'P 1'
_cell_length_a   8.10225100
_cell_length_b   10.70927296
_cell_length_c   11.71823506
_cell_angle_alpha   90.21272076
_cell_angle_beta   91.07981687
_cell_angle_gamma   108.90147570
_symmetry_Int_Tables_number   1
_chemical_formula_structural   LiAg2F5
_chemical_formula_sum   'Li8 Ag16 F40'
_cell_volume   961.73152848
_cell_formula_units_Z   8
loop_
 _symmetry_equiv_pos_site_id
 _symmetry_equiv_pos_as_xyz
  1  'x, y, z'
loop_
 _atom_site_type_symbol
 _atom_site_label
 _atom_site_symmetry_multiplicity
 _atom_site_fract_x
 _atom_site_fract_y
 _atom_site_fract_z
 _atom_site_occupancy
  Li  Li0  1  0.29701500  0.71968400  0.94512700  1
  Li  Li1  1  0.19933100  0.39951600  0.78404600  1
  Li  Li2  1  0.38104400  0.66910100  0.44894400  1
  Li  Li3  1  0.30150000  0.09799700  0.22131300  1
  Li  Li4  1  0.69850000  0.90200300  0.77868700  1
  Li  Li5  1  0.61895600  0.33089900  0.55105600  1
  Li  Li6  1  0.80066900  0.60048400  0.21595400  1
  Li  Li7  1  0.70298500  0.28031600  0.05487300  1
  Ag  Ag8  1  0.12389900  0.90753600  0.76597100  1
  Ag  Ag9  1  0.00000000  0.50000000  0.00000000  1
  Ag  Ag10  1  0.12506600  0.82704400  0.25152300  1
  Ag  Ag11  1  0.50000000  0.00000000  0.50000000  1
  Ag  Ag12  1  0.39697800  0.66520300  0.73105200  1
  Ag  Ag13  1  0.21606000  0.23143600  0.49848300  1
  Ag  Ag14  1  0.25121300  0.25200600  0.99987600  1
  Ag  Ag15  1  0.37657700  0.57837400  0.22575600  1
  Ag  Ag16  1  0.62342300  0.42162600  0.77424400  1
  Ag  Ag17  1  0.74878700  0.74799400  0.00012400  1
  Ag  Ag18  1  0.78394000  0.76856400  0.50151700  1
  Ag  Ag19  1  0.60302200  0.33479700  0.26894800  1
  Ag  Ag20  1  0.50000000  0.00000000  0.00000000  1
  Ag  Ag21  1  0.00000000  0.50000000  0.50000000  1
  Ag  Ag22  1  0.87493400  0.17295600  0.74847700  1
  Ag  Ag23  1  0.87610100  0.09246400  0.23402900  1
  F  F24  1  0.02152500  0.94349600  0.61898700  1
  F  F25  1  0.23877600  0.87593000  0.91494200  1
  F  F26  1  0.28049200  0.93826800  0.39289400  1
  F  F27  1  0.16213400  0.57302700  0.84272300  1
  F  F28  1  0.05373000  0.27920400  0.89341900  1
  F  F29  1  0.07132000  0.35186400  0.42954000  1
  F  F30  1  0.30648500  0.85239700  0.68806600  1
  F  F31  1  0.20737500  0.64045000  0.32844900  1
  F  F32  1  0.34891200  0.94641500  0.15744200  1
  F  F33  1  0.11568100  0.27289400  0.66215400  1
  F  F34  1  0.24736100  0.58268300  0.57312800  1
  F  F35  1  0.24894200  0.62004200  0.07771700  1
  F  F36  1  0.16827200  0.33505900  0.12937600  1
  F  F37  1  0.06656200  0.04169200  0.15663200  1
  F  F38  1  0.54151500  0.77748300  0.89560400  1
  F  F39  1  0.42464700  0.47428900  0.85097300  1
  F  F40  1  0.56584600  0.83663500  0.44051500  1
  F  F41  1  0.33928800  0.17192400  0.86903300  1
  F  F42  1  0.49708600  0.56156800  0.38004700  1
  F  F43  1  0.35108400  0.22730600  0.33960300  1
  F  F44  1  0.64891600  0.77269400  0.66039700  1
  F  F45  1  0.50291400  0.43843200  0.61995300  1
  F  F46  1  0.66071200  0.82807600  0.13096700  1
  F  F47  1  0.57535300  0.52571100  0.14902700  1
  F  F48  1  0.43415400  0.16336500  0.55948500  1
  F  F49  1  0.45848500  0.22251700  0.10439600  1
  F  F50  1  0.93343800  0.95830800  0.84336800  1
  F  F51  1  0.83172800  0.66494100  0.87062400  1
  F  F52  1  0.75105800  0.37995800  0.92228300  1
  F  F53  1  0.75263900  0.41731700  0.42687200  1
  F  F54  1  0.88431900  0.72710600  0.33784600  1
  F  F55  1  0.65108800  0.05358500  0.84255800  1
  F  F56  1  0.79262500  0.35955000  0.67155100  1
  F  F57  1  0.69351500  0.14760300  0.31193400  1
  F  F58  1  0.92868000  0.64813600  0.57046000  1
  F  F59  1  0.94627000  0.72079600  0.10658100  1
  F  F60  1  0.83786600  0.42697300  0.15727700  1
  F  F61  1  0.71950800  0.06173200  0.60710600  1
  F  F62  1  0.76122400  0.12407000  0.08505800  1
  F  F63  1  0.97847500  0.05650400  0.38101300  1
