# generated using pymatgen
data_LiCo2(PO4)2
_symmetry_space_group_name_H-M   'P 1'
_cell_length_a   8.43344380
_cell_length_b   5.28068600
_cell_length_c   16.56874343
_cell_angle_alpha   90.00000000
_cell_angle_beta   105.26015704
_cell_angle_gamma   90.00000000
_symmetry_Int_Tables_number   1
_chemical_formula_structural   LiCo2(PO4)2
_chemical_formula_sum   'Li4 Co8 P8 O32'
_cell_volume   711.86143212
_cell_formula_units_Z   4
loop_
 _symmetry_equiv_pos_site_id
 _symmetry_equiv_pos_as_xyz
  1  'x, y, z'
loop_
 _atom_site_type_symbol
 _atom_site_label
 _atom_site_symmetry_multiplicity
 _atom_site_fract_x
 _atom_site_fract_y
 _atom_site_fract_z
 _atom_site_occupancy
  Li  Li0  1  0.08032100  0.85244100  0.48434100  1
  Li  Li1  1  0.58032100  0.14755900  0.98434100  1
  Li  Li2  1  0.28059800  0.33929800  0.25036800  1
  Li  Li3  1  0.78059800  0.66070200  0.75036800  1
  Co  Co4  1  0.20549600  0.31457200  0.93770400  1
  Co  Co5  1  0.22159700  0.33582300  0.43350700  1
  Co  Co6  1  0.37737700  0.81608100  0.68757600  1
  Co  Co7  1  0.72159700  0.66417700  0.93350700  1
  Co  Co8  1  0.37843100  0.82552400  0.18005200  1
  Co  Co9  1  0.70549600  0.68542800  0.43770400  1
  Co  Co10  1  0.87843100  0.17447600  0.68005200  1
  Co  Co11  1  0.87737700  0.18391900  0.18757600  1
  P  P12  1  0.00212200  0.66957000  0.62039500  1
  P  P13  1  0.33809800  0.81664000  0.87439100  1
  P  P14  1  0.00576800  0.67750900  0.12131400  1
  P  P15  1  0.33193800  0.83084400  0.36784400  1
  P  P16  1  0.50576800  0.32249100  0.62131400  1
  P  P17  1  0.83193800  0.16915600  0.86784400  1
  P  P18  1  0.50212200  0.33043000  0.12039500  1
  P  P19  1  0.83809800  0.18336000  0.37439100  1
  O  O20  1  0.00099300  0.19200600  0.93597700  1
  O  O21  1  0.03078500  0.39123200  0.64394400  1
  O  O22  1  0.21369600  0.65166800  0.90566600  1
  O  O23  1  0.00916400  0.18942800  0.43858100  1
  O  O24  1  0.16491800  0.79459100  0.61096500  1
  O  O25  1  0.27430100  0.09391300  0.86243600  1
  O  O26  1  0.03865700  0.41114400  0.16742300  1
  O  O27  1  0.35144100  0.70751900  0.78972800  1
  O  O28  1  0.20226200  0.70470300  0.40650900  1
  O  O29  1  0.50916400  0.81057200  0.93858100  1
  O  O30  1  0.16558300  0.76773400  0.10401000  1
  O  O31  1  0.45456100  0.14093400  0.68564300  1
  O  O32  1  0.28807000  0.11549500  0.34936400  1
  O  O33  1  0.36503100  0.33526500  0.54263800  1
  O  O34  1  0.34448000  0.69034200  0.28802100  1
  O  O35  1  0.53865700  0.58885600  0.66742300  1
  O  O36  1  0.70226200  0.29529700  0.90650900  1
  O  O37  1  0.50099300  0.80799400  0.43597700  1
  O  O38  1  0.42787600  0.19092300  0.18431200  1
  O  O39  1  0.39079400  0.28850100  0.02908700  1
  O  O40  1  0.66558300  0.23226600  0.60401000  1
  O  O41  1  0.78807000  0.88450500  0.84936400  1
  O  O42  1  0.53078500  0.60876800  0.14394400  1
  O  O43  1  0.84448000  0.30965800  0.78802100  1
  O  O44  1  0.71369600  0.34833200  0.40566600  1
  O  O45  1  0.66491800  0.20540900  0.11096500  1
  O  O46  1  0.92787600  0.80907700  0.68431200  1
  O  O47  1  0.77430100  0.90608700  0.36243600  1
  O  O48  1  0.89079400  0.71149900  0.52908700  1
  O  O49  1  0.85144100  0.29248100  0.28972800  1
  O  O50  1  0.95456100  0.85906600  0.18564300  1
  O  O51  1  0.86503100  0.66473500  0.04263800  1
