# generated using pymatgen
data_Li4Nb3Fe3(TeO8)2
_symmetry_space_group_name_H-M   'P 1'
_cell_length_a   6.26615062
_cell_length_b   6.26615062
_cell_length_c   10.50071958
_cell_angle_alpha   89.58766892
_cell_angle_beta   89.58766892
_cell_angle_gamma   58.03314120
_symmetry_Int_Tables_number   1
_chemical_formula_structural   Li4Nb3Fe3(TeO8)2
_chemical_formula_sum   'Li4 Nb3 Fe3 Te2 O16'
_cell_volume   349.77065295
_cell_formula_units_Z   1
loop_
 _symmetry_equiv_pos_site_id
 _symmetry_equiv_pos_as_xyz
  1  'x, y, z'
loop_
 _atom_site_type_symbol
 _atom_site_label
 _atom_site_symmetry_multiplicity
 _atom_site_fract_x
 _atom_site_fract_y
 _atom_site_fract_z
 _atom_site_occupancy
  Li  Li0  1  0.66964500  0.66964500  0.09619700  1
  Li  Li1  1  0.00233800  0.00233800  0.00333700  1
  Li  Li2  1  0.99907500  0.99907500  0.51621000  1
  Li  Li3  1  0.33954100  0.33954100  0.59651300  1
  Nb  Nb4  1  0.81896500  0.81896500  0.76507300  1
  Nb  Nb5  1  0.16440500  0.64936800  0.27926300  1
  Nb  Nb6  1  0.64936800  0.16440500  0.27926300  1
  Fe  Fe7  1  0.34257100  0.83011000  0.78611300  1
  Fe  Fe8  1  0.83011000  0.34257100  0.78611300  1
  Fe  Fe9  1  0.16636700  0.16636700  0.29373000  1
  Te  Te10  1  0.64408600  0.64408600  0.50408700  1
  Te  Te11  1  0.32987500  0.32987500  0.98273600  1
  O  O12  1  0.31837700  0.82569100  0.40869800  1
  O  O13  1  0.52335400  0.52335400  0.64558700  1
  O  O14  1  0.68585300  0.68585300  0.89652400  1
  O  O15  1  0.98889000  0.98889000  0.69921700  1
  O  O16  1  0.99917000  0.99917000  0.18889300  1
  O  O17  1  0.82569100  0.31837700  0.40869800  1
  O  O18  1  0.52123800  0.98811300  0.66469200  1
  O  O19  1  0.98811300  0.52123800  0.66469200  1
  O  O20  1  0.16761200  0.16761200  0.90164800  1
  O  O21  1  0.86069100  0.86069100  0.39526300  1
  O  O22  1  0.01772700  0.50531400  0.18281400  1
  O  O23  1  0.50531400  0.01772700  0.18281400  1
  O  O24  1  0.34224400  0.34224400  0.40309900  1
  O  O25  1  0.16539800  0.66002200  0.89576800  1
  O  O26  1  0.49617000  0.49617000  0.17387300  1
  O  O27  1  0.66002200  0.16539800  0.89576800  1
