# generated using pymatgen
data_Li4NbIn3(PO4)6
_symmetry_space_group_name_H-M   'P 1'
_cell_length_a   9.01364800
_cell_length_b   8.75089700
_cell_length_c   15.20923989
_cell_angle_alpha   55.23212383
_cell_angle_beta   90.00000000
_cell_angle_gamma   90.00000000
_symmetry_Int_Tables_number   1
_chemical_formula_structural   Li4NbIn3(PO4)6
_chemical_formula_sum   'Li8 Nb2 In6 P12 O48'
_cell_volume   985.48924030
_cell_formula_units_Z   2
loop_
 _symmetry_equiv_pos_site_id
 _symmetry_equiv_pos_as_xyz
  1  'x, y, z'
loop_
 _atom_site_type_symbol
 _atom_site_label
 _atom_site_symmetry_multiplicity
 _atom_site_fract_x
 _atom_site_fract_y
 _atom_site_fract_z
 _atom_site_occupancy
  Li  Li0  1  0.04607400  0.96814400  0.82449800  1
  Li  Li1  1  0.97015000  0.59337200  0.17428700  1
  Li  Li2  1  0.46769000  0.40260100  0.32737300  1
  Li  Li3  1  0.53663500  0.03574600  0.67200800  1
  Li  Li4  1  0.95392600  0.96814400  0.32449800  1
  Li  Li5  1  0.02985000  0.59337200  0.67428700  1
  Li  Li6  1  0.53231000  0.40260100  0.82737300  1
  Li  Li7  1  0.46336500  0.03574600  0.17200800  1
  Nb  Nb8  1  0.71005300  0.85812200  0.89019900  1
  Nb  Nb9  1  0.28994700  0.85812200  0.39019900  1
  In  In10  1  0.29043200  0.63421700  0.11270800  1
  In  In11  1  0.79313700  0.36406200  0.38834600  1
  In  In12  1  0.20902400  0.13883200  0.60949700  1
  In  In13  1  0.70956800  0.63421700  0.61270800  1
  In  In14  1  0.20686300  0.36406200  0.88834600  1
  In  In15  1  0.79097600  0.13883200  0.10949700  1
  P  P16  1  0.50293000  0.45435100  0.50073400  1
  P  P17  1  0.64112700  0.74369300  0.15025000  1
  P  P18  1  0.36022300  0.04626100  0.85102400  1
  P  P19  1  0.85967500  0.95352800  0.65339000  1
  P  P20  1  0.14072600  0.25236900  0.35060100  1
  P  P21  1  0.99557000  0.54432800  0.99813000  1
  P  P22  1  0.49707000  0.45435100  0.00073400  1
  P  P23  1  0.35887300  0.74369300  0.65025000  1
  P  P24  1  0.63977700  0.04626100  0.35102400  1
  P  P25  1  0.14032500  0.95352800  0.15339000  1
  P  P26  1  0.85927400  0.25236900  0.85060100  1
  P  P27  1  0.00443000  0.54432800  0.49813000  1
  O  O28  1  0.91976400  0.54417100  0.41188700  1
  O  O29  1  0.12524000  0.39939200  0.55540300  1
  O  O30  1  0.12853800  0.78937700  0.14224000  1
  O  O31  1  0.83456800  0.09425700  0.83072600  1
  O  O32  1  0.59665700  0.48558000  0.40727500  1
  O  O33  1  0.66374300  0.82943600  0.02601800  1
  O  O34  1  0.24562300  0.09575200  0.76349900  1
  O  O35  1  0.48539900  0.65715000  0.18478700  1
  O  O36  1  0.51871800  0.01009800  0.81861900  1
  O  O37  1  0.42563100  0.26417300  0.55318300  1
  O  O38  1  0.30750500  0.86693600  0.95278800  1
  O  O39  1  0.76318200  0.59709700  0.21143600  1
  O  O40  1  0.26026800  0.40249200  0.28672400  1
  O  O41  1  0.79882700  0.13228400  0.55389600  1
  O  O42  1  0.91297900  0.74388300  0.93604100  1
  O  O43  1  0.00937000  0.98064200  0.69233000  1
  O  O44  1  0.98245500  0.33218700  0.31090400  1
  O  O45  1  0.73988200  0.89966100  0.74443000  1
  O  O46  1  0.15187000  0.15626600  0.47087800  1
  O  O47  1  0.09030700  0.54119700  0.08304200  1
  O  O48  1  0.35242900  0.90215300  0.66599700  1
  O  O49  1  0.62115800  0.20861400  0.36390100  1
  O  O50  1  0.41668400  0.45809100  0.08691400  1
  O  O51  1  0.61592400  0.61948500  0.94403600  1
  O  O52  1  0.87476000  0.39939200  0.05540300  1
  O  O53  1  0.08023600  0.54417100  0.91188700  1
  O  O54  1  0.87146200  0.78937700  0.64224000  1
  O  O55  1  0.16543200  0.09425700  0.33072600  1
  O  O56  1  0.40334300  0.48558000  0.90727500  1
  O  O57  1  0.33625700  0.82943600  0.52601800  1
  O  O58  1  0.75437700  0.09575200  0.26349900  1
  O  O59  1  0.51460100  0.65715000  0.68478700  1
  O  O60  1  0.48128200  0.01009800  0.31861900  1
  O  O61  1  0.57436900  0.26417300  0.05318300  1
  O  O62  1  0.69249500  0.86693600  0.45278800  1
  O  O63  1  0.23681800  0.59709700  0.71143600  1
  O  O64  1  0.73973200  0.40249200  0.78672400  1
  O  O65  1  0.20117300  0.13228400  0.05389600  1
  O  O66  1  0.08702100  0.74388300  0.43604100  1
  O  O67  1  0.99063000  0.98064200  0.19233000  1
  O  O68  1  0.01754500  0.33218700  0.81090400  1
  O  O69  1  0.26011800  0.89966100  0.24443000  1
  O  O70  1  0.84813000  0.15626600  0.97087800  1
  O  O71  1  0.90969300  0.54119700  0.58304200  1
  O  O72  1  0.64757100  0.90215300  0.16599700  1
  O  O73  1  0.37884200  0.20861400  0.86390100  1
  O  O74  1  0.38407600  0.61948500  0.44403600  1
  O  O75  1  0.58331600  0.45809100  0.58691400  1
