# generated using pymatgen
data_LiSnPO4
_symmetry_space_group_name_H-M   'P 1'
_cell_length_a   12.55718500
_cell_length_b   6.28232000
_cell_length_c   9.79096153
_cell_angle_alpha   80.56530587
_cell_angle_beta   90.00000000
_cell_angle_gamma   90.00000000
_symmetry_Int_Tables_number   1
_chemical_formula_structural   LiSnPO4
_chemical_formula_sum   'Li8 Sn8 P8 O32'
_cell_volume   761.94378356
_cell_formula_units_Z   8
loop_
 _symmetry_equiv_pos_site_id
 _symmetry_equiv_pos_as_xyz
  1  'x, y, z'
loop_
 _atom_site_type_symbol
 _atom_site_label
 _atom_site_symmetry_multiplicity
 _atom_site_fract_x
 _atom_site_fract_y
 _atom_site_fract_z
 _atom_site_occupancy
  Li  Li0  1  0.86521000  0.03749200  0.95158400  1
  Li  Li1  1  0.63479000  0.03749200  0.45158400  1
  Li  Li2  1  0.37316400  0.49639800  0.65769800  1
  Li  Li3  1  0.12683600  0.49639800  0.15769800  1
  Li  Li4  1  0.87316400  0.50360200  0.84230200  1
  Li  Li5  1  0.62683600  0.50360200  0.34230200  1
  Li  Li6  1  0.36521000  0.96250800  0.54841600  1
  Li  Li7  1  0.13479000  0.96250800  0.04841600  1
  Sn  Sn8  1  0.08879700  0.89604500  0.73276500  1
  Sn  Sn9  1  0.41120300  0.89604500  0.23276500  1
  Sn  Sn10  1  0.64377200  0.64650300  0.98189500  1
  Sn  Sn11  1  0.85622800  0.64650300  0.48189500  1
  Sn  Sn12  1  0.14377200  0.35349700  0.51810500  1
  Sn  Sn13  1  0.35622800  0.35349700  0.01810500  1
  Sn  Sn14  1  0.58879700  0.10395500  0.76723500  1
  Sn  Sn15  1  0.91120300  0.10395500  0.26723500  1
  P  P16  1  0.34471000  0.85856100  0.84660800  1
  P  P17  1  0.15529000  0.85856100  0.34660800  1
  P  P18  1  0.61050700  0.62700800  0.63687400  1
  P  P19  1  0.88949300  0.62700800  0.13687400  1
  P  P20  1  0.11050700  0.37299200  0.86312600  1
  P  P21  1  0.38949300  0.37299200  0.36312600  1
  P  P22  1  0.84471000  0.14143900  0.65339200  1
  P  P23  1  0.65529000  0.14143900  0.15339200  1
  O  O24  1  0.26299300  0.91577200  0.40797900  1
  O  O25  1  0.91407200  0.93281500  0.69228600  1
  O  O26  1  0.23700700  0.91577200  0.90797900  1
  O  O27  1  0.58592800  0.93281500  0.19228600  1
  O  O28  1  0.32824700  0.75933300  0.71436900  1
  O  O29  1  0.54887900  0.84407100  0.60776800  1
  O  O30  1  0.17175300  0.75933300  0.21436900  1
  O  O31  1  0.95112100  0.84407100  0.10776800  1
  O  O32  1  0.40513400  0.69366600  0.96058200  1
  O  O33  1  0.68447700  0.61382800  0.76558600  1
  O  O34  1  0.09486600  0.69366600  0.46058200  1
  O  O35  1  0.68026500  0.60581100  0.50638300  1
  O  O36  1  0.03023600  0.56677100  0.83926200  1
  O  O37  1  0.81552300  0.61382800  0.26558600  1
  O  O38  1  0.81973500  0.60581100  0.00638300  1
  O  O39  1  0.46976400  0.56677100  0.33926200  1
  O  O40  1  0.53023600  0.43322900  0.66073800  1
  O  O41  1  0.18026500  0.39418900  0.99361700  1
  O  O42  1  0.18447700  0.38617200  0.73441400  1
  O  O43  1  0.96976400  0.43322900  0.16073800  1
  O  O44  1  0.31973500  0.39418900  0.49361700  1
  O  O45  1  0.90513400  0.30633400  0.53941800  1
  O  O46  1  0.31552300  0.38617200  0.23441400  1
  O  O47  1  0.59486600  0.30633400  0.03941800  1
  O  O48  1  0.04887900  0.15592900  0.89223200  1
  O  O49  1  0.82824700  0.24066700  0.78563100  1
  O  O50  1  0.45112100  0.15592900  0.39223200  1
  O  O51  1  0.67175300  0.24066700  0.28563100  1
  O  O52  1  0.41407200  0.06718500  0.80771400  1
  O  O53  1  0.76299300  0.08422800  0.09202100  1
  O  O54  1  0.08592800  0.06718500  0.30771400  1
  O  O55  1  0.73700700  0.08422800  0.59202100  1
