# generated using pymatgen
data_LiFeSiO4
_symmetry_space_group_name_H-M   'P 1'
_cell_length_a   4.98398000
_cell_length_b   7.84712400
_cell_length_c   9.15944100
_cell_angle_alpha   90.00000000
_cell_angle_beta   90.00000000
_cell_angle_gamma   90.00000000
_symmetry_Int_Tables_number   1
_chemical_formula_structural   LiFeSiO4
_chemical_formula_sum   'Li4 Fe4 Si4 O16'
_cell_volume   358.22490467
_cell_formula_units_Z   4
loop_
 _symmetry_equiv_pos_site_id
 _symmetry_equiv_pos_as_xyz
  1  'x, y, z'
loop_
 _atom_site_type_symbol
 _atom_site_label
 _atom_site_symmetry_multiplicity
 _atom_site_fract_x
 _atom_site_fract_y
 _atom_site_fract_z
 _atom_site_occupancy
  Li  Li0  1  0.94698500  0.04771500  0.61349800  1
  Li  Li1  1  0.44698500  0.45228500  0.11349800  1
  Li  Li2  1  0.94698500  0.54771500  0.88650200  1
  Li  Li3  1  0.44698500  0.95228500  0.38650200  1
  Fe  Fe4  1  0.00583300  0.17740800  0.02190700  1
  Fe  Fe5  1  0.50583300  0.32259200  0.52190700  1
  Fe  Fe6  1  0.00583300  0.67740800  0.47809300  1
  Fe  Fe7  1  0.50583300  0.82259200  0.97809300  1
  Si  Si8  1  0.55696200  0.22648200  0.86136600  1
  Si  Si9  1  0.05696200  0.27351800  0.36136600  1
  Si  Si10  1  0.55696200  0.72648200  0.63863400  1
  Si  Si11  1  0.05696200  0.77351800  0.13863400  1
  O  O12  1  0.66862900  0.05056500  0.94378300  1
  O  O13  1  0.22267100  0.13690600  0.46573600  1
  O  O14  1  0.23292000  0.25362000  0.86722500  1
  O  O15  1  0.65800000  0.21820900  0.69097800  1
  O  O16  1  0.15800000  0.28179100  0.19097800  1
  O  O17  1  0.73292000  0.24638000  0.36722500  1
  O  O18  1  0.72267100  0.36309400  0.96573600  1
  O  O19  1  0.16862900  0.44943500  0.44378300  1
  O  O20  1  0.66862900  0.55056500  0.55621700  1
  O  O21  1  0.22267100  0.63690600  0.03426400  1
  O  O22  1  0.23292000  0.75362000  0.63277500  1
  O  O23  1  0.65800000  0.71820900  0.80902200  1
  O  O24  1  0.15800000  0.78179100  0.30902200  1
  O  O25  1  0.73292000  0.74638000  0.13277500  1
  O  O26  1  0.72267100  0.86309400  0.53426400  1
  O  O27  1  0.16862900  0.94943500  0.05621700  1
