# generated using pymatgen
data_Li5(NiO2)4
_symmetry_space_group_name_H-M   'P 1'
_cell_length_a   5.97218675
_cell_length_b   5.74437141
_cell_length_c   9.62678342
_cell_angle_alpha   90.02511156
_cell_angle_beta   89.99074988
_cell_angle_gamma   61.42461119
_symmetry_Int_Tables_number   1
_chemical_formula_structural   Li5(NiO2)4
_chemical_formula_sum   'Li10 Ni8 O16'
_cell_volume   290.03123041
_cell_formula_units_Z   2
loop_
 _symmetry_equiv_pos_site_id
 _symmetry_equiv_pos_as_xyz
  1  'x, y, z'
loop_
 _atom_site_type_symbol
 _atom_site_label
 _atom_site_symmetry_multiplicity
 _atom_site_fract_x
 _atom_site_fract_y
 _atom_site_fract_z
 _atom_site_occupancy
  Li  Li0  1  0.97294900  0.01114500  0.48530800  1
  Li  Li1  1  0.02739300  0.98392600  0.98513600  1
  Li  Li2  1  0.19830200  0.18480100  0.55843900  1
  Li  Li3  1  0.35352300  0.32323100  0.78230700  1
  Li  Li4  1  0.59432500  0.20370200  0.54506000  1
  Li  Li5  1  0.20362400  0.61882500  0.55914400  1
  Li  Li6  1  0.80570300  0.38364600  0.05750500  1
  Li  Li7  1  0.64625400  0.67656800  0.28234400  1
  Li  Li8  1  0.40814400  0.79680700  0.04311800  1
  Li  Li9  1  0.80104100  0.81728400  0.05853700  1
  Ni  Ni10  1  0.33069900  0.33546500  0.03350300  1
  Ni  Ni11  1  0.66385400  0.66756500  0.53305400  1
  Ni  Ni12  1  0.15164700  0.17671800  0.28626800  1
  Ni  Ni13  1  0.64299100  0.17862600  0.28676300  1
  Ni  Ni14  1  0.15233700  0.67063100  0.28641200  1
  Ni  Ni15  1  0.84799000  0.32881900  0.78633000  1
  Ni  Ni16  1  0.35959300  0.81992600  0.78713200  1
  Ni  Ni17  1  0.84724200  0.82295200  0.78627500  1
  O  O18  1  0.01075300  0.98723200  0.68070700  1
  O  O19  1  0.98203000  0.00206200  0.18154200  1
  O  O20  1  0.18682900  0.16372200  0.91425900  1
  O  O21  1  0.47658600  0.02823500  0.15792800  1
  O  O22  1  0.70237600  0.14534500  0.90212400  1
  O  O23  1  0.01406000  0.50113600  0.16777400  1
  O  O24  1  0.31167300  0.35012800  0.39924200  1
  O  O25  1  0.48184900  0.49425400  0.15631500  1
  O  O26  1  0.80972500  0.34941900  0.41184600  1
  O  O27  1  0.19235900  0.64615700  0.91383900  1
  O  O28  1  0.52520600  0.50011700  0.65705200  1
  O  O29  1  0.98316000  0.51139000  0.66733800  1
  O  O30  1  0.69401100  0.65908100  0.90059600  1
  O  O31  1  0.29912300  0.84026600  0.40487800  1
  O  O32  1  0.51967000  0.97743600  0.65490600  1
  O  O33  1  0.80335200  0.84299800  0.41165600  1
