# generated using pymatgen
data_Li5Fe8(BO3)8
_symmetry_space_group_name_H-M   'P 1'
_cell_length_a   5.26413400
_cell_length_b   9.10420462
_cell_length_c   11.36040898
_cell_angle_alpha   113.27511140
_cell_angle_beta   102.86607802
_cell_angle_gamma   90.06367594
_symmetry_Int_Tables_number   1
_chemical_formula_structural   Li5Fe8(BO3)8
_chemical_formula_sum   'Li5 Fe8 B8 O24'
_cell_volume   485.17098171
_cell_formula_units_Z   1
loop_
 _symmetry_equiv_pos_site_id
 _symmetry_equiv_pos_as_xyz
  1  'x, y, z'
loop_
 _atom_site_type_symbol
 _atom_site_label
 _atom_site_symmetry_multiplicity
 _atom_site_fract_x
 _atom_site_fract_y
 _atom_site_fract_z
 _atom_site_occupancy
  Li  Li0  1  0.02579800  0.03983200  0.40285200  1
  Li  Li1  1  0.48534100  0.50963600  0.66465300  1
  Li  Li2  1  0.26990800  0.24964600  0.16754400  1
  Li  Li3  1  0.98739000  0.01202600  0.66820500  1
  Li  Li4  1  0.77000400  0.74338300  0.15884400  1
  Fe  Fe5  1  0.01906900  0.35980000  0.38149100  1
  Fe  Fe6  1  0.27231700  0.93415400  0.88164200  1
  Fe  Fe7  1  0.46925000  0.15751800  0.63315800  1
  Fe  Fe8  1  0.24990100  0.55742200  0.12613000  1
  Fe  Fe9  1  0.77254800  0.43526700  0.88338300  1
  Fe  Fe10  1  0.52008900  0.84832400  0.38241900  1
  Fe  Fe11  1  0.96286500  0.65648500  0.62760500  1
  Fe  Fe12  1  0.74966000  0.06126400  0.12821900  1
  B  B13  1  0.02048500  0.69319200  0.37856900  1
  B  B14  1  0.26459600  0.60061800  0.87405800  1
  B  B15  1  0.47654900  0.81693000  0.63098300  1
  B  B16  1  0.24109800  0.89677800  0.13150300  1
  B  B17  1  0.51619500  0.17507200  0.37286400  1
  B  B18  1  0.76581400  0.10101200  0.87605600  1
  B  B19  1  0.97645200  0.31625400  0.62634700  1
  B  B20  1  0.73298000  0.39311700  0.12617400  1
  O  O21  1  0.01431800  0.07413500  0.85903400  1
  O  O22  1  0.14202200  0.71750200  0.83978600  1
  O  O23  1  0.13478200  0.51212200  0.92157200  1
  O  O24  1  0.08108800  0.17132200  0.60936900  1
  O  O25  1  0.09648800  0.42841900  0.59682800  1
  O  O26  1  0.24569700  0.85685200  0.67430700  1
  O  O27  1  0.25518000  0.67932400  0.33837100  1
  O  O28  1  0.51444200  0.57242300  0.85965000  1
  O  O29  1  0.64059500  0.21710700  0.83979100  1
  O  O30  1  0.42210600  0.06598500  0.41919200  1
  O  O31  1  0.36278000  0.28681300  0.35590500  1
  O  O32  1  0.63658000  0.01098100  0.92169600  1
  O  O33  1  0.33739400  0.00056700  0.08306700  1
  O  O34  1  0.59289100  0.68585500  0.63317600  1
  O  O35  1  0.58721200  0.92034000  0.58491400  1
  O  O36  1  0.41273900  0.79721800  0.17177900  1
  O  O37  1  0.47635800  0.38791000  0.12818200  1
  O  O38  1  0.74622300  0.34814000  0.67200200  1
  O  O39  1  0.75947900  0.15939000  0.34407900  1
  O  O40  1  0.93525600  0.59077400  0.42441500  1
  O  O41  1  0.87490800  0.81710400  0.36535400  1
  O  O42  1  0.83601800  0.50600400  0.08554800  1
  O  O43  1  0.89900100  0.29239100  0.16247200  1
  O  O44  1  0.98987700  0.89659300  0.14316400  1
