# generated using pymatgen
data_Li5Mn6(BO3)6
_symmetry_space_group_name_H-M   'P 1'
_cell_length_a   5.21508100
_cell_length_b   6.20539747
_cell_length_c   12.01105022
_cell_angle_alpha   84.79472150
_cell_angle_beta   78.48244683
_cell_angle_gamma   87.20282169
_symmetry_Int_Tables_number   1
_chemical_formula_structural   Li5Mn6(BO3)6
_chemical_formula_sum   'Li5 Mn6 B6 O18'
_cell_volume   379.11215865
_cell_formula_units_Z   1
loop_
 _symmetry_equiv_pos_site_id
 _symmetry_equiv_pos_as_xyz
  1  'x, y, z'
loop_
 _atom_site_type_symbol
 _atom_site_label
 _atom_site_symmetry_multiplicity
 _atom_site_fract_x
 _atom_site_fract_y
 _atom_site_fract_z
 _atom_site_occupancy
  Li  Li0  1  0.04240000  0.41806500  0.10027800  1
  Li  Li1  1  0.36150500  0.77237400  0.42377200  1
  Li  Li2  1  0.63057200  0.25178500  0.56405900  1
  Li  Li3  1  0.96678100  0.57762900  0.89893900  1
  Li  Li4  1  0.69780700  0.08712100  0.76812800  1
  Mn  Mn5  1  0.59747000  0.24680300  0.00285300  1
  Mn  Mn6  1  0.93861400  0.57783800  0.32997300  1
  Mn  Mn7  1  0.26144700  0.91338900  0.66798600  1
  Mn  Mn8  1  0.73893400  0.08490800  0.32682300  1
  Mn  Mn9  1  0.06573600  0.43017900  0.66537500  1
  Mn  Mn10  1  0.40302600  0.76301100  0.00484900  1
  B  B11  1  0.84461000  0.83393700  0.11239300  1
  B  B12  1  0.48688800  0.47929900  0.22397500  1
  B  B13  1  0.82329300  0.81793200  0.55118100  1
  B  B14  1  0.18420400  0.19903100  0.44472500  1
  B  B15  1  0.50891700  0.51874200  0.78155200  1
  B  B16  1  0.15183400  0.14608500  0.88888300  1
  O  O17  1  0.61719600  0.93646600  0.09070600  1
  O  O18  1  0.00380100  0.71934200  0.03061200  1
  O  O19  1  0.40362500  0.46062400  0.12179700  1
  O  O20  1  0.90368100  0.84364000  0.22093200  1
  O  O21  1  0.33249300  0.57116600  0.31388400  1
  O  O22  1  0.74376600  0.40322700  0.23142200  1
  O  O23  1  0.07373700  0.74090300  0.56284100  1
  O  O24  1  0.73359500  0.77985000  0.45273600  1
  O  O25  1  0.67331200  0.93900100  0.63315800  1
  O  O26  1  0.33205300  0.07880800  0.36541600  1
  O  O27  1  0.26143800  0.22604700  0.54767500  1
  O  O28  1  0.93117100  0.28521000  0.42916900  1
  O  O29  1  0.25948000  0.59893200  0.76928400  1
  O  O30  1  0.65672000  0.39863000  0.69889200  1
  O  O31  1  0.05649700  0.10999300  0.79214900  1
  O  O32  1  0.60045300  0.55456400  0.87984100  1
  O  O33  1  0.00960300  0.26951300  0.97106400  1
  O  O34  1  0.40211200  0.06494900  0.90018800  1
