# generated using pymatgen
data_Li3FePCO7
_symmetry_space_group_name_H-M   'P 1'
_cell_length_a   8.06786811
_cell_length_b   8.16062079
_cell_length_c   8.79154166
_cell_angle_alpha   93.41260871
_cell_angle_beta   86.90345032
_cell_angle_gamma   76.97671467
_symmetry_Int_Tables_number   1
_chemical_formula_structural   Li3FePCO7
_chemical_formula_sum   'Li12 Fe4 P4 C4 O28'
_cell_volume   561.58167961
_cell_formula_units_Z   4
loop_
 _symmetry_equiv_pos_site_id
 _symmetry_equiv_pos_as_xyz
  1  'x, y, z'
loop_
 _atom_site_type_symbol
 _atom_site_label
 _atom_site_symmetry_multiplicity
 _atom_site_fract_x
 _atom_site_fract_y
 _atom_site_fract_z
 _atom_site_occupancy
  Li  Li0  1  0.27772100  0.12266300  0.15942600  1
  Li  Li1  1  0.77768200  0.62266100  0.15940000  1
  Li  Li2  1  0.75195400  0.09867000  0.91514100  1
  Li  Li3  1  0.25193100  0.59862400  0.91511700  1
  Li  Li4  1  0.06590900  0.01021600  0.77266500  1
  Li  Li5  1  0.56583900  0.51028700  0.77271900  1
  Li  Li6  1  0.46412400  0.71107700  0.30216700  1
  Li  Li7  1  0.96412100  0.21118600  0.30205400  1
  Li  Li8  1  0.37861500  0.18406900  0.82243200  1
  Li  Li9  1  0.87864800  0.68385200  0.82258500  1
  Li  Li10  1  0.65140500  0.03759200  0.25196300  1
  Li  Li11  1  0.15135100  0.53766000  0.25181700  1
  Fe  Fe12  1  0.99264000  0.88713700  0.39834200  1
  Fe  Fe13  1  0.03749700  0.33420500  0.67624000  1
  Fe  Fe14  1  0.49266300  0.38706500  0.39849800  1
  Fe  Fe15  1  0.53750300  0.83419600  0.67646900  1
  P  P16  1  0.31846800  0.05948900  0.45328100  1
  P  P17  1  0.81847000  0.55948900  0.45321500  1
  P  P18  1  0.71177700  0.16188900  0.62139600  1
  P  P19  1  0.21172300  0.66189800  0.62141900  1
  C  C20  1  0.49507700  0.36756400  0.06597300  1
  C  C21  1  0.99506700  0.86751600  0.06596000  1
  C  C22  1  0.53466800  0.85368500  0.00884200  1
  C  C23  1  0.03476000  0.35373500  0.00873600  1
  O  O24  1  0.16767100  0.03494200  0.35628900  1
  O  O25  1  0.66770200  0.53489000  0.35616500  1
  O  O26  1  0.36238300  0.68650700  0.71855300  1
  O  O27  1  0.86246900  0.18645600  0.71848000  1
  O  O28  1  0.25662900  0.14152500  0.61592100  1
  O  O29  1  0.75660900  0.64153400  0.61581400  1
  O  O30  1  0.77346300  0.07988000  0.45870900  1
  O  O31  1  0.27359500  0.57984400  0.45878200  1
  O  O32  1  0.40903900  0.17088100  0.35385400  1
  O  O33  1  0.90893000  0.67099800  0.35387800  1
  O  O34  1  0.62101800  0.05058000  0.72082100  1
  O  O35  1  0.12103400  0.55046200  0.72078700  1
  O  O36  1  0.44504300  0.39710100  0.92897000  1
  O  O37  1  0.94494400  0.89716000  0.92900300  1
  O  O38  1  0.58467700  0.82423600  0.14585300  1
  O  O39  1  0.08486300  0.32428100  0.14573600  1
  O  O40  1  0.58702100  0.33348500  0.60935500  1
  O  O41  1  0.08705100  0.83352300  0.60914900  1
  O  O42  1  0.44298100  0.88781100  0.46558200  1
  O  O43  1  0.94305500  0.38783900  0.46553600  1
  O  O44  1  0.61668700  0.24057200  0.08782200  1
  O  O45  1  0.11667000  0.74050700  0.08779200  1
  O  O46  1  0.41281400  0.98042400  0.98689700  1
  O  O47  1  0.91287700  0.48047400  0.98685000  1
  O  O48  1  0.91519400  0.96946800  0.18079300  1
  O  O49  1  0.41515000  0.46952300  0.18078300  1
  O  O50  1  0.61488200  0.75182100  0.89405200  1
  O  O51  1  0.11488300  0.25191000  0.89391300  1
