# generated using pymatgen
data_LiV2P4(HO8)2
_symmetry_space_group_name_H-M   'P 1'
_cell_length_a   7.34455000
_cell_length_b   9.23554518
_cell_length_c   9.28556023
_cell_angle_alpha   116.39173089
_cell_angle_beta   97.59068935
_cell_angle_gamma   97.37639979
_symmetry_Int_Tables_number   1
_chemical_formula_structural   LiV2P4(HO8)2
_chemical_formula_sum   'Li2 V4 P8 H4 O32'
_cell_volume   546.70128882
_cell_formula_units_Z   2
loop_
 _symmetry_equiv_pos_site_id
 _symmetry_equiv_pos_as_xyz
  1  'x, y, z'
loop_
 _atom_site_type_symbol
 _atom_site_label
 _atom_site_symmetry_multiplicity
 _atom_site_fract_x
 _atom_site_fract_y
 _atom_site_fract_z
 _atom_site_occupancy
  Li  Li0  1  0.64913200  0.73136800  0.36302800  1
  Li  Li1  1  0.35096500  0.26307700  0.63347500  1
  V  V2  1  0.99619300  0.49908200  0.99964600  1
  V  V3  1  0.50235100  0.49985700  0.50067000  1
  V  V4  1  0.50365000  0.00021400  0.99964500  1
  V  V5  1  0.99788400  0.00052100  0.49984700  1
  P  P6  1  0.77092900  0.88596900  0.74079300  1
  P  P7  1  0.23152800  0.61152200  0.76423300  1
  P  P8  1  0.25870000  0.73429300  0.38582000  1
  P  P9  1  0.26548100  0.23817400  0.89358300  1
  P  P10  1  0.73388400  0.26179300  0.61406600  1
  P  P11  1  0.72949600  0.75801100  0.10685700  1
  P  P12  1  0.77465700  0.38832700  0.24120300  1
  P  P13  1  0.23549000  0.11298900  0.26127200  1
  H  H14  1  0.48676000  0.97949800  0.48719300  1
  H  H15  1  0.49214000  0.48427000  0.99149800  1
  H  H16  1  0.01127200  0.51195100  0.51996400  1
  H  H17  1  0.00871200  0.01012000  0.01622200  1
  O  O18  1  0.34947200  0.79088800  0.85172400  1
  O  O19  1  0.17368600  0.56732900  0.89739200  1
  O  O20  1  0.94798600  0.91012300  0.85614900  1
  O  O21  1  0.85997300  0.66234700  0.99593400  1
  O  O22  1  0.13522900  0.83722100  0.49702100  1
  O  O23  1  0.05387700  0.59890400  0.64966100  1
  O  O24  1  0.80789700  0.92014200  0.59633600  1
  O  O25  1  0.65005800  0.70492500  0.65220700  1
  O  O26  1  0.44359800  0.84978600  0.40232300  1
  O  O27  1  0.44573800  0.35197600  0.90298400  1
  O  O28  1  0.36679600  0.00264300  0.16548300  1
  O  O29  1  0.35649000  0.49238400  0.67035800  1
  O  O30  1  0.31513800  0.60525800  0.43212400  1
  O  O31  1  0.32167200  0.10489600  0.93756900  1
  O  O32  1  0.16157200  0.15775200  0.71174900  1
  O  O33  1  0.14756300  0.65342400  0.20596200  1
  O  O34  1  0.85162800  0.34655800  0.79458900  1
  O  O35  1  0.83807700  0.84172200  0.28834100  1
  O  O36  1  0.67819400  0.89353300  0.06227800  1
  O  O37  1  0.68726100  0.39463500  0.56831700  1
  O  O38  1  0.64254800  0.50451500  0.32906200  1
  O  O39  1  0.63345100  0.99489800  0.83421100  1
  O  O40  1  0.55505200  0.14639900  0.59559700  1
  O  O41  1  0.55352300  0.64372400  0.09546100  1
  O  O42  1  0.35195300  0.29424300  0.34859200  1
  O  O43  1  0.19197200  0.07814400  0.40325200  1
  O  O44  1  0.94860700  0.40454200  0.35537000  1
  O  O45  1  0.86541200  0.16333700  0.50594800  1
  O  O46  1  0.13956300  0.33658000  0.00518600  1
  O  O47  1  0.05296900  0.09283800  0.14929800  1
  O  O48  1  0.82683000  0.43271100  0.10410600  1
  O  O49  1  0.65252500  0.20806200  0.14762900  1
