# generated using pymatgen
data_Li2VO2F
_symmetry_space_group_name_H-M   'P 1'
_cell_length_a   3.01555700
_cell_length_b   7.35729611
_cell_length_c   13.10317938
_cell_angle_alpha   90.22924496
_cell_angle_beta   96.60011400
_cell_angle_gamma   89.99019539
_symmetry_Int_Tables_number   1
_chemical_formula_structural   Li2VO2F
_chemical_formula_sum   'Li10 V5 O10 F5'
_cell_volume   288.78266403
_cell_formula_units_Z   5
loop_
 _symmetry_equiv_pos_site_id
 _symmetry_equiv_pos_as_xyz
  1  'x, y, z'
loop_
 _atom_site_type_symbol
 _atom_site_label
 _atom_site_symmetry_multiplicity
 _atom_site_fract_x
 _atom_site_fract_y
 _atom_site_fract_z
 _atom_site_occupancy
  Li  Li0  1  0.53063700  0.85891600  0.05773300  1
  Li  Li1  1  0.92652200  0.83979800  0.85991400  1
  Li  Li2  1  0.73213300  0.86928200  0.46097200  1
  Li  Li3  1  0.67988200  0.13296500  0.35556600  1
  Li  Li4  1  0.86403600  0.15966100  0.72999400  1
  Li  Li5  1  0.32796000  0.84202800  0.66060600  1
  Li  Li6  1  0.15049700  0.85928500  0.28664100  1
  Li  Li7  1  0.07386700  0.14896900  0.14269700  1
  Li  Li8  1  0.46228200  0.15635100  0.92624700  1
  Li  Li9  1  0.26287200  0.14357300  0.52504100  1
  V  V10  1  0.99058600  0.49349400  0.99432800  1
  V  V11  1  0.79386600  0.50052300  0.60299800  1
  V  V12  1  0.58710100  0.48318700  0.20728800  1
  V  V13  1  0.40453800  0.50134900  0.79988800  1
  V  V14  1  0.20184000  0.50032100  0.40301100  1
  O  O15  1  0.51566100  0.36093800  0.06792900  1
  O  O16  1  0.73326400  0.35554800  0.46880300  1
  O  O17  1  0.94823700  0.34354300  0.86823000  1
  O  O18  1  0.85869900  0.65330600  0.73771100  1
  O  O19  1  0.66574600  0.64379000  0.32863000  1
  O  O20  1  0.32636100  0.34796600  0.67163000  1
  O  O21  1  0.12648300  0.34573300  0.26395800  1
  O  O22  1  0.26540600  0.64589500  0.53856000  1
  O  O23  1  0.47767300  0.65390000  0.93523200  1
  O  O24  1  0.20352400  0.99968900  0.40402800  1
  F  F25  1  0.99853300  0.00139000  0.99755900  1
  F  F26  1  0.80367500  0.99965500  0.61082700  1
  F  F27  1  0.59464300  0.99242400  0.18705200  1
  F  F28  1  0.05164100  0.66024300  0.13150400  1
  F  F29  1  0.39895400  0.99838900  0.80334900  1
