# generated using pymatgen
data_Li4Nb2Fe3Sn3O16
_symmetry_space_group_name_H-M   'P 1'
_cell_length_a   6.22670007
_cell_length_b   6.22670007
_cell_length_c   9.97154250
_cell_angle_alpha   89.90687661
_cell_angle_beta   89.90687661
_cell_angle_gamma   59.64798176
_symmetry_Int_Tables_number   1
_chemical_formula_structural   Li4Nb2Fe3Sn3O16
_chemical_formula_sum   'Li4 Nb2 Fe3 Sn3 O16'
_cell_volume   333.62350182
_cell_formula_units_Z   1
loop_
 _symmetry_equiv_pos_site_id
 _symmetry_equiv_pos_as_xyz
  1  'x, y, z'
loop_
 _atom_site_type_symbol
 _atom_site_label
 _atom_site_symmetry_multiplicity
 _atom_site_fract_x
 _atom_site_fract_y
 _atom_site_fract_z
 _atom_site_occupancy
  Li  Li0  1  0.67233700  0.67233700  0.09812000  1
  Li  Li1  1  0.99329400  0.99329400  0.01509200  1
  Li  Li2  1  0.99512600  0.99512600  0.50315400  1
  Li  Li3  1  0.32951800  0.32951800  0.59489600  1
  Nb  Nb4  1  0.67590200  0.67590200  0.50304000  1
  Nb  Nb5  1  0.35185300  0.35185300  0.02269400  1
  Fe  Fe6  1  0.82843400  0.82843400  0.78792500  1
  Fe  Fe7  1  0.17243300  0.66040100  0.28650600  1
  Fe  Fe8  1  0.66040100  0.17243300  0.28650600  1
  Sn  Sn9  1  0.33713700  0.83163400  0.78501300  1
  Sn  Sn10  1  0.83163400  0.33713700  0.78501300  1
  Sn  Sn11  1  0.17125300  0.17125300  0.28509000  1
  O  O12  1  0.34296300  0.83932800  0.41255900  1
  O  O13  1  0.51310300  0.51310300  0.66085500  1
  O  O14  1  0.66306800  0.66306800  0.89751300  1
  O  O15  1  0.99663800  0.99663800  0.68840500  1
  O  O16  1  0.00038700  0.00038700  0.20042600  1
  O  O17  1  0.83932800  0.34296300  0.41255900  1
  O  O18  1  0.51101100  0.95521100  0.65197800  1
  O  O19  1  0.95521100  0.51101100  0.65197800  1
  O  O20  1  0.15814300  0.15814300  0.90258800  1
  O  O21  1  0.82872400  0.82872400  0.41650200  1
  O  O22  1  0.04071300  0.47054900  0.14620300  1
  O  O23  1  0.47054900  0.04071300  0.14620300  1
  O  O24  1  0.33365900  0.33365900  0.39008900  1
  O  O25  1  0.17396700  0.66041000  0.90930800  1
  O  O26  1  0.48728600  0.48728600  0.14162300  1
  O  O27  1  0.66041000  0.17396700  0.90930800  1
