# generated using pymatgen
data_LiSn(PO3)3
_symmetry_space_group_name_H-M   'P 1'
_cell_length_a   7.76455200
_cell_length_b   10.54054200
_cell_length_c   12.24109800
_cell_angle_alpha   90.00000000
_cell_angle_beta   90.00000000
_cell_angle_gamma   90.00000000
_symmetry_Int_Tables_number   1
_chemical_formula_structural   LiSn(PO3)3
_chemical_formula_sum   'Li4 Sn4 P12 O36'
_cell_volume   1001.84312152
_cell_formula_units_Z   4
loop_
 _symmetry_equiv_pos_site_id
 _symmetry_equiv_pos_as_xyz
  1  'x, y, z'
loop_
 _atom_site_type_symbol
 _atom_site_label
 _atom_site_symmetry_multiplicity
 _atom_site_fract_x
 _atom_site_fract_y
 _atom_site_fract_z
 _atom_site_occupancy
  Li  Li0  1  0.94841500  0.37354500  0.01329200  1
  Li  Li1  1  0.55158500  0.62645500  0.51329200  1
  Li  Li2  1  0.44841500  0.12645500  0.98670800  1
  Li  Li3  1  0.05158500  0.87354500  0.48670800  1
  Sn  Sn4  1  0.19698500  0.22803500  0.64864100  1
  Sn  Sn5  1  0.30301500  0.77196500  0.14864100  1
  Sn  Sn6  1  0.69698600  0.27196500  0.35135900  1
  Sn  Sn7  1  0.80301400  0.72803500  0.85135900  1
  P  P8  1  0.18185800  0.02361200  0.29515300  1
  P  P9  1  0.18561300  0.46750700  0.18200800  1
  P  P10  1  0.24362300  0.70448600  0.87320200  1
  P  P11  1  0.25637700  0.29551400  0.37320200  1
  P  P12  1  0.31438700  0.53249300  0.68200800  1
  P  P13  1  0.31814200  0.97638800  0.79515300  1
  P  P14  1  0.68185800  0.47638800  0.70484700  1
  P  P15  1  0.68561300  0.03249300  0.81799200  1
  P  P16  1  0.74362300  0.79551400  0.12679800  1
  P  P17  1  0.75637700  0.20448600  0.62679800  1
  P  P18  1  0.81438700  0.96750700  0.31799200  1
  P  P19  1  0.81814200  0.52361200  0.20484700  1
  O  O20  1  0.02164000  0.56410300  0.20022900  1
  O  O21  1  0.06309100  0.65198600  0.88045200  1
  O  O22  1  0.14753200  0.37108600  0.28445400  1
  O  O23  1  0.15631900  0.45421900  0.70097700  1
  O  O24  1  0.22444500  0.84379300  0.82411900  1
  O  O25  1  0.23448500  0.99553400  0.17932700  1
  O  O26  1  0.21480000  0.92730300  0.38292700  1
  O  O27  1  0.16391600  0.39269400  0.07903100  1
  O  O28  1  0.14807300  0.29255100  0.47528700  1
  O  O29  1  0.35192700  0.70744900  0.97528700  1
  O  O30  1  0.33608400  0.60730600  0.57903100  1
  O  O31  1  0.28520000  0.07269700  0.88292700  1
  O  O32  1  0.26551500  0.00446600  0.67932700  1
  O  O33  1  0.27555500  0.15620700  0.32411900  1
  O  O34  1  0.34368100  0.54578100  0.20097700  1
  O  O35  1  0.35246800  0.62891400  0.78445400  1
  O  O36  1  0.43690900  0.34801400  0.38045200  1
  O  O37  1  0.47836000  0.43589700  0.70022900  1
  O  O38  1  0.52164000  0.93589700  0.79977100  1
  O  O39  1  0.56309100  0.84801400  0.11954800  1
  O  O40  1  0.64753200  0.12891400  0.71554600  1
  O  O41  1  0.65631900  0.04578100  0.29902300  1
  O  O42  1  0.72444500  0.65620700  0.17588100  1
  O  O43  1  0.73448500  0.50446600  0.82067300  1
  O  O44  1  0.71480000  0.57269700  0.61707300  1
  O  O45  1  0.66391600  0.10730600  0.92096900  1
  O  O46  1  0.64807300  0.20744900  0.52471300  1
  O  O47  1  0.85192700  0.79255100  0.02471300  1
  O  O48  1  0.83608400  0.89269400  0.42096900  1
  O  O49  1  0.78520000  0.42730300  0.11707300  1
  O  O50  1  0.76551500  0.49553400  0.32067300  1
  O  O51  1  0.77555500  0.34379300  0.67588100  1
  O  O52  1  0.84368100  0.95421900  0.79902300  1
  O  O53  1  0.85246800  0.87108600  0.21554600  1
  O  O54  1  0.93690900  0.15198600  0.61954800  1
  O  O55  1  0.97836000  0.06410300  0.29977100  1
