# generated using pymatgen
data_Li4Ti5VO12
_symmetry_space_group_name_H-M   'P 1'
_cell_length_a   5.18035229
_cell_length_b   5.18035229
_cell_length_c   10.40162005
_cell_angle_alpha   89.82431097
_cell_angle_beta   89.82431097
_cell_angle_gamma   120.40882475
_symmetry_Int_Tables_number   1
_chemical_formula_structural   Li4Ti5VO12
_chemical_formula_sum   'Li4 Ti5 V1 O12'
_cell_volume   240.73433761
_cell_formula_units_Z   1
loop_
 _symmetry_equiv_pos_site_id
 _symmetry_equiv_pos_as_xyz
  1  'x, y, z'
loop_
 _atom_site_type_symbol
 _atom_site_label
 _atom_site_symmetry_multiplicity
 _atom_site_fract_x
 _atom_site_fract_y
 _atom_site_fract_z
 _atom_site_occupancy
  Li  Li0  1  0.33902300  0.84648900  0.75105500  1
  Li  Li1  1  0.15351100  0.66097700  0.24894500  1
  Li  Li2  1  0.84648900  0.33902300  0.75105500  1
  Li  Li3  1  0.66097700  0.15351100  0.24894500  1
  Ti  Ti4  1  0.16366700  0.83633300  0.50000000  1
  Ti  Ti5  1  0.66139900  0.33860100  0.00000000  1
  Ti  Ti6  1  0.33860100  0.66139900  0.00000000  1
  Ti  Ti7  1  0.83633300  0.16366700  0.50000000  1
  Ti  Ti8  1  0.50000000  0.50000000  0.50000000  1
  V  V9  1  0.00000000  0.00000000  0.00000000  1
  O  O10  1  0.35764300  0.99367500  0.10797600  1
  O  O11  1  0.00632500  0.64235700  0.89202400  1
  O  O12  1  0.49541400  0.83822500  0.39191800  1
  O  O13  1  0.83822500  0.49541400  0.39191800  1
  O  O14  1  0.16177500  0.50458600  0.60808200  1
  O  O15  1  0.83559500  0.83559500  0.60253800  1
  O  O16  1  0.50458600  0.16177500  0.60808200  1
  O  O17  1  0.99367500  0.35764300  0.10797600  1
  O  O18  1  0.64615100  0.64615100  0.10177600  1
  O  O19  1  0.64235700  0.00632500  0.89202400  1
  O  O20  1  0.35384900  0.35384900  0.89822400  1
  O  O21  1  0.16440500  0.16440500  0.39746200  1
