# generated using pymatgen
data_Li4Cr2Co3Sb3O16
_symmetry_space_group_name_H-M   'P 1'
_cell_length_a   6.05598700
_cell_length_b   6.11868641
_cell_length_c   9.65953430
_cell_angle_alpha   91.59521885
_cell_angle_beta   90.41828307
_cell_angle_gamma   119.64241525
_symmetry_Int_Tables_number   1
_chemical_formula_structural   Li4Cr2Co3Sb3O16
_chemical_formula_sum   'Li4 Cr2 Co3 Sb3 O16'
_cell_volume   310.87621021
_cell_formula_units_Z   1
loop_
 _symmetry_equiv_pos_site_id
 _symmetry_equiv_pos_as_xyz
  1  'x, y, z'
loop_
 _atom_site_type_symbol
 _atom_site_label
 _atom_site_symmetry_multiplicity
 _atom_site_fract_x
 _atom_site_fract_y
 _atom_site_fract_z
 _atom_site_occupancy
  Li  Li0  1  0.65942600  0.32832400  0.88039100  1
  Li  Li1  1  0.97579900  0.95037000  0.98222400  1
  Li  Li2  1  0.99212300  0.98098600  0.50559100  1
  Li  Li3  1  0.32848600  0.65793400  0.40288000  1
  Cr  Cr4  1  0.68209800  0.35044000  0.49516400  1
  Cr  Cr5  1  0.34033600  0.68810900  0.97575300  1
  Co  Co6  1  0.83177800  0.66400700  0.21539900  1
  Co  Co7  1  0.16820000  0.82986200  0.70995100  1
  Co  Co8  1  0.66304900  0.84112900  0.71277500  1
  Sb  Sb9  1  0.33729100  0.17037000  0.21476800  1
  Sb  Sb10  1  0.83256500  0.17001800  0.21366500  1
  Sb  Sb11  1  0.17693900  0.34553000  0.71422600  1
  O  O12  1  0.34014500  0.18667300  0.59578100  1
  O  O13  1  0.51921000  0.03582700  0.33940000  1
  O  O14  1  0.65577200  0.31475000  0.09994400  1
  O  O15  1  0.00875600  0.01696700  0.31888300  1
  O  O16  1  0.02054500  0.01054700  0.80216800  1
  O  O17  1  0.84689600  0.17879200  0.59835700  1
  O  O18  1  0.51308200  0.47418800  0.34021900  1
  O  O19  1  0.96287400  0.47187300  0.33992200  1
  O  O20  1  0.15751600  0.31631600  0.10147600  1
  O  O21  1  0.85072500  0.67562100  0.60021000  1
  O  O22  1  0.03555200  0.50541600  0.84871300  1
  O  O23  1  0.47824700  0.52079600  0.84850000  1
  O  O24  1  0.31770100  0.66100100  0.60668500  1
  O  O25  1  0.16833100  0.84781400  0.10285900  1
  O  O26  1  0.45795700  0.95615000  0.84173000  1
  O  O27  1  0.67830000  0.85019000  0.10020600  1
