# generated using pymatgen
data_Li2Ti3SnO8
_symmetry_space_group_name_H-M   'P 1'
_cell_length_a   8.78532800
_cell_length_b   8.78532800
_cell_length_c   8.78532800
_cell_angle_alpha   90.00000000
_cell_angle_beta   90.00000000
_cell_angle_gamma   90.00000000
_symmetry_Int_Tables_number   1
_chemical_formula_structural   Li2Ti3SnO8
_chemical_formula_sum   'Li8 Ti12 Sn4 O32'
_cell_volume   678.06908087
_cell_formula_units_Z   4
loop_
 _symmetry_equiv_pos_site_id
 _symmetry_equiv_pos_as_xyz
  1  'x, y, z'
loop_
 _atom_site_type_symbol
 _atom_site_label
 _atom_site_symmetry_multiplicity
 _atom_site_fract_x
 _atom_site_fract_y
 _atom_site_fract_z
 _atom_site_occupancy
  Li  Li0  1  0.13084100  0.86915900  0.36915900  1
  Li  Li1  1  0.25159900  0.75159900  0.74840100  1
  Li  Li2  1  0.24840100  0.24840100  0.24840100  1
  Li  Li3  1  0.36915900  0.13084100  0.86915900  1
  Li  Li4  1  0.63084100  0.63084100  0.63084100  1
  Li  Li5  1  0.75159900  0.74840100  0.25159900  1
  Li  Li6  1  0.74840100  0.25159900  0.75159900  1
  Li  Li7  1  0.86915900  0.36915900  0.13084100  1
  Ti  Ti8  1  0.12834100  0.61843600  0.11607600  1
  Ti  Ti9  1  0.11843600  0.38392400  0.87165900  1
  Ti  Ti10  1  0.11607600  0.12834100  0.61843600  1
  Ti  Ti11  1  0.38392400  0.87165900  0.11843600  1
  Ti  Ti12  1  0.38156400  0.61607600  0.37165900  1
  Ti  Ti13  1  0.37165900  0.38156400  0.61607600  1
  Ti  Ti14  1  0.62834100  0.88156400  0.88392400  1
  Ti  Ti15  1  0.61843600  0.11607600  0.12834100  1
  Ti  Ti16  1  0.61607600  0.37165900  0.38156400  1
  Ti  Ti17  1  0.88392400  0.62834100  0.88156400  1
  Ti  Ti18  1  0.88156400  0.88392400  0.62834100  1
  Ti  Ti19  1  0.87165900  0.11843600  0.38392400  1
  Sn  Sn20  1  0.98599400  0.51400600  0.48599400  1
  Sn  Sn21  1  0.51400600  0.48599400  0.98599400  1
  Sn  Sn22  1  0.48599400  0.98599400  0.51400600  1
  Sn  Sn23  1  0.01400600  0.01400600  0.01400600  1
  O  O24  1  0.08696700  0.13291200  0.39291000  1
  O  O25  1  0.10709000  0.91303300  0.63291200  1
  O  O26  1  0.11703000  0.61703000  0.88297000  1
  O  O27  1  0.13291200  0.39291000  0.08696700  1
  O  O28  1  0.12034000  0.16665400  0.84066800  1
  O  O29  1  0.12689600  0.37310400  0.62689600  1
  O  O30  1  0.15933200  0.62034000  0.33334600  1
  O  O31  1  0.16665400  0.84066800  0.12034000  1
  O  O32  1  0.33334600  0.15933200  0.62034000  1
  O  O33  1  0.34066800  0.37966000  0.83334600  1
  O  O34  1  0.37310400  0.62689600  0.12689600  1
  O  O35  1  0.37966000  0.83334600  0.34066800  1
  O  O36  1  0.36708800  0.60709000  0.58696700  1
  O  O37  1  0.38297000  0.38297000  0.38297000  1
  O  O38  1  0.39291000  0.08696700  0.13291200  1
  O  O39  1  0.41303300  0.86708800  0.89291000  1
  O  O40  1  0.58696700  0.36708800  0.60709000  1
  O  O41  1  0.60709000  0.58696700  0.36708800  1
  O  O42  1  0.61703000  0.88297000  0.11703000  1
  O  O43  1  0.63291200  0.10709000  0.91303300  1
  O  O44  1  0.62034000  0.33334600  0.15933200  1
  O  O45  1  0.62689600  0.12689600  0.37310400  1
  O  O46  1  0.65933200  0.87966000  0.66665400  1
  O  O47  1  0.66665400  0.65933200  0.87966000  1
  O  O48  1  0.83334600  0.34066800  0.37966000  1
  O  O49  1  0.84066800  0.12034000  0.16665400  1
  O  O50  1  0.87310400  0.87310400  0.87310400  1
  O  O51  1  0.87966000  0.66665400  0.65933200  1
  O  O52  1  0.86708800  0.89291000  0.41303300  1
  O  O53  1  0.88297000  0.11703000  0.61703000  1
  O  O54  1  0.89291000  0.41303300  0.86708800  1
  O  O55  1  0.91303300  0.63291200  0.10709000  1
