# generated using pymatgen
data_LiVSiO4
_symmetry_space_group_name_H-M   'P 1'
_cell_length_a   5.70034976
_cell_length_b   9.83385289
_cell_length_c   5.70050856
_cell_angle_alpha   72.39125333
_cell_angle_beta   117.81561483
_cell_angle_gamma   89.61545706
_symmetry_Int_Tables_number   1
_chemical_formula_structural   LiVSiO4
_chemical_formula_sum   'Li4 V4 Si4 O16'
_cell_volume   265.20785306
_cell_formula_units_Z   4
loop_
 _symmetry_equiv_pos_site_id
 _symmetry_equiv_pos_as_xyz
  1  'x, y, z'
loop_
 _atom_site_type_symbol
 _atom_site_label
 _atom_site_symmetry_multiplicity
 _atom_site_fract_x
 _atom_site_fract_y
 _atom_site_fract_z
 _atom_site_occupancy
  Li  Li0  1  0.99995800  0.99999700  0.99996100  1
  Li  Li1  1  0.50005000  0.49999900  0.00005300  1
  Li  Li2  1  0.74999800  0.24999900  0.00000800  1
  Li  Li3  1  0.25000200  0.75000100  0.00000400  1
  V  V4  1  0.75000200  0.74998600  0.00004700  1
  V  V5  1  0.75006200  0.25000200  0.50004400  1
  V  V6  1  0.24991500  0.25000200  0.99990900  1
  V  V7  1  0.24998300  0.75000500  0.49995500  1
  Si  Si8  1  0.18367300  0.43371500  0.38242600  1
  Si  Si9  1  0.68386100  0.93372400  0.38264000  1
  Si  Si10  1  0.81615300  0.56629100  0.61738100  1
  Si  Si11  1  0.31635400  0.06628300  0.61755900  1
  O  O12  1  0.64152500  0.62471300  0.26751700  1
  O  O13  1  0.14171100  0.12462600  0.26769200  1
  O  O14  1  0.89223300  0.37529100  0.26626500  1
  O  O15  1  0.39232700  0.87537400  0.26636400  1
  O  O16  1  0.10767500  0.62462100  0.73363800  1
  O  O17  1  0.60777400  0.12471100  0.73374800  1
  O  O18  1  0.35827500  0.37537500  0.73229800  1
  O  O19  1  0.85848100  0.87528300  0.73249700  1
  O  O20  1  0.12583300  0.61636000  0.25738300  1
  O  O21  1  0.62624200  0.11636500  0.25779400  1
  O  O22  1  0.36611000  0.37607800  0.25739500  1
  O  O23  1  0.86651500  0.87607700  0.25780400  1
  O  O24  1  0.87373300  0.38364700  0.74218900  1
  O  O25  1  0.37417200  0.88364000  0.74262900  1
  O  O26  1  0.63349500  0.62391800  0.74220300  1
  O  O27  1  0.13388800  0.12391600  0.74259800  1
