# generated using pymatgen
data_Li4Ti5Mn4O18
_symmetry_space_group_name_H-M   'P 1'
_cell_length_a   2.91765500
_cell_length_b   9.10970800
_cell_length_c   26.39404600
_cell_angle_alpha   90.00000000
_cell_angle_beta   90.00000000
_cell_angle_gamma   90.00000000
_symmetry_Int_Tables_number   1
_chemical_formula_structural   Li4Ti5Mn4O18
_chemical_formula_sum   'Li8 Ti10 Mn8 O36'
_cell_volume   701.52695522
_cell_formula_units_Z   2
loop_
 _symmetry_equiv_pos_site_id
 _symmetry_equiv_pos_as_xyz
  1  'x, y, z'
loop_
 _atom_site_type_symbol
 _atom_site_label
 _atom_site_symmetry_multiplicity
 _atom_site_fract_x
 _atom_site_fract_y
 _atom_site_fract_z
 _atom_site_occupancy
  Li  Li0  1  0.00000000  0.18896200  0.99170300  1
  Li  Li1  1  0.00000000  0.20549500  0.18688400  1
  Li  Li2  1  0.00000000  0.29450500  0.68688400  1
  Li  Li3  1  0.00000000  0.31103800  0.49170300  1
  Li  Li4  1  0.00000000  0.68896200  0.50829700  1
  Li  Li5  1  0.00000000  0.70549500  0.31311600  1
  Li  Li6  1  0.00000000  0.79450500  0.81311600  1
  Li  Li7  1  0.00000000  0.81103800  0.00829700  1
  Ti  Ti8  1  0.00000000  0.00000000  0.50000000  1
  Ti  Ti9  1  0.00000000  0.99767000  0.10193100  1
  Ti  Ti10  1  0.50000000  0.14294000  0.80810900  1
  Ti  Ti11  1  0.50000000  0.35706000  0.30810900  1
  Ti  Ti12  1  0.00000000  0.50233000  0.60193100  1
  Ti  Ti13  1  0.00000000  0.50000000  0.00000000  1
  Ti  Ti14  1  0.00000000  0.49767000  0.39806900  1
  Ti  Ti15  1  0.50000000  0.64294000  0.69189100  1
  Ti  Ti16  1  0.50000000  0.85706000  0.19189100  1
  Ti  Ti17  1  0.00000000  0.00233000  0.89806900  1
  Mn  Mn18  1  0.00000000  0.01427700  0.30830000  1
  Mn  Mn19  1  0.50000000  0.14939000  0.58810500  1
  Mn  Mn20  1  0.50000000  0.35061000  0.08810500  1
  Mn  Mn21  1  0.00000000  0.48572300  0.80830000  1
  Mn  Mn22  1  0.00000000  0.51427700  0.19170000  1
  Mn  Mn23  1  0.50000000  0.64939000  0.91189500  1
  Mn  Mn24  1  0.50000000  0.85061000  0.41189500  1
  Mn  Mn25  1  0.00000000  0.98572300  0.69170000  1
  O  O26  1  0.00000000  0.98816000  0.42416300  1
  O  O27  1  0.00000000  0.01184000  0.57583700  1
  O  O28  1  0.50000000  0.05101000  0.94183300  1
  O  O29  1  0.50000000  0.05247900  0.15558600  1
  O  O30  1  0.50000000  0.11674100  0.66969100  1
  O  O31  1  0.00000000  0.09417200  0.76444500  1
  O  O32  1  0.50000000  0.14649300  0.49941700  1
  O  O33  1  0.50000000  0.14722000  0.29068600  1
  O  O34  1  0.00000000  0.18022400  0.85872200  1
  O  O35  1  0.00000000  0.20766200  0.08492200  1
  O  O36  1  0.00000000  0.29233800  0.58492200  1
  O  O37  1  0.00000000  0.31977600  0.35872200  1
  O  O38  1  0.50000000  0.35278000  0.79068600  1
  O  O39  1  0.50000000  0.35350700  0.99941700  1
  O  O40  1  0.00000000  0.40582800  0.26444500  1
  O  O41  1  0.50000000  0.38325900  0.16969100  1
  O  O42  1  0.50000000  0.44752100  0.65558600  1
  O  O43  1  0.50000000  0.44899000  0.44183300  1
  O  O44  1  0.00000000  0.48816000  0.07583700  1
  O  O45  1  0.00000000  0.51184000  0.92416300  1
  O  O46  1  0.50000000  0.55101000  0.55816700  1
  O  O47  1  0.50000000  0.55247900  0.34441400  1
  O  O48  1  0.50000000  0.61674100  0.83030900  1
  O  O49  1  0.00000000  0.59417200  0.73555500  1
  O  O50  1  0.50000000  0.64649300  0.00058300  1
  O  O51  1  0.50000000  0.64722000  0.20931400  1
  O  O52  1  0.00000000  0.68022400  0.64127800  1
  O  O53  1  0.00000000  0.70766200  0.41507800  1
  O  O54  1  0.00000000  0.79233800  0.91507800  1
  O  O55  1  0.00000000  0.81977600  0.14127800  1
  O  O56  1  0.50000000  0.85278000  0.70931400  1
  O  O57  1  0.50000000  0.85350700  0.50058300  1
  O  O58  1  0.00000000  0.90582800  0.23555500  1
  O  O59  1  0.50000000  0.88325900  0.33030900  1
  O  O60  1  0.50000000  0.94752100  0.84441400  1
  O  O61  1  0.50000000  0.94899000  0.05816700  1
