# generated using pymatgen
data_LiSnPO4
_symmetry_space_group_name_H-M   'P 1'
_cell_length_a   5.57367100
_cell_length_b   7.10741197
_cell_length_c   10.07074823
_cell_angle_alpha   73.40678646
_cell_angle_beta   79.44420479
_cell_angle_gamma   77.97741764
_symmetry_Int_Tables_number   1
_chemical_formula_structural   LiSnPO4
_chemical_formula_sum   'Li4 Sn4 P4 O16'
_cell_volume   370.67550651
_cell_formula_units_Z   4
loop_
 _symmetry_equiv_pos_site_id
 _symmetry_equiv_pos_as_xyz
  1  'x, y, z'
loop_
 _atom_site_type_symbol
 _atom_site_label
 _atom_site_symmetry_multiplicity
 _atom_site_fract_x
 _atom_site_fract_y
 _atom_site_fract_z
 _atom_site_occupancy
  Li  Li0  1  0.68235000  0.31662900  0.89612200  1
  Li  Li1  1  0.11661400  0.50473600  0.74411300  1
  Li  Li2  1  0.88338600  0.49526400  0.25588700  1
  Li  Li3  1  0.31765000  0.68337100  0.10387800  1
  Sn  Sn4  1  0.30237000  0.93783800  0.78635300  1
  Sn  Sn5  1  0.74466300  0.20943000  0.58781800  1
  Sn  Sn6  1  0.25533700  0.79057000  0.41218200  1
  Sn  Sn7  1  0.69763000  0.06216200  0.21364700  1
  P  P8  1  0.79638400  0.80487800  0.94903100  1
  P  P9  1  0.71219200  0.64403900  0.58034600  1
  P  P10  1  0.28780800  0.35596100  0.41965400  1
  P  P11  1  0.20361600  0.19512200  0.05096900  1
  O  O12  1  0.57373500  0.72661400  0.91364600  1
  O  O13  1  0.04444800  0.72390300  0.86161700  1
  O  O14  1  0.18698100  0.27765900  0.89472100  1
  O  O15  1  0.76048600  0.03508500  0.90173000  1
  O  O16  1  0.90238800  0.78495900  0.55922400  1
  O  O17  1  0.44403900  0.75472300  0.61682800  1
  O  O18  1  0.77340600  0.45456600  0.70161700  1
  O  O19  1  0.28347300  0.42684700  0.55252500  1
  O  O20  1  0.71652700  0.57315300  0.44747500  1
  O  O21  1  0.22659400  0.54543400  0.29838300  1
  O  O22  1  0.55596100  0.24527700  0.38317200  1
  O  O23  1  0.09761200  0.21504100  0.44077600  1
  O  O24  1  0.23951400  0.96491500  0.09827000  1
  O  O25  1  0.81301900  0.72234100  0.10527900  1
  O  O26  1  0.95555200  0.27609700  0.13838300  1
  O  O27  1  0.42626500  0.27338600  0.08635400  1
