# generated using pymatgen
data_LiCoPO4
_symmetry_space_group_name_H-M   'P 1'
_cell_length_a   5.45344238
_cell_length_b   10.62695735
_cell_length_c   6.15318403
_cell_angle_alpha   89.98778717
_cell_angle_beta   89.92500932
_cell_angle_gamma   75.90322514
_symmetry_Int_Tables_number   1
_chemical_formula_structural   LiCoPO4
_chemical_formula_sum   'Li4 Co4 P4 O16'
_cell_volume   345.85954369
_cell_formula_units_Z   4
loop_
 _symmetry_equiv_pos_site_id
 _symmetry_equiv_pos_as_xyz
  1  'x, y, z'
loop_
 _atom_site_type_symbol
 _atom_site_label
 _atom_site_symmetry_multiplicity
 _atom_site_fract_x
 _atom_site_fract_y
 _atom_site_fract_z
 _atom_site_occupancy
  Li  Li0  1  0.26958800  0.29790100  0.53265300  1
  Li  Li1  1  0.22879100  0.20065600  0.03188300  1
  Li  Li2  1  0.77099600  0.79930700  0.96823100  1
  Li  Li3  1  0.73001400  0.70181000  0.46768400  1
  Co  Co4  1  0.36476600  0.59862300  0.16792600  1
  Co  Co5  1  0.63496800  0.40143100  0.83177200  1
  Co  Co6  1  0.13582100  0.90154900  0.66796700  1
  Co  Co7  1  0.86315100  0.09857400  0.33211000  1
  P  P8  1  0.23504800  0.64001000  0.65709900  1
  P  P9  1  0.26555600  0.86034900  0.15733100  1
  P  P10  1  0.73482900  0.13972500  0.84277900  1
  P  P11  1  0.76486100  0.35997900  0.34286900  1
  O  O12  1  0.97155700  0.73937400  0.68979300  1
  O  O13  1  0.47101500  0.23882400  0.81107800  1
  O  O14  1  0.52924800  0.76109700  0.18905500  1
  O  O15  1  0.02848500  0.26081000  0.30953200  1
  O  O16  1  0.07311400  0.77482400  0.14454300  1
  O  O17  1  0.57275400  0.27411100  0.35664800  1
  O  O18  1  0.42748200  0.72566300  0.64395500  1
  O  O19  1  0.92701100  0.22540600  0.85490800  1
  O  O20  1  0.22792100  0.55665900  0.45287100  1
  O  O21  1  0.27225200  0.94366100  0.95285300  1
  O  O22  1  0.72907100  0.05630800  0.04729200  1
  O  O23  1  0.77175500  0.44356600  0.54682300  1
  O  O24  1  0.30261800  0.54529100  0.85659500  1
  O  O25  1  0.19773500  0.95517300  0.35675400  1
  O  O26  1  0.80283900  0.04473100  0.64366800  1
  O  O27  1  0.69675300  0.45459000  0.14332800  1
