# generated using pymatgen
data_Li3V6O16
_symmetry_space_group_name_H-M   'P 1'
_cell_length_a   3.65756300
_cell_length_b   6.78231000
_cell_length_c   12.03240402
_cell_angle_alpha   74.99476117
_cell_angle_beta   90.00000000
_cell_angle_gamma   90.00000000
_symmetry_Int_Tables_number   1
_chemical_formula_structural   Li3V6O16
_chemical_formula_sum   'Li3 V6 O16'
_cell_volume   288.30687170
_cell_formula_units_Z   1
loop_
 _symmetry_equiv_pos_site_id
 _symmetry_equiv_pos_as_xyz
  1  'x, y, z'
loop_
 _atom_site_type_symbol
 _atom_site_label
 _atom_site_symmetry_multiplicity
 _atom_site_fract_x
 _atom_site_fract_y
 _atom_site_fract_z
 _atom_site_occupancy
  Li  Li0  1  0.50000000  0.81636700  0.68209000  1
  Li  Li1  1  0.00000000  0.18454700  0.31839700  1
  Li  Li2  1  0.50000000  0.52659300  0.05225800  1
  V  V3  1  0.50000000  0.26679100  0.80261700  1
  V  V4  1  0.00000000  0.69317200  0.46419000  1
  V  V5  1  0.50000000  0.11771300  0.07976000  1
  V  V6  1  0.00000000  0.87971900  0.91737500  1
  V  V7  1  0.50000000  0.30661600  0.53637300  1
  V  V8  1  0.00000000  0.73726700  0.19915700  1
  O  O9  1  0.00000000  0.18284800  0.82762700  1
  O  O10  1  0.50000000  0.32592400  0.95648800  1
  O  O11  1  0.50000000  0.60865700  0.46060200  1
  O  O12  1  0.50000000  0.50266800  0.72204600  1
  O  O13  1  0.00000000  0.87237800  0.32829700  1
  O  O14  1  0.00000000  0.82312100  0.56244200  1
  O  O15  1  0.00000000  0.04486700  0.07273800  1
  O  O16  1  0.00000000  0.77150300  0.81013800  1
  O  O17  1  0.50000000  0.24117200  0.18268600  1
  O  O18  1  0.50000000  0.94526900  0.93023600  1
  O  O19  1  0.50000000  0.17677100  0.43782600  1
  O  O20  1  0.50000000  0.12944000  0.67220100  1
  O  O21  1  0.00000000  0.49890600  0.27780900  1
  O  O22  1  0.00000000  0.39183100  0.53938400  1
  O  O23  1  0.00000000  0.66633400  0.04483300  1
  O  O24  1  0.50000000  0.81235500  0.17260000  1
