# generated using pymatgen
data_LiNiPO4
_symmetry_space_group_name_H-M   'P 1'
_cell_length_a   5.22103000
_cell_length_b   7.50877354
_cell_length_c   8.63898682
_cell_angle_alpha   79.48903053
_cell_angle_beta   92.41153144
_cell_angle_gamma   82.51851109
_symmetry_Int_Tables_number   1
_chemical_formula_structural   LiNiPO4
_chemical_formula_sum   'Li4 Ni4 P4 O16'
_cell_volume   329.40733955
_cell_formula_units_Z   4
loop_
 _symmetry_equiv_pos_site_id
 _symmetry_equiv_pos_as_xyz
  1  'x, y, z'
loop_
 _atom_site_type_symbol
 _atom_site_label
 _atom_site_symmetry_multiplicity
 _atom_site_fract_x
 _atom_site_fract_y
 _atom_site_fract_z
 _atom_site_occupancy
  Li  Li0  1  0.11974700  0.97308500  0.35990000  1
  Li  Li1  1  0.88029200  0.02660900  0.64014100  1
  Li  Li2  1  0.29067100  0.46561400  0.17092700  1
  Li  Li3  1  0.70949700  0.53426600  0.82911900  1
  Ni  Ni4  1  0.71169000  0.79887600  0.10671700  1
  Ni  Ni5  1  0.71824300  0.36918100  0.41509000  1
  Ni  Ni6  1  0.28862800  0.20098900  0.89330900  1
  Ni  Ni7  1  0.28158700  0.63045700  0.58491300  1
  P  P8  1  0.28099300  0.28352700  0.53252600  1
  P  P9  1  0.71891000  0.71626700  0.46755300  1
  P  P10  1  0.18954400  0.78145900  0.91144900  1
  P  P11  1  0.81058500  0.21880700  0.08849000  1
  O  O12  1  0.05882400  0.18861600  0.47450700  1
  O  O13  1  0.94110400  0.81119900  0.52553800  1
  O  O14  1  0.07787900  0.28985800  0.05845600  1
  O  O15  1  0.92177200  0.71120400  0.94115100  1
  O  O16  1  0.20675800  0.36152200  0.68346200  1
  O  O17  1  0.79321200  0.63841800  0.31655900  1
  O  O18  1  0.30647100  0.45856600  0.40559500  1
  O  O19  1  0.69338400  0.54119300  0.59447000  1
  O  O20  1  0.13504900  0.98911300  0.83637600  1
  O  O21  1  0.86524100  0.01124300  0.16369300  1
  O  O22  1  0.34330500  0.67411200  0.80139000  1
  O  O23  1  0.65662500  0.32592900  0.19859300  1
  O  O24  1  0.35364200  0.74301900  0.07219600  1
  O  O25  1  0.64635300  0.25699100  0.92780400  1
  O  O26  1  0.54634800  0.16427500  0.55742700  1
  O  O27  1  0.45364700  0.83560400  0.44264900  1
