# generated using pymatgen
data_Li3Fe2(PO4)3
_symmetry_space_group_name_H-M   'P 1'
_cell_length_a   8.60310041
_cell_length_b   8.60310041
_cell_length_c   8.54441972
_cell_angle_alpha   61.71496472
_cell_angle_beta   61.71496472
_cell_angle_gamma   61.72075628
_symmetry_Int_Tables_number   1
_chemical_formula_structural   Li3Fe2(PO4)3
_chemical_formula_sum   'Li6 Fe4 P6 O24'
_cell_volume   464.38275117
_cell_formula_units_Z   2
loop_
 _symmetry_equiv_pos_site_id
 _symmetry_equiv_pos_as_xyz
  1  'x, y, z'
loop_
 _atom_site_type_symbol
 _atom_site_label
 _atom_site_symmetry_multiplicity
 _atom_site_fract_x
 _atom_site_fract_y
 _atom_site_fract_z
 _atom_site_occupancy
  Li  Li0  1  0.49442800  0.00371900  0.22610000  1
  Li  Li1  1  0.35033600  0.64966400  0.50000000  1
  Li  Li2  1  0.99628100  0.50557200  0.77390000  1
  Li  Li3  1  0.65251000  0.34749000  0.00000000  1
  Li  Li4  1  0.24852600  0.15514100  0.59482100  1
  Li  Li5  1  0.84485900  0.75147400  0.40517900  1
  Fe  Fe6  1  0.35380200  0.86326900  0.10247200  1
  Fe  Fe7  1  0.13673100  0.64619800  0.89752800  1
  Fe  Fe8  1  0.85220000  0.35119800  0.60234500  1
  Fe  Fe9  1  0.64880200  0.14780000  0.39765500  1
  P  P10  1  0.74835200  0.55127500  0.19971300  1
  P  P11  1  0.44872500  0.25164800  0.80028700  1
  P  P12  1  0.04869900  0.95130100  0.50000000  1
  P  P13  1  0.95546000  0.04454000  0.00000000  1
  P  P14  1  0.53937600  0.74894800  0.70314400  1
  P  P15  1  0.25105200  0.46062400  0.29685600  1
  O  O16  1  0.20499300  0.50683200  0.12393900  1
  O  O17  1  0.99169900  0.88289600  0.94407100  1
  O  O18  1  0.57888100  0.73235300  0.20375100  1
  O  O19  1  0.38144800  0.69914000  0.71891700  1
  O  O20  1  0.90531200  0.57089700  0.00955600  1
  O  O21  1  0.69148400  0.38793000  0.23468200  1
  O  O22  1  0.42910300  0.09468800  0.99044400  1
  O  O23  1  0.26764700  0.42111900  0.79624900  1
  O  O24  1  0.06869200  0.75865300  0.65595600  1
  O  O25  1  0.11710400  0.00830100  0.05592900  1
  O  O26  1  0.76272700  0.06593300  0.16005100  1
  O  O27  1  0.49316800  0.79500700  0.87606100  1
  O  O28  1  0.48831700  0.18776200  0.63884200  1
  O  O29  1  0.24134700  0.93130800  0.34404400  1
  O  O30  1  0.88866000  0.98712600  0.43894700  1
  O  O31  1  0.93406700  0.23727300  0.83994900  1
  O  O32  1  0.73199600  0.58936100  0.68557300  1
  O  O33  1  0.56759900  0.91206500  0.51393700  1
  O  O34  1  0.30086000  0.61855200  0.28108300  1
  O  O35  1  0.08793500  0.43240100  0.48606300  1
  O  O36  1  0.61207000  0.30851600  0.76531800  1
  O  O37  1  0.41063900  0.26800400  0.31442700  1
  O  O38  1  0.01287400  0.11134000  0.56105300  1
  O  O39  1  0.81223800  0.51168300  0.36115800  1
