# generated using pymatgen
data_Li2MnPO4F
_symmetry_space_group_name_H-M   'P 1'
_cell_length_a   5.13672100
_cell_length_b   11.53000200
_cell_length_c   13.24081300
_cell_angle_alpha   90.00000000
_cell_angle_beta   90.00000000
_cell_angle_gamma   90.00000000
_symmetry_Int_Tables_number   1
_chemical_formula_structural   Li2MnPO4F
_chemical_formula_sum   'Li16 Mn8 P8 O32 F8'
_cell_volume   784.20573213
_cell_formula_units_Z   8
loop_
 _symmetry_equiv_pos_site_id
 _symmetry_equiv_pos_as_xyz
  1  'x, y, z'
loop_
 _atom_site_type_symbol
 _atom_site_label
 _atom_site_symmetry_multiplicity
 _atom_site_fract_x
 _atom_site_fract_y
 _atom_site_fract_z
 _atom_site_occupancy
  Li  Li0  1  0.21751300  0.17827300  0.23746600  1
  Li  Li1  1  0.21751300  0.67827300  0.76253400  1
  Li  Li2  1  0.21972400  0.39683400  0.63612900  1
  Li  Li3  1  0.21972400  0.89683400  0.36387100  1
  Li  Li4  1  0.28027600  0.39683400  0.13612900  1
  Li  Li5  1  0.28027600  0.89683400  0.86387100  1
  Li  Li6  1  0.28248700  0.67827300  0.26253400  1
  Li  Li7  1  0.28248700  0.17827300  0.73746600  1
  Li  Li8  1  0.71751300  0.82172700  0.26253400  1
  Li  Li9  1  0.71751300  0.32172700  0.73746600  1
  Li  Li10  1  0.71972400  0.10316600  0.13612900  1
  Li  Li11  1  0.71972400  0.60316600  0.86387100  1
  Li  Li12  1  0.78027600  0.60316600  0.36387100  1
  Li  Li13  1  0.78027600  0.10316600  0.63612900  1
  Li  Li14  1  0.78248700  0.82172700  0.76253400  1
  Li  Li15  1  0.78248700  0.32172700  0.23746600  1
  Mn  Mn16  1  0.22928200  0.16436100  0.50591800  1
  Mn  Mn17  1  0.22928200  0.66436100  0.49408200  1
  Mn  Mn18  1  0.27071800  0.66436100  0.99408200  1
  Mn  Mn19  1  0.27071800  0.16436100  0.00591800  1
  Mn  Mn20  1  0.72928200  0.33563900  0.00591800  1
  Mn  Mn21  1  0.72928200  0.83563900  0.99408200  1
  Mn  Mn22  1  0.77071800  0.33563900  0.50591800  1
  Mn  Mn23  1  0.77071800  0.83563900  0.49408200  1
  P  P24  1  0.20908600  0.91501800  0.12957800  1
  P  P25  1  0.20908600  0.41501800  0.87042200  1
  P  P26  1  0.29091400  0.41501800  0.37042200  1
  P  P27  1  0.29091400  0.91501800  0.62957800  1
  P  P28  1  0.70908600  0.08498200  0.37042200  1
  P  P29  1  0.70908600  0.58498200  0.62957800  1
  P  P30  1  0.79091400  0.58498200  0.12957800  1
  P  P31  1  0.79091400  0.08498200  0.87042200  1
  O  O32  1  0.09660700  0.59190400  0.12577200  1
  O  O33  1  0.09660700  0.09190400  0.87422800  1
  O  O34  1  0.18412800  0.35529400  0.46929200  1
  O  O35  1  0.18412800  0.85529400  0.53070800  1
  O  O36  1  0.18065500  0.35393200  0.27710500  1
  O  O37  1  0.18065500  0.85393200  0.72289500  1
  O  O38  1  0.20476400  0.04410700  0.62823600  1
  O  O39  1  0.20476400  0.54410700  0.37176400  1
  O  O40  1  0.29523600  0.04410700  0.12823600  1
  O  O41  1  0.29523600  0.54410700  0.87176400  1
  O  O42  1  0.31934500  0.85393200  0.22289500  1
  O  O43  1  0.31934500  0.35393200  0.77710500  1
  O  O44  1  0.31587200  0.85529400  0.03070800  1
  O  O45  1  0.31587200  0.35529400  0.96929200  1
  O  O46  1  0.40339300  0.09190400  0.37422800  1
  O  O47  1  0.40339300  0.59190400  0.62577200  1
  O  O48  1  0.59660700  0.90809600  0.62577200  1
  O  O49  1  0.59660700  0.40809600  0.37422800  1
  O  O50  1  0.68412800  0.64470600  0.03070800  1
  O  O51  1  0.68412800  0.14470600  0.96929200  1
  O  O52  1  0.68065500  0.64606800  0.22289500  1
  O  O53  1  0.68065500  0.14606800  0.77710500  1
  O  O54  1  0.70476400  0.45589300  0.12823600  1
  O  O55  1  0.70476400  0.95589300  0.87176400  1
  O  O56  1  0.79523600  0.95589300  0.37176400  1
  O  O57  1  0.79523600  0.45589300  0.62823600  1
  O  O58  1  0.81934500  0.14606800  0.27710500  1
  O  O59  1  0.81934500  0.64606800  0.72289500  1
  O  O60  1  0.81587200  0.14470600  0.46929200  1
  O  O61  1  0.81587200  0.64470600  0.53070800  1
  O  O62  1  0.90339300  0.90809600  0.12577200  1
  O  O63  1  0.90339300  0.40809600  0.87422800  1
  F  F64  1  0.00000000  0.25000000  0.10595900  1
  F  F65  1  0.00000000  0.25000000  0.63722400  1
  F  F66  1  0.00000000  0.75000000  0.36277600  1
  F  F67  1  0.00000000  0.75000000  0.89404100  1
  F  F68  1  0.50000000  0.25000000  0.60595900  1
  F  F69  1  0.50000000  0.25000000  0.13722400  1
  F  F70  1  0.50000000  0.75000000  0.39404100  1
  F  F71  1  0.50000000  0.75000000  0.86277600  1
