# generated using pymatgen
data_Li3NiAsCO7
_symmetry_space_group_name_H-M   'P 1'
_cell_length_a   5.07671061
_cell_length_b   10.74935052
_cell_length_c   10.74911771
_cell_angle_alpha   104.64400168
_cell_angle_beta   93.70528492
_cell_angle_gamma   86.30237866
_symmetry_Int_Tables_number   1
_chemical_formula_structural   Li3NiAsCO7
_chemical_formula_sum   'Li12 Ni4 As4 C4 O28'
_cell_volume   565.64729149
_cell_formula_units_Z   4
loop_
 _symmetry_equiv_pos_site_id
 _symmetry_equiv_pos_as_xyz
  1  'x, y, z'
loop_
 _atom_site_type_symbol
 _atom_site_label
 _atom_site_symmetry_multiplicity
 _atom_site_fract_x
 _atom_site_fract_y
 _atom_site_fract_z
 _atom_site_occupancy
  Li  Li0  1  0.77873000  0.17350800  0.07647200  1
  Li  Li1  1  0.77876700  0.67354000  0.57649600  1
  Li  Li2  1  0.22125100  0.82650100  0.92356900  1
  Li  Li3  1  0.22117900  0.32646300  0.42355100  1
  Li  Li4  1  0.24801500  0.14365900  0.87536900  1
  Li  Li5  1  0.24791100  0.64365800  0.37527800  1
  Li  Li6  1  0.24807000  0.37469800  0.10641800  1
  Li  Li7  1  0.24807800  0.87476000  0.60645700  1
  Li  Li8  1  0.75197500  0.62535100  0.89363300  1
  Li  Li9  1  0.75197200  0.12528000  0.39358500  1
  Li  Li10  1  0.75204300  0.85636000  0.12468600  1
  Li  Li11  1  0.75204400  0.35633700  0.62469100  1
  Ni  Ni12  1  0.79265200  0.03538900  0.71438300  1
  Ni  Ni13  1  0.20744200  0.96457000  0.28547100  1
  Ni  Ni14  1  0.79265000  0.53516700  0.21442400  1
  Ni  Ni15  1  0.20716400  0.46449200  0.78535800  1
  As  As16  1  0.72067000  0.33346000  0.91653600  1
  As  As17  1  0.72064400  0.83341300  0.41654700  1
  As  As18  1  0.27933900  0.66650400  0.08343000  1
  As  As19  1  0.27939000  0.16660500  0.58347700  1
  C  C20  1  0.68922100  0.39148300  0.35845000  1
  C  C21  1  0.68937500  0.89159900  0.85846800  1
  C  C22  1  0.31073700  0.60855200  0.64154700  1
  C  C23  1  0.31063100  0.10847200  0.14157200  1
  O  O24  1  0.37392600  0.18089200  0.06914800  1
  O  O25  1  0.37400100  0.68095900  0.56910000  1
  O  O26  1  0.62602400  0.81915900  0.93091500  1
  O  O27  1  0.62593800  0.31910800  0.43095600  1
  O  O28  1  0.93332400  0.40875100  0.34118000  1
  O  O29  1  0.93344000  0.90889000  0.84122200  1
  O  O30  1  0.06662300  0.59123600  0.65880200  1
  O  O31  1  0.06655800  0.09115600  0.15885100  1
  O  O32  1  0.50521200  0.44952200  0.30026400  1
  O  O33  1  0.50533700  0.94969700  0.80033500  1
  O  O34  1  0.49476600  0.55046200  0.69969600  1
  O  O35  1  0.49468700  0.05036200  0.19971900  1
  O  O36  1  0.37876100  0.34718300  0.90294200  1
  O  O37  1  0.37872400  0.84709500  0.40294100  1
  O  O38  1  0.62128100  0.65277000  0.09703300  1
  O  O39  1  0.62131200  0.15298700  0.59712300  1
  O  O40  1  0.16647800  0.57459000  0.17533900  1
  O  O41  1  0.16662400  0.07472500  0.67542200  1
  O  O42  1  0.83343300  0.42538300  0.82462400  1
  O  O43  1  0.83341500  0.92531900  0.32461200  1
  O  O44  1  0.83283700  0.17419800  0.87967400  1
  O  O45  1  0.83283000  0.67415600  0.37971100  1
  O  O46  1  0.83305400  0.37019200  0.07578500  1
  O  O47  1  0.83308100  0.87027600  0.57578700  1
  O  O48  1  0.16699400  0.62976800  0.92417900  1
  O  O49  1  0.16706700  0.12971900  0.42423400  1
  O  O50  1  0.16717600  0.82577800  0.12029800  1
  O  O51  1  0.16714800  0.32585000  0.62024000  1
