# generated using pymatgen
data_Li3SbO3
_symmetry_space_group_name_H-M   'P 1'
_cell_length_a   7.16338400
_cell_length_b   7.16338400
_cell_length_c   7.16338400
_cell_angle_alpha   90.00000000
_cell_angle_beta   90.00000000
_cell_angle_gamma   90.00000000
_symmetry_Int_Tables_number   1
_chemical_formula_structural   Li3SbO3
_chemical_formula_sum   'Li12 Sb4 O12'
_cell_volume   367.58239039
_cell_formula_units_Z   4
loop_
 _symmetry_equiv_pos_site_id
 _symmetry_equiv_pos_as_xyz
  1  'x, y, z'
loop_
 _atom_site_type_symbol
 _atom_site_label
 _atom_site_symmetry_multiplicity
 _atom_site_fract_x
 _atom_site_fract_y
 _atom_site_fract_z
 _atom_site_occupancy
  Li  Li0  1  0.96892200  0.96892200  0.96892200  1
  Li  Li1  1  0.26093100  0.23906900  0.76093100  1
  Li  Li2  1  0.24052100  0.74052100  0.75947900  1
  Li  Li3  1  0.25947900  0.25947900  0.25947900  1
  Li  Li4  1  0.23906900  0.76093100  0.26093100  1
  Li  Li5  1  0.53107800  0.03107800  0.46892200  1
  Li  Li6  1  0.46892200  0.53107800  0.03107800  1
  Li  Li7  1  0.76093100  0.26093100  0.23906900  1
  Li  Li8  1  0.74052100  0.75947900  0.24052100  1
  Li  Li9  1  0.75947900  0.24052100  0.74052100  1
  Li  Li10  1  0.73906900  0.73906900  0.73906900  1
  Li  Li11  1  0.03107800  0.46892200  0.53107800  1
  Sb  Sb12  1  0.02314700  0.97685300  0.47685300  1
  Sb  Sb13  1  0.47685300  0.02314700  0.97685300  1
  Sb  Sb14  1  0.52314700  0.52314700  0.52314700  1
  Sb  Sb15  1  0.97685300  0.47685300  0.02314700  1
  O  O16  1  0.99435700  0.24101100  0.40131100  1
  O  O17  1  0.09868900  0.00564300  0.74101100  1
  O  O18  1  0.24101100  0.40131100  0.99435700  1
  O  O19  1  0.25898900  0.59868900  0.49435700  1
  O  O20  1  0.40131100  0.99435700  0.24101100  1
  O  O21  1  0.50564300  0.75898900  0.90131100  1
  O  O22  1  0.49435700  0.25898900  0.59868900  1
  O  O23  1  0.59868900  0.49435700  0.25898900  1
  O  O24  1  0.74101100  0.09868900  0.00564300  1
  O  O25  1  0.75898900  0.90131100  0.50564300  1
  O  O26  1  0.90131100  0.50564300  0.75898900  1
  O  O27  1  0.00564300  0.74101100  0.09868900  1
