# generated using pymatgen
data_Li2VP4O13
_symmetry_space_group_name_H-M   'P 1'
_cell_length_a   5.08160600
_cell_length_b   7.94173404
_cell_length_c   13.74487600
_cell_angle_alpha   80.31637157
_cell_angle_beta   82.53432547
_cell_angle_gamma   81.24837568
_symmetry_Int_Tables_number   1
_chemical_formula_structural   Li2VP4O13
_chemical_formula_sum   'Li4 V2 P8 O26'
_cell_volume   537.32082404
_cell_formula_units_Z   2
loop_
 _symmetry_equiv_pos_site_id
 _symmetry_equiv_pos_as_xyz
  1  'x, y, z'
loop_
 _atom_site_type_symbol
 _atom_site_label
 _atom_site_symmetry_multiplicity
 _atom_site_fract_x
 _atom_site_fract_y
 _atom_site_fract_z
 _atom_site_occupancy
  Li  Li0  1  0.07925900  0.32151400  0.00453100  1
  Li  Li1  1  0.64495400  0.64805700  0.51545900  1
  Li  Li2  1  0.92074100  0.67848600  0.99546900  1
  Li  Li3  1  0.35504600  0.35194300  0.48454100  1
  V  V4  1  0.43831500  0.05423000  0.25838700  1
  V  V5  1  0.56168500  0.94577000  0.74161300  1
  P  P6  1  0.29682800  0.66737100  0.29912600  1
  P  P7  1  0.66001500  0.42254200  0.18166200  1
  P  P8  1  0.33998500  0.57745800  0.81833800  1
  P  P9  1  0.99265500  0.10052100  0.84950400  1
  P  P10  1  0.70317200  0.33262900  0.70087400  1
  P  P11  1  0.00734500  0.89947900  0.15049600  1
  P  P12  1  0.86389100  0.21113400  0.36215700  1
  P  P13  1  0.13610900  0.78886600  0.63784300  1
  O  O14  1  0.49929600  0.39865800  0.79140000  1
  O  O15  1  0.74260900  0.29014200  0.45161700  1
  O  O16  1  0.70510500  0.96981900  0.16255200  1
  O  O17  1  0.70910700  0.07001400  0.34105100  1
  O  O18  1  0.29089300  0.92998600  0.65894900  1
  O  O19  1  0.41929600  0.81593800  0.32604700  1
  O  O20  1  0.96602700  0.25588700  0.75362900  1
  O  O21  1  0.85946600  0.36160200  0.26454800  1
  O  O22  1  0.17071300  0.03787000  0.16993900  1
  O  O23  1  0.76103400  0.47397800  0.61949600  1
  O  O24  1  0.14053400  0.63839800  0.73545200  1
  O  O25  1  0.53703000  0.70743000  0.81025700  1
  O  O26  1  0.18430600  0.53391100  0.91683200  1
  O  O27  1  0.46297000  0.29257000  0.18974300  1
  O  O28  1  0.25739100  0.70985800  0.54838300  1
  O  O29  1  0.23896600  0.52602200  0.38050400  1
  O  O30  1  0.29489500  0.03018100  0.83744800  1
  O  O31  1  0.83400200  0.85910600  0.63962300  1
  O  O32  1  0.50070400  0.60134200  0.20860000  1
  O  O33  1  0.81569400  0.46608900  0.08316800  1
  O  O34  1  0.91059100  0.17575600  0.94240100  1
  O  O35  1  0.03397300  0.74411300  0.24637100  1
  O  O36  1  0.16599800  0.14089400  0.36037700  1
  O  O37  1  0.58070400  0.18406200  0.67395300  1
  O  O38  1  0.82928700  0.96213000  0.83006100  1
  O  O39  1  0.08940900  0.82424400  0.05759900  1
