# generated using pymatgen
data_Li6Mn3Sb3O16
_symmetry_space_group_name_H-M   'P 1'
_cell_length_a   6.08608924
_cell_length_b   6.08608924
_cell_length_c   10.03025962
_cell_angle_alpha   89.78383174
_cell_angle_beta   89.78383174
_cell_angle_gamma   59.40592476
_symmetry_Int_Tables_number   1
_chemical_formula_structural   Li6Mn3Sb3O16
_chemical_formula_sum   'Li6 Mn3 Sb3 O16'
_cell_volume   319.80428177
_cell_formula_units_Z   1
loop_
 _symmetry_equiv_pos_site_id
 _symmetry_equiv_pos_as_xyz
  1  'x, y, z'
loop_
 _atom_site_type_symbol
 _atom_site_label
 _atom_site_symmetry_multiplicity
 _atom_site_fract_x
 _atom_site_fract_y
 _atom_site_fract_z
 _atom_site_occupancy
  Li  Li0  1  0.66889300  0.66889300  0.50640100  1
  Li  Li1  1  0.66390800  0.66390800  0.87419900  1
  Li  Li2  1  0.98658000  0.98658000  0.99769900  1
  Li  Li3  1  0.99325600  0.99325600  0.50661100  1
  Li  Li4  1  0.34169900  0.34169900  0.99425500  1
  Li  Li5  1  0.33084200  0.33084200  0.38221500  1
  Mn  Mn6  1  0.83406200  0.83406200  0.21877200  1
  Mn  Mn7  1  0.66425400  0.16865700  0.71618400  1
  Mn  Mn8  1  0.16865700  0.66425400  0.71618400  1
  Sb  Sb9  1  0.83341100  0.33846400  0.21451700  1
  Sb  Sb10  1  0.33846400  0.83341100  0.21451700  1
  Sb  Sb11  1  0.16961800  0.16961800  0.71688000  1
  O  O12  1  0.84358800  0.30623600  0.61199000  1
  O  O13  1  0.51396000  0.51396000  0.32888600  1
  O  O14  1  0.65366700  0.65366700  0.09454000  1
  O  O15  1  0.01636500  0.01636500  0.32769500  1
  O  O16  1  0.99503200  0.99503200  0.81624400  1
  O  O17  1  0.30623600  0.84358800  0.61199000  1
  O  O18  1  0.96960300  0.51566700  0.32043300  1
  O  O19  1  0.51566700  0.96960300  0.32043300  1
  O  O20  1  0.15342500  0.15342500  0.09927500  1
  O  O21  1  0.84878600  0.84878600  0.61743600  1
  O  O22  1  0.49090000  0.03056100  0.82257500  1
  O  O23  1  0.03056100  0.49090000  0.82257500  1
  O  O24  1  0.33931900  0.33931900  0.60891800  1
  O  O25  1  0.69581200  0.15329700  0.11465300  1
  O  O26  1  0.48070200  0.48070200  0.81711100  1
  O  O27  1  0.15329700  0.69581200  0.11465300  1
