# generated using pymatgen
data_Li5FeS4
_symmetry_space_group_name_H-M   'P 1'
_cell_length_a   11.14985800
_cell_length_b   11.42616400
_cell_length_c   11.45711000
_cell_angle_alpha   90.00000000
_cell_angle_beta   90.00000000
_cell_angle_gamma   90.00000000
_symmetry_Int_Tables_number   1
_chemical_formula_structural   Li5FeS4
_chemical_formula_sum   'Li40 Fe8 S32'
_cell_volume   1459.63702942
_cell_formula_units_Z   8
loop_
 _symmetry_equiv_pos_site_id
 _symmetry_equiv_pos_as_xyz
  1  'x, y, z'
loop_
 _atom_site_type_symbol
 _atom_site_label
 _atom_site_symmetry_multiplicity
 _atom_site_fract_x
 _atom_site_fract_y
 _atom_site_fract_z
 _atom_site_occupancy
  Li  Li0  1  0.85717000  0.38316100  0.11380500  1
  Li  Li1  1  0.35717000  0.11683900  0.11380500  1
  Li  Li2  1  0.15111300  0.88467300  0.11598100  1
  Li  Li3  1  0.65111300  0.61532700  0.11598100  1
  Li  Li4  1  0.62777300  0.14614500  0.11839500  1
  Li  Li5  1  0.12777300  0.35385500  0.11839500  1
  Li  Li6  1  0.89579900  0.12130700  0.14149800  1
  Li  Li7  1  0.39579900  0.37869300  0.14149800  1
  Li  Li8  1  0.61081200  0.87646200  0.15003500  1
  Li  Li9  1  0.11081200  0.62353800  0.15003500  1
  Li  Li10  1  0.11081200  0.12353800  0.34996500  1
  Li  Li11  1  0.61081200  0.37646200  0.34996500  1
  Li  Li12  1  0.39579900  0.87869300  0.35850200  1
  Li  Li13  1  0.89579900  0.62130700  0.35850200  1
  Li  Li14  1  0.62777300  0.64614500  0.38160500  1
  Li  Li15  1  0.12777300  0.85385500  0.38160500  1
  Li  Li16  1  0.15111300  0.38467300  0.38401900  1
  Li  Li17  1  0.65111300  0.11532700  0.38401900  1
  Li  Li18  1  0.35717000  0.61683900  0.38619500  1
  Li  Li19  1  0.85717000  0.88316100  0.38619500  1
  Li  Li20  1  0.64283000  0.38316100  0.61380500  1
  Li  Li21  1  0.14283000  0.11683900  0.61380500  1
  Li  Li22  1  0.34888700  0.88467300  0.61598100  1
  Li  Li23  1  0.84888700  0.61532700  0.61598100  1
  Li  Li24  1  0.37222700  0.35385500  0.61839500  1
  Li  Li25  1  0.87222700  0.14614500  0.61839500  1
  Li  Li26  1  0.10420100  0.37869300  0.64149800  1
  Li  Li27  1  0.60420100  0.12130700  0.64149800  1
  Li  Li28  1  0.88918800  0.87646200  0.65003500  1
  Li  Li29  1  0.38918800  0.62353800  0.65003500  1
  Li  Li30  1  0.88918800  0.37646200  0.84996500  1
  Li  Li31  1  0.38918800  0.12353800  0.84996500  1
  Li  Li32  1  0.60420100  0.62130700  0.85850200  1
  Li  Li33  1  0.10420100  0.87869300  0.85850200  1
  Li  Li34  1  0.37222700  0.85385500  0.88160500  1
  Li  Li35  1  0.87222700  0.64614500  0.88160500  1
  Li  Li36  1  0.34888700  0.38467300  0.88401900  1
  Li  Li37  1  0.84888700  0.11532700  0.88401900  1
  Li  Li38  1  0.64283000  0.88316100  0.88619500  1
  Li  Li39  1  0.14283000  0.61683900  0.88619500  1
  Fe  Fe40  1  0.88202300  0.86064100  0.12521100  1
  Fe  Fe41  1  0.38202300  0.63935900  0.12521100  1
  Fe  Fe42  1  0.88202300  0.36064100  0.37478900  1
  Fe  Fe43  1  0.38202300  0.13935900  0.37478900  1
  Fe  Fe44  1  0.61797700  0.86064100  0.62521100  1
  Fe  Fe45  1  0.11797700  0.63935900  0.62521100  1
  Fe  Fe46  1  0.61797700  0.36064100  0.87478900  1
  Fe  Fe47  1  0.11797700  0.13935900  0.87478900  1
  S  S48  1  0.50775400  0.74577000  0.00857900  1
  S  S49  1  0.00775400  0.75423000  0.00857900  1
  S  S50  1  0.75713400  0.99013500  0.03092600  1
  S  S51  1  0.25713400  0.50986500  0.03092600  1
  S  S52  1  0.00036100  0.96990800  0.24749000  1
  S  S53  1  0.50036100  0.53009200  0.24749000  1
  S  S54  1  0.76256200  0.75043600  0.24435700  1
  S  S55  1  0.26256200  0.74956400  0.24435700  1
  S  S56  1  0.76256200  0.25043600  0.25564300  1
  S  S57  1  0.26256200  0.24956400  0.25564300  1
  S  S58  1  0.00036100  0.46990800  0.25251000  1
  S  S59  1  0.50036100  0.03009200  0.25251000  1
  S  S60  1  0.75713400  0.49013500  0.46907400  1
  S  S61  1  0.25713400  0.00986500  0.46907400  1
  S  S62  1  0.50775400  0.24577000  0.49142100  1
  S  S63  1  0.00775400  0.25423000  0.49142100  1
  S  S64  1  0.99224600  0.74577000  0.50857900  1
  S  S65  1  0.49224600  0.75423000  0.50857900  1
  S  S66  1  0.74286600  0.99013500  0.53092600  1
  S  S67  1  0.24286600  0.50986500  0.53092600  1
  S  S68  1  0.99963900  0.53009200  0.74749000  1
  S  S69  1  0.49963900  0.96990800  0.74749000  1
  S  S70  1  0.73743800  0.75043600  0.74435700  1
  S  S71  1  0.23743800  0.74956400  0.74435700  1
  S  S72  1  0.73743800  0.25043600  0.75564300  1
  S  S73  1  0.23743800  0.24956400  0.75564300  1
  S  S74  1  0.99963900  0.03009200  0.75251000  1
  S  S75  1  0.49963900  0.46990800  0.75251000  1
  S  S76  1  0.24286600  0.00986500  0.96907400  1
  S  S77  1  0.74286600  0.49013500  0.96907400  1
  S  S78  1  0.99224600  0.24577000  0.99142100  1
  S  S79  1  0.49224600  0.25423000  0.99142100  1
