# generated using pymatgen
data_Li11V6O5F19
_symmetry_space_group_name_H-M   'P 1'
_cell_length_a   5.19940200
_cell_length_b   5.47607413
_cell_length_c   16.16153317
_cell_angle_alpha   80.56686832
_cell_angle_beta   89.38010000
_cell_angle_gamma   89.32845286
_symmetry_Int_Tables_number   1
_chemical_formula_structural   Li11V6O5F19
_chemical_formula_sum   'Li11 V6 O5 F19'
_cell_volume   453.88410991
_cell_formula_units_Z   1
loop_
 _symmetry_equiv_pos_site_id
 _symmetry_equiv_pos_as_xyz
  1  'x, y, z'
loop_
 _atom_site_type_symbol
 _atom_site_label
 _atom_site_symmetry_multiplicity
 _atom_site_fract_x
 _atom_site_fract_y
 _atom_site_fract_z
 _atom_site_occupancy
  Li  Li0  1  0.54374000  0.51139700  0.21065800  1
  Li  Li1  1  0.01147600  0.18771200  0.76965600  1
  Li  Li2  1  0.49825800  0.35882600  0.43703900  1
  Li  Li3  1  0.02080500  0.48424300  0.09390500  1
  Li  Li4  1  0.51045000  0.98930500  0.88894300  1
  Li  Li5  1  0.52150300  0.87918200  0.53230600  1
  Li  Li6  1  0.96758600  0.01105000  0.21136800  1
  Li  Li7  1  0.99988500  0.84565500  0.43799700  1
  Li  Li8  1  0.48277700  0.65967100  0.76750000  1
  Li  Li9  1  0.49824400  0.03279800  0.10705200  1
  Li  Li10  1  0.99207100  0.53253300  0.90031500  1
  V  V11  1  0.97977500  0.33984800  0.33892100  1
  V  V12  1  0.51931900  0.18944400  0.66856600  1
  V  V13  1  0.00460700  0.00577200  0.99638100  1
  V  V14  1  0.50605400  0.50639000  0.99643600  1
  V  V15  1  0.52759600  0.84570200  0.33747500  1
  V  V16  1  0.98679000  0.65777000  0.66662800  1
  O  O17  1  0.80222200  0.61460800  0.36745700  1
  O  O18  1  0.81367200  0.29854600  0.02059200  1
  O  O19  1  0.69748100  0.11321200  0.37244400  1
  O  O20  1  0.19577800  0.71090600  0.97548900  1
  O  O21  1  0.69778800  0.45213800  0.70428200  1
  F  F22  1  0.68492100  0.79662800  0.03978400  1
  F  F23  1  0.31353600  0.55103200  0.29987800  1
  F  F24  1  0.87038500  0.08680500  0.88011700  1
  F  F25  1  0.59417100  0.21251300  0.55078300  1
  F  F26  1  0.88271700  0.37888200  0.20888200  1
  F  F27  1  0.38389400  0.38541500  0.11666300  1
  F  F28  1  0.36615500  0.05473800  0.78105200  1
  F  F29  1  0.15650400  0.21148500  0.44405200  1
  F  F30  1  0.82192400  0.95673200  0.70845100  1
  F  F31  1  0.32838600  0.85309100  0.64607400  1
  F  F32  1  0.19301200  0.04365400  0.29857400  1
  F  F33  1  0.63115800  0.63706400  0.87965200  1
  F  F34  1  0.13843500  0.93363200  0.11495400  1
  F  F35  1  0.86913200  0.76665100  0.55248700  1
  F  F36  1  0.63544100  0.88059000  0.21037200  1
  F  F37  1  0.13115200  0.54994400  0.78572700  1
  F  F38  1  0.36084900  0.72482900  0.45176500  1
  F  F39  1  0.32647100  0.21254600  0.95538900  1
  F  F40  1  0.18154300  0.36309700  0.64133700  1
