# generated using pymatgen
data_LiVF4
_symmetry_space_group_name_H-M   'P 1'
_cell_length_a   5.97193100
_cell_length_b   8.90017014
_cell_length_c   11.56419879
_cell_angle_alpha   90.38895736
_cell_angle_beta   90.90470972
_cell_angle_gamma   91.15430847
_symmetry_Int_Tables_number   1
_chemical_formula_structural   LiVF4
_chemical_formula_sum   'Li8 V8 F32'
_cell_volume   614.43419801
_cell_formula_units_Z   8
loop_
 _symmetry_equiv_pos_site_id
 _symmetry_equiv_pos_as_xyz
  1  'x, y, z'
loop_
 _atom_site_type_symbol
 _atom_site_label
 _atom_site_symmetry_multiplicity
 _atom_site_fract_x
 _atom_site_fract_y
 _atom_site_fract_z
 _atom_site_occupancy
  Li  Li0  1  0.66184600  0.71386100  0.79326000  1
  Li  Li1  1  0.73255100  0.98862500  0.63026000  1
  Li  Li2  1  0.24923400  0.43626000  0.63785100  1
  Li  Li3  1  0.75608000  0.93569300  0.37446600  1
  Li  Li4  1  0.25971200  0.48671200  0.38556000  1
  Li  Li5  1  0.78995700  0.95502800  0.11221800  1
  Li  Li6  1  0.25520000  0.43488000  0.12792500  1
  Li  Li7  1  0.61524900  0.24748900  0.05019400  1
  V  V8  1  0.21988900  0.10150800  0.93528400  1
  V  V9  1  0.70183600  0.31339300  0.80524500  1
  V  V10  1  0.19870400  0.81186400  0.68777700  1
  V  V11  1  0.73869500  0.60088500  0.55209300  1
  V  V12  1  0.27144300  0.09862000  0.44318100  1
  V  V13  1  0.80342200  0.30326200  0.30906000  1
  V  V14  1  0.30370800  0.81400000  0.18963900  1
  V  V15  1  0.76712300  0.60300300  0.06454200  1
  F  F16  1  0.04414000  0.51930700  0.03744100  1
  F  F17  1  0.65778700  0.42897800  0.95831600  1
  F  F18  1  0.73450800  0.74465300  0.94673400  1
  F  F19  1  0.55462300  0.15051500  0.90337300  1
  F  F20  1  0.01268500  0.25980000  0.85420400  1
  F  F21  1  0.27521000  0.67775100  0.80411000  1
  F  F22  1  0.27429600  0.98919600  0.78872700  1
  F  F23  1  0.89151600  0.85257600  0.73061400  1
  F  F24  1  0.40821500  0.36762700  0.76275000  1
  F  F25  1  0.77434800  0.51343400  0.71216200  1
  F  F26  1  0.73582700  0.18922900  0.67388800  1
  F  F27  1  0.52959000  0.76653800  0.63809300  1
  F  F28  1  0.07401800  0.63613100  0.59171600  1
  F  F29  1  0.22427400  0.25935000  0.54469900  1
  F  F30  1  0.12905400  0.94585300  0.55074400  1
  F  F31  1  0.55098100  0.01214500  0.48750800  1
  F  F32  1  0.45307200  0.51334200  0.51725900  1
  F  F33  1  0.86315000  0.44011000  0.44542700  1
  F  F34  1  0.77863200  0.74584200  0.43781200  1
  F  F35  1  0.93496000  0.13219500  0.39756200  1
  F  F36  1  0.49029000  0.25425300  0.35566600  1
  F  F37  1  0.26921300  0.67089700  0.30991800  1
  F  F38  1  0.21633600  0.97951600  0.29900800  1
  F  F39  1  0.60593200  0.87977400  0.23426600  1
  F  F40  1  0.10554000  0.36950400  0.26741400  1
  F  F41  1  0.69166900  0.45881800  0.19687700  1
  F  F42  1  0.76716900  0.16646200  0.17783200  1
  F  F43  1  0.97232500  0.77453100  0.14670500  1
  F  F44  1  0.44117000  0.64319100  0.10126300  1
  F  F45  1  0.29401500  0.24461600  0.05849200  1
  F  F46  1  0.34996400  0.94202300  0.04938700  1
  F  F47  1  0.94302000  0.02920200  0.98619800  1
