# generated using pymatgen
data_LiCoSiO4
_symmetry_space_group_name_H-M   'P 1'
_cell_length_a   10.67555043
_cell_length_b   10.67555043
_cell_length_c   12.00870600
_cell_angle_alpha   90.00000000
_cell_angle_beta   90.00000000
_cell_angle_gamma   120.00000269
_symmetry_Int_Tables_number   1
_chemical_formula_structural   LiCoSiO4
_chemical_formula_sum   'Li12 Co12 Si12 O48'
_cell_volume   1185.24296314
_cell_formula_units_Z   12
loop_
 _symmetry_equiv_pos_site_id
 _symmetry_equiv_pos_as_xyz
  1  'x, y, z'
loop_
 _atom_site_type_symbol
 _atom_site_label
 _atom_site_symmetry_multiplicity
 _atom_site_fract_x
 _atom_site_fract_y
 _atom_site_fract_z
 _atom_site_occupancy
  Li  Li0  1  0.00000000  0.50000000  0.00894500  1
  Li  Li1  1  0.00000000  0.50000000  0.65772200  1
  Li  Li2  1  0.00000000  0.50000000  0.33333300  1
  Li  Li3  1  0.00000000  0.00000000  0.16666700  1
  Li  Li4  1  0.00000000  0.00000000  0.50000000  1
  Li  Li5  1  0.00000000  0.00000000  0.83333300  1
  Li  Li6  1  0.50000000  0.50000000  0.34227800  1
  Li  Li7  1  0.50000000  0.50000000  0.66666700  1
  Li  Li8  1  0.50000000  0.50000000  0.99105500  1
  Li  Li9  1  0.50000000  0.00000000  0.32438800  1
  Li  Li10  1  0.50000000  0.00000000  0.00000000  1
  Li  Li11  1  0.50000000  0.00000000  0.67561200  1
  Co  Co12  1  0.00000000  0.74741900  0.83333300  1
  Co  Co13  1  0.00000000  0.25258100  0.83333300  1
  Co  Co14  1  0.25032300  0.74967700  0.16666700  1
  Co  Co15  1  0.25032300  0.50064700  0.50000000  1
  Co  Co16  1  0.49935300  0.74967700  0.83333300  1
  Co  Co17  1  0.25258100  0.25258100  0.16666700  1
  Co  Co18  1  0.25258100  0.00000000  0.50000000  1
  Co  Co19  1  0.74741900  0.74741900  0.16666700  1
  Co  Co20  1  0.50064700  0.25032300  0.83333300  1
  Co  Co21  1  0.74967700  0.49935300  0.50000000  1
  Co  Co22  1  0.74967700  0.25032300  0.16666700  1
  Co  Co23  1  0.74741900  0.00000000  0.50000000  1
  Si  Si24  1  0.00000000  0.75431900  0.33333300  1
  Si  Si25  1  0.24798500  0.75201500  0.66666700  1
  Si  Si26  1  0.00000000  0.24568100  0.33333300  1
  Si  Si27  1  0.24798500  0.49597100  0.00000000  1
  Si  Si28  1  0.24568100  0.24568100  0.66666700  1
  Si  Si29  1  0.50402900  0.75201500  0.33333300  1
  Si  Si30  1  0.24568100  0.00000000  0.00000000  1
  Si  Si31  1  0.49597100  0.24798500  0.33333300  1
  Si  Si32  1  0.75431900  0.75431900  0.66666700  1
  Si  Si33  1  0.75201500  0.50402900  0.00000000  1
  Si  Si34  1  0.75201500  0.24798500  0.66666700  1
  Si  Si35  1  0.75431900  0.00000000  0.00000000  1
  O  O36  1  0.07915400  0.88723700  0.42300400  1
  O  O37  1  0.11276300  0.92084600  0.91032900  1
  O  O38  1  0.09513000  0.69430800  0.73458000  1
  O  O39  1  0.10551400  0.70534700  0.26894000  1
  O  O40  1  0.29465300  0.89448600  0.06439300  1
  O  O41  1  0.30569200  0.90487000  0.59875400  1
  O  O42  1  0.19715400  0.61040300  0.58641900  1
  O  O43  1  0.09513000  0.40082200  0.93208700  1
  O  O44  1  0.19715400  0.58675100  0.08024800  1
  O  O45  1  0.10551400  0.40016700  0.39772700  1
  O  O46  1  0.07915400  0.19191800  0.24366300  1
  O  O47  1  0.38959700  0.80284600  0.74691500  1
  O  O48  1  0.41324900  0.80284600  0.25308500  1
  O  O49  1  0.11276300  0.19191800  0.75633700  1
  O  O50  1  0.29465300  0.40016700  0.60227300  1
  O  O51  1  0.38959700  0.58675100  0.91975200  1
  O  O52  1  0.30569200  0.40082200  0.06791300  1
  O  O53  1  0.41324900  0.61040300  0.41358100  1
  O  O54  1  0.19191800  0.11276300  0.57699600  1
  O  O55  1  0.19191800  0.07915400  0.08967100  1
  O  O56  1  0.59917800  0.90487000  0.40124600  1
  O  O57  1  0.59983300  0.89448600  0.93560700  1
  O  O58  1  0.59983300  0.70534700  0.73106000  1
  O  O59  1  0.40082200  0.30569200  0.26542000  1
  O  O60  1  0.59917800  0.69430800  0.26542000  1
  O  O61  1  0.40016700  0.29465300  0.73106000  1
  O  O62  1  0.40016700  0.10551400  0.93560700  1
  O  O63  1  0.40082200  0.09513000  0.40124600  1
  O  O64  1  0.80808200  0.92084600  0.08967100  1
  O  O65  1  0.80808200  0.88723700  0.57699600  1
  O  O66  1  0.58675100  0.38959700  0.41358100  1
  O  O67  1  0.69430800  0.59917800  0.06791300  1
  O  O68  1  0.61040300  0.41324900  0.91975200  1
  O  O69  1  0.70534700  0.59983300  0.60227300  1
  O  O70  1  0.88723700  0.80808200  0.75633700  1
  O  O71  1  0.58675100  0.19715400  0.25308500  1
  O  O72  1  0.61040300  0.19715400  0.74691500  1
  O  O73  1  0.92084600  0.80808200  0.24366300  1
  O  O74  1  0.89448600  0.59983300  0.39772700  1
  O  O75  1  0.80284600  0.41324900  0.08024800  1
  O  O76  1  0.90487000  0.59917800  0.93208700  1
  O  O77  1  0.80284600  0.38959700  0.58641900  1
  O  O78  1  0.69430800  0.09513000  0.59875400  1
  O  O79  1  0.70534700  0.10551400  0.06439300  1
  O  O80  1  0.89448600  0.29465300  0.26894000  1
  O  O81  1  0.90487000  0.30569200  0.73458000  1
  O  O82  1  0.88723700  0.07915400  0.91032900  1
  O  O83  1  0.92084600  0.11276300  0.42300400  1
