# generated using pymatgen
data_Li2Mn3(BO3)3
_symmetry_space_group_name_H-M   'P 1'
_cell_length_a   5.22519100
_cell_length_b   6.14248277
_cell_length_c   11.95671633
_cell_angle_alpha   83.70524560
_cell_angle_beta   78.72784999
_cell_angle_gamma   87.20831975
_symmetry_Int_Tables_number   1
_chemical_formula_structural   Li2Mn3(BO3)3
_chemical_formula_sum   'Li4 Mn6 B6 O18'
_cell_volume   373.94025798
_cell_formula_units_Z   2
loop_
 _symmetry_equiv_pos_site_id
 _symmetry_equiv_pos_as_xyz
  1  'x, y, z'
loop_
 _atom_site_type_symbol
 _atom_site_label
 _atom_site_symmetry_multiplicity
 _atom_site_fract_x
 _atom_site_fract_y
 _atom_site_fract_z
 _atom_site_occupancy
  Li  Li0  1  0.13777100  0.73918000  0.07371300  1
  Li  Li1  1  0.86222900  0.26082000  0.92628700  1
  Li  Li2  1  0.45944400  0.08494200  0.39924200  1
  Li  Li3  1  0.54055600  0.91505800  0.60075800  1
  Mn  Mn4  1  0.44168800  0.07587800  0.82747400  1
  Mn  Mn5  1  0.76315000  0.41805300  0.17081300  1
  Mn  Mn6  1  0.09881200  0.74131600  0.49420500  1
  Mn  Mn7  1  0.55831200  0.92412200  0.17252600  1
  Mn  Mn8  1  0.90118800  0.25868400  0.50579500  1
  Mn  Mn9  1  0.23685000  0.58194700  0.82918700  1
  B  B10  1  0.68177600  0.69977300  0.94737100  1
  B  B11  1  0.31822400  0.30022700  0.05262900  1
  B  B12  1  0.65414100  0.66190200  0.38880100  1
  B  B13  1  0.01149800  0.02243800  0.27813500  1
  B  B14  1  0.34585900  0.33809800  0.61119900  1
  B  B15  1  0.98850200  0.97756200  0.72186500  1
  O  O16  1  0.43111200  0.78412600  0.92941500  1
  O  O17  1  0.83086300  0.57460700  0.87222800  1
  O  O18  1  0.24478800  0.26890400  0.94895900  1
  O  O19  1  0.75521200  0.73109600  0.05104100  1
  O  O20  1  0.16913700  0.42539300  0.12777200  1
  O  O21  1  0.56888800  0.21587400  0.07058500  1
  O  O22  1  0.88228300  0.56017900  0.40972000  1
  O  O23  1  0.59099300  0.65208500  0.28066700  1
  O  O24  1  0.50000500  0.77790900  0.46975300  1
  O  O25  1  0.16604900  0.92999900  0.18916700  1
  O  O26  1  0.09252600  0.04439000  0.38053400  1
  O  O27  1  0.75549500  0.09665300  0.26891300  1
  O  O28  1  0.11771700  0.43982100  0.59028000  1
  O  O29  1  0.49999500  0.22209100  0.53024700  1
  O  O30  1  0.90747400  0.95561000  0.61946600  1
  O  O31  1  0.40900700  0.34791500  0.71933300  1
  O  O32  1  0.83395100  0.07000100  0.81083300  1
  O  O33  1  0.24450500  0.90334700  0.73108700  1
