# generated using pymatgen
data_Li3MnFeCo(PO4)3
_symmetry_space_group_name_H-M   'P 1'
_cell_length_a   10.43142385
_cell_length_b   6.08901000
_cell_length_c   14.29127252
_cell_angle_alpha   90.00000000
_cell_angle_beta   89.93187075
_cell_angle_gamma   90.00000000
_symmetry_Int_Tables_number   1
_chemical_formula_structural   Li3MnFeCo(PO4)3
_chemical_formula_sum   'Li12 Mn4 Fe4 Co4 P12 O48'
_cell_volume   907.73874551
_cell_formula_units_Z   4
loop_
 _symmetry_equiv_pos_site_id
 _symmetry_equiv_pos_as_xyz
  1  'x, y, z'
loop_
 _atom_site_type_symbol
 _atom_site_label
 _atom_site_symmetry_multiplicity
 _atom_site_fract_x
 _atom_site_fract_y
 _atom_site_fract_z
 _atom_site_occupancy
  Li  Li0  1  0.99750600  0.49795700  0.66699800  1
  Li  Li1  1  0.99955100  0.00167800  0.99855400  1
  Li  Li2  1  0.99955100  0.49832200  0.99855400  1
  Li  Li3  1  0.99727700  0.00036100  0.33377800  1
  Li  Li4  1  0.99727700  0.49963900  0.33377800  1
  Li  Li5  1  0.99750600  0.00204300  0.66699800  1
  Li  Li6  1  0.50263300  0.00048800  0.50084900  1
  Li  Li7  1  0.50263300  0.49951200  0.50084900  1
  Li  Li8  1  0.50207200  0.00031200  0.16677900  1
  Li  Li9  1  0.50207200  0.49968800  0.16677900  1
  Li  Li10  1  0.50132000  0.00052800  0.83296000  1
  Li  Li11  1  0.50132000  0.49947200  0.83296000  1
  Mn  Mn12  1  0.21855900  0.75000000  0.15939600  1
  Mn  Mn13  1  0.21830300  0.75000000  0.49377800  1
  Mn  Mn14  1  0.28091100  0.25000000  0.32648500  1
  Mn  Mn15  1  0.71911200  0.75000000  0.00637100  1
  Fe  Fe16  1  0.21844800  0.75000000  0.82392400  1
  Fe  Fe17  1  0.28137200  0.25000000  0.65981300  1
  Fe  Fe18  1  0.28016800  0.25000000  0.99093600  1
  Fe  Fe19  1  0.72010000  0.75000000  0.34153200  1
  Co  Co20  1  0.72321700  0.75000000  0.67100500  1
  Co  Co21  1  0.77876700  0.25000000  0.83870400  1
  Co  Co22  1  0.77960000  0.25000000  0.50609100  1
  Co  Co23  1  0.78082900  0.25000000  0.17217200  1
  P  P24  1  0.09461200  0.25000000  0.80603400  1
  P  P25  1  0.09166100  0.25000000  0.13755600  1
  P  P26  1  0.09078700  0.25000000  0.47325700  1
  P  P27  1  0.40948400  0.75000000  0.30571200  1
  P  P28  1  0.40687500  0.75000000  0.64151200  1
  P  P29  1  0.40430900  0.75000000  0.97179000  1
  P  P30  1  0.59726900  0.25000000  0.36070500  1
  P  P31  1  0.59445300  0.25000000  0.02820400  1
  P  P32  1  0.59684800  0.25000000  0.69444800  1
  P  P33  1  0.90732200  0.75000000  0.85859900  1
  P  P34  1  0.90388900  0.75000000  0.19492700  1
  P  P35  1  0.90234400  0.75000000  0.52830800  1
  O  O36  1  0.04110700  0.75000000  0.23785200  1
  O  O37  1  0.03996300  0.75000000  0.56993500  1
  O  O38  1  0.04643300  0.75000000  0.89852100  1
  O  O39  1  0.09679700  0.25000000  0.58076800  1
  O  O40  1  0.09769900  0.25000000  0.91350900  1
  O  O41  1  0.09589100  0.25000000  0.24527400  1
  O  O42  1  0.16205100  0.04786700  0.09264700  1
  O  O43  1  0.16205100  0.45213300  0.09264700  1
  O  O44  1  0.16029700  0.04765200  0.42764200  1
  O  O45  1  0.16029700  0.45234800  0.42764200  1
  O  O46  1  0.16581900  0.04702900  0.76135100  1
  O  O47  1  0.16581900  0.45297100  0.76135100  1
  O  O48  1  0.33683700  0.54699300  0.59647700  1
  O  O49  1  0.33683700  0.95300700  0.59647700  1
  O  O50  1  0.33927000  0.54749200  0.26107500  1
  O  O51  1  0.33927000  0.95250800  0.26107500  1
  O  O52  1  0.33257800  0.54735100  0.92822100  1
  O  O53  1  0.33257800  0.95264900  0.92822100  1
  O  O54  1  0.40543300  0.75000000  0.41353000  1
  O  O55  1  0.40423900  0.75000000  0.07946400  1
  O  O56  1  0.39989900  0.75000000  0.74909900  1
  O  O57  1  0.45994500  0.25000000  0.40332000  1
  O  O58  1  0.45554500  0.25000000  0.06768200  1
  O  O59  1  0.45791700  0.25000000  0.73457900  1
  O  O60  1  0.54760200  0.75000000  0.26476800  1
  O  O61  1  0.54185400  0.75000000  0.92930000  1
  O  O62  1  0.54608600  0.75000000  0.60109800  1
  O  O63  1  0.59948500  0.25000000  0.25314400  1
  O  O64  1  0.60031400  0.25000000  0.92029100  1
  O  O65  1  0.60074200  0.25000000  0.58660900  1
  O  O66  1  0.66457200  0.04855700  0.07419500  1
  O  O67  1  0.66863900  0.04794100  0.40580800  1
  O  O68  1  0.66667300  0.04658000  0.74004000  1
  O  O69  1  0.66667300  0.45342000  0.74004000  1
  O  O70  1  0.66457200  0.45144300  0.07419500  1
  O  O71  1  0.66863900  0.45205900  0.40580800  1
  O  O72  1  0.83787500  0.54553100  0.90327900  1
  O  O73  1  0.83787500  0.95446900  0.90327900  1
  O  O74  1  0.83275400  0.54543500  0.23858700  1
  O  O75  1  0.83088200  0.54621900  0.57295800  1
  O  O76  1  0.83275400  0.95456500  0.23858700  1
  O  O77  1  0.83088200  0.95378100  0.57295800  1
  O  O78  1  0.90187500  0.75000000  0.75066800  1
  O  O79  1  0.90102800  0.75000000  0.42080100  1
  O  O80  1  0.90385200  0.75000000  0.08722000  1
  O  O81  1  0.95578400  0.25000000  0.76543900  1
  O  O82  1  0.95252000  0.25000000  0.09770700  1
  O  O83  1  0.95154000  0.25000000  0.43376900  1
