# generated using pymatgen
data_Li2Mn(SO4)2
_symmetry_space_group_name_H-M   'P 1'
_cell_length_a   9.40920700
_cell_length_b   9.50235000
_cell_length_c   14.03736200
_cell_angle_alpha   90.00000000
_cell_angle_beta   90.00000000
_cell_angle_gamma   90.00000000
_symmetry_Int_Tables_number   1
_chemical_formula_structural   Li2Mn(SO4)2
_chemical_formula_sum   'Li16 Mn8 S16 O64'
_cell_volume   1255.07461457
_cell_formula_units_Z   8
loop_
 _symmetry_equiv_pos_site_id
 _symmetry_equiv_pos_as_xyz
  1  'x, y, z'
loop_
 _atom_site_type_symbol
 _atom_site_label
 _atom_site_symmetry_multiplicity
 _atom_site_fract_x
 _atom_site_fract_y
 _atom_site_fract_z
 _atom_site_occupancy
  Li  Li0  1  0.77971600  0.96668900  0.37412600  1
  Li  Li1  1  0.72028400  0.96668900  0.87412600  1
  Li  Li2  1  0.04598100  0.77617600  0.37257600  1
  Li  Li3  1  0.45401900  0.77617600  0.87257600  1
  Li  Li4  1  0.95401900  0.72382400  0.87257600  1
  Li  Li5  1  0.54598100  0.72382400  0.37257600  1
  Li  Li6  1  0.27971600  0.53331100  0.37412600  1
  Li  Li7  1  0.22028400  0.53331100  0.87412600  1
  Li  Li8  1  0.77971600  0.46668900  0.12587400  1
  Li  Li9  1  0.72028400  0.46668900  0.62587400  1
  Li  Li10  1  0.45401900  0.27617600  0.62742400  1
  Li  Li11  1  0.04598100  0.27617600  0.12742400  1
  Li  Li12  1  0.54598100  0.22382400  0.12742400  1
  Li  Li13  1  0.95401900  0.22382400  0.62742400  1
  Li  Li14  1  0.22028400  0.03331100  0.62587400  1
  Li  Li15  1  0.27971600  0.03331100  0.12587400  1
  Mn  Mn16  1  0.89761900  0.86034700  0.12361400  1
  Mn  Mn17  1  0.60238100  0.86034700  0.62361400  1
  Mn  Mn18  1  0.39761900  0.63965300  0.12361400  1
  Mn  Mn19  1  0.10238100  0.63965300  0.62361400  1
  Mn  Mn20  1  0.89761900  0.36034700  0.37638600  1
  Mn  Mn21  1  0.60238100  0.36034700  0.87638600  1
  Mn  Mn22  1  0.39761900  0.13965300  0.37638600  1
  Mn  Mn23  1  0.10238100  0.13965300  0.87638600  1
  S  S24  1  0.92981600  0.92585400  0.72871200  1
  S  S25  1  0.57018400  0.92585400  0.22871200  1
  S  S26  1  0.31218000  0.83893700  0.49042500  1
  S  S27  1  0.18782000  0.83893700  0.99042500  1
  S  S28  1  0.81218000  0.66106300  0.49042500  1
  S  S29  1  0.68782000  0.66106300  0.99042500  1
  S  S30  1  0.07018400  0.57414600  0.22871200  1
  S  S31  1  0.42981600  0.57414600  0.72871200  1
  S  S32  1  0.57018400  0.42585400  0.27128800  1
  S  S33  1  0.92981600  0.42585400  0.77128800  1
  S  S34  1  0.31218000  0.33893700  0.00957500  1
  S  S35  1  0.18782000  0.33893700  0.50957500  1
  S  S36  1  0.81218000  0.16106300  0.00957500  1
  S  S37  1  0.68782000  0.16106300  0.50957500  1
  S  S38  1  0.42981600  0.07414600  0.77128800  1
  S  S39  1  0.07018400  0.07414600  0.27128800  1
  O  O40  1  0.30000700  0.99386300  0.47717800  1
  O  O41  1  0.19999300  0.99386300  0.97717800  1
  O  O42  1  0.00282000  0.98320000  0.34421000  1
  O  O43  1  0.49718000  0.98320000  0.84421000  1
  O  O44  1  0.53820400  0.97498100  0.32838100  1
  O  O45  1  0.96179600  0.97498100  0.82838100  1
  O  O46  1  0.77135000  0.92792600  0.72277400  1
  O  O47  1  0.72865000  0.92792600  0.22277400  1
  O  O48  1  0.26692000  0.81156300  0.08094000  1
  O  O49  1  0.23308000  0.81156300  0.58094000  1
  O  O50  1  0.03618900  0.79477700  0.00100800  1
  O  O51  1  0.46381100  0.79477700  0.50100800  1
  O  O52  1  0.98446200  0.77866500  0.72292200  1
  O  O53  1  0.51553800  0.77866500  0.22292200  1
  O  O54  1  0.25291600  0.75915200  0.40827300  1
  O  O55  1  0.24708400  0.75915200  0.90827300  1
  O  O56  1  0.75291600  0.74084800  0.40827300  1
  O  O57  1  0.74708400  0.74084800  0.90827300  1
  O  O58  1  0.01553800  0.72133500  0.22292200  1
  O  O59  1  0.48446200  0.72133500  0.72292200  1
  O  O60  1  0.96381100  0.70522300  0.50100800  1
  O  O61  1  0.53618900  0.70522300  0.00100800  1
  O  O62  1  0.76692000  0.68843700  0.08094000  1
  O  O63  1  0.73308000  0.68843700  0.58094000  1
  O  O64  1  0.22865000  0.57207400  0.22277400  1
  O  O65  1  0.27135000  0.57207400  0.72277400  1
  O  O66  1  0.46179600  0.52501900  0.82838100  1
  O  O67  1  0.03820400  0.52501900  0.32838100  1
  O  O68  1  0.50282000  0.51680000  0.34421000  1
  O  O69  1  0.99718000  0.51680000  0.84421000  1
  O  O70  1  0.80000700  0.50613700  0.47717800  1
  O  O71  1  0.69999300  0.50613700  0.97717800  1
  O  O72  1  0.30000700  0.49386300  0.02282200  1
  O  O73  1  0.19999300  0.49386300  0.52282200  1
  O  O74  1  0.49718000  0.48320000  0.65579000  1
  O  O75  1  0.00282000  0.48320000  0.15579000  1
  O  O76  1  0.53820400  0.47498100  0.17161900  1
  O  O77  1  0.96179600  0.47498100  0.67161900  1
  O  O78  1  0.72865000  0.42792600  0.27722600  1
  O  O79  1  0.77135000  0.42792600  0.77722600  1
  O  O80  1  0.26692000  0.31156300  0.41906000  1
  O  O81  1  0.23308000  0.31156300  0.91906000  1
  O  O82  1  0.46381100  0.29477700  0.99899200  1
  O  O83  1  0.03618900  0.29477700  0.49899200  1
  O  O84  1  0.51553800  0.27866500  0.27707800  1
  O  O85  1  0.98446200  0.27866500  0.77707800  1
  O  O86  1  0.25291600  0.25915200  0.09172700  1
  O  O87  1  0.24708400  0.25915200  0.59172700  1
  O  O88  1  0.75291600  0.24084800  0.09172700  1
  O  O89  1  0.74708400  0.24084800  0.59172700  1
  O  O90  1  0.48446200  0.22133500  0.77707800  1
  O  O91  1  0.01553800  0.22133500  0.27707800  1
  O  O92  1  0.53618900  0.20522300  0.49899200  1
  O  O93  1  0.96381100  0.20522300  0.99899200  1
  O  O94  1  0.76692000  0.18843700  0.41906000  1
  O  O95  1  0.73308000  0.18843700  0.91906000  1
  O  O96  1  0.27135000  0.07207400  0.77722600  1
  O  O97  1  0.22865000  0.07207400  0.27722600  1
  O  O98  1  0.46179600  0.02501900  0.67161900  1
  O  O99  1  0.03820400  0.02501900  0.17161900  1
  O  O100  1  0.99718000  0.01680000  0.65579000  1
  O  O101  1  0.50282000  0.01680000  0.15579000  1
  O  O102  1  0.80000700  0.00613700  0.02282200  1
  O  O103  1  0.69999300  0.00613700  0.52282200  1
