# generated using pymatgen
data_Li2MnP4H3O14
_symmetry_space_group_name_H-M   'P 1'
_cell_length_a   7.60824700
_cell_length_b   4.87236800
_cell_length_c   16.38926737
_cell_angle_alpha   82.21350296
_cell_angle_beta   90.00000000
_cell_angle_gamma   90.00000000
_symmetry_Int_Tables_number   1
_chemical_formula_structural   Li2MnP4H3O14
_chemical_formula_sum   'Li4 Mn2 P8 H6 O28'
_cell_volume   601.95131603
_cell_formula_units_Z   2
loop_
 _symmetry_equiv_pos_site_id
 _symmetry_equiv_pos_as_xyz
  1  'x, y, z'
loop_
 _atom_site_type_symbol
 _atom_site_label
 _atom_site_symmetry_multiplicity
 _atom_site_fract_x
 _atom_site_fract_y
 _atom_site_fract_z
 _atom_site_occupancy
  Li  Li0  1  0.13378300  0.78721200  0.15241200  1
  Li  Li1  1  0.63378300  0.21278800  0.34758800  1
  Li  Li2  1  0.36621700  0.78721200  0.65241200  1
  Li  Li3  1  0.86621700  0.21278800  0.84758800  1
  Mn  Mn4  1  0.50000000  0.00000000  0.00000000  1
  Mn  Mn5  1  0.00000000  0.00000000  0.50000000  1
  P  P6  1  0.76773300  0.47640100  0.55421000  1
  P  P7  1  0.46566400  0.34886100  0.79910900  1
  P  P8  1  0.96566400  0.65113900  0.70089100  1
  P  P9  1  0.26773300  0.52359900  0.94579000  1
  P  P10  1  0.73226700  0.47640100  0.05421000  1
  P  P11  1  0.03433600  0.34886100  0.29910900  1
  P  P12  1  0.53433600  0.65113900  0.20089100  1
  P  P13  1  0.23226700  0.52359900  0.44579000  1
  H  H14  1  0.16043600  0.31096000  0.75427600  1
  H  H15  1  0.50000000  0.50000000  0.50000000  1
  H  H16  1  0.66043600  0.68904000  0.74572400  1
  H  H17  1  0.33956400  0.31096000  0.25427600  1
  H  H18  1  0.00000000  0.50000000  0.00000000  1
  H  H19  1  0.83956400  0.68904000  0.24572400  1
  O  O20  1  0.60759000  0.19489700  0.85150400  1
  O  O21  1  0.85111900  0.47563800  0.64196800  1
  O  O22  1  0.57185500  0.54545200  0.56202000  1
  O  O23  1  0.66442600  0.81090600  0.24611400  1
  O  O24  1  0.53756500  0.59657400  0.73572500  1
  O  O25  1  0.03756500  0.40342600  0.76427500  1
  O  O26  1  0.85944300  0.68493100  0.48926800  1
  O  O27  1  0.07185500  0.45454800  0.93798000  1
  O  O28  1  0.35111900  0.52436200  0.85803200  1
  O  O29  1  0.21165900  0.81894800  0.46781100  1
  O  O30  1  0.83557400  0.81090600  0.74611400  1
  O  O31  1  0.71165900  0.18105200  0.03218900  1
  O  O32  1  0.10759000  0.80510300  0.64849600  1
  O  O33  1  0.64055700  0.68493100  0.98926800  1
  O  O34  1  0.35944300  0.31506900  0.01073200  1
  O  O35  1  0.89241000  0.19489700  0.35150400  1
  O  O36  1  0.28834100  0.81894800  0.96781100  1
  O  O37  1  0.16442600  0.18909400  0.25388600  1
  O  O38  1  0.78834100  0.18105200  0.53218900  1
  O  O39  1  0.64888100  0.47563800  0.14196800  1
  O  O40  1  0.92814500  0.54545200  0.06202000  1
  O  O41  1  0.14055700  0.31506900  0.51073200  1
  O  O42  1  0.96243500  0.59657400  0.23572500  1
  O  O43  1  0.46243500  0.40342600  0.26427500  1
  O  O44  1  0.33557400  0.18909400  0.75388600  1
  O  O45  1  0.42814500  0.45454800  0.43798000  1
  O  O46  1  0.14888100  0.52436200  0.35803200  1
  O  O47  1  0.39241000  0.80510300  0.14849600  1
