# generated using pymatgen
data_Li4V3Ni3(WO8)2
_symmetry_space_group_name_H-M   'P 1'
_cell_length_a   5.95142260
_cell_length_b   5.95142260
_cell_length_c   9.72156881
_cell_angle_alpha   89.84806814
_cell_angle_beta   89.84806814
_cell_angle_gamma   60.51834890
_symmetry_Int_Tables_number   1
_chemical_formula_structural   Li4V3Ni3(WO8)2
_chemical_formula_sum   'Li4 V3 Ni3 W2 O16'
_cell_volume   299.74456885
_cell_formula_units_Z   1
loop_
 _symmetry_equiv_pos_site_id
 _symmetry_equiv_pos_as_xyz
  1  'x, y, z'
loop_
 _atom_site_type_symbol
 _atom_site_label
 _atom_site_symmetry_multiplicity
 _atom_site_fract_x
 _atom_site_fract_y
 _atom_site_fract_z
 _atom_site_occupancy
  Li  Li0  1  0.66344500  0.66344500  0.09672000  1
  Li  Li1  1  0.00198200  0.00198200  0.01310100  1
  Li  Li2  1  0.99935200  0.99935200  0.51056400  1
  Li  Li3  1  0.33208100  0.33208100  0.59515300  1
  V  V4  1  0.34476800  0.83669900  0.78278200  1
  V  V5  1  0.83669900  0.34476800  0.78278200  1
  V  V6  1  0.17503800  0.17503800  0.27620400  1
  Ni  Ni7  1  0.82915100  0.82915100  0.78865200  1
  Ni  Ni8  1  0.16811500  0.65928400  0.28875800  1
  Ni  Ni9  1  0.65928400  0.16811500  0.28875800  1
  W  W10  1  0.66629100  0.66629100  0.51020500  1
  W  W11  1  0.34040100  0.34040100  0.01053400  1
  O  O12  1  0.34632600  0.83050500  0.40973700  1
  O  O13  1  0.51975100  0.51975100  0.64719900  1
  O  O14  1  0.65865000  0.65865000  0.89480300  1
  O  O15  1  0.00168300  0.00168300  0.69893800  1
  O  O16  1  0.00938700  0.00938700  0.20263600  1
  O  O17  1  0.83050500  0.34632600  0.40973700  1
  O  O18  1  0.51568400  0.95971900  0.64970000  1
  O  O19  1  0.95971900  0.51568400  0.64970000  1
  O  O20  1  0.17770800  0.17770800  0.90812500  1
  O  O21  1  0.82838100  0.82838100  0.41408300  1
  O  O22  1  0.03802300  0.46851700  0.14849500  1
  O  O23  1  0.46851700  0.03802300  0.14849500  1
  O  O24  1  0.31666500  0.31666500  0.39078300  1
  O  O25  1  0.17540800  0.65969600  0.91285600  1
  O  O26  1  0.47712100  0.47712100  0.14975100  1
  O  O27  1  0.65969600  0.17540800  0.91285600  1
