# generated using pymatgen
data_Li5Fe8(BO3)8
_symmetry_space_group_name_H-M   'P 1'
_cell_length_a   5.30327900
_cell_length_b   9.02903173
_cell_length_c   11.18374720
_cell_angle_alpha   113.74676639
_cell_angle_beta   101.80044933
_cell_angle_gamma   89.63249733
_symmetry_Int_Tables_number   1
_chemical_formula_structural   Li5Fe8(BO3)8
_chemical_formula_sum   'Li5 Fe8 B8 O24'
_cell_volume   478.09080742
_cell_formula_units_Z   1
loop_
 _symmetry_equiv_pos_site_id
 _symmetry_equiv_pos_as_xyz
  1  'x, y, z'
loop_
 _atom_site_type_symbol
 _atom_site_label
 _atom_site_symmetry_multiplicity
 _atom_site_fract_x
 _atom_site_fract_y
 _atom_site_fract_z
 _atom_site_occupancy
  Li  Li0  1  0.16440600  0.84271200  0.65841100  1
  Li  Li1  1  0.35208500  0.70379200  0.39509800  1
  Li  Li2  1  0.60122500  0.95207500  0.92096900  1
  Li  Li3  1  0.92374000  0.57495700  0.16321300  1
  Li  Li4  1  0.67116400  0.33670700  0.65632300  1
  Fe  Fe5  1  0.40998000  0.73712600  0.13260900  1
  Fe  Fe6  1  0.09531300  0.76509300  0.87919400  1
  Fe  Fe7  1  0.84373900  0.87319800  0.38457700  1
  Fe  Fe8  1  0.65711700  0.65401100  0.62373600  1
  Fe  Fe9  1  0.35734700  0.34453700  0.37193600  1
  Fe  Fe10  1  0.15223200  0.15656300  0.63072800  1
  Fe  Fe11  1  0.90341300  0.21930500  0.13654000  1
  Fe  Fe12  1  0.59521900  0.27138000  0.88182900  1
  B  B13  1  0.64738200  0.98671800  0.63403500  1
  B  B14  1  0.88578500  0.88825300  0.12186000  1
  B  B15  1  0.15242400  0.48437600  0.62870900  1
  B  B16  1  0.39760400  0.40079200  0.12908700  1
  B  B17  1  0.86153100  0.51942400  0.37565500  1
  B  B18  1  0.59617500  0.60341200  0.87085700  1
  B  B19  1  0.35185800  0.02163500  0.38308300  1
  B  B20  1  0.10210500  0.10406500  0.87707100  1
  O  O21  1  0.11180800  0.85624200  0.07260100  1
  O  O22  1  0.45222900  0.87039100  0.34330300  1
  O  O23  1  0.21765000  0.96000400  0.86272900  1
  O  O24  1  0.49336200  0.85308600  0.61430800  1
  O  O25  1  0.88494800  0.96855100  0.59874600  1
  O  O26  1  0.80875700  0.78643400  0.17627000  1
  O  O27  1  0.27372700  0.53594400  0.14130100  1
  O  O28  1  0.06599800  0.64415900  0.67275200  1
  O  O29  1  0.71468100  0.71778100  0.83700700  1
  O  O30  1  0.61878700  0.52907600  0.41185600  1
  O  O31  1  0.97564100  0.64938900  0.36752500  1
  O  O32  1  0.37851000  0.64622400  0.92042100  1
  O  O33  1  0.63046000  0.37202000  0.07764500  1
  O  O34  1  0.38489000  0.46191700  0.58270400  1
  O  O35  1  0.30810600  0.28939200  0.17136200  1
  O  O36  1  0.97969200  0.37437500  0.34496900  1
  O  O37  1  0.69312000  0.45801500  0.85374000  1
  O  O38  1  0.22292000  0.21863700  0.84897100  1
  O  O39  1  0.13169800  0.03866100  0.43383100  1
  O  O40  1  0.47432100  0.15086200  0.37660700  1
  O  O41  1  0.01407500  0.36400400  0.63442100  1
  O  O42  1  0.74202400  0.00812500  0.10762200  1
  O  O43  1  0.55837200  0.14438700  0.68628200  1
  O  O44  1  0.86292300  0.12833000  0.91347300  1
