# generated using pymatgen
data_Li10Mn3Co2Ni3O16
_symmetry_space_group_name_H-M   'P 1'
_cell_length_a   5.94317800
_cell_length_b   5.95212696
_cell_length_c   9.77606296
_cell_angle_alpha   90.80571109
_cell_angle_beta   91.03523014
_cell_angle_gamma   119.65376695
_symmetry_Int_Tables_number   1
_chemical_formula_structural   Li10Mn3Co2Ni3O16
_chemical_formula_sum   'Li10 Mn3 Co2 Ni3 O16'
_cell_volume   300.37728387
_cell_formula_units_Z   1
loop_
 _symmetry_equiv_pos_site_id
 _symmetry_equiv_pos_as_xyz
  1  'x, y, z'
loop_
 _atom_site_type_symbol
 _atom_site_label
 _atom_site_symmetry_multiplicity
 _atom_site_fract_x
 _atom_site_fract_y
 _atom_site_fract_z
 _atom_site_occupancy
  Li  Li0  1  0.16779200  0.79746900  0.07026400  1
  Li  Li1  1  0.19252100  0.41695200  0.05772400  1
  Li  Li2  1  0.35740800  0.68100400  0.28163000  1
  Li  Li3  1  0.78315900  0.18234000  0.54595900  1
  Li  Li4  1  0.39705700  0.20386600  0.55386800  1
  Li  Li5  1  0.69321300  0.36355200  0.77997700  1
  Li  Li6  1  0.63414900  0.81136300  0.06760100  1
  Li  Li7  1  0.77900300  0.61986300  0.54651500  1
  Li  Li8  1  0.03260500  0.03313000  0.98457400  1
  Li  Li9  1  0.02004500  0.01626000  0.47838600  1
  Mn  Mn10  1  0.35010500  0.17664500  0.28302400  1
  Mn  Mn11  1  0.18952200  0.35966600  0.78254900  1
  Mn  Mn12  1  0.18992500  0.85214400  0.78439400  1
  Co  Co13  1  0.68295200  0.34106000  0.03308100  1
  Co  Co14  1  0.34958100  0.68171600  0.52509600  1
  Ni  Ni15  1  0.68690700  0.85465800  0.78687700  1
  Ni  Ni16  1  0.84265100  0.17676000  0.28653000  1
  Ni  Ni17  1  0.84212900  0.67049300  0.28839900  1
  O  O18  1  0.02461000  0.00904100  0.17302800  1
  O  O19  1  0.03828200  0.02720100  0.67654300  1
  O  O20  1  0.19685500  0.33766100  0.40097400  1
  O  O21  1  0.35096500  0.18719900  0.89417200  1
  O  O22  1  0.50083300  0.01573500  0.16369100  1
  O  O23  1  0.03100500  0.52683400  0.66714900  1
  O  O24  1  0.49947600  0.47974200  0.16208200  1
  O  O25  1  0.34051700  0.68101100  0.89667200  1
  O  O26  1  0.66110800  0.33613200  0.40352900  1
  O  O27  1  0.49195700  0.51200200  0.67061400  1
  O  O28  1  0.20066700  0.87090200  0.40130400  1
  O  O29  1  0.88449500  0.20748000  0.90048100  1
  O  O30  1  0.49250100  0.99598000  0.67114800  1
  O  O31  1  0.98108600  0.49018900  0.16360500  1
  O  O32  1  0.68758000  0.84761200  0.41893200  1
  O  O33  1  0.88685600  0.70816200  0.90092400  1
