# generated using pymatgen
data_Li5MnCr3O8
_symmetry_space_group_name_H-M   'P 1'
_cell_length_a   6.00464627
_cell_length_b   10.73718926
_cell_length_c   6.00472552
_cell_angle_alpha   90.11504492
_cell_angle_beta   60.25514723
_cell_angle_gamma   73.75040461
_symmetry_Int_Tables_number   1
_chemical_formula_structural   Li5MnCr3O8
_chemical_formula_sum   'Li10 Mn2 Cr6 O16'
_cell_volume   318.06663372
_cell_formula_units_Z   2
loop_
 _symmetry_equiv_pos_site_id
 _symmetry_equiv_pos_as_xyz
  1  'x, y, z'
loop_
 _atom_site_type_symbol
 _atom_site_label
 _atom_site_symmetry_multiplicity
 _atom_site_fract_x
 _atom_site_fract_y
 _atom_site_fract_z
 _atom_site_occupancy
  Li  Li0  1  0.93526700  0.09696600  0.03224500  1
  Li  Li1  1  0.93567500  0.59694700  0.53260500  1
  Li  Li2  1  0.06433100  0.40306400  0.46737700  1
  Li  Li3  1  0.06472100  0.90304900  0.96777400  1
  Li  Li4  1  0.49995100  0.24995900  0.24965400  1
  Li  Li5  1  0.50003600  0.75004700  0.75035300  1
  Li  Li6  1  0.99969700  0.24995900  0.74990600  1
  Li  Li7  1  0.00031100  0.75004700  0.25007900  1
  Li  Li8  1  0.00010800  0.24987400  0.24997900  1
  Li  Li9  1  0.99989500  0.75013600  0.75002800  1
  Mn  Mn10  1  0.50151700  0.74942400  0.25092900  1
  Mn  Mn11  1  0.49849200  0.25058200  0.74906300  1
  Cr  Cr12  1  0.49997400  0.99999400  0.50004200  1
  Cr  Cr13  1  0.49999100  0.50000300  0.50001200  1
  Cr  Cr14  1  0.99995100  0.50000800  0.00000700  1
  Cr  Cr15  1  0.50000300  0.49999600  0.99998300  1
  Cr  Cr16  1  0.50002700  0.99998400  0.99999800  1
  Cr  Cr17  1  0.00002400  0.99997900  0.49999900  1
  O  O18  1  0.74168100  0.38801600  0.12986200  1
  O  O19  1  0.74150000  0.88789400  0.62958800  1
  O  O20  1  0.25852400  0.11208400  0.37043100  1
  O  O21  1  0.25830200  0.61198500  0.87013000  1
  O  O22  1  0.74966800  0.61406800  0.88511800  1
  O  O23  1  0.75050100  0.11405500  0.38479700  1
  O  O24  1  0.75117400  0.61315100  0.36425500  1
  O  O25  1  0.75014300  0.11344700  0.86356600  1
  O  O26  1  0.27106300  0.61406000  0.36374200  1
  O  O27  1  0.27075900  0.11405800  0.86452500  1
  O  O28  1  0.72924200  0.88594600  0.13549200  1
  O  O29  1  0.72894200  0.38594500  0.63624000  1
  O  O30  1  0.24990800  0.88654700  0.13639600  1
  O  O31  1  0.24881000  0.38685700  0.63574000  1
  O  O32  1  0.24949500  0.88593700  0.61521900  1
  O  O33  1  0.25030800  0.38594400  0.11486700  1
