# generated using pymatgen
data_Li13V24O52
_symmetry_space_group_name_H-M   'P 1'
_cell_length_a   8.52092100
_cell_length_b   11.17317200
_cell_length_c   11.68691274
_cell_angle_alpha   110.13299176
_cell_angle_beta   103.60717590
_cell_angle_gamma   97.83840962
_symmetry_Int_Tables_number   1
_chemical_formula_structural   Li13V24O52
_chemical_formula_sum   'Li13 V24 O52'
_cell_volume   986.12776003
_cell_formula_units_Z   1
loop_
 _symmetry_equiv_pos_site_id
 _symmetry_equiv_pos_as_xyz
  1  'x, y, z'
loop_
 _atom_site_type_symbol
 _atom_site_label
 _atom_site_symmetry_multiplicity
 _atom_site_fract_x
 _atom_site_fract_y
 _atom_site_fract_z
 _atom_site_occupancy
  Li  Li0  1  0.12023600  0.41129500  0.15360800  1
  Li  Li1  1  0.00250500  0.00016300  0.00278800  1
  Li  Li2  1  0.75228200  0.00012200  0.25032400  1
  Li  Li3  1  0.49876000  0.99945400  0.49697400  1
  Li  Li4  1  0.25296700  0.01834800  0.75693100  1
  Li  Li5  1  0.38006100  0.58659100  0.34488100  1
  Li  Li6  1  0.62886200  0.58681800  0.09410500  1
  Li  Li7  1  0.13027100  0.58363900  0.59518200  1
  Li  Li8  1  0.97492000  0.80888000  0.54716200  1
  Li  Li9  1  0.61949600  0.41125100  0.65471000  1
  Li  Li10  1  0.36953700  0.41248800  0.90420400  1
  Li  Li11  1  0.87048200  0.41301800  0.40489500  1
  Li  Li12  1  0.88096200  0.58672000  0.84686600  1
  V  V13  1  0.31931300  0.63459800  0.11775100  1
  V  V14  1  0.06947800  0.62937900  0.36342300  1
  V  V15  1  0.17985100  0.00378900  0.50629500  1
  V  V16  1  0.68082100  0.99729400  0.00887500  1
  V  V17  1  0.43220300  0.99840000  0.25357400  1
  V  V18  1  0.07746100  0.00154700  0.24592900  1
  V  V19  1  0.42943000  0.36455400  0.13009900  1
  V  V20  1  0.17983000  0.36507600  0.38104200  1
  V  V21  1  0.46481300  0.63495900  0.60617300  1
  V  V22  1  0.21728800  0.63622000  0.85755900  1
  V  V23  1  0.96676500  0.63648200  0.10802500  1
  V  V24  1  0.71359900  0.62961300  0.35375300  1
  V  V25  1  0.78181800  0.36372000  0.14071100  1
  V  V26  1  0.28368200  0.36562300  0.64355400  1
  V  V27  1  0.53166100  0.36412500  0.39197300  1
  V  V28  1  0.03146400  0.36477700  0.89285500  1
  V  V29  1  0.81555500  0.62927700  0.61947100  1
  V  V30  1  0.56966700  0.63405200  0.86909100  1
  V  V31  1  0.92389900  0.00184500  0.76003400  1
  V  V32  1  0.82123900  0.00250100  0.49608700  1
  V  V33  1  0.57066500  0.99888300  0.74452200  1
  V  V34  1  0.32179800  0.00123500  0.99081200  1
  V  V35  1  0.93050100  0.36571500  0.63170600  1
  V  V36  1  0.68170000  0.36552400  0.88220600  1
  O  O37  1  0.00590900  0.80147900  0.16438000  1
  O  O38  1  0.03827700  0.99468700  0.62035800  1
  O  O39  1  0.54413300  0.99986500  0.11346700  1
  O  O40  1  0.28053800  0.00079300  0.36925300  1
  O  O41  1  0.16679900  0.60800100  0.22100200  1
  O  O42  1  0.24731100  0.41676800  0.03157300  1
  O  O43  1  0.37504700  0.80149700  0.18322800  1
  O  O44  1  0.12125000  0.79803600  0.43642200  1
  O  O45  1  0.12382300  0.19822800  0.31333000  1
  O  O46  1  0.37559200  0.19825500  0.06398000  1
  O  O47  1  0.87632200  0.99918400  0.12583700  1
  O  O48  1  0.62694500  0.99795900  0.37391800  1
  O  O49  1  0.36932900  0.00138300  0.62116800  1
  O  O50  1  0.12417000  0.00081400  0.87611600  1
  O  O51  1  0.00197700  0.58277800  0.71850700  1
  O  O52  1  0.25173600  0.58322100  0.46693500  1
  O  O53  1  0.50234900  0.58377200  0.21793400  1
  O  O54  1  0.33443900  0.39142400  0.27839300  1
  O  O55  1  0.58280200  0.39194500  0.02900100  1
  O  O56  1  0.08509600  0.39211200  0.52910900  1
  O  O57  1  0.22623900  0.99996800  0.12129100  1
  O  O58  1  0.76138900  0.79673000  0.41715300  1
  O  O59  1  0.25548800  0.80052800  0.91223700  1
  O  O60  1  0.50229400  0.79936300  0.66158100  1
  O  O61  1  0.90131700  0.40444600  0.02212500  1
  O  O62  1  0.15005100  0.40410800  0.77118000  1
  O  O63  1  0.65128800  0.40659500  0.27174400  1
  O  O64  1  0.39946400  0.40384500  0.52023800  1
  O  O65  1  0.84805100  0.59439300  0.22715200  1
  O  O66  1  0.59840700  0.59437500  0.47830800  1
  O  O67  1  0.09961000  0.59617100  0.97906300  1
  O  O68  1  0.34897600  0.59492300  0.72869500  1
  O  O69  1  0.49704900  0.19885600  0.33551400  1
  O  O70  1  0.74605000  0.19995300  0.08830000  1
  O  O71  1  0.24540500  0.20041200  0.58694700  1
  O  O72  1  0.77614300  0.00038900  0.87887300  1
  O  O73  1  0.91909700  0.61134100  0.47402000  1
  O  O74  1  0.66443500  0.60780100  0.72078600  1
  O  O75  1  0.41504200  0.60769700  0.97020200  1
  O  O76  1  0.99708300  0.41903600  0.28259600  1
  O  O77  1  0.74747400  0.41915200  0.53193900  1
  O  O78  1  0.49802400  0.41693400  0.78217000  1
  O  O79  1  0.87624800  0.79898600  0.68228900  1
  O  O80  1  0.62564800  0.80056100  0.93543700  1
  O  O81  1  0.87286700  0.19974400  0.56426500  1
  O  O82  1  0.62379600  0.20037800  0.81557800  1
  O  O83  1  0.75328000  0.58351900  0.96877800  1
  O  O84  1  0.83434700  0.39255400  0.77910500  1
  O  O85  1  0.45537100  0.99930100  0.88000200  1
  O  O86  1  0.71703700  0.00011400  0.63406800  1
  O  O87  1  0.97644600  0.00071100  0.39036900  1
  O  O88  1  0.99345500  0.19954000  0.83838800  1
