# generated using pymatgen
data_Na5LiMn2P2(CO7)2
_symmetry_space_group_name_H-M   'P 1'
_cell_length_a   6.76177500
_cell_length_b   8.98197400
_cell_length_c   10.38745178
_cell_angle_alpha   89.95805184
_cell_angle_beta   90.00000000
_cell_angle_gamma   90.00000000
_symmetry_Int_Tables_number   1
_chemical_formula_structural   Na5LiMn2P2(CO7)2
_chemical_formula_sum   'Na10 Li2 Mn4 P4 C4 O28'
_cell_volume   630.87223381
_cell_formula_units_Z   2
loop_
 _symmetry_equiv_pos_site_id
 _symmetry_equiv_pos_as_xyz
  1  'x, y, z'
loop_
 _atom_site_type_symbol
 _atom_site_label
 _atom_site_symmetry_multiplicity
 _atom_site_fract_x
 _atom_site_fract_y
 _atom_site_fract_z
 _atom_site_occupancy
  Na  Na0  1  0.25045600  0.08252800  0.62883700  1
  Na  Na1  1  0.25413400  0.08384500  0.13014100  1
  Na  Na2  1  0.00111300  0.25611700  0.37447400  1
  Na  Na3  1  0.00079000  0.25865700  0.87356000  1
  Na  Na4  1  0.49987800  0.25820100  0.87308700  1
  Na  Na5  1  0.50111300  0.74388300  0.62552600  1
  Na  Na6  1  0.50079000  0.74134300  0.12644000  1
  Na  Na7  1  0.99987800  0.74179900  0.12691300  1
  Na  Na8  1  0.75045600  0.91747200  0.37116300  1
  Na  Na9  1  0.75413400  0.91615500  0.86985900  1
  Li  Li10  1  0.48220000  0.27425000  0.36539200  1
  Li  Li11  1  0.98220000  0.72575000  0.63460800  1
  Mn  Mn12  1  0.74754700  0.36018300  0.63566200  1
  Mn  Mn13  1  0.74740400  0.36252500  0.14284100  1
  Mn  Mn14  1  0.24754700  0.63981700  0.36433800  1
  Mn  Mn15  1  0.24740400  0.63747500  0.85715900  1
  P  P16  1  0.24840500  0.41311500  0.59800400  1
  P  P17  1  0.24947600  0.41258500  0.10419000  1
  P  P18  1  0.74840500  0.58688500  0.40199600  1
  P  P19  1  0.74947600  0.58741500  0.89581000  1
  C  C20  1  0.75733500  0.05492000  0.61736800  1
  C  C21  1  0.74930400  0.06057800  0.11806000  1
  C  C22  1  0.25733500  0.94508000  0.38263200  1
  C  C23  1  0.24930400  0.93942200  0.88194000  1
  O  O24  1  0.27449500  0.08897200  0.39235400  1
  O  O25  1  0.24973800  0.08307900  0.89299100  1
  O  O26  1  0.74993100  0.11825300  0.73042100  1
  O  O27  1  0.75067000  0.12278200  0.23122500  1
  O  O28  1  0.74646900  0.13846200  0.51500600  1
  O  O29  1  0.74734100  0.14487700  0.01555000  1
  O  O30  1  0.06472300  0.31785300  0.63515200  1
  O  O31  1  0.43231200  0.32895200  0.65009000  1
  O  O32  1  0.06366100  0.32106600  0.14374700  1
  O  O33  1  0.43166200  0.31958900  0.14957000  1
  O  O34  1  0.26492800  0.42278600  0.44767500  1
  O  O35  1  0.73181800  0.42558000  0.34747200  1
  O  O36  1  0.25317900  0.42929800  0.95428200  1
  O  O37  1  0.75102800  0.43004100  0.83542400  1
  O  O38  1  0.23181800  0.57442000  0.65252800  1
  O  O39  1  0.76492800  0.57721400  0.55232500  1
  O  O40  1  0.25102800  0.56995900  0.16457600  1
  O  O41  1  0.75317900  0.57070200  0.04571800  1
  O  O42  1  0.56472300  0.68214700  0.36484800  1
  O  O43  1  0.93231200  0.67104800  0.34991000  1
  O  O44  1  0.56366100  0.67893400  0.85625300  1
  O  O45  1  0.93166200  0.68041100  0.85043000  1
  O  O46  1  0.24646900  0.86153800  0.48499400  1
  O  O47  1  0.24734100  0.85512300  0.98445000  1
  O  O48  1  0.24993100  0.88174700  0.26957900  1
  O  O49  1  0.25067000  0.87721800  0.76877500  1
  O  O50  1  0.77449500  0.91102800  0.60764600  1
  O  O51  1  0.74973800  0.91692100  0.10700900  1
