# generated using pymatgen
data_LiMnAlO4
_symmetry_space_group_name_H-M   'P 1'
_cell_length_a   2.87132800
_cell_length_b   10.08687700
_cell_length_c   9.35444400
_cell_angle_alpha   90.00162210
_cell_angle_beta   89.99915833
_cell_angle_gamma   90.00007400
_symmetry_Int_Tables_number   1
_chemical_formula_structural   LiMnAlO4
_chemical_formula_sum   'Li4 Mn4 Al4 O16'
_cell_volume   270.93025790
_cell_formula_units_Z   4
loop_
 _symmetry_equiv_pos_site_id
 _symmetry_equiv_pos_as_xyz
  1  'x, y, z'
loop_
 _atom_site_type_symbol
 _atom_site_label
 _atom_site_symmetry_multiplicity
 _atom_site_fract_x
 _atom_site_fract_y
 _atom_site_fract_z
 _atom_site_occupancy
  Li  Li0  1  0.24999000  0.62308000  0.07446800  1
  Li  Li1  1  0.74997400  0.12302000  0.42559300  1
  Li  Li2  1  0.24995500  0.87692700  0.57446000  1
  Li  Li3  1  0.74997600  0.37698800  0.92557300  1
  Mn  Mn4  1  0.24999600  0.84767300  0.27291300  1
  Mn  Mn5  1  0.24991000  0.65235900  0.77291000  1
  Mn  Mn6  1  0.75002000  0.34768300  0.22706600  1
  Mn  Mn7  1  0.75003100  0.15227400  0.72710100  1
  Al  Al8  1  0.25003000  0.12639800  0.00331200  1
  Al  Al9  1  0.74998100  0.62637200  0.49668100  1
  Al  Al10  1  0.25001900  0.37358800  0.50329200  1
  Al  Al11  1  0.74999500  0.87363200  0.99668900  1
  O  O12  1  0.25001100  0.96272500  0.10356400  1
  O  O13  1  0.75001300  0.46267000  0.39645900  1
  O  O14  1  0.24997600  0.53725300  0.60354400  1
  O  O15  1  0.75003800  0.03734900  0.89645900  1
  O  O16  1  0.25004100  0.43573900  0.13140800  1
  O  O17  1  0.75001500  0.93569600  0.36864100  1
  O  O18  1  0.25006100  0.06428000  0.63144800  1
  O  O19  1  0.74993400  0.56429000  0.86862100  1
  O  O20  1  0.75003500  0.21440600  0.08500400  1
  O  O21  1  0.24998800  0.71430100  0.41494500  1
  O  O22  1  0.75002800  0.28561200  0.58498100  1
  O  O23  1  0.24997300  0.78566800  0.91493700  1
  O  O24  1  0.75000400  0.75789600  0.16335900  1
  O  O25  1  0.25001400  0.25787500  0.33660900  1
  O  O26  1  0.74995000  0.74208400  0.66334200  1
  O  O27  1  0.25004100  0.24216100  0.83661900  1
