# generated using pymatgen
data_Li3MnV(PO4)3
_symmetry_space_group_name_H-M   'P 1'
_cell_length_a   8.65273400
_cell_length_b   8.65692194
_cell_length_c   12.65470476
_cell_angle_alpha   105.81364987
_cell_angle_beta   105.69819989
_cell_angle_gamma   95.34153818
_symmetry_Int_Tables_number   1
_chemical_formula_structural   Li3MnV(PO4)3
_chemical_formula_sum   'Li12 Mn4 V4 P12 O48'
_cell_volume   863.66147209
_cell_formula_units_Z   4
loop_
 _symmetry_equiv_pos_site_id
 _symmetry_equiv_pos_as_xyz
  1  'x, y, z'
loop_
 _atom_site_type_symbol
 _atom_site_label
 _atom_site_symmetry_multiplicity
 _atom_site_fract_x
 _atom_site_fract_y
 _atom_site_fract_z
 _atom_site_occupancy
  Li  Li0  1  0.99940000  0.00382900  0.12379900  1
  Li  Li1  1  0.99562000  0.00331200  0.62596400  1
  Li  Li2  1  0.71178800  0.28972600  0.37404400  1
  Li  Li3  1  0.49971700  0.49884700  0.25022800  1
  Li  Li4  1  0.71290400  0.28904100  0.87590300  1
  Li  Li5  1  0.49946500  0.49980400  0.49955900  1
  Li  Li6  1  0.28835200  0.71171500  0.12367500  1
  Li  Li7  1  0.50052500  0.50263900  0.75116400  1
  Li  Li8  1  0.49864800  0.49997900  0.99929500  1
  Li  Li9  1  0.28908400  0.71146100  0.62557000  1
  Li  Li10  1  0.00671600  0.99633100  0.37348900  1
  Li  Li11  1  0.00279200  0.99675900  0.87568900  1
  Mn  Mn12  1  0.37132400  0.05764800  0.06537300  1
  Mn  Mn13  1  0.63028000  0.94128300  0.93508600  1
  Mn  Mn14  1  0.05699000  0.37323200  0.31509000  1
  Mn  Mn15  1  0.05720700  0.37556200  0.81529500  1
  V  V16  1  0.94221900  0.62191700  0.17991300  1
  V  V17  1  0.94295200  0.62318800  0.67975900  1
  V  V18  1  0.62145600  0.94263500  0.42996600  1
  V  V19  1  0.38034700  0.05562600  0.57055200  1
  P  P20  1  0.71125600  0.28469100  0.12481600  1
  P  P21  1  0.86019600  0.66583500  0.43166000  1
  P  P22  1  0.66565400  0.85911800  0.18092400  1
  P  P23  1  0.71430500  0.28791700  0.62505600  1
  P  P24  1  0.86542000  0.66490000  0.93212200  1
  P  P25  1  0.66082700  0.86123600  0.68295200  1
  P  P26  1  0.33976500  0.13368700  0.31654900  1
  P  P27  1  0.13347000  0.33984600  0.06713900  1
  P  P28  1  0.28446700  0.71183200  0.37454800  1
  P  P29  1  0.33448500  0.13575200  0.81861600  1
  P  P30  1  0.13910000  0.33876100  0.56776000  1
  P  P31  1  0.28778900  0.71544500  0.87505200  1
  O  O32  1  0.98914100  0.65621300  0.04499300  1
  O  O33  1  0.94566200  0.61500900  0.33642000  1
  O  O34  1  0.73721500  0.17355700  0.01376000  1
  O  O35  1  0.98692500  0.66156100  0.54443000  1
  O  O36  1  0.82755900  0.26180700  0.23605800  1
  O  O37  1  0.84924700  0.84008300  0.19928100  1
  O  O38  1  0.73451500  0.46012900  0.11579400  1
  O  O39  1  0.84016100  0.84960500  0.45147300  1
  O  O40  1  0.94796100  0.60970600  0.83547600  1
  O  O41  1  0.74086700  0.17300800  0.51648500  1
  O  O42  1  0.82702100  0.26460900  0.73690700  1
  O  O43  1  0.84327100  0.84262700  0.69599300  1
  O  O44  1  0.70229900  0.54556200  0.39774100  1
  O  O45  1  0.61390600  0.94645500  0.08625200  1
  O  O46  1  0.66181800  0.98511200  0.29436900  1
  O  O47  1  0.53736800  0.25822300  0.13659400  1
  O  O48  1  0.73673500  0.46261800  0.61471400  1
  O  O49  1  0.54602500  0.70115600  0.14738200  1
  O  O50  1  0.85588500  0.85006500  0.95260800  1
  O  O51  1  0.70429600  0.54899600  0.89857800  1
  O  O52  1  0.60146600  0.95156500  0.58969000  1
  O  O53  1  0.45378200  0.29598300  0.35209500  1
  O  O54  1  0.66289100  0.98498400  0.79947900  1
  O  O55  1  0.53845800  0.26206300  0.63404900  1
  O  O56  1  0.46159100  0.73555900  0.36763600  1
  O  O57  1  0.34229900  0.01231100  0.20040900  1
  O  O58  1  0.54297200  0.70186200  0.64742600  1
  O  O59  1  0.40278200  0.04649300  0.41123600  1
  O  O60  1  0.29576300  0.45332900  0.10237200  1
  O  O61  1  0.14324700  0.15710100  0.05505400  1
  O  O62  1  0.45031100  0.29680200  0.85225900  1
  O  O63  1  0.25850000  0.53604400  0.38456200  1
  O  O64  1  0.46300500  0.73896500  0.86499300  1
  O  O65  1  0.34438300  0.01172400  0.70609500  1
  O  O66  1  0.39121200  0.05242500  0.91538700  1
  O  O67  1  0.29830700  0.45646500  0.60290600  1
  O  O68  1  0.15611700  0.14368100  0.30252700  1
  O  O69  1  0.17434700  0.73948700  0.26503800  1
  O  O70  1  0.25948100  0.82712100  0.48403300  1
  O  O71  1  0.04549900  0.40485000  0.16263700  1
  O  O72  1  0.15848800  0.15675100  0.55566700  1
  O  O73  1  0.26091300  0.53939900  0.88469800  1
  O  O74  1  0.14960300  0.14576300  0.79884500  1
  O  O75  1  0.17399000  0.74327300  0.76652800  1
  O  O76  1  0.01421500  0.33658100  0.45199700  1
  O  O77  1  0.26383300  0.82755100  0.98720100  1
  O  O78  1  0.04853700  0.40114100  0.66181700  1
  O  O79  1  0.01161100  0.34107400  0.95144500  1
