# generated using pymatgen
data_Li3Mn2Cr2O8
_symmetry_space_group_name_H-M   'P 1'
_cell_length_a   6.00939000
_cell_length_b   10.22519502
_cell_length_c   10.26010924
_cell_angle_alpha   108.31073016
_cell_angle_beta   90.24057341
_cell_angle_gamma   90.73835143
_symmetry_Int_Tables_number   1
_chemical_formula_structural   Li3Mn2Cr2O8
_chemical_formula_sum   'Li12 Mn8 Cr8 O32'
_cell_volume   598.46050783
_cell_formula_units_Z   4
loop_
 _symmetry_equiv_pos_site_id
 _symmetry_equiv_pos_as_xyz
  1  'x, y, z'
loop_
 _atom_site_type_symbol
 _atom_site_label
 _atom_site_symmetry_multiplicity
 _atom_site_fract_x
 _atom_site_fract_y
 _atom_site_fract_z
 _atom_site_occupancy
  Li  Li0  1  0.75177300  0.00138100  0.75642600  1
  Li  Li1  1  0.75110100  0.49321800  0.24477900  1
  Li  Li2  1  0.01044700  0.25685800  0.25074900  1
  Li  Li3  1  0.98955300  0.74314200  0.74925100  1
  Li  Li4  1  0.25600900  0.75342100  0.00565400  1
  Li  Li5  1  0.24822700  0.99861900  0.24357400  1
  Li  Li6  1  0.25249000  0.25147200  0.49741100  1
  Li  Li7  1  0.24889900  0.50678200  0.75522100  1
  Li  Li8  1  0.49737800  0.24951100  0.75376300  1
  Li  Li9  1  0.50262200  0.75048900  0.24623700  1
  Li  Li10  1  0.74399100  0.24657900  0.99434600  1
  Li  Li11  1  0.74751000  0.74852800  0.50258900  1
  Mn  Mn12  1  0.74997500  0.25025900  0.49908900  1
  Mn  Mn13  1  0.75422600  0.74961100  0.99802200  1
  Mn  Mn14  1  0.00000000  0.00000000  0.50000000  1
  Mn  Mn15  1  0.00000000  0.50000000  0.00000000  1
  Mn  Mn16  1  0.25002500  0.74974100  0.50091100  1
  Mn  Mn17  1  0.24577400  0.25038900  0.00197800  1
  Mn  Mn18  1  0.50000000  0.00000000  0.00000000  1
  Mn  Mn19  1  0.50000000  0.50000000  0.00000000  1
  Cr  Cr20  1  0.00000000  0.00000000  0.00000000  1
  Cr  Cr21  1  0.00000000  0.50000000  0.50000000  1
  Cr  Cr22  1  0.25048300  0.99819300  0.75128800  1
  Cr  Cr23  1  0.25275500  0.50582400  0.25104700  1
  Cr  Cr24  1  0.50000000  0.00000000  0.50000000  1
  Cr  Cr25  1  0.50000000  0.50000000  0.50000000  1
  Cr  Cr26  1  0.74951700  0.00180700  0.24871200  1
  Cr  Cr27  1  0.74724500  0.49417600  0.74895300  1
  O  O28  1  0.75301200  0.37837300  0.39286600  1
  O  O29  1  0.77107500  0.86946600  0.88624100  1
  O  O30  1  0.74283800  0.61555500  0.10266000  1
  O  O31  1  0.98026300  0.12472900  0.38389700  1
  O  O32  1  0.97715000  0.88282500  0.12395400  1
  O  O33  1  0.02285000  0.11717500  0.87604600  1
  O  O34  1  0.97219000  0.37383600  0.61470500  1
  O  O35  1  0.01973700  0.87527100  0.61610300  1
  O  O36  1  0.99251900  0.60514300  0.87094700  1
  O  O37  1  0.00748100  0.39485700  0.12905300  1
  O  O38  1  0.02781000  0.62616400  0.38529500  1
  O  O39  1  0.22892500  0.13053400  0.11375900  1
  O  O40  1  0.24773700  0.88217100  0.39493000  1
  O  O41  1  0.25716200  0.38444500  0.89734000  1
  O  O42  1  0.25235900  0.89322700  0.88930000  1
  O  O43  1  0.24698300  0.10448300  0.61172600  1
  O  O44  1  0.24430400  0.39429000  0.38346500  1
  O  O45  1  0.24698800  0.62162700  0.60713400  1
  O  O46  1  0.28416300  0.61579800  0.11854600  1
  O  O47  1  0.49284800  0.11215200  0.87117800  1
  O  O48  1  0.47252800  0.87591500  0.61527000  1
  O  O49  1  0.52747200  0.12408500  0.38473000  1
  O  O50  1  0.50715200  0.88784800  0.12882200  1
  O  O51  1  0.48164800  0.38835900  0.12058400  1
  O  O52  1  0.47957600  0.63010300  0.38503900  1
  O  O53  1  0.52042400  0.36989700  0.61496100  1
  O  O54  1  0.51835200  0.61164100  0.87941600  1
  O  O55  1  0.75301700  0.89551700  0.38827400  1
  O  O56  1  0.74764100  0.10677300  0.11070000  1
  O  O57  1  0.75226300  0.11782900  0.60507000  1
  O  O58  1  0.71583700  0.38420200  0.88145400  1
  O  O59  1  0.75569600  0.60571000  0.61653500  1
