# generated using pymatgen
data_Li2AlVO4
_symmetry_space_group_name_H-M   'P 1'
_cell_length_a   5.08771100
_cell_length_b   6.49137200
_cell_length_c   11.07009000
_cell_angle_alpha   90.00000000
_cell_angle_beta   90.00000000
_cell_angle_gamma   90.00000000
_symmetry_Int_Tables_number   1
_chemical_formula_structural   Li2AlVO4
_chemical_formula_sum   'Li8 Al4 V4 O16'
_cell_volume   365.60328012
_cell_formula_units_Z   4
loop_
 _symmetry_equiv_pos_site_id
 _symmetry_equiv_pos_as_xyz
  1  'x, y, z'
loop_
 _atom_site_type_symbol
 _atom_site_label
 _atom_site_symmetry_multiplicity
 _atom_site_fract_x
 _atom_site_fract_y
 _atom_site_fract_z
 _atom_site_occupancy
  Li  Li0  1  0.24443600  0.86900300  0.08082300  1
  Li  Li1  1  0.69060700  0.11730200  0.16363000  1
  Li  Li2  1  0.19060700  0.61730200  0.33637000  1
  Li  Li3  1  0.74443600  0.36900300  0.41917700  1
  Li  Li4  1  0.25556400  0.86900300  0.58082300  1
  Li  Li5  1  0.80939300  0.11730200  0.66363000  1
  Li  Li6  1  0.30939300  0.61730200  0.83637000  1
  Li  Li7  1  0.75556400  0.36900300  0.91917700  1
  Al  Al8  1  0.18426400  0.36649300  0.08530500  1
  Al  Al9  1  0.68426400  0.86649300  0.41469500  1
  Al  Al10  1  0.31573600  0.36649300  0.58530500  1
  Al  Al11  1  0.81573600  0.86649300  0.91469500  1
  V  V12  1  0.68849700  0.61959500  0.16823400  1
  V  V13  1  0.18849700  0.11959500  0.33176600  1
  V  V14  1  0.81150300  0.61959500  0.66823400  1
  V  V15  1  0.31150300  0.11959500  0.83176600  1
  O  O16  1  0.74685800  0.86068500  0.07148700  1
  O  O17  1  0.83308400  0.37500100  0.09468900  1
  O  O18  1  0.30372200  0.59255900  0.15859800  1
  O  O19  1  0.29365800  0.14145600  0.16337200  1
  O  O20  1  0.79365800  0.64145600  0.33662800  1
  O  O21  1  0.80372200  0.09255900  0.34140200  1
  O  O22  1  0.33308400  0.87500100  0.40531100  1
  O  O23  1  0.24685800  0.36068500  0.42851300  1
  O  O24  1  0.75314200  0.86068500  0.57148700  1
  O  O25  1  0.66691600  0.37500100  0.59468900  1
  O  O26  1  0.19627800  0.59255900  0.65859800  1
  O  O27  1  0.20634200  0.14145600  0.66337200  1
  O  O28  1  0.70634200  0.64145600  0.83662800  1
  O  O29  1  0.69627800  0.09255900  0.84140200  1
  O  O30  1  0.16691600  0.87500100  0.90531100  1
  O  O31  1  0.25314200  0.36068500  0.92851300  1
