# generated using pymatgen
data_LiCoPO4
_symmetry_space_group_name_H-M   'P 1'
_cell_length_a   5.13927123
_cell_length_b   9.55536345
_cell_length_c   6.07681800
_cell_angle_alpha   89.99989455
_cell_angle_beta   90.00026583
_cell_angle_gamma   83.89328715
_symmetry_Int_Tables_number   1
_chemical_formula_structural   LiCoPO4
_chemical_formula_sum   'Li4 Co4 P4 O16'
_cell_volume   296.72459829
_cell_formula_units_Z   4
loop_
 _symmetry_equiv_pos_site_id
 _symmetry_equiv_pos_as_xyz
  1  'x, y, z'
loop_
 _atom_site_type_symbol
 _atom_site_label
 _atom_site_symmetry_multiplicity
 _atom_site_fract_x
 _atom_site_fract_y
 _atom_site_fract_z
 _atom_site_occupancy
  Li  Li0  1  0.15883400  0.92835200  0.63909900  1
  Li  Li1  1  0.34116800  0.57165100  0.13909200  1
  Li  Li2  1  0.65883500  0.42835200  0.86090100  1
  Li  Li3  1  0.84116800  0.07165200  0.36090800  1
  Co  Co4  1  0.29605400  0.15826200  0.11187300  1
  Co  Co5  1  0.79605600  0.65826200  0.38812800  1
  Co  Co6  1  0.20400100  0.34170200  0.61189500  1
  Co  Co7  1  0.70399400  0.84170000  0.88811000  1
  P  P8  1  0.25680700  0.63702100  0.64929300  1
  P  P9  1  0.24316200  0.86297800  0.14927500  1
  P  P10  1  0.75680500  0.13702400  0.85070500  1
  P  P11  1  0.74316600  0.36297700  0.35072600  1
  O  O12  1  0.00561500  0.74507300  0.66516100  1
  O  O13  1  0.50561300  0.24507300  0.83483800  1
  O  O14  1  0.49438700  0.75495300  0.16512200  1
  O  O15  1  0.99439200  0.25495600  0.33487800  1
  O  O16  1  0.99974800  0.77873500  0.13867700  1
  O  O17  1  0.49975200  0.27873600  0.36132500  1
  O  O18  1  0.50024900  0.72124500  0.63872000  1
  O  O19  1  0.00024700  0.22124400  0.86127800  1
  O  O20  1  0.21758600  0.55311700  0.43367300  1
  O  O21  1  0.28242000  0.94693100  0.93370900  1
  O  O22  1  0.71758700  0.05311900  0.06632700  1
  O  O23  1  0.78242000  0.44692800  0.56629000  1
  O  O24  1  0.28134500  0.52494000  0.83449700  1
  O  O25  1  0.21861900  0.97503800  0.33453800  1
  O  O26  1  0.78135100  0.02494200  0.66550000  1
  O  O27  1  0.71861900  0.47503800  0.16546200  1
