# generated using pymatgen
data_LiVP2O7
_symmetry_space_group_name_H-M   'P 1'
_cell_length_a   10.23910300
_cell_length_b   7.09458000
_cell_length_c   8.09718565
_cell_angle_alpha   68.30917008
_cell_angle_beta   90.00000000
_cell_angle_gamma   90.00000000
_symmetry_Int_Tables_number   1
_chemical_formula_structural   LiVP2O7
_chemical_formula_sum   'Li4 V4 P8 O28'
_cell_volume   546.54765844
_cell_formula_units_Z   4
loop_
 _symmetry_equiv_pos_site_id
 _symmetry_equiv_pos_as_xyz
  1  'x, y, z'
loop_
 _atom_site_type_symbol
 _atom_site_label
 _atom_site_symmetry_multiplicity
 _atom_site_fract_x
 _atom_site_fract_y
 _atom_site_fract_z
 _atom_site_occupancy
  Li  Li0  1  0.15013600  0.62951900  0.93934800  1
  Li  Li1  1  0.34986400  0.62951900  0.43934800  1
  Li  Li2  1  0.65013600  0.37048100  0.56065200  1
  Li  Li3  1  0.84986400  0.37048100  0.06065200  1
  V  V4  1  0.60640400  0.73068100  0.74330000  1
  V  V5  1  0.89359600  0.73068100  0.24330000  1
  V  V6  1  0.10640400  0.26931900  0.75670000  1
  V  V7  1  0.39359600  0.26931900  0.25670000  1
  P  P8  1  0.85101400  0.97142700  0.79388700  1
  P  P9  1  0.64898600  0.97142700  0.29388700  1
  P  P10  1  0.90576800  0.63832700  0.68619300  1
  P  P11  1  0.59423200  0.63832700  0.18619300  1
  P  P12  1  0.40576800  0.36167300  0.81380700  1
  P  P13  1  0.09423200  0.36167300  0.31380700  1
  P  P14  1  0.35101400  0.02857300  0.70611300  1
  P  P15  1  0.14898600  0.02857300  0.20611300  1
  O  O16  1  0.70743500  0.00141700  0.73556400  1
  O  O17  1  0.87224000  0.81962500  0.98334800  1
  O  O18  1  0.42168500  0.82873900  0.73989100  1
  O  O19  1  0.92371700  0.87214700  0.66566800  1
  O  O20  1  0.79256500  0.00141700  0.23556400  1
  O  O21  1  0.62776000  0.81962500  0.48334800  1
  O  O22  1  0.60165900  0.62759000  0.00464400  1
  O  O23  1  0.07831500  0.82873900  0.23989100  1
  O  O24  1  0.57628300  0.87214700  0.16566800  1
  O  O25  1  0.77927900  0.55919300  0.79407500  1
  O  O26  1  0.89834100  0.62759000  0.50464400  1
  O  O27  1  0.02525900  0.52646100  0.79366000  1
  O  O28  1  0.52525900  0.47353900  0.70634000  1
  O  O29  1  0.72072100  0.55919300  0.29407500  1
  O  O30  1  0.27927900  0.44080700  0.70592500  1
  O  O31  1  0.47474100  0.52646100  0.29366000  1
  O  O32  1  0.97474100  0.47353900  0.20634000  1
  O  O33  1  0.10165900  0.37241000  0.49535600  1
  O  O34  1  0.22072100  0.44080700  0.20592500  1
  O  O35  1  0.42371700  0.12785300  0.83433200  1
  O  O36  1  0.92168500  0.17126100  0.76010900  1
  O  O37  1  0.39834100  0.37241000  0.99535600  1
  O  O38  1  0.37224000  0.18037500  0.51665200  1
  O  O39  1  0.20743500  0.99858300  0.76443600  1
  O  O40  1  0.07628300  0.12785300  0.33433200  1
  O  O41  1  0.57831500  0.17126100  0.26010900  1
  O  O42  1  0.12776000  0.18037500  0.01665200  1
  O  O43  1  0.29256500  0.99858300  0.26443600  1
