# generated using pymatgen
data_LiCoPO4
_symmetry_space_group_name_H-M   'P 1'
_cell_length_a   5.15147159
_cell_length_b   9.35399131
_cell_length_c   8.96942983
_cell_angle_alpha   90.02469192
_cell_angle_beta   90.02067614
_cell_angle_gamma   89.17066292
_symmetry_Int_Tables_number   1
_chemical_formula_structural   LiCoPO4
_chemical_formula_sum   'Li4 Co4 P4 O16'
_cell_volume   432.16296164
_cell_formula_units_Z   4
loop_
 _symmetry_equiv_pos_site_id
 _symmetry_equiv_pos_as_xyz
  1  'x, y, z'
loop_
 _atom_site_type_symbol
 _atom_site_label
 _atom_site_symmetry_multiplicity
 _atom_site_fract_x
 _atom_site_fract_y
 _atom_site_fract_z
 _atom_site_occupancy
  Li  Li0  1  0.49519400  0.74259100  0.50026600  1
  Li  Li1  1  0.99518000  0.74264300  0.00019300  1
  Li  Li2  1  0.99516700  0.24267600  0.99968900  1
  Li  Li3  1  0.49512900  0.24274000  0.49973400  1
  Co  Co4  1  0.99687400  0.34710600  0.66663100  1
  Co  Co5  1  0.49701900  0.84716000  0.83342200  1
  Co  Co6  1  0.49687100  0.34733700  0.16659900  1
  Co  Co7  1  0.99693900  0.84734200  0.33346200  1
  P  P8  1  0.50093600  0.71230500  0.16966300  1
  P  P9  1  0.00079800  0.71208300  0.66964000  1
  P  P10  1  0.00088100  0.21235000  0.33032800  1
  P  P11  1  0.50078900  0.21217800  0.83030600  1
  O  O12  1  0.63391600  0.77039700  0.02610600  1
  O  O13  1  0.13381500  0.77002600  0.52598500  1
  O  O14  1  0.13390900  0.27053100  0.47410600  1
  O  O15  1  0.63385700  0.27019300  0.97399000  1
  O  O16  1  0.53188300  0.55013400  0.17582700  1
  O  O17  1  0.03113600  0.54992200  0.67601600  1
  O  O18  1  0.03180400  0.05015300  0.32402200  1
  O  O19  1  0.53151400  0.05003800  0.82394700  1
  O  O20  1  0.63315900  0.77973700  0.30943000  1
  O  O21  1  0.13339500  0.77943900  0.80932200  1
  O  O22  1  0.13303100  0.27980200  0.19056400  1
  O  O23  1  0.63310100  0.27959400  0.69070000  1
  O  O24  1  0.20870400  0.75843900  0.16925700  1
  O  O25  1  0.70859800  0.75833700  0.66927800  1
  O  O26  1  0.70845900  0.25829600  0.33077000  1
  O  O27  1  0.20854300  0.25824600  0.83074800  1
