# generated using pymatgen
data_K2Li3MnO4
_symmetry_space_group_name_H-M   'P 1'
_cell_length_a   8.97181200
_cell_length_b   5.54791400
_cell_length_c   10.98508234
_cell_angle_alpha   71.86796849
_cell_angle_beta   90.00000000
_cell_angle_gamma   90.00000000
_symmetry_Int_Tables_number   1
_chemical_formula_structural   K2Li3MnO4
_chemical_formula_sum   'K8 Li12 Mn4 O16'
_cell_volume   519.62863788
_cell_formula_units_Z   4
loop_
 _symmetry_equiv_pos_site_id
 _symmetry_equiv_pos_as_xyz
  1  'x, y, z'
loop_
 _atom_site_type_symbol
 _atom_site_label
 _atom_site_symmetry_multiplicity
 _atom_site_fract_x
 _atom_site_fract_y
 _atom_site_fract_z
 _atom_site_occupancy
  K  K0  1  0.22699200  0.71458400  0.89222700  1
  K  K1  1  0.49025900  0.70803100  0.63784500  1
  K  K2  1  0.27300800  0.71458400  0.39222700  1
  K  K3  1  0.99025900  0.29196900  0.86215500  1
  K  K4  1  0.00974100  0.70803100  0.13784500  1
  K  K5  1  0.72699200  0.28541600  0.60777300  1
  K  K6  1  0.50974100  0.29196900  0.36215500  1
  K  K7  1  0.77300800  0.28541600  0.10777300  1
  Li  Li8  1  0.96411500  0.90514800  0.70543800  1
  Li  Li9  1  0.73488600  0.62135400  0.80027200  1
  Li  Li10  1  0.53588500  0.90514800  0.20543800  1
  Li  Li11  1  0.50538600  0.37934800  0.92679100  1
  Li  Li12  1  0.00538600  0.62065200  0.57320900  1
  Li  Li13  1  0.23488600  0.37864600  0.69972800  1
  Li  Li14  1  0.76511400  0.62135400  0.30027200  1
  Li  Li15  1  0.99461400  0.37934800  0.42679100  1
  Li  Li16  1  0.49461400  0.62065200  0.07320900  1
  Li  Li17  1  0.46411500  0.09485200  0.79456200  1
  Li  Li18  1  0.26511400  0.37864600  0.19972800  1
  Li  Li19  1  0.03588500  0.09485200  0.29456200  1
  Mn  Mn20  1  0.70646600  0.91016700  0.94226700  1
  Mn  Mn21  1  0.79353400  0.91016700  0.44226700  1
  Mn  Mn22  1  0.20646600  0.08983300  0.55773300  1
  Mn  Mn23  1  0.29353400  0.08983300  0.05773300  1
  O  O24  1  0.89189100  0.79809800  0.88794200  1
  O  O25  1  0.53796200  0.74742100  0.88220800  1
  O  O26  1  0.80737700  0.74665300  0.62266100  1
  O  O27  1  0.17141100  0.74265900  0.65409500  1
  O  O28  1  0.60810900  0.79809800  0.38794200  1
  O  O29  1  0.96203800  0.74742100  0.38220800  1
  O  O30  1  0.67141100  0.25734100  0.84590500  1
  O  O31  1  0.30737700  0.25334700  0.87733900  1
  O  O32  1  0.69262300  0.74665300  0.12266100  1
  O  O33  1  0.32858900  0.74265900  0.15409500  1
  O  O34  1  0.03796200  0.25257900  0.61779200  1
  O  O35  1  0.39189100  0.20190200  0.61205800  1
  O  O36  1  0.82858900  0.25734100  0.34590500  1
  O  O37  1  0.19262300  0.25334700  0.37733900  1
  O  O38  1  0.46203800  0.25257900  0.11779200  1
  O  O39  1  0.10810900  0.20190200  0.11205800  1
