# generated using pymatgen
data_Li5V3P8O29
_symmetry_space_group_name_H-M   'P 1'
_cell_length_a   9.77410800
_cell_length_b   9.78599858
_cell_length_c   14.02581618
_cell_angle_alpha   89.58628808
_cell_angle_beta   89.69556224
_cell_angle_gamma   60.14417589
_symmetry_Int_Tables_number   1
_chemical_formula_structural   Li5V3P8O29
_chemical_formula_sum   'Li10 V6 P16 O58'
_cell_volume   1163.47752574
_cell_formula_units_Z   2
loop_
 _symmetry_equiv_pos_site_id
 _symmetry_equiv_pos_as_xyz
  1  'x, y, z'
loop_
 _atom_site_type_symbol
 _atom_site_label
 _atom_site_symmetry_multiplicity
 _atom_site_fract_x
 _atom_site_fract_y
 _atom_site_fract_z
 _atom_site_occupancy
  Li  Li0  1  0.22821000  0.09447500  0.55691000  1
  Li  Li1  1  0.08665900  0.68358100  0.56092500  1
  Li  Li2  1  0.23736100  0.66098200  0.06108900  1
  Li  Li3  1  0.66800300  0.09343500  0.06317700  1
  Li  Li4  1  0.31835900  0.77299400  0.43782900  1
  Li  Li5  1  0.68167000  0.22395200  0.55594200  1
  Li  Li6  1  0.33088500  0.90720300  0.94118900  1
  Li  Li7  1  0.76579200  0.33670100  0.94193100  1
  Li  Li8  1  0.90374600  0.32543000  0.43695600  1
  Li  Li9  1  0.99860700  0.99959500  0.00372900  1
  V  V10  1  0.43278100  0.56643100  0.25179300  1
  V  V11  1  0.56852400  0.43140500  0.74783300  1
  V  V12  1  0.43485900  0.00142700  0.74922100  1
  V  V13  1  0.56772200  0.99477400  0.25301000  1
  V  V14  1  0.00587200  0.43320500  0.24267900  1
  V  V15  1  0.99431500  0.56977100  0.75693000  1
  P  P16  1  0.08378800  0.22251800  0.84010500  1
  P  P17  1  0.22796400  0.08960900  0.33850500  1
  P  P18  1  0.08509300  0.68157900  0.34590400  1
  P  P19  1  0.33671400  0.33302700  0.12777400  1
  P  P20  1  0.32805800  0.33776800  0.63053100  1
  P  P21  1  0.22836000  0.68472900  0.84105300  1
  P  P22  1  0.32075400  0.76909100  0.65784100  1
  P  P23  1  0.68616800  0.08703800  0.84610200  1
  P  P24  1  0.31340700  0.91263900  0.15621600  1
  P  P25  1  0.68092100  0.22807200  0.34123400  1
  P  P26  1  0.77387300  0.31541600  0.15915800  1
  P  P27  1  0.67022100  0.66148100  0.36942100  1
  P  P28  1  0.66416600  0.66428600  0.87283100  1
  P  P29  1  0.91447300  0.31964500  0.65480100  1
  P  P30  1  0.77306200  0.91392800  0.66231100  1
  P  P31  1  0.91731400  0.77890500  0.15985000  1
  O  O32  1  0.00208900  0.24856200  0.56364600  1
  O  O33  1  0.07833600  0.25570200  0.33767900  1
  O  O34  1  0.22394900  0.98505900  0.06588100  1
  O  O35  1  0.25524200  0.08346200  0.83969600  1
  O  O36  1  0.08275600  0.38210900  0.82996300  1
  O  O37  1  0.18943400  0.32731400  0.17537900  1
  O  O38  1  0.09524900  0.52189300  0.32068100  1
  O  O39  1  0.01327300  0.78594600  0.07825700  1
  O  O40  1  0.08293800  0.65972000  0.83551400  1
  O  O41  1  0.32422600  0.18782000  0.66956500  1
  O  O42  1  0.37506300  0.10456500  0.32218100  1
  O  O43  1  0.18165600  0.48651000  0.67677500  1
  O  O44  1  0.32553300  0.33815400  0.02161200  1
  O  O45  1  0.31982800  0.34541500  0.52418300  1
  O  O46  1  0.32388700  0.48831100  0.16707600  1
  O  O47  1  0.52957300  0.08972600  0.83185900  1
  O  O48  1  0.48934600  0.18622400  0.16670300  1
  O  O49  1  0.25156600  0.66445800  0.34103100  1
  O  O50  1  0.20815500  0.79326900  0.74850700  1
  O  O51  1  0.24561400  0.75311000  0.56862900  1
  O  O52  1  0.21973600  0.77602800  0.92938400  1
  O  O53  1  0.38099000  0.52902600  0.82996900  1
  O  O54  1  0.48386100  0.32945600  0.66768700  1
  O  O55  1  0.34163900  0.74124500  0.16386200  1
  O  O56  1  0.52156500  0.38131100  0.32165300  1
  O  O57  1  0.65680000  0.08684700  0.34020000  1
  O  O58  1  0.20494100  0.00031000  0.24878700  1
  O  O59  1  0.23795900  0.00129000  0.42919200  1
  O  O60  1  0.76718700  0.00676900  0.57678500  1
  O  O61  1  0.33734300  0.91781800  0.65669300  1
  O  O62  1  0.48137200  0.62051500  0.67813700  1
  O  O63  1  0.66151200  0.25712400  0.83424800  1
  O  O64  1  0.51325100  0.67118100  0.33250800  1
  O  O65  1  0.62047100  0.47070400  0.16912300  1
  O  O66  1  0.78320600  0.22327900  0.07065800  1
  O  O67  1  0.75556100  0.24666400  0.43016600  1
  O  O68  1  0.79439800  0.20681700  0.25108900  1
  O  O69  1  0.74947300  0.33533800  0.65563400  1
  O  O70  1  0.51167300  0.81021500  0.83395200  1
  O  O71  1  0.46851800  0.91391000  0.16681000  1
  O  O72  1  0.67816400  0.50913200  0.83235500  1
  O  O73  1  0.67555700  0.65822700  0.97894100  1
  O  O74  1  0.67535600  0.65450400  0.47567900  1
  O  O75  1  0.81725400  0.51349900  0.32434700  1
  O  O76  1  0.62043200  0.90445400  0.67869000  1
  O  O77  1  0.66863200  0.81089500  0.32390700  1
  O  O78  1  0.91757700  0.34202900  0.16400700  1
  O  O79  1  0.00982600  0.20262700  0.74156400  1
  O  O80  1  0.99125800  0.21207700  0.92207600  1
  O  O81  1  0.90441000  0.47891600  0.67807200  1
  O  O82  1  0.81154900  0.67073200  0.82485900  1
  O  O83  1  0.91874800  0.61840300  0.16972900  1
  O  O84  1  0.74773000  0.91648400  0.15782300  1
  O  O85  1  0.76998100  0.01962600  0.93814400  1
  O  O86  1  0.79889300  0.98998900  0.75801200  1
  O  O87  1  0.91800200  0.74377100  0.66287000  1
  O  O88  1  0.00447700  0.74788700  0.43799800  1
  O  O89  1  0.99017800  0.79761800  0.25869500  1
