# generated using pymatgen
data_Li9Mn10O20
_symmetry_space_group_name_H-M   'P 1'
_cell_length_a   5.13076100
_cell_length_b   7.95721245
_cell_length_c   10.58464303
_cell_angle_alpha   105.63652019
_cell_angle_beta   101.21512979
_cell_angle_gamma   105.78322504
_symmetry_Int_Tables_number   1
_chemical_formula_structural   Li9Mn10O20
_chemical_formula_sum   'Li9 Mn10 O20'
_cell_volume   383.36518907
_cell_formula_units_Z   1
loop_
 _symmetry_equiv_pos_site_id
 _symmetry_equiv_pos_as_xyz
  1  'x, y, z'
loop_
 _atom_site_type_symbol
 _atom_site_label
 _atom_site_symmetry_multiplicity
 _atom_site_fract_x
 _atom_site_fract_y
 _atom_site_fract_z
 _atom_site_occupancy
  Li  Li0  1  0.78139500  0.55952200  0.75108700  1
  Li  Li1  1  0.78729400  0.58265600  0.25752300  1
  Li  Li2  1  0.62340400  0.23178700  0.26009300  1
  Li  Li3  1  0.99944800  0.49218300  0.98869200  1
  Li  Li4  1  0.99472100  0.49719600  0.50432500  1
  Li  Li5  1  0.37209700  0.76787700  0.74052500  1
  Li  Li6  1  0.21658100  0.39722300  0.74653400  1
  Li  Li7  1  0.21325200  0.42062700  0.24984100  1
  Li  Li8  1  0.39181000  0.77654000  0.24415800  1
  Mn  Mn9  1  0.99097000  0.00194800  0.74842000  1
  Mn  Mn10  1  0.00607200  0.00690900  0.25001000  1
  Mn  Mn11  1  0.41333100  0.31070200  0.49966500  1
  Mn  Mn12  1  0.42028200  0.31283200  0.99912000  1
  Mn  Mn13  1  0.80607500  0.11256600  0.99782700  1
  Mn  Mn14  1  0.19759400  0.89297100  0.50075000  1
  Mn  Mn15  1  0.79351200  0.10586100  0.49919900  1
  Mn  Mn16  1  0.20434800  0.89876600  0.00297600  1
  Mn  Mn17  1  0.58690900  0.69136600  0.00257900  1
  Mn  Mn18  1  0.58289700  0.68551800  0.50175300  1
  O  O19  1  0.14680600  0.11949400  0.62235000  1
  O  O20  1  0.17249500  0.12819500  0.12521800  1
  O  O21  1  0.60501500  0.47567100  0.88873300  1
  O  O22  1  0.39868300  0.04752300  0.90392600  1
  O  O23  1  0.60553200  0.46860300  0.38113800  1
  O  O24  1  0.42058200  0.06952600  0.38358700  1
  O  O25  1  0.97419900  0.76334400  0.62603800  1
  O  O26  1  0.78537000  0.33763200  0.60656000  1
  O  O27  1  0.00246900  0.77867300  0.11405500  1
  O  O28  1  0.78461200  0.33456600  0.11476300  1
  O  O29  1  0.21713500  0.67490100  0.88759500  1
  O  O30  1  0.04016200  0.24337500  0.88051800  1
  O  O31  1  0.22252800  0.67081300  0.38080400  1
  O  O32  1  0.02339300  0.24033100  0.37253700  1
  O  O33  1  0.56764000  0.92119500  0.61251700  1
  O  O34  1  0.39355300  0.52995700  0.61877300  1
  O  O35  1  0.57679300  0.93232300  0.11813200  1
  O  O36  1  0.40590800  0.53859600  0.11850800  1
  O  O37  1  0.83698200  0.88411900  0.88000100  1
  O  O38  1  0.83880400  0.87837700  0.37150800  1
