# generated using pymatgen
data_Li2Ge2O5
_symmetry_space_group_name_H-M   'P 1'
_cell_length_a   8.30791724
_cell_length_b   8.30791724
_cell_length_c   5.04363300
_cell_angle_alpha   90.00000000
_cell_angle_beta   90.00000000
_cell_angle_gamma   137.31356205
_symmetry_Int_Tables_number   1
_chemical_formula_structural   Li2Ge2O5
_chemical_formula_sum   'Li4 Ge4 O10'
_cell_volume   236.01974225
_cell_formula_units_Z   2
loop_
 _symmetry_equiv_pos_site_id
 _symmetry_equiv_pos_as_xyz
  1  'x, y, z'
loop_
 _atom_site_type_symbol
 _atom_site_label
 _atom_site_symmetry_multiplicity
 _atom_site_fract_x
 _atom_site_fract_y
 _atom_site_fract_z
 _atom_site_occupancy
  Li  Li0  1  0.09498400  0.20718500  0.60552900  1
  Li  Li1  1  0.20718500  0.09498400  0.10552900  1
  Li  Li2  1  0.79281500  0.90501600  0.10552900  1
  Li  Li3  1  0.90501600  0.79281500  0.60552900  1
  Ge  Ge4  1  0.19392100  0.48625400  0.09868400  1
  Ge  Ge5  1  0.80607900  0.51374600  0.09868400  1
  Ge  Ge6  1  0.51374600  0.80607900  0.59868400  1
  Ge  Ge7  1  0.48625400  0.19392100  0.59868400  1
  O  O8  1  0.77165600  0.90581900  0.49374300  1
  O  O9  1  0.90581900  0.77165600  0.99374300  1
  O  O10  1  0.50000000  0.00000000  0.50531200  1
  O  O11  1  0.22834400  0.09418100  0.49374300  1
  O  O12  1  0.00000000  0.50000000  0.00531200  1
  O  O13  1  0.52311700  0.25364900  0.94942200  1
  O  O14  1  0.25364900  0.52311700  0.44942200  1
  O  O15  1  0.74635100  0.47688300  0.44942200  1
  O  O16  1  0.47688300  0.74635100  0.94942200  1
  O  O17  1  0.09418100  0.22834400  0.99374300  1
