# generated using pymatgen
data_Li3V(PO4)2
_symmetry_space_group_name_H-M   'P 1'
_cell_length_a   5.06774400
_cell_length_b   12.31485700
_cell_length_c   18.00962000
_cell_angle_alpha   90.00000000
_cell_angle_beta   90.00000000
_cell_angle_gamma   90.00000000
_symmetry_Int_Tables_number   1
_chemical_formula_structural   Li3V(PO4)2
_chemical_formula_sum   'Li24 V8 P16 O64'
_cell_volume   1123.95413829
_cell_formula_units_Z   8
loop_
 _symmetry_equiv_pos_site_id
 _symmetry_equiv_pos_as_xyz
  1  'x, y, z'
loop_
 _atom_site_type_symbol
 _atom_site_label
 _atom_site_symmetry_multiplicity
 _atom_site_fract_x
 _atom_site_fract_y
 _atom_site_fract_z
 _atom_site_occupancy
  Li  Li0  1  0.05348600  0.35306700  0.75109200  1
  Li  Li1  1  0.05348600  0.14693300  0.25109200  1
  Li  Li2  1  0.06700700  0.46116700  0.93970400  1
  Li  Li3  1  0.06700700  0.03883300  0.43970400  1
  Li  Li4  1  0.03834600  0.71537200  0.58152600  1
  Li  Li5  1  0.03834600  0.78462800  0.08152600  1
  Li  Li6  1  0.45259200  0.03288900  0.17973300  1
  Li  Li7  1  0.45259200  0.46711100  0.67973300  1
  Li  Li8  1  0.41394200  0.79158500  0.82819800  1
  Li  Li9  1  0.41394200  0.70841500  0.32819800  1
  Li  Li10  1  0.45965900  0.60755600  0.51425300  1
  Li  Li11  1  0.45965900  0.89244400  0.01425300  1
  Li  Li12  1  0.54034100  0.10755600  0.51425300  1
  Li  Li13  1  0.54034100  0.39244400  0.01425300  1
  Li  Li14  1  0.58605800  0.20841500  0.32819800  1
  Li  Li15  1  0.58605800  0.29158500  0.82819800  1
  Li  Li16  1  0.54740800  0.53288900  0.17973300  1
  Li  Li17  1  0.54740800  0.96711100  0.67973300  1
  Li  Li18  1  0.96165400  0.28462800  0.08152600  1
  Li  Li19  1  0.96165400  0.21537200  0.58152600  1
  Li  Li20  1  0.93299300  0.96116700  0.93970400  1
  Li  Li21  1  0.93299300  0.53883300  0.43970400  1
  Li  Li22  1  0.94651400  0.85306700  0.75109200  1
  Li  Li23  1  0.94651400  0.64693300  0.25109200  1
  V  V24  1  0.08781000  0.09845700  0.76352200  1
  V  V25  1  0.08781000  0.40154300  0.26352200  1
  V  V26  1  0.43014500  0.15200500  0.00742400  1
  V  V27  1  0.43014500  0.34799500  0.50742400  1
  V  V28  1  0.56985500  0.65200500  0.00742400  1
  V  V29  1  0.56985500  0.84799500  0.50742400  1
  V  V30  1  0.91219000  0.59845700  0.76352200  1
  V  V31  1  0.91219000  0.90154300  0.26352200  1
  P  P32  1  0.00227200  0.71913900  0.91991700  1
  P  P33  1  0.00227200  0.78086100  0.41991700  1
  P  P34  1  0.04307200  0.96846100  0.59670700  1
  P  P35  1  0.04307200  0.53153900  0.09670700  1
  P  P36  1  0.44550600  0.72214400  0.67423500  1
  P  P37  1  0.44550600  0.77785600  0.17423500  1
  P  P38  1  0.48142900  0.53262000  0.85070300  1
  P  P39  1  0.48142900  0.96738000  0.35070300  1
  P  P40  1  0.51857100  0.03262000  0.85070300  1
  P  P41  1  0.51857100  0.46738000  0.35070300  1
  P  P42  1  0.55449400  0.22214400  0.67423500  1
  P  P43  1  0.55449400  0.27785600  0.17423500  1
  P  P44  1  0.95692800  0.03153900  0.09670700  1
  P  P45  1  0.95692800  0.46846100  0.59670700  1
  P  P46  1  0.99772800  0.21913900  0.91991700  1
  P  P47  1  0.99772800  0.28086100  0.41991700  1
  O  O48  1  0.00305200  0.48393700  0.68256100  1
  O  O49  1  0.00305200  0.01606300  0.18256100  1
  O  O50  1  0.02938100  0.73548000  0.83432100  1
  O  O51  1  0.02938100  0.76452000  0.33432100  1
  O  O52  1  0.09257800  0.10399000  0.94043400  1
  O  O53  1  0.09257800  0.39601000  0.44043400  1
  O  O54  1  0.07298900  0.56315300  0.55126000  1
  O  O55  1  0.07298900  0.93684700  0.05126000  1
  O  O56  1  0.11369400  0.36259100  0.58036400  1
  O  O57  1  0.11369400  0.13740900  0.08036400  1
  O  O58  1  0.14533800  0.70834100  0.69370400  1
  O  O59  1  0.14533800  0.79165900  0.19370400  1
  O  O60  1  0.20978000  0.29409300  0.95641200  1
  O  O61  1  0.20978000  0.20590700  0.45641200  1
  O  O62  1  0.20943100  0.50524600  0.81596100  1
  O  O63  1  0.20943100  0.99475400  0.31596100  1
  O  O64  1  0.27745800  0.74573300  0.95287200  1
  O  O65  1  0.27745800  0.75426700  0.45287200  1
  O  O66  1  0.30174300  0.54306000  0.31855000  1
  O  O67  1  0.30174300  0.95694000  0.81855000  1
  O  O68  1  0.34442900  0.54530800  0.08017000  1
  O  O69  1  0.34442900  0.95469200  0.58017000  1
  O  O70  1  0.39765000  0.11648700  0.68891400  1
  O  O71  1  0.39765000  0.38351300  0.18891400  1
  O  O72  1  0.43524300  0.18246200  0.21759000  1
  O  O73  1  0.43524300  0.31753800  0.71759000  1
  O  O74  1  0.44739200  0.98138800  0.43685200  1
  O  O75  1  0.44739200  0.51861200  0.93685200  1
  O  O76  1  0.45295800  0.73636700  0.58730900  1
  O  O77  1  0.45295800  0.76363300  0.08730900  1
  O  O78  1  0.42536900  0.14741900  0.82897200  1
  O  O79  1  0.42536900  0.35258100  0.32897200  1
  O  O80  1  0.57463100  0.64741900  0.82897200  1
  O  O81  1  0.57463100  0.85258100  0.32897200  1
  O  O82  1  0.54704200  0.26363300  0.08730900  1
  O  O83  1  0.54704200  0.23636700  0.58730900  1
  O  O84  1  0.55260800  0.48138800  0.43685200  1
  O  O85  1  0.55260800  0.01861200  0.93685200  1
  O  O86  1  0.56475700  0.68246200  0.21759000  1
  O  O87  1  0.56475700  0.81753800  0.71759000  1
  O  O88  1  0.60235000  0.61648700  0.68891400  1
  O  O89  1  0.60235000  0.88351300  0.18891400  1
  O  O90  1  0.65557100  0.04530800  0.08017000  1
  O  O91  1  0.65557100  0.45469200  0.58017000  1
  O  O92  1  0.69825700  0.45694000  0.81855000  1
  O  O93  1  0.69825700  0.04306000  0.31855000  1
  O  O94  1  0.72254200  0.25426700  0.45287200  1
  O  O95  1  0.72254200  0.24573300  0.95287200  1
  O  O96  1  0.79056900  0.49475400  0.31596100  1
  O  O97  1  0.79056900  0.00524600  0.81596100  1
  O  O98  1  0.79022000  0.79409300  0.95641200  1
  O  O99  1  0.79022000  0.70590700  0.45641200  1
  O  O100  1  0.85466200  0.20834100  0.69370400  1
  O  O101  1  0.85466200  0.29165900  0.19370400  1
  O  O102  1  0.88630600  0.63740900  0.08036400  1
  O  O103  1  0.88630600  0.86259100  0.58036400  1
  O  O104  1  0.92701100  0.43684700  0.05126000  1
  O  O105  1  0.92701100  0.06315300  0.55126000  1
  O  O106  1  0.90742200  0.60399000  0.94043400  1
  O  O107  1  0.90742200  0.89601000  0.44043400  1
  O  O108  1  0.97061900  0.23548000  0.83432100  1
  O  O109  1  0.97061900  0.26452000  0.33432100  1
  O  O110  1  0.99694800  0.51606300  0.18256100  1
  O  O111  1  0.99694800  0.98393700  0.68256100  1
