# generated using pymatgen
data_Li8Ti6Mn7O30
_symmetry_space_group_name_H-M   'P 1'
_cell_length_a   5.00847921
_cell_length_b   5.00847921
_cell_length_c   23.66133300
_cell_angle_alpha   90.00000000
_cell_angle_beta   90.00000000
_cell_angle_gamma   119.99998954
_symmetry_Int_Tables_number   1
_chemical_formula_structural   Li8Ti6Mn7O30
_chemical_formula_sum   'Li8 Ti6 Mn7 O30'
_cell_volume   514.02191537
_cell_formula_units_Z   1
loop_
 _symmetry_equiv_pos_site_id
 _symmetry_equiv_pos_as_xyz
  1  'x, y, z'
loop_
 _atom_site_type_symbol
 _atom_site_label
 _atom_site_symmetry_multiplicity
 _atom_site_fract_x
 _atom_site_fract_y
 _atom_site_fract_z
 _atom_site_occupancy
  Li  Li0  1  0.00000000  0.00000000  0.92017500  1
  Li  Li1  1  0.00000000  0.00000000  0.62584500  1
  Li  Li2  1  0.00000000  0.00000000  0.37260000  1
  Li  Li3  1  0.00000000  0.00000000  0.08230600  1
  Li  Li4  1  0.66666700  0.33333300  0.47218700  1
  Li  Li5  1  0.66666700  0.33333300  0.20459000  1
  Li  Li6  1  0.33333300  0.66666700  0.79341900  1
  Li  Li7  1  0.33333300  0.66666700  0.52714100  1
  Ti  Ti8  1  0.66666700  0.33333300  0.58874300  1
  Ti  Ti9  1  0.33333300  0.66666700  0.89187400  1
  Ti  Ti10  1  0.33333300  0.66666700  0.41024400  1
  Ti  Ti11  1  0.00000000  0.00000000  0.80027100  1
  Ti  Ti12  1  0.00000000  0.00000000  0.49943300  1
  Ti  Ti13  1  0.00000000  0.00000000  0.19717900  1
  Mn  Mn14  1  0.66666700  0.33333300  0.70719300  1
  Mn  Mn15  1  0.66666700  0.33333300  0.99358800  1
  Mn  Mn16  1  0.66666700  0.33333300  0.10634400  1
  Mn  Mn17  1  0.33333300  0.66666700  0.00948600  1
  Mn  Mn18  1  0.33333300  0.66666700  0.29222400  1
  Mn  Mn19  1  0.66666700  0.33333300  0.30474400  1
  Mn  Mn20  1  0.33333300  0.66666700  0.69431900  1
  O  O21  1  0.26307400  0.32937700  0.84830300  1
  O  O22  1  0.03859400  0.70677600  0.45062200  1
  O  O23  1  0.38740100  0.36793100  0.65431400  1
  O  O24  1  0.34820100  0.33460700  0.25417800  1
  O  O25  1  0.97231500  0.61793200  0.04795200  1
  O  O26  1  0.33177700  0.06778700  0.15041700  1
  O  O27  1  0.33098800  0.03778900  0.54962200  1
  O  O28  1  0.01919600  0.38821900  0.34570900  1
  O  O29  1  0.33338000  0.98609600  0.74534500  1
  O  O30  1  0.62050800  0.64507000  0.95557100  1
  O  O31  1  0.35493000  0.97543800  0.95557100  1
  O  O32  1  0.93221300  0.26399000  0.15041700  1
  O  O33  1  0.36902300  0.98080400  0.34570900  1
  O  O34  1  0.01390400  0.34728400  0.74534500  1
  O  O35  1  0.70680100  0.66901200  0.54962200  1
  O  O36  1  0.29322400  0.33181900  0.45062200  1
  O  O37  1  0.98640600  0.65179900  0.25417800  1
  O  O38  1  0.63206900  0.01947000  0.65431400  1
  O  O39  1  0.06630300  0.73692600  0.84830300  1
  O  O40  1  0.64561700  0.02768500  0.04795200  1
  O  O41  1  0.38206800  0.35438300  0.04795200  1
  O  O42  1  0.66539300  0.01359400  0.25417800  1
  O  O43  1  0.98053000  0.61259900  0.65431400  1
  O  O44  1  0.66818100  0.96140600  0.45062200  1
  O  O45  1  0.67062300  0.93369700  0.84830300  1
  O  O46  1  0.02456200  0.37949200  0.95557100  1
  O  O47  1  0.65271600  0.66662000  0.74534500  1
  O  O48  1  0.61178100  0.63097700  0.34570900  1
  O  O49  1  0.96221100  0.29319900  0.54962200  1
  O  O50  1  0.73601000  0.66822300  0.15041700  1
