# generated using pymatgen
data_Li2Cr3P4(HO4)4
_symmetry_space_group_name_H-M   'P 1'
_cell_length_a   8.20884400
_cell_length_b   9.08917400
_cell_length_c   9.28352188
_cell_angle_alpha   76.49208589
_cell_angle_beta   90.00000000
_cell_angle_gamma   90.00000000
_symmetry_Int_Tables_number   1
_chemical_formula_structural   Li2Cr3P4(HO4)4
_chemical_formula_sum   'Li4 Cr6 P8 H8 O32'
_cell_volume   673.49797613
_cell_formula_units_Z   2
loop_
 _symmetry_equiv_pos_site_id
 _symmetry_equiv_pos_as_xyz
  1  'x, y, z'
loop_
 _atom_site_type_symbol
 _atom_site_label
 _atom_site_symmetry_multiplicity
 _atom_site_fract_x
 _atom_site_fract_y
 _atom_site_fract_z
 _atom_site_occupancy
  Li  Li0  1  0.33438200  0.01600900  0.02197900  1
  Li  Li1  1  0.16561800  0.01600900  0.52197900  1
  Li  Li2  1  0.83438200  0.98399100  0.47802100  1
  Li  Li3  1  0.66561800  0.98399100  0.97802100  1
  Cr  Cr4  1  0.50000000  0.50000000  0.00000000  1
  Cr  Cr5  1  0.14763400  0.64032200  0.00372900  1
  Cr  Cr6  1  0.64763400  0.35967800  0.49627100  1
  Cr  Cr7  1  0.00000000  0.50000000  0.50000000  1
  Cr  Cr8  1  0.35236600  0.64032200  0.50372900  1
  Cr  Cr9  1  0.85236600  0.35967800  0.99627100  1
  P  P10  1  0.56937200  0.16957100  0.22845100  1
  P  P11  1  0.81036500  0.62712200  0.20356700  1
  P  P12  1  0.31036500  0.37287800  0.29643300  1
  P  P13  1  0.06937200  0.83042900  0.27154900  1
  P  P14  1  0.93062800  0.16957100  0.72845100  1
  P  P15  1  0.68963500  0.62712200  0.70356700  1
  P  P16  1  0.18963500  0.37287800  0.79643300  1
  P  P17  1  0.43062800  0.83042900  0.77154900  1
  H  H18  1  0.99156000  0.11616200  0.20880700  1
  H  H19  1  0.04040300  0.27663700  0.22803600  1
  H  H20  1  0.54040300  0.72336300  0.27196400  1
  H  H21  1  0.49156000  0.88383800  0.29119300  1
  H  H22  1  0.50844000  0.11616200  0.70880700  1
  H  H23  1  0.45959700  0.27663700  0.72803600  1
  H  H24  1  0.95959700  0.72336300  0.77196400  1
  H  H25  1  0.00844000  0.88383800  0.79119300  1
  O  O26  1  0.63468200  0.31548000  0.12064800  1
  O  O27  1  0.99625300  0.22326000  0.15361100  1
  O  O28  1  0.93376800  0.56142200  0.11277500  1
  O  O29  1  0.53857700  0.04392600  0.14662000  1
  O  O30  1  0.29988000  0.47964700  0.13916000  1
  O  O31  1  0.64479800  0.66850100  0.13491500  1
  O  O32  1  0.16954900  0.87421000  0.13064100  1
  O  O33  1  0.38574900  0.21371600  0.27266300  1
  O  O34  1  0.88574900  0.78628400  0.22733700  1
  O  O35  1  0.66954900  0.12579000  0.36935900  1
  O  O36  1  0.14479800  0.33149900  0.36508500  1
  O  O37  1  0.79988000  0.52035300  0.36084000  1
  O  O38  1  0.03857700  0.95607400  0.35338000  1
  O  O39  1  0.43376800  0.43857800  0.38722500  1
  O  O40  1  0.49625300  0.77674000  0.34638900  1
  O  O41  1  0.13468200  0.68452000  0.37935200  1
  O  O42  1  0.86531800  0.31548000  0.62064800  1
  O  O43  1  0.50374700  0.22326000  0.65361100  1
  O  O44  1  0.56623200  0.56142200  0.61277500  1
  O  O45  1  0.96142300  0.04392600  0.64662000  1
  O  O46  1  0.20012000  0.47964700  0.63916000  1
  O  O47  1  0.85520200  0.66850100  0.63491500  1
  O  O48  1  0.33045100  0.87421000  0.63064100  1
  O  O49  1  0.11425100  0.21371600  0.77266300  1
  O  O50  1  0.61425100  0.78628400  0.72733700  1
  O  O51  1  0.83045100  0.12579000  0.86935900  1
  O  O52  1  0.35520200  0.33149900  0.86508500  1
  O  O53  1  0.70012000  0.52035300  0.86084000  1
  O  O54  1  0.46142300  0.95607400  0.85338000  1
  O  O55  1  0.06623200  0.43857800  0.88722500  1
  O  O56  1  0.00374700  0.77674000  0.84638900  1
  O  O57  1  0.36531800  0.68452000  0.87935200  1
