# generated using pymatgen
data_Li2Mn3(BO3)4
_symmetry_space_group_name_H-M   'P 1'
_cell_length_a   9.06315200
_cell_length_b   5.11349300
_cell_length_c   10.88159817
_cell_angle_alpha   72.72790251
_cell_angle_beta   90.00000000
_cell_angle_gamma   90.00000000
_symmetry_Int_Tables_number   1
_chemical_formula_structural   Li2Mn3(BO3)4
_chemical_formula_sum   'Li4 Mn6 B8 O24'
_cell_volume   481.55956242
_cell_formula_units_Z   2
loop_
 _symmetry_equiv_pos_site_id
 _symmetry_equiv_pos_as_xyz
  1  'x, y, z'
loop_
 _atom_site_type_symbol
 _atom_site_label
 _atom_site_symmetry_multiplicity
 _atom_site_fract_x
 _atom_site_fract_y
 _atom_site_fract_z
 _atom_site_occupancy
  Li  Li0  1  0.21501300  0.50820900  0.38917100  1
  Li  Li1  1  0.71548600  0.07138900  0.62350500  1
  Li  Li2  1  0.78498700  0.50820900  0.88917100  1
  Li  Li3  1  0.28451400  0.07138900  0.12350500  1
  Mn  Mn4  1  0.55326300  0.00240100  0.87785000  1
  Mn  Mn5  1  0.21399900  0.92087800  0.87643200  1
  Mn  Mn6  1  0.03935200  0.01383500  0.61418300  1
  Mn  Mn7  1  0.44673700  0.00240100  0.37785000  1
  Mn  Mn8  1  0.78600100  0.92087800  0.37643200  1
  Mn  Mn9  1  0.96064800  0.01383500  0.11418300  1
  B  B10  1  0.54861500  0.43014400  0.39076100  1
  B  B11  1  0.88522600  0.00183200  0.86301300  1
  B  B12  1  0.05732000  0.57279200  0.09193200  1
  B  B13  1  0.39032400  0.99986800  0.64680300  1
  B  B14  1  0.11477400  0.00183200  0.36301300  1
  B  B15  1  0.45138500  0.43014400  0.89076100  1
  B  B16  1  0.60967600  0.99986800  0.14680300  1
  B  B17  1  0.94268000  0.57279200  0.59193200  1
  O  O18  1  0.60262200  0.87985000  0.05043800  1
  O  O19  1  0.90117100  0.31211600  0.60377800  1
  O  O20  1  0.15988500  0.79404000  0.05730800  1
  O  O21  1  0.51655700  0.07625700  0.69675800  1
  O  O22  1  0.25185000  0.03691900  0.69564600  1
  O  O23  1  0.91672600  0.64655600  0.11344900  1
  O  O24  1  0.40518700  0.37669100  0.36247300  1
  O  O25  1  0.63360000  0.19026200  0.41503300  1
  O  O26  1  0.75165100  0.90844100  0.82993000  1
  O  O27  1  0.00927600  0.89535100  0.81487000  1
  O  O28  1  0.09801700  0.17943200  0.43338300  1
  O  O29  1  0.40864800  0.67739300  0.90008800  1
  O  O30  1  0.09882900  0.31211600  0.10377800  1
  O  O31  1  0.39737800  0.87985000  0.55043800  1
  O  O32  1  0.84011500  0.79404000  0.55730800  1
  O  O33  1  0.48344300  0.07625700  0.19675800  1
  O  O34  1  0.74815000  0.03691900  0.19564600  1
  O  O35  1  0.08327400  0.64655600  0.61344900  1
  O  O36  1  0.59481300  0.37669100  0.86247300  1
  O  O37  1  0.24834900  0.90844100  0.32993000  1
  O  O38  1  0.99072400  0.89535100  0.31487000  1
  O  O39  1  0.36640000  0.19026200  0.91503300  1
  O  O40  1  0.59135200  0.67739300  0.40008800  1
  O  O41  1  0.90198300  0.17943200  0.93338300  1
