# generated using pymatgen
data_Li4Nb3V2Co3O16
_symmetry_space_group_name_H-M   'P 1'
_cell_length_a   6.02625565
_cell_length_b   6.02625565
_cell_length_c   9.81129981
_cell_angle_alpha   89.89105787
_cell_angle_beta   89.89105787
_cell_angle_gamma   60.68374320
_symmetry_Int_Tables_number   1
_chemical_formula_structural   Li4Nb3V2Co3O16
_chemical_formula_sum   'Li4 Nb3 V2 Co3 O16'
_cell_volume   310.67221024
_cell_formula_units_Z   1
loop_
 _symmetry_equiv_pos_site_id
 _symmetry_equiv_pos_as_xyz
  1  'x, y, z'
loop_
 _atom_site_type_symbol
 _atom_site_label
 _atom_site_symmetry_multiplicity
 _atom_site_fract_x
 _atom_site_fract_y
 _atom_site_fract_z
 _atom_site_occupancy
  Li  Li0  1  0.33348500  0.33348500  0.10015800  1
  Li  Li1  1  0.00396600  0.00396600  0.00214200  1
  Li  Li2  1  0.97515400  0.97515400  0.51644000  1
  Li  Li3  1  0.66454600  0.66454600  0.60931400  1
  Nb  Nb4  1  0.18652500  0.18652500  0.76785200  1
  Nb  Nb5  1  0.83824500  0.35101400  0.28735000  1
  Nb  Nb6  1  0.35101400  0.83824500  0.28735000  1
  V  V7  1  0.35391300  0.35391300  0.51453200  1
  V  V8  1  0.68065300  0.68065300  0.99543500  1
  Co  Co9  1  0.65451400  0.19579000  0.79062800  1
  Co  Co10  1  0.19579000  0.65451400  0.79062800  1
  Co  Co11  1  0.81457300  0.81457300  0.28295800  1
  O  O12  1  0.67269900  0.18819600  0.39974700  1
  O  O13  1  0.48580000  0.48580000  0.65663400  1
  O  O14  1  0.32723700  0.32723700  0.90189600  1
  O  O15  1  0.00689000  0.00689000  0.70636600  1
  O  O16  1  0.00762800  0.00762800  0.18804400  1
  O  O17  1  0.18819600  0.67269900  0.39974700  1
  O  O18  1  0.47954400  0.03391700  0.65350600  1
  O  O19  1  0.03391700  0.47954400  0.65350600  1
  O  O20  1  0.82959500  0.82959500  0.91305900  1
  O  O21  1  0.17796100  0.17796100  0.39328200  1
  O  O22  1  0.94823600  0.51542300  0.14317200  1
  O  O23  1  0.51542300  0.94823600  0.14317200  1
  O  O24  1  0.65633100  0.65633100  0.40961400  1
  O  O25  1  0.82673700  0.36827400  0.91187500  1
  O  O26  1  0.51957500  0.51957500  0.16633300  1
  O  O27  1  0.36827400  0.82673700  0.91187500  1
