# generated using pymatgen
data_Li2VPO5
_symmetry_space_group_name_H-M   'P 1'
_cell_length_a   6.63845300
_cell_length_b   6.65545000
_cell_length_c   8.25643700
_cell_angle_alpha   89.99922189
_cell_angle_beta   90.00216792
_cell_angle_gamma   89.99956040
_symmetry_Int_Tables_number   1
_chemical_formula_structural   Li2VPO5
_chemical_formula_sum   'Li8 V4 P4 O20'
_cell_volume   364.78500792
_cell_formula_units_Z   4
loop_
 _symmetry_equiv_pos_site_id
 _symmetry_equiv_pos_as_xyz
  1  'x, y, z'
loop_
 _atom_site_type_symbol
 _atom_site_label
 _atom_site_symmetry_multiplicity
 _atom_site_fract_x
 _atom_site_fract_y
 _atom_site_fract_z
 _atom_site_occupancy
  Li  Li0  1  0.00923600  0.47554600  0.01770300  1
  Li  Li1  1  0.00835500  0.47695200  0.51432200  1
  Li  Li2  1  0.97149200  0.97708500  0.48567800  1
  Li  Li3  1  0.97057200  0.97572300  0.98236800  1
  Li  Li4  1  0.50987200  0.97520600  0.48190800  1
  Li  Li5  1  0.50888300  0.97674400  0.98534000  1
  Li  Li6  1  0.47106900  0.47650500  0.01474000  1
  Li  Li7  1  0.47045500  0.47531800  0.51797300  1
  V  V8  1  0.74138600  0.74721100  0.68786600  1
  V  V9  1  0.23865200  0.24707500  0.31230100  1
  V  V10  1  0.73878300  0.74709100  0.18776700  1
  V  V11  1  0.24121000  0.24711300  0.81228500  1
  P  P12  1  0.73875500  0.24631700  0.25056000  1
  P  P13  1  0.74116600  0.24634500  0.75056400  1
  P  P14  1  0.23885500  0.74628500  0.24938100  1
  P  P15  1  0.24122400  0.74634600  0.74939500  1
  O  O16  1  0.73848500  0.05662200  0.14229900  1
  O  O17  1  0.74174700  0.05662900  0.64230500  1
  O  O18  1  0.23845800  0.55656400  0.35766900  1
  O  O19  1  0.24164900  0.55660700  0.85765000  1
  O  O20  1  0.73927200  0.76486500  0.41786200  1
  O  O21  1  0.74098200  0.76498000  0.91793000  1
  O  O22  1  0.23904900  0.26493400  0.08212700  1
  O  O23  1  0.24065800  0.26482000  0.58217400  1
  O  O24  1  0.73892600  0.43835700  0.14424100  1
  O  O25  1  0.74082000  0.43840800  0.64425400  1
  O  O26  1  0.23914900  0.93834900  0.35570700  1
  O  O27  1  0.24085300  0.93839100  0.85572900  1
  O  O28  1  0.93036200  0.24514000  0.35788700  1
  O  O29  1  0.93215200  0.24438700  0.85843200  1
  O  O30  1  0.54770300  0.24416100  0.35838300  1
  O  O31  1  0.54951300  0.24492200  0.85781600  1
  O  O32  1  0.43047400  0.74502900  0.14206400  1
  O  O33  1  0.43234100  0.74439400  0.64162900  1
  O  O34  1  0.04779300  0.74427200  0.14158700  1
  O  O35  1  0.04961100  0.74505100  0.64205800  1
