# generated using pymatgen
data_Li4V3P8O29
_symmetry_space_group_name_H-M   'P 1'
_cell_length_a   9.73698000
_cell_length_b   9.76840048
_cell_length_c   14.18497913
_cell_angle_alpha   90.50991858
_cell_angle_beta   89.83222406
_cell_angle_gamma   119.63978793
_symmetry_Int_Tables_number   1
_chemical_formula_structural   Li4V3P8O29
_chemical_formula_sum   'Li8 V6 P16 O58'
_cell_volume   1172.61164339
_cell_formula_units_Z   2
loop_
 _symmetry_equiv_pos_site_id
 _symmetry_equiv_pos_as_xyz
  1  'x, y, z'
loop_
 _atom_site_type_symbol
 _atom_site_label
 _atom_site_symmetry_multiplicity
 _atom_site_fract_x
 _atom_site_fract_y
 _atom_site_fract_z
 _atom_site_occupancy
  Li  Li0  1  0.77126000  0.08495900  0.44071100  1
  Li  Li1  1  0.91648200  0.68796000  0.44117900  1
  Li  Li2  1  0.76547100  0.66639000  0.93889200  1
  Li  Li3  1  0.33071800  0.09638000  0.94077000  1
  Li  Li4  1  0.31538400  0.22224800  0.44727500  1
  Li  Li5  1  0.23059800  0.33350200  0.05444700  1
  Li  Li6  1  0.09040500  0.31909600  0.56533700  1
  Li  Li7  1  0.96039200  0.98741100  0.99764700  1
  V  V8  1  0.57049700  0.56947900  0.74647600  1
  V  V9  1  0.43524200  0.43468900  0.25091800  1
  V  V10  1  0.56751500  0.99929100  0.24711600  1
  V  V11  1  0.43546400  0.99898800  0.75097500  1
  V  V12  1  0.99371200  0.43145500  0.75663000  1
  V  V13  1  0.00627700  0.56931300  0.24563700  1
  P  P14  1  0.91672900  0.22260300  0.16206300  1
  P  P15  1  0.77101500  0.08700300  0.65755900  1
  P  P16  1  0.91596000  0.68181200  0.65611400  1
  P  P17  1  0.66082600  0.33304300  0.87038900  1
  P  P18  1  0.67191300  0.33688400  0.36833700  1
  P  P19  1  0.77201400  0.68429600  0.15660600  1
  P  P20  1  0.68539600  0.77207100  0.33910400  1
  P  P21  1  0.31338200  0.08732100  0.15460500  1
  P  P22  1  0.69619000  0.91647900  0.84033200  1
  P  P23  1  0.31979600  0.22727400  0.66091700  1
  P  P24  1  0.23068500  0.31899600  0.84044800  1
  P  P25  1  0.33131700  0.66334200  0.63209000  1
  P  P26  1  0.33527300  0.66218000  0.13064700  1
  P  P27  1  0.08922100  0.32046500  0.34524800  1
  P  P28  1  0.22895400  0.91606500  0.33619600  1
  P  P29  1  0.08385400  0.77973100  0.83939500  1
  O  O30  1  0.00429900  0.24696300  0.43554700  1
  O  O31  1  0.91829000  0.25278200  0.66444900  1
  O  O32  1  0.79887700  0.99678700  0.92263200  1
  O  O33  1  0.74492800  0.08711400  0.16652000  1
  O  O34  1  0.91907800  0.38287800  0.17208800  1
  O  O35  1  0.80265900  0.32354800  0.82857300  1
  O  O36  1  0.90603000  0.52228400  0.67893000  1
  O  O37  1  0.99175900  0.79914700  0.91755400  1
  O  O38  1  0.91399000  0.65493000  0.16961500  1
  O  O39  1  0.67268400  0.18673700  0.33164200  1
  O  O40  1  0.61936700  0.09806400  0.68219000  1
  O  O41  1  0.82140800  0.48453200  0.32639700  1
  O  O42  1  0.64840500  0.33753600  0.97484600  1
  O  O43  1  0.66241400  0.34607900  0.47272300  1
  O  O44  1  0.67069200  0.48796000  0.82776900  1
  O  O45  1  0.47085800  0.09165800  0.16955100  1
  O  O46  1  0.50502300  0.18530200  0.82927700  1
  O  O47  1  0.74563800  0.65817500  0.66902000  1
  O  O48  1  0.78642200  0.79694100  0.24253200  1
  O  O49  1  0.76932300  0.75670300  0.42090100  1
  O  O50  1  0.78167000  0.76117200  0.06463500  1
  O  O51  1  0.61583900  0.52682100  0.17269800  1
  O  O52  1  0.52087400  0.33631500  0.32244800  1
  O  O53  1  0.65782600  0.74065200  0.83631100  1
  O  O54  1  0.48012900  0.37965700  0.67776300  1
  O  O55  1  0.34241300  0.08220500  0.66526200  1
  O  O56  1  0.78900400  0.98944500  0.74261400  1
  O  O57  1  0.75588400  0.00862500  0.56519700  1
  O  O58  1  0.23175100  0.00890700  0.41992000  1
  O  O59  1  0.66392100  0.91824400  0.34016700  1
  O  O60  1  0.52197300  0.62043900  0.32002800  1
  O  O61  1  0.33649100  0.25827300  0.16817200  1
  O  O62  1  0.47949500  0.65981300  0.67793400  1
  O  O63  1  0.38612600  0.47383700  0.82653000  1
  O  O64  1  0.22823500  0.23259400  0.92823400  1
  O  O65  1  0.24165100  0.23813500  0.57232300  1
  O  O66  1  0.20851400  0.20849800  0.74946000  1
  O  O67  1  0.25742500  0.33900200  0.34313100  1
  O  O68  1  0.48193100  0.80579700  0.17138400  1
  O  O69  1  0.53989500  0.92290900  0.83164900  1
  O  O70  1  0.32421800  0.50671800  0.17541500  1
  O  O71  1  0.31893100  0.63812800  0.02713400  1
  O  O72  1  0.34340700  0.67332300  0.52822700  1
  O  O73  1  0.18301100  0.51496600  0.66948400  1
  O  O74  1  0.38314900  0.90968400  0.32025000  1
  O  O75  1  0.34017300  0.81411400  0.68248400  1
  O  O76  1  0.08856100  0.34699300  0.83552900  1
  O  O77  1  0.99528300  0.20481900  0.25904700  1
  O  O78  1  0.00683100  0.20971300  0.08072900  1
  O  O79  1  0.09798500  0.47922600  0.32395400  1
  O  O80  1  0.18649700  0.66671100  0.17604500  1
  O  O81  1  0.08285100  0.62279800  0.83302300  1
  O  O82  1  0.25822500  0.92035100  0.83945200  1
  O  O83  1  0.23101800  0.02299400  0.06328700  1
  O  O84  1  0.20001300  0.98957800  0.24097200  1
  O  O85  1  0.08511700  0.74490600  0.33648400  1
  O  O86  1  0.98768400  0.74849900  0.56423700  1
  O  O87  1  0.01464000  0.80123800  0.73988800  1
