# generated using pymatgen
data_Li3V5O12
_symmetry_space_group_name_H-M   'P 1'
_cell_length_a   5.03536500
_cell_length_b   5.07010449
_cell_length_c   9.16571879
_cell_angle_alpha   94.18246198
_cell_angle_beta   92.17114982
_cell_angle_gamma   112.45423630
_symmetry_Int_Tables_number   1
_chemical_formula_structural   Li3V5O12
_chemical_formula_sum   'Li3 V5 O12'
_cell_volume   215.13330819
_cell_formula_units_Z   1
loop_
 _symmetry_equiv_pos_site_id
 _symmetry_equiv_pos_as_xyz
  1  'x, y, z'
loop_
 _atom_site_type_symbol
 _atom_site_label
 _atom_site_symmetry_multiplicity
 _atom_site_fract_x
 _atom_site_fract_y
 _atom_site_fract_z
 _atom_site_occupancy
  Li  Li0  1  0.67308400  0.15125500  0.68765900  1
  Li  Li1  1  0.85312900  0.62286000  0.99601300  1
  Li  Li2  1  0.07761000  0.94466700  0.75261000  1
  V  V3  1  0.92913700  0.06486500  0.24562300  1
  V  V4  1  0.51222800  0.00920800  0.98102800  1
  V  V5  1  0.01478600  0.53714000  0.50850700  1
  V  V6  1  0.56584900  0.44374700  0.26915300  1
  V  V7  1  0.41713400  0.55648400  0.74070700  1
  O  O8  1  0.72010400  0.21282400  0.38932900  1
  O  O9  1  0.23738400  0.08529200  0.14525900  1
  O  O10  1  0.78526700  0.30102000  0.12083600  1
  O  O11  1  0.47177400  0.27391300  0.87330600  1
  O  O12  1  0.71705300  0.55611000  0.63936900  1
  O  O13  1  0.08290600  0.28102700  0.64906600  1
  O  O14  1  0.26147800  0.43268700  0.36607500  1
  O  O15  1  0.89833700  0.74986500  0.36570400  1
  O  O16  1  0.20851900  0.70122400  0.89854800  1
  O  O17  1  0.61663800  0.76276000  0.13688300  1
  O  O18  1  0.74253300  0.91671600  0.86583200  1
  O  O19  1  0.31757300  0.81348600  0.61397500  1
