# generated using pymatgen
data_Li3Zn3(Ge3O8)2
_symmetry_space_group_name_H-M   'P 1'
_cell_length_a   8.40035100
_cell_length_b   8.39986500
_cell_length_c   8.40130868
_cell_angle_alpha   89.93953508
_cell_angle_beta   90.00000000
_cell_angle_gamma   90.00000000
_symmetry_Int_Tables_number   1
_chemical_formula_structural   Li3Zn3(Ge3O8)2
_chemical_formula_sum   'Li6 Zn6 Ge12 O32'
_cell_volume   592.81125317
_cell_formula_units_Z   2
loop_
 _symmetry_equiv_pos_site_id
 _symmetry_equiv_pos_as_xyz
  1  'x, y, z'
loop_
 _atom_site_type_symbol
 _atom_site_label
 _atom_site_symmetry_multiplicity
 _atom_site_fract_x
 _atom_site_fract_y
 _atom_site_fract_z
 _atom_site_occupancy
  Li  Li0  1  0.37456200  0.12583300  0.62723800  1
  Li  Li1  1  0.87456200  0.87416700  0.37276200  1
  Li  Li2  1  0.62405500  0.37638400  0.12330800  1
  Li  Li3  1  0.74941500  0.75027200  0.99917000  1
  Li  Li4  1  0.24941500  0.24972800  0.00083000  1
  Li  Li5  1  0.12405500  0.62361600  0.87669200  1
  Zn  Zn6  1  0.00047000  0.00039300  0.75133900  1
  Zn  Zn7  1  0.50074400  0.49987500  0.75116400  1
  Zn  Zn8  1  0.24948400  0.74993800  0.50079400  1
  Zn  Zn9  1  0.74948400  0.25006200  0.49920600  1
  Zn  Zn10  1  0.50047000  0.99960700  0.24866100  1
  Zn  Zn11  1  0.00074400  0.50012500  0.24883600  1
  Ge  Ge12  1  0.62494800  0.87941600  0.62393800  1
  Ge  Ge13  1  0.12996400  0.37375400  0.63367100  1
  Ge  Ge14  1  0.87883000  0.62875100  0.62932300  1
  Ge  Ge15  1  0.62996400  0.62624600  0.36632900  1
  Ge  Ge16  1  0.37883000  0.37124900  0.37067700  1
  Ge  Ge17  1  0.12494800  0.12058400  0.37606200  1
  Ge  Ge18  1  0.11768300  0.87256200  0.12385500  1
  Ge  Ge19  1  0.37803700  0.61833200  0.11989100  1
  Ge  Ge20  1  0.87363700  0.12075000  0.12766500  1
  Ge  Ge21  1  0.37363700  0.87925000  0.87233500  1
  Ge  Ge22  1  0.87803700  0.38166800  0.88010900  1
  Ge  Ge23  1  0.61768300  0.12743800  0.87614500  1
  O  O24  1  0.10441300  0.60630000  0.62251600  1
  O  O25  1  0.63870000  0.63919300  0.61087300  1
  O  O26  1  0.12254500  0.14248000  0.60294900  1
  O  O27  1  0.62758800  0.10523300  0.64285800  1
  O  O28  1  0.39233500  0.87259400  0.64589500  1
  O  O29  1  0.85717500  0.85465000  0.62752400  1
  O  O30  1  0.35484400  0.37742500  0.60604600  1
  O  O31  1  0.88811500  0.38764000  0.63675300  1
  O  O32  1  0.12758800  0.89476700  0.35714200  1
  O  O33  1  0.38811500  0.61236000  0.36324700  1
  O  O34  1  0.62254500  0.85752000  0.39705100  1
  O  O35  1  0.85484400  0.62257500  0.39395400  1
  O  O36  1  0.13870000  0.36080700  0.38912700  1
  O  O37  1  0.35717500  0.14535000  0.37247600  1
  O  O38  1  0.60441300  0.39370000  0.37748400  1
  O  O39  1  0.89233500  0.12740600  0.35410500  1
  O  O40  1  0.36067200  0.86119400  0.11122500  1
  O  O41  1  0.89609200  0.89387600  0.12133100  1
  O  O42  1  0.14417300  0.64713400  0.12749300  1
  O  O43  1  0.60461400  0.62902900  0.14565600  1
  O  O44  1  0.37125400  0.39707200  0.14471800  1
  O  O45  1  0.87750600  0.35552900  0.10461500  1
  O  O46  1  0.11092800  0.11040000  0.14030700  1
  O  O47  1  0.64721500  0.12246300  0.10699900  1
  O  O48  1  0.14721500  0.87753700  0.89300100  1
  O  O49  1  0.61092800  0.88960000  0.85969300  1
  O  O50  1  0.37750600  0.64447100  0.89538500  1
  O  O51  1  0.87125400  0.60292800  0.85528200  1
  O  O52  1  0.10461400  0.37097100  0.85434400  1
  O  O53  1  0.64417300  0.35286600  0.87250700  1
  O  O54  1  0.39609200  0.10612400  0.87866900  1
  O  O55  1  0.86067200  0.13880600  0.88877500  1
