# generated using pymatgen
data_LiTi2V3O10
_symmetry_space_group_name_H-M   'P 1'
_cell_length_a   5.10595602
_cell_length_b   15.00746114
_cell_length_c   5.14595838
_cell_angle_alpha   82.71369516
_cell_angle_beta   100.76702915
_cell_angle_gamma   98.88465408
_symmetry_Int_Tables_number   1
_chemical_formula_structural   LiTi2V3O10
_chemical_formula_sum   'Li2 Ti4 V6 O20'
_cell_volume   380.77661758
_cell_formula_units_Z   2
loop_
 _symmetry_equiv_pos_site_id
 _symmetry_equiv_pos_as_xyz
  1  'x, y, z'
loop_
 _atom_site_type_symbol
 _atom_site_label
 _atom_site_symmetry_multiplicity
 _atom_site_fract_x
 _atom_site_fract_y
 _atom_site_fract_z
 _atom_site_occupancy
  Li  Li0  1  0.77075400  0.27299000  0.42655000  1
  Li  Li1  1  0.27041700  0.77296600  0.92699100  1
  Ti  Ti2  1  0.38106700  0.34321600  0.78391000  1
  Ti  Ti3  1  0.88068600  0.84330500  0.28351300  1
  Ti  Ti4  1  0.18328900  0.16213600  0.74843500  1
  Ti  Ti5  1  0.68323000  0.66211700  0.24846000  1
  V  V6  1  0.99259700  0.50145900  0.50544400  1
  V  V7  1  0.41619800  0.44515900  0.24764500  1
  V  V8  1  0.04528600  0.06553300  0.26713500  1
  V  V9  1  0.49274400  0.00168900  0.00523600  1
  V  V10  1  0.91594600  0.94511300  0.74741800  1
  V  V11  1  0.54520500  0.56534900  0.76670500  1
  O  O12  1  0.65254900  0.43080800  0.60505500  1
  O  O13  1  0.15261300  0.93071900  0.10447100  1
  O  O14  1  0.05978500  0.26332100  0.81639200  1
  O  O15  1  0.55956200  0.76327600  0.31626700  1
  O  O16  1  0.25919300  0.46751500  0.86119300  1
  O  O17  1  0.75937400  0.96764000  0.36131300  1
  O  O18  1  0.35473400  0.10921600  0.09537900  1
  O  O19  1  0.85480900  0.60920400  0.59530200  1
  O  O20  1  0.53743200  0.34502000  0.13417000  1
  O  O21  1  0.03703000  0.84505200  0.63389100  1
  O  O22  1  0.96764900  0.16132800  0.37984400  1
  O  O23  1  0.46758700  0.66115800  0.87997600  1
  O  O24  1  0.13223600  0.39316400  0.40100400  1
  O  O25  1  0.63216400  0.89320800  0.90134200  1
  O  O26  1  0.22921800  0.03227800  0.64016800  1
  O  O27  1  0.72928400  0.53219000  0.14044500  1
  O  O28  1  0.48024100  0.23969000  0.66999400  1
  O  O29  1  0.98007000  0.73971600  0.16995400  1
  O  O30  1  0.84316800  0.06438800  0.89941100  1
  O  O31  1  0.34303100  0.56436500  0.39926800  1
