# generated using pymatgen
data_LiMn2(BO3)2
_symmetry_space_group_name_H-M   'P 1'
_cell_length_a   5.79107200
_cell_length_b   9.17793304
_cell_length_c   9.81469890
_cell_angle_alpha   81.23680373
_cell_angle_beta   79.84416527
_cell_angle_gamma   75.86057995
_symmetry_Int_Tables_number   1
_chemical_formula_structural   LiMn2(BO3)2
_chemical_formula_sum   'Li4 Mn8 B8 O24'
_cell_volume   494.64846523
_cell_formula_units_Z   4
loop_
 _symmetry_equiv_pos_site_id
 _symmetry_equiv_pos_as_xyz
  1  'x, y, z'
loop_
 _atom_site_type_symbol
 _atom_site_label
 _atom_site_symmetry_multiplicity
 _atom_site_fract_x
 _atom_site_fract_y
 _atom_site_fract_z
 _atom_site_occupancy
  Li  Li0  1  0.04579100  0.80576600  0.62401700  1
  Li  Li1  1  0.53169900  0.80500700  0.12561400  1
  Li  Li2  1  0.96022200  0.19126400  0.36383200  1
  Li  Li3  1  0.79036100  0.30495100  0.88306800  1
  Mn  Mn4  1  0.14847900  0.39423800  0.10810900  1
  Mn  Mn5  1  0.12164700  0.12722600  0.62694100  1
  Mn  Mn6  1  0.60290600  0.11794900  0.14382000  1
  Mn  Mn7  1  0.36664600  0.58923400  0.37926200  1
  Mn  Mn8  1  0.62624200  0.38720400  0.61999900  1
  Mn  Mn9  1  0.38236000  0.89531200  0.86048600  1
  Mn  Mn10  1  0.89011700  0.86086800  0.35730400  1
  Mn  Mn11  1  0.85914500  0.62496200  0.88491200  1
  B  B12  1  0.13886300  0.04533200  0.12062600  1
  B  B13  1  0.09915800  0.46226700  0.64430200  1
  B  B14  1  0.61666700  0.46108900  0.13067000  1
  B  B15  1  0.35409100  0.94148900  0.38648100  1
  B  B16  1  0.65535600  0.04787000  0.60293000  1
  B  B17  1  0.39456100  0.55056100  0.86688900  1
  B  B18  1  0.89068000  0.52582100  0.36081200  1
  B  B19  1  0.85674300  0.96425600  0.89018600  1
  O  O20  1  0.26948300  0.15837500  0.10291600  1
  O  O21  1  0.03432700  0.63244100  0.33659800  1
  O  O22  1  0.26486200  0.07916700  0.43716000  1
  O  O23  1  0.02031100  0.60005200  0.69358600  1
  O  O24  1  0.22474900  0.91434100  0.06579000  1
  O  O25  1  0.29469400  0.44026100  0.53888800  1
  O  O26  1  0.04521300  0.94499900  0.77706100  1
  O  O27  1  0.49722300  0.34528800  0.16805800  1
  O  O28  1  0.24545100  0.82103500  0.42886600  1
  O  O29  1  0.43484500  0.07696400  0.69301600  1
  O  O30  1  0.16900100  0.58286700  0.95072000  1
  O  O31  1  0.53771600  0.59612800  0.18734700  1
  O  O32  1  0.48422500  0.41420800  0.82067800  1
  O  O33  1  0.81281600  0.44184100  0.02370300  1
  O  O34  1  0.55056500  0.92807500  0.27717200  1
  O  O35  1  0.78668700  0.16452400  0.57248500  1
  O  O36  1  0.52648000  0.66303900  0.84628200  1
  O  O37  1  0.91883300  0.07203600  0.21540500  1
  O  O38  1  0.67132500  0.56188300  0.44955900  1
  O  O39  1  0.78560200  0.09773500  0.94803800  1
  O  O40  1  0.95980500  0.39375100  0.30602900  1
  O  O41  1  0.74527200  0.91384200  0.55432000  1
  O  O42  1  0.98650800  0.34164400  0.69155900  1
  O  O43  1  0.73757000  0.84684400  0.93623900  1
