# generated using pymatgen
data_Li5Mn6(BO3)6
_symmetry_space_group_name_H-M   'P 1'
_cell_length_a   5.21694600
_cell_length_b   7.94921275
_cell_length_c   9.70024120
_cell_angle_alpha   104.32918077
_cell_angle_beta   103.60545593
_cell_angle_gamma   88.12662225
_symmetry_Int_Tables_number   1
_chemical_formula_structural   Li5Mn6(BO3)6
_chemical_formula_sum   'Li5 Mn6 B6 O18'
_cell_volume   378.68367464
_cell_formula_units_Z   1
loop_
 _symmetry_equiv_pos_site_id
 _symmetry_equiv_pos_as_xyz
  1  'x, y, z'
loop_
 _atom_site_type_symbol
 _atom_site_label
 _atom_site_symmetry_multiplicity
 _atom_site_fract_x
 _atom_site_fract_y
 _atom_site_fract_z
 _atom_site_occupancy
  Li  Li0  1  0.75803800  0.99802900  0.68812500  1
  Li  Li1  1  0.91305400  0.67336500  0.64604700  1
  Li  Li2  1  0.56793300  0.35555300  0.98750800  1
  Li  Li3  1  0.08880000  0.32789300  0.35123800  1
  Li  Li4  1  0.24210700  0.00666800  0.31476300  1
  Mn  Mn5  1  0.32712400  0.91649700  0.84406600  1
  Mn  Mn6  1  0.34711400  0.74441800  0.49606500  1
  Mn  Mn7  1  0.01953500  0.42106000  0.83109700  1
  Mn  Mn8  1  0.98510200  0.59289100  0.16677100  1
  Mn  Mn9  1  0.65102400  0.25254200  0.50614200  1
  Mn  Mn10  1  0.67939100  0.07844000  0.16461500  1
  B  B11  1  0.86466400  0.79535400  0.92734000  1
  B  B12  1  0.79640200  0.86633300  0.39544300  1
  B  B13  1  0.46293200  0.52949900  0.72828500  1
  B  B14  1  0.54098900  0.46445700  0.27539500  1
  B  B15  1  0.20702500  0.13883600  0.61228300  1
  B  B16  1  0.12749200  0.20126400  0.06006900  1
  O  O17  1  0.00113600  0.65513400  0.97100900  1
  O  O18  1  0.65546000  0.85762300  0.98707600  1
  O  O19  1  0.93102500  0.86679800  0.82355200  1
  O  O20  1  0.02759800  0.82676400  0.34505300  1
  O  O21  1  0.62776800  0.98799500  0.34363200  1
  O  O22  1  0.30300400  0.65731200  0.67872900  1
  O  O23  1  0.74651700  0.79621900  0.50318300  1
  O  O24  1  0.39712500  0.43841900  0.81758200  1
  O  O25  1  0.69970200  0.49382400  0.68153700  1
  O  O26  1  0.30552800  0.50746200  0.32261800  1
  O  O27  1  0.60468700  0.53417600  0.17349300  1
  O  O28  1  0.25227700  0.20424400  0.50068000  1
  O  O29  1  0.70336700  0.34114100  0.33239900  1
  O  O30  1  0.36867300  0.01438300  0.66382200  1
  O  O31  1  0.97829300  0.18828200  0.66681000  1
  O  O32  1  0.07681800  0.13352400  0.16936400  1
  O  O33  1  0.35870700  0.15717800  0.01077500  1
  O  O34  1  0.96036100  0.31941000  0.00193000  1
