# generated using pymatgen
data_Li8Fe7Sn(PO4)12
_symmetry_space_group_name_H-M   'P 1'
_cell_length_a   8.67976400
_cell_length_b   8.81660198
_cell_length_c   12.26096498
_cell_angle_alpha   89.95957255
_cell_angle_beta   89.96784960
_cell_angle_gamma   89.97301121
_symmetry_Int_Tables_number   1
_chemical_formula_structural   Li8Fe7Sn(PO4)12
_chemical_formula_sum   'Li8 Fe7 Sn1 P12 O48'
_cell_volume   938.28242067
_cell_formula_units_Z   1
loop_
 _symmetry_equiv_pos_site_id
 _symmetry_equiv_pos_as_xyz
  1  'x, y, z'
loop_
 _atom_site_type_symbol
 _atom_site_label
 _atom_site_symmetry_multiplicity
 _atom_site_fract_x
 _atom_site_fract_y
 _atom_site_fract_z
 _atom_site_occupancy
  Li  Li0  1  0.78287600  0.72240100  0.81808500  1
  Li  Li1  1  0.78285600  0.77764300  0.18127900  1
  Li  Li2  1  0.71670400  0.22193200  0.68232000  1
  Li  Li3  1  0.71851100  0.27749300  0.31823700  1
  Li  Li4  1  0.28288300  0.72243200  0.68228900  1
  Li  Li5  1  0.28280200  0.78401200  0.31788100  1
  Li  Li6  1  0.21715300  0.22202300  0.81877000  1
  Li  Li7  1  0.21594400  0.27476500  0.17614700  1
  Fe  Fe8  1  0.75086500  0.95861500  0.38742400  1
  Fe  Fe9  1  0.75065100  0.54085800  0.61245400  1
  Fe  Fe10  1  0.74934300  0.04102900  0.88720400  1
  Fe  Fe11  1  0.74896700  0.45923800  0.11347000  1
  Fe  Fe12  1  0.25113400  0.54110700  0.88740400  1
  Fe  Fe13  1  0.25098200  0.95875400  0.11196700  1
  Fe  Fe14  1  0.24868400  0.04004800  0.61335200  1
  Sn  Sn15  1  0.24911700  0.46076100  0.38603300  1
  P  P16  1  0.95770000  0.24807500  0.50115100  1
  P  P17  1  0.53969000  0.74987700  0.00002600  1
  P  P18  1  0.46073300  0.24992200  0.99956500  1
  P  P19  1  0.03870300  0.75216200  0.50160100  1
  P  P20  1  0.89391400  0.39269500  0.85321900  1
  P  P21  1  0.89384700  0.10695900  0.14672700  1
  P  P22  1  0.60865700  0.60660900  0.35298100  1
  P  P23  1  0.60594200  0.89234700  0.64716000  1
  P  P24  1  0.39567800  0.10454400  0.35301800  1
  P  P25  1  0.39648200  0.39201800  0.65027700  1
  P  P26  1  0.10460000  0.60782300  0.14577800  1
  P  P27  1  0.10581300  0.89263200  0.85310600  1
  O  O28  1  0.94467100  0.64109100  0.57020100  1
  O  O29  1  0.94290700  0.85871100  0.43073600  1
  O  O30  1  0.92716700  0.89590500  0.84436500  1
  O  O31  1  0.92707800  0.60477100  0.15600500  1
  O  O32  1  0.84969700  0.16152900  0.42192100  1
  O  O33  1  0.85053100  0.33605800  0.58020400  1
  O  O34  1  0.84346700  0.43376000  0.96931300  1
  O  O35  1  0.84357600  0.06601200  0.03076200  1
  O  O36  1  0.83729000  0.23274700  0.82045600  1
  O  O37  1  0.83774100  0.26714100  0.17962700  1
  O  O38  1  0.82696200  0.51397800  0.77437800  1
  O  O39  1  0.82630300  0.98608300  0.22577900  1
  O  O40  1  0.67374500  0.01330000  0.72613200  1
  O  O41  1  0.67380000  0.48508500  0.27429800  1
  O  O42  1  0.66318500  0.76683900  0.31971600  1
  O  O43  1  0.66298000  0.73252300  0.67989800  1
  O  O44  1  0.65480200  0.56573100  0.46959900  1
  O  O45  1  0.65527000  0.93402600  0.53098700  1
  O  O46  1  0.64821800  0.83746900  0.92098700  1
  O  O47  1  0.64780400  0.66246900  0.07904200  1
  O  O48  1  0.57333600  0.10463200  0.34387500  1
  O  O49  1  0.57426100  0.39526300  0.65901400  1
  O  O50  1  0.55690300  0.14279400  0.92903400  1
  O  O51  1  0.55648400  0.35708000  0.07042900  1
  O  O52  1  0.44369700  0.64324400  0.92910600  1
  O  O53  1  0.44335300  0.85702800  0.07067300  1
  O  O54  1  0.42757500  0.60886700  0.34271700  1
  O  O55  1  0.42721100  0.89559500  0.65615400  1
  O  O56  1  0.35208800  0.33751700  0.92090100  1
  O  O57  1  0.35243000  0.16179200  0.07840400  1
  O  O58  1  0.34293700  0.06915000  0.46908600  1
  O  O59  1  0.34850800  0.43488100  0.53341900  1
  O  O60  1  0.33792100  0.23206000  0.68099700  1
  O  O61  1  0.33795200  0.26555400  0.31599900  1
  O  O62  1  0.32621100  0.51335700  0.72744500  1
  O  O63  1  0.32647500  0.98667100  0.27352200  1
  O  O64  1  0.17390600  0.01387700  0.77448300  1
  O  O65  1  0.17455100  0.48293000  0.22328500  1
  O  O66  1  0.16241600  0.73272300  0.82034600  1
  O  O67  1  0.16376200  0.76603500  0.18045400  1
  O  O68  1  0.15639500  0.56630500  0.03049200  1
  O  O69  1  0.15593900  0.93320700  0.96932100  1
  O  O70  1  0.14788000  0.66763600  0.41902500  1
  O  O71  1  0.14811300  0.83795900  0.58021600  1
  O  O72  1  0.07266400  0.10380100  0.15530300  1
  O  O73  1  0.07270100  0.39525800  0.84481200  1
  O  O74  1  0.05679600  0.14303100  0.57056200  1
  O  O75  1  0.04911300  0.35775200  0.42760100  1
