# generated using pymatgen
data_LiMn(PO3)4
_symmetry_space_group_name_H-M   'P 1'
_cell_length_a   6.98936392
_cell_length_b   6.98936392
_cell_length_c   10.00334491
_cell_angle_alpha   89.03977412
_cell_angle_beta   89.03977412
_cell_angle_gamma   107.48636445
_symmetry_Int_Tables_number   1
_chemical_formula_structural   LiMn(PO3)4
_chemical_formula_sum   'Li2 Mn2 P8 O24'
_cell_volume   465.90588715
_cell_formula_units_Z   2
loop_
 _symmetry_equiv_pos_site_id
 _symmetry_equiv_pos_as_xyz
  1  'x, y, z'
loop_
 _atom_site_type_symbol
 _atom_site_label
 _atom_site_symmetry_multiplicity
 _atom_site_fract_x
 _atom_site_fract_y
 _atom_site_fract_z
 _atom_site_occupancy
  Li  Li0  1  0.14786400  0.85213600  0.25000000  1
  Li  Li1  1  0.85213600  0.14786400  0.75000000  1
  Mn  Mn2  1  0.88253100  0.11746900  0.25000000  1
  Mn  Mn3  1  0.11746900  0.88253100  0.75000000  1
  P  P4  1  0.28455500  0.66557100  0.97753500  1
  P  P5  1  0.66557100  0.28455500  0.47753500  1
  P  P6  1  0.27035800  0.21552200  0.04027800  1
  P  P7  1  0.78447800  0.72964200  0.45972200  1
  P  P8  1  0.21552200  0.27035800  0.54027800  1
  P  P9  1  0.72964200  0.78447800  0.95972200  1
  P  P10  1  0.33442900  0.71544500  0.52246500  1
  P  P11  1  0.71544500  0.33442900  0.02246500  1
  O  O12  1  0.26725300  0.77379000  0.10057100  1
  O  O13  1  0.66200600  0.14174600  0.36253700  1
  O  O14  1  0.14699600  0.13305300  0.16704100  1
  O  O15  1  0.77379000  0.26725300  0.60057100  1
  O  O16  1  0.76969100  0.90332500  0.08312800  1
  O  O17  1  0.14174600  0.66200600  0.86253700  1
  O  O18  1  0.56333900  0.74028000  0.48768000  1
  O  O19  1  0.49530700  0.25531900  0.09135100  1
  O  O20  1  0.74468100  0.50469300  0.40864900  1
  O  O21  1  0.25972000  0.43666100  0.01232000  1
  O  O22  1  0.13305300  0.14699600  0.66704100  1
  O  O23  1  0.09667500  0.23030900  0.41687200  1
  O  O24  1  0.90332500  0.76969100  0.58312800  1
  O  O25  1  0.86694700  0.85300400  0.33295900  1
  O  O26  1  0.74028000  0.56333900  0.98768000  1
  O  O27  1  0.25531900  0.49530700  0.59135100  1
  O  O28  1  0.50469300  0.74468100  0.90864900  1
  O  O29  1  0.43666100  0.25972000  0.51232000  1
  O  O30  1  0.85825400  0.33799400  0.13746300  1
  O  O31  1  0.23030900  0.09667500  0.91687200  1
  O  O32  1  0.22621000  0.73274700  0.39942900  1
  O  O33  1  0.85300400  0.86694700  0.83295900  1
  O  O34  1  0.33799400  0.85825400  0.63746300  1
  O  O35  1  0.73274700  0.22621000  0.89942900  1
