# generated using pymatgen
data_Li3MnV(PO4)3
_symmetry_space_group_name_H-M   'P 1'
_cell_length_a   8.65850153
_cell_length_b   8.65850153
_cell_length_c   6.32692517
_cell_angle_alpha   74.21412448
_cell_angle_beta   74.21412448
_cell_angle_gamma   95.36569138
_symmetry_Int_Tables_number   1
_chemical_formula_structural   Li3MnV(PO4)3
_chemical_formula_sum   'Li6 Mn2 V2 P6 O24'
_cell_volume   431.97642929
_cell_formula_units_Z   2
loop_
 _symmetry_equiv_pos_site_id
 _symmetry_equiv_pos_as_xyz
  1  'x, y, z'
loop_
 _atom_site_type_symbol
 _atom_site_label
 _atom_site_symmetry_multiplicity
 _atom_site_fract_x
 _atom_site_fract_y
 _atom_site_fract_z
 _atom_site_occupancy
  Li  Li0  1  0.99663900  0.00463900  0.75110200  1
  Li  Li1  1  0.71258500  0.28927700  0.25074800  1
  Li  Li2  1  0.50021600  0.49995800  0.49958800  1
  Li  Li3  1  0.49995800  0.50021600  0.99958800  1
  Li  Li4  1  0.28927700  0.71258500  0.75074800  1
  Li  Li5  1  0.00463900  0.99663900  0.25110200  1
  Mn  Mn6  1  0.37530900  0.05622100  0.86926200  1
  Mn  Mn7  1  0.05622100  0.37530900  0.36926200  1
  V  V8  1  0.94170600  0.62372300  0.63958700  1
  V  V9  1  0.62372300  0.94170600  0.13958700  1
  P  P10  1  0.71313000  0.28578800  0.75068300  1
  P  P11  1  0.86091400  0.66541300  0.13663900  1
  P  P12  1  0.66541300  0.86091400  0.63663900  1
  P  P13  1  0.33934100  0.13374700  0.36542300  1
  P  P14  1  0.13374700  0.33934100  0.86542300  1
  P  P15  1  0.28578800  0.71313000  0.25068300  1
  O  O16  1  0.98672100  0.66169400  0.91011000  1
  O  O17  1  0.94619200  0.61397500  0.32680300  1
  O  O18  1  0.74205200  0.17411400  0.96727000  1
  O  O19  1  0.82801000  0.26357300  0.52628100  1
  O  O20  1  0.84883200  0.84143900  0.59903800  1
  O  O21  1  0.73416900  0.46144200  0.76803000  1
  O  O22  1  0.84143900  0.84883200  0.09903800  1
  O  O23  1  0.70212200  0.54532000  0.20460700  1
  O  O24  1  0.61397500  0.94619200  0.82680300  1
  O  O25  1  0.66169400  0.98672100  0.41011000  1
  O  O26  1  0.53781400  0.25794500  0.72889500  1
  O  O27  1  0.54532000  0.70212200  0.70460700  1
  O  O28  1  0.45373900  0.29620500  0.29465700  1
  O  O29  1  0.46144200  0.73416900  0.26803000  1
  O  O30  1  0.34160500  0.01179200  0.59675300  1
  O  O31  1  0.40473700  0.04663400  0.17411800  1
  O  O32  1  0.29620500  0.45373900  0.79465700  1
  O  O33  1  0.14453600  0.15673400  0.89040400  1
  O  O34  1  0.25794500  0.53781400  0.22889500  1
  O  O35  1  0.15673400  0.14453600  0.39040400  1
  O  O36  1  0.17411400  0.74205200  0.46727000  1
  O  O37  1  0.26357300  0.82801000  0.02628100  1
  O  O38  1  0.04663400  0.40473700  0.67411800  1
  O  O39  1  0.01179200  0.34160500  0.09675300  1
