# generated using pymatgen
data_Li5V3P8O29
_symmetry_space_group_name_H-M   'P 1'
_cell_length_a   9.82332766
_cell_length_b   9.82332766
_cell_length_c   14.01667637
_cell_angle_alpha   89.81023250
_cell_angle_beta   89.81023250
_cell_angle_gamma   59.86674914
_symmetry_Int_Tables_number   1
_chemical_formula_structural   Li5V3P8O29
_chemical_formula_sum   'Li10 V6 P16 O58'
_cell_volume   1169.78234347
_cell_formula_units_Z   2
loop_
 _symmetry_equiv_pos_site_id
 _symmetry_equiv_pos_as_xyz
  1  'x, y, z'
loop_
 _atom_site_type_symbol
 _atom_site_label
 _atom_site_symmetry_multiplicity
 _atom_site_fract_x
 _atom_site_fract_y
 _atom_site_fract_z
 _atom_site_occupancy
  Li  Li0  1  0.22923300  0.68000200  0.06087100  1
  Li  Li1  1  0.09495800  0.67980500  0.56072500  1
  Li  Li2  1  0.68000200  0.22923300  0.56087100  1
  Li  Li3  1  0.67980500  0.09495800  0.06072500  1
  Li  Li4  1  0.77073800  0.90846800  0.43979100  1
  Li  Li5  1  0.90846800  0.77073800  0.93979100  1
  Li  Li6  1  0.31823400  0.91136000  0.94100900  1
  Li  Li7  1  0.31922400  0.77845500  0.44152300  1
  Li  Li8  1  0.91136000  0.31823400  0.44100900  1
  Li  Li9  1  0.77845500  0.31922400  0.94152300  1
  V  V10  1  0.57035000  0.43310100  0.75191600  1
  V  V11  1  0.99994800  0.56625200  0.74968800  1
  V  V12  1  0.56625200  0.99994800  0.24968800  1
  V  V13  1  0.42681500  0.00476700  0.74624800  1
  V  V14  1  0.00476700  0.42681500  0.24624800  1
  V  V15  1  0.43310100  0.57035000  0.25191600  1
  P  P16  1  0.23213000  0.67991800  0.84118200  1
  P  P17  1  0.08714700  0.67972600  0.34164100  1
  P  P18  1  0.67991800  0.23213000  0.34118200  1
  P  P19  1  0.33616100  0.33550200  0.62758700  1
  P  P20  1  0.33550200  0.33616100  0.12758700  1
  P  P21  1  0.67972600  0.08714700  0.84164100  1
  P  P22  1  0.76705900  0.91395100  0.65874100  1
  P  P23  1  0.08619400  0.23201800  0.84141600  1
  P  P24  1  0.91395100  0.76705900  0.15874100  1
  P  P25  1  0.23201800  0.08619400  0.34141600  1
  P  P26  1  0.31810100  0.91370200  0.15704900  1
  P  P27  1  0.66540500  0.67047500  0.87184400  1
  P  P28  1  0.67047500  0.66540500  0.37184400  1
  P  P29  1  0.32073400  0.76914800  0.65910700  1
  P  P30  1  0.91370200  0.31810100  0.65704900  1
  P  P31  1  0.76914800  0.32073400  0.15910700  1
  O  O32  1  0.23964100  0.76403000  0.56970800  1
  O  O33  1  0.25134000  0.66376300  0.34322900  1
  O  O34  1  0.00029600  0.79003600  0.24978000  1
  O  O35  1  0.00368000  0.75442600  0.06831500  1
  O  O36  1  0.38191400  0.51993300  0.82321400  1
  O  O37  1  0.08335400  0.66392800  0.83979800  1
  O  O38  1  0.32621400  0.48794900  0.16698900  1
  O  O39  1  0.51993300  0.38191400  0.32321400  1
  O  O40  1  0.76403000  0.23964100  0.06970800  1
  O  O41  1  0.66376300  0.25134000  0.84322900  1
  O  O42  1  0.18766600  0.48688800  0.66730600  1
  O  O43  1  0.48794900  0.32621400  0.66698900  1
  O  O44  1  0.09553900  0.52118800  0.32227900  1
  O  O45  1  0.33605800  0.33017700  0.52135300  1
  O  O46  1  0.33017700  0.33605800  0.02135300  1
  O  O47  1  0.10038300  0.37960600  0.82485300  1
  O  O48  1  0.48688800  0.18766600  0.16730600  1
  O  O49  1  0.18522600  0.33442200  0.17436000  1
  O  O50  1  0.66392800  0.08335400  0.33979800  1
  O  O51  1  0.79003600  0.00029600  0.74978000  1
  O  O52  1  0.75760400  0.99776500  0.93151000  1
  O  O53  1  0.75442600  0.00368000  0.56831500  1
  O  O54  1  0.52118800  0.09553900  0.82227900  1
  O  O55  1  0.33442200  0.18522600  0.67436000  1
  O  O56  1  0.08088900  0.25639200  0.33697800  1
  O  O57  1  0.74874000  0.91748200  0.15702300  1
  O  O58  1  0.37960600  0.10038300  0.32485300  1
  O  O59  1  0.99776500  0.75760400  0.43151000  1
  O  O60  1  0.99090900  0.24907300  0.56521500  1
  O  O61  1  0.61675200  0.90451500  0.67717800  1
  O  O62  1  0.25639200  0.08088900  0.83697800  1
  O  O63  1  0.00464500  0.21012400  0.74628200  1
  O  O64  1  0.91748200  0.74874000  0.65702300  1
  O  O65  1  0.67254500  0.81673900  0.32989600  1
  O  O66  1  0.48028900  0.89776000  0.17617300  1
  O  O67  1  0.24907300  0.99090900  0.06521500  1
  O  O68  1  0.23311300  0.99719300  0.42659300  1
  O  O69  1  0.21012400  0.00464500  0.24628200  1
  O  O70  1  0.33927600  0.91707700  0.66511400  1
  O  O71  1  0.81673900  0.67254500  0.82989600  1
  O  O72  1  0.90451500  0.61675200  0.17717800  1
  O  O73  1  0.51233100  0.81907100  0.82891400  1
  O  O74  1  0.67394200  0.66618900  0.47757900  1
  O  O75  1  0.66618900  0.67394200  0.97757900  1
  O  O76  1  0.89776000  0.48028900  0.67617300  1
  O  O77  1  0.51452800  0.67425700  0.33380900  1
  O  O78  1  0.81907100  0.51233100  0.32891400  1
  O  O79  1  0.33465700  0.74616500  0.16474000  1
  O  O80  1  0.20979700  0.79010100  0.74989000  1
  O  O81  1  0.24264100  0.75752600  0.93082900  1
  O  O82  1  0.48009300  0.62114500  0.67511800  1
  O  O83  1  0.67425700  0.51452800  0.83380900  1
  O  O84  1  0.91707700  0.33927600  0.16511400  1
  O  O85  1  0.62114500  0.48009300  0.17511800  1
  O  O86  1  0.99719300  0.23311300  0.92659300  1
  O  O87  1  0.74616500  0.33465700  0.66474000  1
  O  O88  1  0.75752600  0.24264100  0.43082900  1
  O  O89  1  0.79010100  0.20979700  0.24989000  1
