# generated using pymatgen
data_Li4Ti3Cr3(CoO8)2
_symmetry_space_group_name_H-M   'P 1'
_cell_length_a   5.90237300
_cell_length_b   5.91197080
_cell_length_c   9.58197984
_cell_angle_alpha   90.49907445
_cell_angle_beta   89.97056873
_cell_angle_gamma   119.76653919
_symmetry_Int_Tables_number   1
_chemical_formula_structural   Li4Ti3Cr3(CoO8)2
_chemical_formula_sum   'Li4 Ti3 Cr3 Co2 O16'
_cell_volume   290.22915410
_cell_formula_units_Z   1
loop_
 _symmetry_equiv_pos_site_id
 _symmetry_equiv_pos_as_xyz
  1  'x, y, z'
loop_
 _atom_site_type_symbol
 _atom_site_label
 _atom_site_symmetry_multiplicity
 _atom_site_fract_x
 _atom_site_fract_y
 _atom_site_fract_z
 _atom_site_occupancy
  Li  Li0  1  0.33326300  0.66378100  0.89287000  1
  Li  Li1  1  0.99105600  0.99545000  0.99451000  1
  Li  Li2  1  0.00140500  0.99952200  0.49746000  1
  Li  Li3  1  0.66453600  0.33296700  0.39531700  1
  Ti  Ti4  1  0.17108800  0.83490800  0.21271800  1
  Ti  Ti5  1  0.16857300  0.33969200  0.21510000  1
  Ti  Ti6  1  0.34874400  0.16808600  0.71971200  1
  Cr  Cr7  1  0.65708200  0.82901900  0.21411500  1
  Cr  Cr8  1  0.83053700  0.65922800  0.71377900  1
  Cr  Cr9  1  0.83964500  0.17124700  0.70844700  1
  Co  Co10  1  0.32928800  0.67538100  0.48859300  1
  Co  Co11  1  0.67838200  0.33678800  0.98829500  1
  O  O12  1  0.17300800  0.83842900  0.59849800  1
  O  O13  1  0.03455200  0.51919800  0.33463500  1
  O  O14  1  0.32263200  0.65902400  0.10295400  1
  O  O15  1  0.00044800  0.00321400  0.31098200  1
  O  O16  1  0.00724000  0.00424000  0.80889500  1
  O  O17  1  0.15906500  0.32696600  0.60532500  1
  O  O18  1  0.47272400  0.96316100  0.33730700  1
  O  O19  1  0.47005600  0.51724600  0.34285600  1
  O  O20  1  0.32693400  0.16359600  0.10416600  1
  O  O21  1  0.67675400  0.84936500  0.60577600  1
  O  O22  1  0.51792400  0.47310100  0.84283600  1
  O  O23  1  0.52262300  0.03615100  0.83520200  1
  O  O24  1  0.65896800  0.32688700  0.60294100  1
  O  O25  1  0.84384700  0.67286800  0.10117100  1
  O  O26  1  0.96018300  0.46916600  0.83314400  1
  O  O27  1  0.83944400  0.17162100  0.10023400  1
