# generated using pymatgen
data_Li4V3P8O29
_symmetry_space_group_name_H-M   'P 1'
_cell_length_a   9.75248900
_cell_length_b   9.75540145
_cell_length_c   14.29849382
_cell_angle_alpha   89.69678897
_cell_angle_beta   89.80609109
_cell_angle_gamma   60.39215202
_symmetry_Int_Tables_number   1
_chemical_formula_structural   Li4V3P8O29
_chemical_formula_sum   'Li8 V6 P16 O58'
_cell_volume   1182.70902536
_cell_formula_units_Z   2
loop_
 _symmetry_equiv_pos_site_id
 _symmetry_equiv_pos_as_xyz
  1  'x, y, z'
loop_
 _atom_site_type_symbol
 _atom_site_label
 _atom_site_symmetry_multiplicity
 _atom_site_fract_x
 _atom_site_fract_y
 _atom_site_fract_z
 _atom_site_occupancy
  Li  Li0  1  0.33110000  0.90750500  0.43640700  1
  Li  Li1  1  0.32615100  0.76681900  0.93883700  1
  Li  Li2  1  0.90483400  0.33637400  0.93729000  1
  Li  Li3  1  0.76579300  0.33319800  0.44139500  1
  Li  Li4  1  0.09314400  0.66980600  0.06087800  1
  Li  Li5  1  0.67364100  0.09127800  0.56145000  1
  Li  Li6  1  0.94088900  0.04182200  0.00277100  1
  Li  Li7  1  0.03364000  0.94556900  0.50081100  1
  V  V8  1  0.43267400  0.56370100  0.74846300  1
  V  V9  1  0.56424400  0.43294800  0.24826300  1
  V  V10  1  0.99621500  0.56692100  0.25532700  1
  V  V11  1  0.00103700  0.43574200  0.74562300  1
  V  V12  1  0.56631900  0.99653400  0.75628900  1
  V  V13  1  0.43611100  0.00153900  0.24741500  1
  P  P14  1  0.78281000  0.91728400  0.16338700  1
  P  P15  1  0.91621400  0.78313400  0.66307300  1
  P  P16  1  0.31355200  0.91402600  0.65614300  1
  P  P17  1  0.66898800  0.66052200  0.86796800  1
  P  P18  1  0.66376200  0.66379600  0.36838500  1
  P  P19  1  0.31695700  0.77238900  0.15692500  1
  P  P20  1  0.22181800  0.69305400  0.33684200  1
  P  P21  1  0.91243100  0.31435800  0.15543100  1
  P  P22  1  0.08611400  0.68441300  0.84513700  1
  P  P23  1  0.77210600  0.31659000  0.65625200  1
  P  P24  1  0.69281100  0.22230700  0.83652000  1
  P  P25  1  0.33927400  0.32577600  0.63438900  1
  P  P26  1  0.32593100  0.34049100  0.13391700  1
  P  P27  1  0.68656200  0.08640000  0.34545300  1
  P  P28  1  0.08408600  0.21790300  0.33537600  1
  P  P29  1  0.21592000  0.08558900  0.83549600  1
  O  O30  1  0.76388100  0.01784200  0.43700100  1
  O  O31  1  0.73948200  0.92071700  0.66810200  1
  O  O32  1  0.01736800  0.75873200  0.93695000  1
  O  O33  1  0.92064000  0.74080900  0.16847100  1
  O  O34  1  0.62500700  0.91999500  0.17024000  1
  O  O35  1  0.66559300  0.81267300  0.82310600  1
  O  O36  1  0.46852700  0.91668500  0.67282800  1
  O  O37  1  0.20636400  0.98996000  0.91436100  1
  O  O38  1  0.34622100  0.91285000  0.16519100  1
  O  O39  1  0.81169900  0.66553900  0.32172200  1
  O  O40  1  0.91985100  0.62463400  0.66859700  1
  O  O41  1  0.51334000  0.81168200  0.33107700  1
  O  O42  1  0.67949500  0.65609300  0.97180700  1
  O  O43  1  0.67264100  0.65254700  0.47224100  1
  O  O44  1  0.51271400  0.66932500  0.83169700  1
  O  O45  1  0.91567400  0.46910000  0.17167800  1
  O  O46  1  0.81081600  0.51338300  0.82330400  1
  O  O47  1  0.34492700  0.74298200  0.67427400  1
  O  O48  1  0.19896200  0.78965300  0.24035700  1
  O  O49  1  0.20732400  0.79871100  0.41625600  1
  O  O50  1  0.24007200  0.76807500  0.06704000  1
  O  O51  1  0.47432500  0.61780600  0.17538300  1
  O  O52  1  0.67042700  0.51142100  0.32669400  1
  O  O53  1  0.25912800  0.65598000  0.83673800  1
  O  O54  1  0.61693400  0.47413000  0.67502600  1
  O  O55  1  0.91371900  0.34378200  0.66274400  1
  O  O56  1  0.99054100  0.80301800  0.76102900  1
  O  O57  1  0.99707700  0.81000700  0.58295900  1
  O  O58  1  0.98878600  0.20946000  0.41466200  1
  O  O59  1  0.08552000  0.65436200  0.33617500  1
  O  O60  1  0.38202100  0.54030100  0.32874400  1
  O  O61  1  0.74162200  0.34420400  0.17203500  1
  O  O62  1  0.33995200  0.47649000  0.68020700  1
  O  O63  1  0.53891800  0.38210500  0.82799000  1
  O  O64  1  0.79731400  0.21060400  0.91607200  1
  O  O65  1  0.76720000  0.23891600  0.56692500  1
  O  O66  1  0.78908600  0.19898300  0.74024100  1
  O  O67  1  0.65472100  0.26010300  0.33718700  1
  O  O68  1  0.18096000  0.49093100  0.17852300  1
  O  O69  1  0.08952800  0.52720800  0.82626800  1
  O  O70  1  0.47495000  0.34149200  0.18094600  1
  O  O71  1  0.32335700  0.36019400  0.03086200  1
  O  O72  1  0.35369100  0.32301700  0.53107700  1
  O  O73  1  0.49063900  0.18211100  0.67911400  1
  O  O74  1  0.08010800  0.37950300  0.32556000  1
  O  O75  1  0.19563300  0.32329300  0.67662000  1
  O  O76  1  0.65417900  0.08619800  0.83675500  1
  O  O77  1  0.80340700  0.99259800  0.26079200  1
  O  O78  1  0.80922000  0.99781000  0.08289800  1
  O  O79  1  0.53004400  0.08625300  0.32820600  1
  O  O80  1  0.32608100  0.19474000  0.17510900  1
  O  O81  1  0.37859000  0.07983400  0.82630600  1
  O  O82  1  0.08021200  0.25757000  0.83793200  1
  O  O83  1  0.97180600  0.23868700  0.06223200  1
  O  O84  1  0.01499600  0.19506100  0.23717700  1
  O  O85  1  0.25588200  0.08153900  0.33774500  1
  O  O86  1  0.23965700  0.97175200  0.56229800  1
  O  O87  1  0.19319000  0.01767700  0.73676500  1
