# generated using pymatgen
data_Li2V3FeO8
_symmetry_space_group_name_H-M   'P 1'
_cell_length_a   5.90489725
_cell_length_b   5.90489725
_cell_length_c   9.61075800
_cell_angle_alpha   90.00000000
_cell_angle_beta   90.00000000
_cell_angle_gamma   119.33502686
_symmetry_Int_Tables_number   1
_chemical_formula_structural   Li2V3FeO8
_chemical_formula_sum   'Li4 V6 Fe2 O16'
_cell_volume   292.13542093
_cell_formula_units_Z   2
loop_
 _symmetry_equiv_pos_site_id
 _symmetry_equiv_pos_as_xyz
  1  'x, y, z'
loop_
 _atom_site_type_symbol
 _atom_site_label
 _atom_site_symmetry_multiplicity
 _atom_site_fract_x
 _atom_site_fract_y
 _atom_site_fract_z
 _atom_site_occupancy
  Li  Li0  1  0.33423200  0.66576800  0.89421000  1
  Li  Li1  1  0.99692600  0.00307400  0.99534700  1
  Li  Li2  1  0.00307400  0.99692600  0.49534700  1
  Li  Li3  1  0.66576800  0.33423200  0.39421000  1
  V  V4  1  0.16522300  0.34119600  0.21562200  1
  V  V5  1  0.65880400  0.83477700  0.21562200  1
  V  V6  1  0.17104600  0.82895400  0.21027000  1
  V  V7  1  0.82895400  0.17104600  0.71027000  1
  V  V8  1  0.34119600  0.16522300  0.71562200  1
  V  V9  1  0.83477700  0.65880400  0.71562200  1
  Fe  Fe10  1  0.33878600  0.66121400  0.49185300  1
  Fe  Fe11  1  0.66121400  0.33878600  0.99185300  1
  O  O12  1  0.17003200  0.32297600  0.60396800  1
  O  O13  1  0.48115600  0.51884400  0.33699800  1
  O  O14  1  0.34314000  0.65686000  0.09997100  1
  O  O15  1  0.99576000  0.00424000  0.30993300  1
  O  O16  1  0.00424000  0.99576000  0.80993300  1
  O  O17  1  0.67702400  0.82996800  0.60396800  1
  O  O18  1  0.03920800  0.50864800  0.33715900  1
  O  O19  1  0.49135200  0.96079200  0.33715900  1
  O  O20  1  0.83316800  0.16683200  0.10252900  1
  O  O21  1  0.16683200  0.83316800  0.60252900  1
  O  O22  1  0.50864800  0.03920800  0.83715900  1
  O  O23  1  0.96079200  0.49135200  0.83715900  1
  O  O24  1  0.65686000  0.34314000  0.59997100  1
  O  O25  1  0.32297600  0.17003200  0.10396800  1
  O  O26  1  0.51884400  0.48115600  0.83699800  1
  O  O27  1  0.82996800  0.67702400  0.10396800  1
