# generated using pymatgen
data_Li3V3CrO8
_symmetry_space_group_name_H-M   'P 1'
_cell_length_a   5.21721800
_cell_length_b   5.97288538
_cell_length_c   10.70777397
_cell_angle_alpha   73.80652233
_cell_angle_beta   75.96538170
_cell_angle_gamma   73.11347277
_symmetry_Int_Tables_number   1
_chemical_formula_structural   Li3V3CrO8
_chemical_formula_sum   'Li6 V6 Cr2 O16'
_cell_volume   301.84650907
_cell_formula_units_Z   2
loop_
 _symmetry_equiv_pos_site_id
 _symmetry_equiv_pos_as_xyz
  1  'x, y, z'
loop_
 _atom_site_type_symbol
 _atom_site_label
 _atom_site_symmetry_multiplicity
 _atom_site_fract_x
 _atom_site_fract_y
 _atom_site_fract_z
 _atom_site_occupancy
  Li  Li0  1  0.00672200  0.37453200  0.74594000  1
  Li  Li1  1  0.00252200  0.11302200  0.25230700  1
  Li  Li2  1  0.99811700  0.50480400  0.00198500  1
  Li  Li3  1  0.99451300  0.87767100  0.75203100  1
  Li  Li4  1  0.99854400  0.26114800  0.49896900  1
  Li  Li5  1  0.00104100  0.63587500  0.24999600  1
  V  V6  1  0.49728300  0.18468300  0.87778700  1
  V  V7  1  0.50250600  0.55957100  0.62315400  1
  V  V8  1  0.49301800  0.93054000  0.38194200  1
  V  V9  1  0.51386700  0.30834700  0.11942800  1
  V  V10  1  0.47949300  0.69648300  0.87659900  1
  V  V11  1  0.52209800  0.05759600  0.62052600  1
  Cr  Cr12  1  0.49295000  0.43965700  0.37259800  1
  Cr  Cr13  1  0.50030800  0.81131600  0.12569900  1
  O  O14  1  0.28321200  0.77874900  0.30777400  1
  O  O15  1  0.28412000  0.15233900  0.07012800  1
  O  O16  1  0.26564300  0.52437800  0.81315100  1
  O  O17  1  0.28192000  0.90770000  0.55277500  1
  O  O18  1  0.28138700  0.27251600  0.30650200  1
  O  O19  1  0.28123400  0.63387400  0.06926300  1
  O  O20  1  0.28220300  0.03735900  0.80091500  1
  O  O21  1  0.29122300  0.39072900  0.55979500  1
  O  O22  1  0.71529200  0.59926300  0.43175100  1
  O  O23  1  0.70816300  0.97239300  0.20101900  1
  O  O24  1  0.71666200  0.35347400  0.94808900  1
  O  O25  1  0.71600900  0.71903400  0.69458900  1
  O  O26  1  0.71903400  0.10670800  0.43065800  1
  O  O27  1  0.72397600  0.47190800  0.18625900  1
  O  O28  1  0.70918700  0.84802000  0.93895100  1
  O  O29  1  0.73775500  0.22630800  0.68942100  1
