# generated using pymatgen
data_Li3ZnFe2(PO4)3
_symmetry_space_group_name_H-M   'P 1'
_cell_length_a   6.05204900
_cell_length_b   10.35067100
_cell_length_c   14.26905808
_cell_angle_alpha   89.97768650
_cell_angle_beta   90.00000000
_cell_angle_gamma   90.00000000
_symmetry_Int_Tables_number   1
_chemical_formula_structural   Li3ZnFe2(PO4)3
_chemical_formula_sum   'Li12 Zn4 Fe8 P12 O48'
_cell_volume   893.85322830
_cell_formula_units_Z   4
loop_
 _symmetry_equiv_pos_site_id
 _symmetry_equiv_pos_as_xyz
  1  'x, y, z'
loop_
 _atom_site_type_symbol
 _atom_site_label
 _atom_site_symmetry_multiplicity
 _atom_site_fract_x
 _atom_site_fract_y
 _atom_site_fract_z
 _atom_site_occupancy
  Li  Li0  1  0.74918400  0.00045400  0.66649900  1
  Li  Li1  1  0.25063200  0.99960300  0.00026700  1
  Li  Li2  1  0.74936800  0.99960300  0.00026700  1
  Li  Li3  1  0.24968000  0.00092800  0.33347800  1
  Li  Li4  1  0.75032000  0.00092800  0.33347800  1
  Li  Li5  1  0.25081600  0.00045400  0.66649900  1
  Li  Li6  1  0.24965800  0.49903500  0.50020700  1
  Li  Li7  1  0.75034200  0.49903500  0.50020700  1
  Li  Li8  1  0.24995500  0.49983800  0.16665100  1
  Li  Li9  1  0.75004500  0.49983800  0.16665100  1
  Li  Li10  1  0.25053600  0.49943600  0.83306800  1
  Li  Li11  1  0.74946400  0.49943600  0.83306800  1
  Zn  Zn12  1  0.00000000  0.21890900  0.49231900  1
  Zn  Zn13  1  0.00000000  0.21891700  0.82590000  1
  Zn  Zn14  1  0.50000000  0.28096900  0.32617500  1
  Zn  Zn15  1  0.00000000  0.71854800  0.00739900  1
  Fe  Fe16  1  0.00000000  0.22036600  0.15816000  1
  Fe  Fe17  1  0.50000000  0.27940100  0.65842900  1
  Fe  Fe18  1  0.50000000  0.28066900  0.99123400  1
  Fe  Fe19  1  0.00000000  0.71965600  0.34215600  1
  Fe  Fe20  1  0.00000000  0.72052900  0.67522000  1
  Fe  Fe21  1  0.50000000  0.78016300  0.17531400  1
  Fe  Fe22  1  0.50000000  0.78007200  0.50751300  1
  Fe  Fe23  1  0.50000000  0.78019300  0.84223200  1
  P  P24  1  0.50000000  0.09407000  0.13920300  1
  P  P25  1  0.50000000  0.09396100  0.47217600  1
  P  P26  1  0.50000000  0.09356700  0.80594300  1
  P  P27  1  0.00000000  0.40555700  0.30580500  1
  P  P28  1  0.00000000  0.40608200  0.63915500  1
  P  P29  1  0.00000000  0.40749100  0.97264300  1
  P  P30  1  0.50000000  0.59383600  0.02771800  1
  P  P31  1  0.50000000  0.59184700  0.36045400  1
  P  P32  1  0.50000000  0.59317600  0.69422300  1
  P  P33  1  0.00000000  0.90773200  0.86063900  1
  P  P34  1  0.00000000  0.90609400  0.19415200  1
  P  P35  1  0.00000000  0.90801000  0.52760400  1
  O  O36  1  0.00000000  0.04468300  0.23574400  1
  O  O37  1  0.00000000  0.04723300  0.56923700  1
  O  O38  1  0.00000000  0.04672200  0.90271900  1
  O  O39  1  0.50000000  0.09717300  0.24696600  1
  O  O40  1  0.50000000  0.09460500  0.57998600  1
  O  O41  1  0.50000000  0.09454900  0.91365600  1
  O  O42  1  0.29582400  0.16488300  0.09452100  1
  O  O43  1  0.70417600  0.16488300  0.09452100  1
  O  O44  1  0.29552400  0.16551500  0.42768300  1
  O  O45  1  0.29523000  0.16482800  0.76140200  1
  O  O46  1  0.70447600  0.16551500  0.42768300  1
  O  O47  1  0.70477000  0.16482800  0.76140200  1
  O  O48  1  0.20402600  0.33499800  0.59449000  1
  O  O49  1  0.20493400  0.33501900  0.26097900  1
  O  O50  1  0.20340100  0.33560300  0.92798800  1
  O  O51  1  0.79597400  0.33499800  0.59449000  1
  O  O52  1  0.79659900  0.33560300  0.92798800  1
  O  O53  1  0.79506600  0.33501900  0.26097900  1
  O  O54  1  0.00000000  0.40599900  0.08010600  1
  O  O55  1  0.00000000  0.40251100  0.41378400  1
  O  O56  1  0.00000000  0.40261600  0.74696800  1
  O  O57  1  0.50000000  0.45298400  0.40261100  1
  O  O58  1  0.50000000  0.45502900  0.06965800  1
  O  O59  1  0.50000000  0.45486300  0.73675400  1
  O  O60  1  0.00000000  0.54473500  0.26448600  1
  O  O61  1  0.00000000  0.54653600  0.93032300  1
  O  O62  1  0.00000000  0.54503200  0.59749600  1
  O  O63  1  0.50000000  0.59386300  0.25292900  1
  O  O64  1  0.50000000  0.59496500  0.91987100  1
  O  O65  1  0.50000000  0.59437200  0.58650800  1
  O  O66  1  0.29504700  0.66492900  0.07210800  1
  O  O67  1  0.29633100  0.66337000  0.40517500  1
  O  O68  1  0.70495300  0.66492900  0.07210800  1
  O  O69  1  0.70366900  0.66337000  0.40517500  1
  O  O70  1  0.29595900  0.66479400  0.73844800  1
  O  O71  1  0.70404100  0.66479400  0.73844800  1
  O  O72  1  0.79661900  0.83578100  0.90521300  1
  O  O73  1  0.20338100  0.83578100  0.90521300  1
  O  O74  1  0.79596400  0.83503100  0.23873400  1
  O  O75  1  0.79578600  0.83690800  0.57217900  1
  O  O76  1  0.20403600  0.83503100  0.23873400  1
  O  O77  1  0.20421400  0.83690800  0.57217900  1
  O  O78  1  0.00000000  0.90618300  0.75298100  1
  O  O79  1  0.00000000  0.90276600  0.08617100  1
  O  O80  1  0.00000000  0.90551000  0.42002400  1
  O  O81  1  0.50000000  0.95485300  0.76371400  1
  O  O82  1  0.50000000  0.95527700  0.09745800  1
  O  O83  1  0.50000000  0.95522000  0.42990600  1
