# generated using pymatgen
data_Li6Co3Sb(PO4)6
_symmetry_space_group_name_H-M   'P 1'
_cell_length_a   8.65042500
_cell_length_b   8.68325799
_cell_length_c   8.71344413
_cell_angle_alpha   60.97238793
_cell_angle_beta   60.83255077
_cell_angle_gamma   61.21500162
_symmetry_Int_Tables_number   1
_chemical_formula_structural   Li6Co3Sb(PO4)6
_chemical_formula_sum   'Li6 Co3 Sb1 P6 O24'
_cell_volume   473.28464229
_cell_formula_units_Z   1
loop_
 _symmetry_equiv_pos_site_id
 _symmetry_equiv_pos_as_xyz
  1  'x, y, z'
loop_
 _atom_site_type_symbol
 _atom_site_label
 _atom_site_symmetry_multiplicity
 _atom_site_fract_x
 _atom_site_fract_y
 _atom_site_fract_z
 _atom_site_occupancy
  Li  Li0  1  0.03143900  0.01906100  0.00673900  1
  Li  Li1  1  0.73829300  0.15981400  0.35130000  1
  Li  Li2  1  0.47170700  0.49760400  0.48695700  1
  Li  Li3  1  0.30873300  0.84091800  0.63916000  1
  Li  Li4  1  0.64061300  0.30962700  0.83921800  1
  Li  Li5  1  0.84001500  0.64064700  0.31016600  1
  Co  Co6  1  0.14491100  0.15012500  0.14004300  1
  Co  Co7  1  0.35487300  0.35822100  0.35311300  1
  Co  Co8  1  0.64699900  0.65131100  0.64829200  1
  Sb  Sb9  1  0.85523000  0.85191600  0.85212800  1
  P  P10  1  0.05177900  0.74835100  0.44327000  1
  P  P11  1  0.44891400  0.05070000  0.74499000  1
  P  P12  1  0.74608900  0.44829000  0.04774300  1
  P  P13  1  0.24524600  0.53911500  0.95785800  1
  P  P14  1  0.54362400  0.96090400  0.24713000  1
  P  P15  1  0.95400100  0.24483800  0.53561200  1
  O  O16  1  0.13317100  0.26087900  0.50576300  1
  O  O17  1  0.27692200  0.52303400  0.12041700  1
  O  O18  1  0.05552700  0.92372300  0.26597100  1
  O  O19  1  0.54854900  0.11726500  0.27655100  1
  O  O20  1  0.23743300  0.59333900  0.43454600  1
  O  O21  1  0.00909500  0.80572700  0.61302500  1
  O  O22  1  0.26424700  0.07896500  0.90697200  1
  O  O23  1  0.46780900  0.22583800  0.57551500  1
  O  O24  1  0.59521200  0.43753100  0.23979100  1
  O  O25  1  0.17028200  0.39048900  0.99895300  1
  O  O26  1  0.09501300  0.74672800  0.90609500  1
  O  O27  1  0.38236500  0.01380200  0.18481200  1
  O  O28  1  0.61526600  0.00172000  0.81021400  1
  O  O29  1  0.90828500  0.25991500  0.07040200  1
  O  O30  1  0.80943600  0.61317100  0.00320300  1
  O  O31  1  0.41252900  0.54678500  0.77377600  1
  O  O32  1  0.54824300  0.77686400  0.41421900  1
  O  O33  1  0.74684200  0.90451100  0.09262900  1
  O  O34  1  0.96519100  0.18548900  0.38911300  1
  O  O35  1  0.77521300  0.41524700  0.55579400  1
  O  O36  1  0.47331800  0.89153300  0.69593800  1
  O  O37  1  0.90821000  0.09237000  0.74333700  1
  O  O38  1  0.68766600  0.47829400  0.89480300  1
  O  O39  1  0.89170800  0.69433900  0.47544300  1
