# generated using pymatgen
data_K4Li3Mn2O8
_symmetry_space_group_name_H-M   'P 1'
_cell_length_a   8.45118200
_cell_length_b   5.64931600
_cell_length_c   11.45768997
_cell_angle_alpha   72.60821518
_cell_angle_beta   90.00000000
_cell_angle_gamma   90.00000000
_symmetry_Int_Tables_number   1
_chemical_formula_structural   K4Li3Mn2O8
_chemical_formula_sum   'K8 Li6 Mn4 O16'
_cell_volume   522.02062889
_cell_formula_units_Z   2
loop_
 _symmetry_equiv_pos_site_id
 _symmetry_equiv_pos_as_xyz
  1  'x, y, z'
loop_
 _atom_site_type_symbol
 _atom_site_label
 _atom_site_symmetry_multiplicity
 _atom_site_fract_x
 _atom_site_fract_y
 _atom_site_fract_z
 _atom_site_occupancy
  K  K0  1  0.25342700  0.32666600  0.84507300  1
  K  K1  1  0.98979000  0.78284700  0.38029600  1
  K  K2  1  0.75100100  0.68969500  0.66379400  1
  K  K3  1  0.01021000  0.78284700  0.88029600  1
  K  K4  1  0.46039800  0.26322200  0.11414400  1
  K  K5  1  0.74657300  0.32666600  0.34507300  1
  K  K6  1  0.53960200  0.26322200  0.61414400  1
  K  K7  1  0.24899900  0.68969500  0.16379400  1
  Li  Li8  1  0.72013900  0.34060700  0.92344600  1
  Li  Li9  1  0.23548800  0.62347700  0.56833500  1
  Li  Li10  1  0.70113500  0.89707400  0.20147600  1
  Li  Li11  1  0.29886500  0.89707400  0.70147600  1
  Li  Li12  1  0.27986100  0.34060700  0.42344600  1
  Li  Li13  1  0.76451200  0.62347700  0.06833500  1
  Mn  Mn14  1  0.95856700  0.13112500  0.06972200  1
  Mn  Mn15  1  0.46426200  0.86747900  0.42847200  1
  Mn  Mn16  1  0.04143300  0.13112500  0.56972200  1
  Mn  Mn17  1  0.53573800  0.86747900  0.92847200  1
  O  O18  1  0.54749300  0.19762500  0.86464700  1
  O  O19  1  0.94009300  0.22678300  0.91402700  1
  O  O20  1  0.29781400  0.69202800  0.39836100  1
  O  O21  1  0.66541700  0.82048500  0.37815200  1
  O  O22  1  0.43730700  0.76721000  0.59721500  1
  O  O23  1  0.07387900  0.81176200  0.63276300  1
  O  O24  1  0.14037200  0.21359000  0.10508100  1
  O  O25  1  0.70218600  0.69202800  0.89836100  1
  O  O26  1  0.79049000  0.25417400  0.12086200  1
  O  O27  1  0.33458300  0.82048500  0.87815200  1
  O  O28  1  0.45250700  0.19762500  0.36464700  1
  O  O29  1  0.05990700  0.22678300  0.41402700  1
  O  O30  1  0.85962800  0.21359000  0.60508100  1
  O  O31  1  0.20951000  0.25417400  0.62086200  1
  O  O32  1  0.56269300  0.76721000  0.09721500  1
  O  O33  1  0.92612100  0.81176200  0.13276300  1
