# generated using pymatgen
data_Li9V3P8O29
_symmetry_space_group_name_H-M   'P 1'
_cell_length_a   9.91686200
_cell_length_b   9.92451249
_cell_length_c   13.77358011
_cell_angle_alpha   89.81092924
_cell_angle_beta   89.81461676
_cell_angle_gamma   60.03107492
_symmetry_Int_Tables_number   1
_chemical_formula_structural   Li9V3P8O29
_chemical_formula_sum   'Li18 V6 P16 O58'
_cell_volume   1174.33968116
_cell_formula_units_Z   2
loop_
 _symmetry_equiv_pos_site_id
 _symmetry_equiv_pos_as_xyz
  1  'x, y, z'
loop_
 _atom_site_type_symbol
 _atom_site_label
 _atom_site_symmetry_multiplicity
 _atom_site_fract_x
 _atom_site_fract_y
 _atom_site_fract_z
 _atom_site_occupancy
  Li  Li0  1  0.90414500  0.32993500  0.93821300  1
  Li  Li1  1  0.76140800  0.32913000  0.42658200  1
  Li  Li2  1  0.90829200  0.77335900  0.43602100  1
  Li  Li3  1  0.66850600  0.66709500  0.62256000  1
  Li  Li4  1  0.66789900  0.63674800  0.11910100  1
  Li  Li5  1  0.77109800  0.89952400  0.93907900  1
  Li  Li6  1  0.32932900  0.76646800  0.93532000  1
  Li  Li7  1  0.65305600  0.10348000  0.56556500  1
  Li  Li8  1  0.66876200  0.23648400  0.07499000  1
  Li  Li9  1  0.23075800  0.10348500  0.06011500  1
  Li  Li10  1  0.56242000  0.42758700  0.24356900  1
  Li  Li11  1  0.36674400  0.33085000  0.37821500  1
  Li  Li12  1  0.33223400  0.33445300  0.87982100  1
  Li  Li13  1  0.09973700  0.23586500  0.56261000  1
  Li  Li14  1  0.23171300  0.66607900  0.56457000  1
  Li  Li15  1  0.10267500  0.66682100  0.06654000  1
  Li  Li16  1  0.99456000  0.00263900  0.01323300  1
  Li  Li17  1  0.92432200  0.03658700  0.49609800  1
  V  V18  1  0.56991400  0.99913600  0.75410700  1
  V  V19  1  0.43237500  0.00663000  0.23880100  1
  V  V20  1  0.36554300  0.88115600  0.43739100  1
  V  V21  1  0.43675900  0.56256200  0.74940500  1
  V  V22  1  0.99871700  0.43599000  0.74926400  1
  V  V23  1  0.00485000  0.56293900  0.25289200  1
  P  P24  1  0.91204600  0.31354600  0.15795800  1
  P  P25  1  0.77503100  0.31295600  0.65601400  1
  P  P26  1  0.91035700  0.77516600  0.65424600  1
  P  P27  1  0.66734300  0.66638100  0.87674000  1
  P  P28  1  0.66071700  0.67377800  0.37912100  1
  P  P29  1  0.77737900  0.90994700  0.15691600  1
  P  P30  1  0.68096300  0.08977000  0.34524500  1
  P  P31  1  0.32044200  0.77360300  0.15038800  1
  P  P32  1  0.68588300  0.22659200  0.84728200  1
  P  P33  1  0.32998900  0.90467900  0.65770100  1
  P  P34  1  0.22614900  0.09134700  0.84143600  1
  P  P35  1  0.33355900  0.33150000  0.62237600  1
  P  P36  1  0.32733900  0.33494500  0.11969800  1
  P  P37  1  0.08907200  0.22311100  0.34699300  1
  P  P38  1  0.23675700  0.67606700  0.33841600  1
  P  P39  1  0.09053000  0.68228100  0.84320200  1
  O  O40  1  0.99785600  0.21916800  0.43552800  1
  O  O41  1  0.92176900  0.32745200  0.65320300  1
  O  O42  1  0.77587100  0.22967900  0.93520300  1
  O  O43  1  0.75409300  0.32808400  0.15790400  1
  O  O44  1  0.89570600  0.47652000  0.17467800  1
  O  O45  1  0.81198700  0.51456300  0.83665000  1
  O  O46  1  0.88906800  0.63158300  0.66203100  1
  O  O47  1  0.99836800  0.77021800  0.93218500  1
  O  O48  1  0.92173900  0.74728900  0.15759100  1
  O  O49  1  0.68180300  0.51582300  0.36031400  1
  O  O50  1  0.63079900  0.47675000  0.66335100  1
  O  O51  1  0.80900800  0.68277700  0.35979600  1
  O  O52  1  0.66676600  0.66626700  0.98594600  1
  O  O53  1  0.58563500  0.73900400  0.48453800  1
  O  O54  1  0.67807900  0.81078200  0.83941400  1
  O  O55  1  0.48031200  0.63241500  0.15745800  1
  O  O56  1  0.51643300  0.67322600  0.83586900  1
  O  O57  1  0.75090700  0.92413600  0.65567500  1
  O  O58  1  0.78890800  0.99513900  0.25332000  1
  O  O59  1  0.76764800  0.99596900  0.43630800  1
  O  O60  1  0.78377200  0.00118000  0.06878400  1
  O  O61  1  0.62932300  0.89725600  0.16191500  1
  O  O62  1  0.51513700  0.80432200  0.32002000  1
  O  O63  1  0.67382600  0.07844800  0.84774100  1
  O  O64  1  0.49437800  0.87547100  0.67604700  1
  O  O65  1  0.32929400  0.75113100  0.65271300  1
  O  O66  1  0.78789700  0.21390000  0.75165000  1
  O  O67  1  0.77109800  0.22005000  0.56869900  1
  O  O68  1  0.24987100  0.76929000  0.42917600  1
  O  O69  1  0.66466800  0.24852600  0.34719200  1
  O  O70  1  0.52074400  0.09968300  0.33404200  1
  O  O71  1  0.32069700  0.92905400  0.15229800  1
  O  O72  1  0.48363200  0.18680900  0.66324000  1
  O  O73  1  0.37011800  0.11127400  0.83231000  1
  O  O74  1  0.22957600  0.99394600  0.92723800  1
  O  O75  1  0.26051600  0.99811500  0.56293800  1
  O  O76  1  0.21425600  0.00812600  0.74201400  1
  O  O77  1  0.25508600  0.07023700  0.34994700  1
  O  O78  1  0.48159200  0.31825100  0.15045700  1
  O  O79  1  0.52201700  0.36966300  0.83481800  1
  O  O80  1  0.31208700  0.19319100  0.16070400  1
  O  O81  1  0.29928300  0.34340500  0.01116000  1
  O  O82  1  0.33597900  0.32733200  0.51281200  1
  O  O83  1  0.18727600  0.32716900  0.66123200  1
  O  O84  1  0.37385100  0.51505600  0.33357100  1
  O  O85  1  0.32813500  0.48355300  0.66009600  1
  O  O86  1  0.07686800  0.24984100  0.84219300  1
  O  O87  1  0.00958600  0.20469200  0.25134800  1
  O  O88  1  0.00674900  0.22927400  0.06775300  1
  O  O89  1  0.11075300  0.36429800  0.33913000  1
  O  O90  1  0.18630000  0.48761000  0.16611500  1
  O  O91  1  0.11007300  0.51909500  0.83061300  1
  O  O92  1  0.25073900  0.67039400  0.84207100  1
  O  O93  1  0.21861400  0.77997500  0.06479600  1
  O  O94  1  0.21950800  0.78417300  0.24795600  1
  O  O95  1  0.08001000  0.68028400  0.34686000  1
  O  O96  1  0.00310000  0.77421600  0.56532200  1
  O  O97  1  0.00116000  0.78449100  0.74827400  1
