# generated using pymatgen
data_Li8Mn3Fe5(BO3)8
_symmetry_space_group_name_H-M   'P 1'
_cell_length_a   5.24509100
_cell_length_b   6.03815793
_cell_length_c   16.14375466
_cell_angle_alpha   81.61021389
_cell_angle_beta   89.28654173
_cell_angle_gamma   88.91434221
_symmetry_Int_Tables_number   1
_chemical_formula_structural   Li8Mn3Fe5(BO3)8
_chemical_formula_sum   'Li8 Mn3 Fe5 B8 O24'
_cell_volume   505.69718295
_cell_formula_units_Z   1
loop_
 _symmetry_equiv_pos_site_id
 _symmetry_equiv_pos_as_xyz
  1  'x, y, z'
loop_
 _atom_site_type_symbol
 _atom_site_label
 _atom_site_symmetry_multiplicity
 _atom_site_fract_x
 _atom_site_fract_y
 _atom_site_fract_z
 _atom_site_occupancy
  Li  Li0  1  0.84750300  0.06366700  0.38966900  1
  Li  Li1  1  0.15228800  0.43508700  0.10908500  1
  Li  Li2  1  0.65075200  0.18668100  0.86057400  1
  Li  Li3  1  0.34940800  0.31278700  0.64034700  1
  Li  Li4  1  0.65173000  0.68503200  0.35888900  1
  Li  Li5  1  0.34764300  0.81475300  0.14086800  1
  Li  Li6  1  0.84831300  0.56507000  0.89050100  1
  Li  Li7  1  0.15152700  0.93547000  0.61013400  1
  Mn  Mn8  1  0.16766500  0.52484700  0.29076200  1
  Mn  Mn9  1  0.66845300  0.77022600  0.54075100  1
  Mn  Mn10  1  0.33191700  0.72746100  0.95887300  1
  Fe  Fe11  1  0.66298900  0.27431400  0.04184700  1
  Fe  Fe12  1  0.16245400  0.02902300  0.78809500  1
  Fe  Fe13  1  0.33934500  0.22352900  0.45916500  1
  Fe  Fe14  1  0.82810900  0.47264900  0.71249000  1
  Fe  Fe15  1  0.83567300  0.97481200  0.20790000  1
  B  B16  1  0.32835600  0.03684700  0.29776300  1
  B  B17  1  0.83231800  0.28612100  0.54752100  1
  B  B18  1  0.66965000  0.46327700  0.20177900  1
  B  B19  1  0.17138300  0.21429300  0.95200800  1
  B  B20  1  0.83084400  0.78667900  0.04797300  1
  B  B21  1  0.32638600  0.53756500  0.79557900  1
  B  B22  1  0.17100200  0.71331900  0.45302200  1
  B  B23  1  0.67087700  0.96248000  0.70401900  1
  O  O24  1  0.58741500  0.01297600  0.30822500  1
  O  O25  1  0.18267000  0.16832300  0.34655800  1
  O  O26  1  0.70832000  0.17505500  0.48982500  1
  O  O27  1  0.29777300  0.32747600  0.00877900  1
  O  O28  1  0.79148800  0.07863500  0.76105700  1
  O  O29  1  0.81901200  0.32935100  0.15470800  1
  O  O30  1  0.31609700  0.08321700  0.90335700  1
  O  O31  1  0.09133700  0.26192100  0.55892300  1
  O  O32  1  0.41026500  0.48584100  0.18876000  1
  O  O33  1  0.91201000  0.23868300  0.94189300  1
  O  O34  1  0.68638100  0.41586000  0.59648500  1
  O  O35  1  0.20764200  0.41945300  0.73951700  1
  O  O36  1  0.78694800  0.57989800  0.25843300  1
  O  O37  1  0.32115700  0.57893200  0.40698400  1
  O  O38  1  0.09001000  0.76412800  0.06110500  1
  O  O39  1  0.58822500  0.51468100  0.80800900  1
  O  O40  1  0.91170000  0.73626800  0.43874400  1
  O  O41  1  0.68150100  0.91995400  0.09541500  1
  O  O42  1  0.18143200  0.67121300  0.84268800  1
  O  O43  1  0.20240100  0.92410900  0.24106400  1
  O  O44  1  0.71355200  0.67176900  0.99080000  1
  O  O45  1  0.28698700  0.83061300  0.50987800  1
  O  O46  1  0.81764300  0.82956000  0.65699300  1
  O  O47  1  0.41145400  0.98609900  0.69218900  1
