# generated using pymatgen
data_Li8Mn3Fe5(BO3)8
_symmetry_space_group_name_H-M   'P 1'
_cell_length_a   5.23012900
_cell_length_b   6.02453044
_cell_length_c   16.17475335
_cell_angle_alpha   81.80383968
_cell_angle_beta   89.22531502
_cell_angle_gamma   89.04694598
_symmetry_Int_Tables_number   1
_chemical_formula_structural   Li8Mn3Fe5(BO3)8
_chemical_formula_sum   'Li8 Mn3 Fe5 B8 O24'
_cell_volume   504.34397554
_cell_formula_units_Z   1
loop_
 _symmetry_equiv_pos_site_id
 _symmetry_equiv_pos_as_xyz
  1  'x, y, z'
loop_
 _atom_site_type_symbol
 _atom_site_label
 _atom_site_symmetry_multiplicity
 _atom_site_fract_x
 _atom_site_fract_y
 _atom_site_fract_z
 _atom_site_occupancy
  Li  Li0  1  0.84725700  0.06514900  0.39043700  1
  Li  Li1  1  0.15196700  0.43152900  0.11257700  1
  Li  Li2  1  0.65210500  0.18638900  0.85869500  1
  Li  Li3  1  0.34552900  0.31597400  0.63825200  1
  Li  Li4  1  0.65270100  0.68485500  0.36139500  1
  Li  Li5  1  0.34958800  0.81293000  0.14206700  1
  Li  Li6  1  0.84529500  0.56701000  0.88852600  1
  Li  Li7  1  0.15265100  0.93653300  0.60835100  1
  Mn  Mn8  1  0.67082900  0.27158600  0.04087600  1
  Mn  Mn9  1  0.16896300  0.02809300  0.78910100  1
  Mn  Mn10  1  0.32987800  0.72355500  0.96057200  1
  Fe  Fe11  1  0.33031800  0.22726200  0.45680900  1
  Fe  Fe12  1  0.17207500  0.52447900  0.28948700  1
  Fe  Fe13  1  0.82500700  0.47725800  0.70639400  1
  Fe  Fe14  1  0.66105300  0.77606600  0.54159400  1
  Fe  Fe15  1  0.82875500  0.96937100  0.21234800  1
  B  B16  1  0.33022700  0.03529800  0.29712800  1
  B  B17  1  0.82869600  0.28929100  0.54534500  1
  B  B18  1  0.67474100  0.46098300  0.20563600  1
  B  B19  1  0.17108200  0.21614500  0.95251400  1
  B  B20  1  0.83095700  0.78323600  0.04894300  1
  B  B21  1  0.32793700  0.53741800  0.79492600  1
  B  B22  1  0.16967800  0.71207500  0.45394700  1
  B  B23  1  0.66981300  0.96532200  0.70104500  1
  O  O24  1  0.59251100  0.01146200  0.30777100  1
  O  O25  1  0.18804400  0.16784700  0.34665900  1
  O  O26  1  0.70297200  0.17830900  0.48813000  1
  O  O27  1  0.28820300  0.33187500  0.01045500  1
  O  O28  1  0.78741500  0.07754400  0.75925900  1
  O  O29  1  0.81700000  0.32679000  0.15760200  1
  O  O30  1  0.32119600  0.08175200  0.90609200  1
  O  O31  1  0.08954800  0.26271200  0.55743300  1
  O  O32  1  0.41215500  0.48554000  0.19452200  1
  O  O33  1  0.91096400  0.23890800  0.93859600  1
  O  O34  1  0.68549300  0.42033100  0.59531400  1
  O  O35  1  0.20410600  0.42182700  0.73864200  1
  O  O36  1  0.79715100  0.57745500  0.26207700  1
  O  O37  1  0.31472400  0.58082100  0.40473400  1
  O  O38  1  0.09095000  0.76078000  0.06300800  1
  O  O39  1  0.58995200  0.51381800  0.80712100  1
  O  O40  1  0.90979400  0.74061600  0.44274900  1
  O  O41  1  0.68194900  0.91627400  0.09651300  1
  O  O42  1  0.18183200  0.66967900  0.84360000  1
  O  O43  1  0.20724900  0.92373100  0.24007200  1
  O  O44  1  0.71353000  0.66961700  0.99082000  1
  O  O45  1  0.29617500  0.82315500  0.51118000  1
  O  O46  1  0.82003500  0.83246200  0.65316400  1
  O  O47  1  0.40995200  0.98889000  0.68752100  1
