# generated using pymatgen
data_LiVP2HO8
_symmetry_space_group_name_H-M   'P 1'
_cell_length_a   7.48070700
_cell_length_b   9.34636263
_cell_length_c   9.36242139
_cell_angle_alpha   117.49468420
_cell_angle_beta   97.92932522
_cell_angle_gamma   97.96877453
_symmetry_Int_Tables_number   1
_chemical_formula_structural   LiVP2HO8
_chemical_formula_sum   'Li4 V4 P8 H4 O32'
_cell_volume   559.65328170
_cell_formula_units_Z   4
loop_
 _symmetry_equiv_pos_site_id
 _symmetry_equiv_pos_as_xyz
  1  'x, y, z'
loop_
 _atom_site_type_symbol
 _atom_site_label
 _atom_site_symmetry_multiplicity
 _atom_site_fract_x
 _atom_site_fract_y
 _atom_site_fract_z
 _atom_site_occupancy
  Li  Li0  1  0.14536100  0.86275600  0.73322700  1
  Li  Li1  1  0.64536500  0.73124200  0.36246500  1
  Li  Li2  1  0.64905500  0.23044500  0.86102800  1
  Li  Li3  1  0.85524000  0.14343900  0.27224800  1
  V  V4  1  0.00534100  0.50575800  0.00230900  1
  V  V5  1  0.49981700  0.49840800  0.50438900  1
  V  V6  1  0.49936700  0.99819100  0.00402300  1
  V  V7  1  0.00482900  0.00473600  0.50178400  1
  P  P8  1  0.76770700  0.88966500  0.73897800  1
  P  P9  1  0.23626300  0.60489500  0.76145200  1
  P  P10  1  0.26510900  0.73584600  0.39255700  1
  P  P11  1  0.26325900  0.23953900  0.89275700  1
  P  P12  1  0.73132100  0.26055900  0.60814300  1
  P  P13  1  0.73419900  0.75778100  0.10708700  1
  P  P14  1  0.76934100  0.39414900  0.24067100  1
  P  P15  1  0.23771500  0.10993000  0.26386500  1
  H  H16  1  0.49468400  0.99211200  0.49578000  1
  H  H17  1  0.49627100  0.49304500  0.99624400  1
  H  H18  1  0.00933500  0.50976500  0.51751800  1
  H  H19  1  0.01008300  0.01043100  0.01653000  1
  O  O20  1  0.34649500  0.79209400  0.84579500  1
  O  O21  1  0.18297300  0.56539400  0.89238500  1
  O  O22  1  0.94935300  0.91300000  0.85173400  1
  O  O23  1  0.86349600  0.66993700  0.99932300  1
  O  O24  1  0.14529600  0.83530200  0.50881700  1
  O  O25  1  0.06221400  0.60198300  0.64751400  1
  O  O26  1  0.81096400  0.91704200  0.59470500  1
  O  O27  1  0.64847300  0.70839000  0.65649100  1
  O  O28  1  0.44485400  0.85033800  0.40672800  1
  O  O29  1  0.44786700  0.34943100  0.91007100  1
  O  O30  1  0.35992800  0.99838400  0.16686800  1
  O  O31  1  0.36189900  0.49590800  0.66909200  1
  O  O32  1  0.31715300  0.60295700  0.43039000  1
  O  O33  1  0.31113200  0.09605600  0.91916300  1
  O  O34  1  0.14673700  0.15363800  0.70886100  1
  O  O35  1  0.14561600  0.65443400  0.21211600  1
  O  O36  1  0.84498000  0.34393400  0.79225300  1
  O  O37  1  0.84446500  0.84402900  0.29447500  1
  O  O38  1  0.68774500  0.90013400  0.07766400  1
  O  O39  1  0.68191300  0.39161600  0.56569500  1
  O  O40  1  0.64459200  0.50830600  0.33344900  1
  O  O41  1  0.64481300  0.00559800  0.83504300  1
  O  O42  1  0.56074600  0.14191700  0.59871800  1
  O  O43  1  0.55857000  0.64315300  0.09530800  1
  O  O44  1  0.34912600  0.29224200  0.34696400  1
  O  O45  1  0.18312500  0.06901100  0.39506900  1
  O  O46  1  0.93896500  0.39883100  0.35377200  1
  O  O47  1  0.85856700  0.16776400  0.49413400  1
  O  O48  1  0.14086800  0.33478500  0.00245300  1
  O  O49  1  0.05261500  0.09064500  0.15059700  1
  O  O50  1  0.81199400  0.42074400  0.09731000  1
  O  O51  1  0.64894900  0.20822900  0.15588800  1
