# generated using pymatgen
data_Li2AlVO4
_symmetry_space_group_name_H-M   'P 1'
_cell_length_a   5.38816287
_cell_length_b   10.77651946
_cell_length_c   6.42432500
_cell_angle_alpha   89.99992596
_cell_angle_beta   90.00018355
_cell_angle_gamma   88.69121309
_symmetry_Int_Tables_number   1
_chemical_formula_structural   Li2AlVO4
_chemical_formula_sum   'Li8 Al4 V4 O16'
_cell_volume   372.93523867
_cell_formula_units_Z   4
loop_
 _symmetry_equiv_pos_site_id
 _symmetry_equiv_pos_as_xyz
  1  'x, y, z'
loop_
 _atom_site_type_symbol
 _atom_site_label
 _atom_site_symmetry_multiplicity
 _atom_site_fract_x
 _atom_site_fract_y
 _atom_site_fract_z
 _atom_site_occupancy
  Li  Li0  1  0.31783400  0.34111400  0.50001500  1
  Li  Li1  1  0.31786100  0.84105600  0.50000400  1
  Li  Li2  1  0.68214700  0.15894900  0.99998800  1
  Li  Li3  1  0.68216000  0.65888300  0.99999900  1
  Li  Li4  1  0.18825800  0.09413500  0.75000900  1
  Li  Li5  1  0.18820600  0.59408900  0.74999900  1
  Li  Li6  1  0.81178100  0.40589500  0.24999600  1
  Li  Li7  1  0.81175000  0.90587700  0.25001300  1
  Al  Al8  1  0.32523000  0.33746800  0.99996900  1
  Al  Al9  1  0.32515500  0.83734800  0.00001000  1
  Al  Al10  1  0.67486600  0.16268200  0.50001900  1
  Al  Al11  1  0.67478600  0.66252300  0.50001600  1
  V  V12  1  0.17613300  0.58805200  0.25002700  1
  V  V13  1  0.82386200  0.41190400  0.75001400  1
  V  V14  1  0.17615500  0.08808600  0.24998400  1
  V  V15  1  0.82387000  0.91196100  0.74998800  1
  O  O16  1  0.19592100  0.40744300  0.22719000  1
  O  O17  1  0.19590200  0.90742200  0.22719700  1
  O  O18  1  0.18518500  0.40205900  0.77282500  1
  O  O19  1  0.18512800  0.90204500  0.77279900  1
  O  O20  1  0.80414100  0.09255400  0.72723800  1
  O  O21  1  0.80404400  0.59260800  0.72714300  1
  O  O22  1  0.81489900  0.09799200  0.27280700  1
  O  O23  1  0.81481400  0.59790600  0.27281700  1
  O  O24  1  0.29723900  0.17238500  0.00856700  1
  O  O25  1  0.29719800  0.67241600  0.00847900  1
  O  O26  1  0.65504200  0.35144900  0.99150500  1
  O  O27  1  0.65523200  0.85136300  0.99144300  1
  O  O28  1  0.34477000  0.14865100  0.49143100  1
  O  O29  1  0.34484100  0.64855000  0.49149200  1
  O  O30  1  0.70278000  0.32754900  0.50844700  1
  O  O31  1  0.70281100  0.82758600  0.50857100  1
