# generated using pymatgen
data_Li5V3Cr2O10
_symmetry_space_group_name_H-M   'P 1'
_cell_length_a   5.14327386
_cell_length_b   7.86587822
_cell_length_c   10.34401734
_cell_angle_alpha   108.09965006
_cell_angle_beta   99.57209535
_cell_angle_gamma   71.52264927
_symmetry_Int_Tables_number   1
_chemical_formula_structural   Li5V3Cr2O10
_chemical_formula_sum   'Li10 V6 Cr4 O20'
_cell_volume   376.19895517
_cell_formula_units_Z   2
loop_
 _symmetry_equiv_pos_site_id
 _symmetry_equiv_pos_as_xyz
  1  'x, y, z'
loop_
 _atom_site_type_symbol
 _atom_site_label
 _atom_site_symmetry_multiplicity
 _atom_site_fract_x
 _atom_site_fract_y
 _atom_site_fract_z
 _atom_site_occupancy
  Li  Li0  1  0.00016400  0.50008800  0.25005400  1
  Li  Li1  1  0.99984300  0.49991700  0.74994600  1
  Li  Li2  1  0.49542100  0.41725500  0.10750000  1
  Li  Li3  1  0.49552100  0.41738500  0.60747000  1
  Li  Li4  1  0.50448500  0.58261600  0.39252900  1
  Li  Li5  1  0.50458600  0.58274400  0.89249900  1
  Li  Li6  1  0.51880700  0.76941400  0.19078000  1
  Li  Li7  1  0.51922700  0.76934800  0.69069900  1
  Li  Li8  1  0.48077800  0.23065100  0.30930000  1
  Li  Li9  1  0.48120000  0.23058600  0.80922000  1
  V  V10  1  0.50000300  0.00000000  0.50000000  1
  V  V11  1  0.00211300  0.89028700  0.34326300  1
  V  V12  1  0.99788600  0.10971600  0.65673800  1
  V  V13  1  0.50000500  0.00000300  0.99999900  1
  V  V14  1  0.00234800  0.88996200  0.84336000  1
  V  V15  1  0.99766200  0.11004300  0.15664000  1
  Cr  Cr16  1  0.00729200  0.69151900  0.04685900  1
  Cr  Cr17  1  0.99265000  0.30848100  0.95315000  1
  Cr  Cr18  1  0.00732200  0.69155000  0.54706200  1
  Cr  Cr19  1  0.99262900  0.30845500  0.45295300  1
  O  O20  1  0.23696700  0.86101900  0.02720200  1
  O  O21  1  0.23657300  0.86106600  0.52685100  1
  O  O22  1  0.76343200  0.13892700  0.47314300  1
  O  O23  1  0.76304200  0.13898100  0.97279800  1
  O  O24  1  0.76434200  0.94193100  0.16305300  1
  O  O25  1  0.76434400  0.94183800  0.66325100  1
  O  O26  1  0.23566700  0.05815900  0.33674500  1
  O  O27  1  0.23566500  0.05806900  0.83694600  1
  O  O28  1  0.77092100  0.54564300  0.06689400  1
  O  O29  1  0.77095800  0.54546100  0.56687700  1
  O  O30  1  0.22904600  0.45453600  0.43312400  1
  O  O31  1  0.22908200  0.45435900  0.93310600  1
  O  O32  1  0.24746800  0.23488200  0.11748100  1
  O  O33  1  0.24796400  0.23460400  0.61746500  1
  O  O34  1  0.75203800  0.76538800  0.38253000  1
  O  O35  1  0.75254100  0.76512000  0.88251800  1
  O  O36  1  0.22799500  0.66708000  0.22409900  1
  O  O37  1  0.22822300  0.66722000  0.72392200  1
  O  O38  1  0.77178400  0.33277800  0.27607700  1
  O  O39  1  0.77200400  0.33292100  0.77589900  1
