# generated using pymatgen
data_Li5V3P8O29
_symmetry_space_group_name_H-M   'P 1'
_cell_length_a   9.75594100
_cell_length_b   9.80913619
_cell_length_c   14.04892099
_cell_angle_alpha   90.26483675
_cell_angle_beta   90.17809577
_cell_angle_gamma   119.66634605
_symmetry_Int_Tables_number   1
_chemical_formula_structural   Li5V3P8O29
_chemical_formula_sum   'Li10 V6 P16 O58'
_cell_volume   1168.18296873
_cell_formula_units_Z   2
loop_
 _symmetry_equiv_pos_site_id
 _symmetry_equiv_pos_as_xyz
  1  'x, y, z'
loop_
 _atom_site_type_symbol
 _atom_site_label
 _atom_site_symmetry_multiplicity
 _atom_site_fract_x
 _atom_site_fract_y
 _atom_site_fract_z
 _atom_site_occupancy
  Li  Li0  1  0.68400400  0.91374200  0.56229400  1
  Li  Li1  1  0.22942900  0.32438200  0.56088500  1
  Li  Li2  1  0.10376600  0.33753400  0.05690900  1
  Li  Li3  1  0.23284800  0.90279500  0.05675600  1
  Li  Li4  1  0.09368600  0.77232900  0.56226800  1
  Li  Li5  1  0.90690000  0.67328600  0.93732300  1
  Li  Li6  1  0.65990300  0.32819400  0.10941800  1
  Li  Li7  1  0.76771000  0.68008100  0.43775700  1
  Li  Li8  1  0.31660200  0.09154800  0.44320300  1
  Li  Li9  1  0.96736600  0.01418000  0.99205900  1
  V  V10  1  0.00095200  0.42775000  0.25592600  1
  V  V11  1  0.00067300  0.56558600  0.74746500  1
  V  V12  1  0.57031000  0.00153400  0.75450200  1
  V  V13  1  0.43381300  0.99890000  0.25034900  1
  V  V14  1  0.56296100  0.56986900  0.24237700  1
  V  V15  1  0.43626700  0.43248900  0.75605600  1
  P  P16  1  0.69258400  0.77641500  0.83969900  1
  P  P17  1  0.68547500  0.91485700  0.34309200  1
  P  P18  1  0.23717000  0.32023500  0.34457100  1
  P  P19  1  0.32275300  0.66129000  0.12800200  1
  P  P20  1  0.33800900  0.66724200  0.63036900  1
  P  P21  1  0.08698300  0.31436500  0.84374300  1
  P  P22  1  0.91341600  0.22856100  0.66072700  1
  P  P23  1  0.22531200  0.91158600  0.84282800  1
  P  P24  1  0.78098800  0.08881500  0.15891400  1
  P  P25  1  0.08690500  0.76855800  0.34109600  1
  P  P26  1  0.91052700  0.68041600  0.15696300  1
  P  P27  1  0.66596100  0.33902600  0.36949100  1
  P  P28  1  0.67126700  0.33697400  0.87206200  1
  P  P29  1  0.76494700  0.67843300  0.65486800  1
  P  P30  1  0.31872800  0.08808000  0.66143100  1
  P  P31  1  0.30999700  0.22210600  0.16032000  1
  O  O32  1  0.74853100  0.75093300  0.56446800  1
  O  O33  1  0.66580900  0.74962200  0.33563300  1
  O  O34  1  0.80278500  0.00820800  0.07573200  1
  O  O35  1  0.65620000  0.91225000  0.83691900  1
  O  O36  1  0.53582500  0.61751500  0.83088100  1
  O  O37  1  0.47401700  0.66334900  0.17107100  1
  O  O38  1  0.38346100  0.47817000  0.32564800  1
  O  O39  1  0.20752700  0.21635700  0.08032600  1
  O  O40  1  0.25838900  0.34229500  0.82948700  1
  O  O41  1  0.48935300  0.81634600  0.66841900  1
  O  O42  1  0.52409100  0.90562900  0.31680600  1
  O  O43  1  0.33742600  0.51885200  0.67622100  1
  O  O44  1  0.30650400  0.64033000  0.02282700  1
  O  O45  1  0.33367500  0.65512200  0.52429400  1
  O  O46  1  0.18015500  0.51087700  0.17533800  1
  O  O47  1  0.37933600  0.90859200  0.83005900  1
  O  O48  1  0.32218600  0.81102400  0.16444000  1
  O  O49  1  0.08742700  0.33902700  0.33627100  1
  O  O50  1  0.98897500  0.20109500  0.75716500  1
  O  O51  1  0.01136900  0.24077600  0.57772100  1
  O  O52  1  0.02243100  0.23012200  0.93512100  1
  O  O53  1  0.08821600  0.46940000  0.83126600  1
  O  O54  1  0.18778000  0.67174100  0.66832200  1
  O  O55  1  0.92326200  0.26269500  0.16373200  1
  O  O56  1  0.09845800  0.61902800  0.32141300  1
  O  O57  1  0.25221400  0.91659000  0.34200300  1
  O  O58  1  0.79906800  0.01287900  0.25681500  1
  O  O59  1  0.74697100  0.99336500  0.43621200  1
  O  O60  1  0.23984200  0.00004300  0.57103000  1
  O  O61  1  0.74579500  0.08417800  0.66004600  1
  O  O62  1  0.90298100  0.38031900  0.67869200  1
  O  O63  1  0.08064900  0.74238000  0.83203000  1
  O  O64  1  0.81550800  0.33868600  0.32208200  1
  O  O65  1  0.90109000  0.51883900  0.17088700  1
  O  O66  1  0.00201300  0.76519100  0.06990300  1
  O  O67  1  0.99754200  0.75365500  0.43119600  1
  O  O68  1  0.99732800  0.78794000  0.25060800  1
  O  O69  1  0.91506100  0.66295400  0.65560900  1
  O  O70  1  0.67457200  0.19339700  0.83020100  1
  O  O71  1  0.62808200  0.10002800  0.16671800  1
  O  O72  1  0.81462400  0.49169000  0.83580300  1
  O  O73  1  0.66263900  0.34086400  0.97826500  1
  O  O74  1  0.67787700  0.34659600  0.47492600  1
  O  O75  1  0.66689000  0.48663300  0.32588800  1
  O  O76  1  0.47703700  0.09371100  0.67934200  1
  O  O77  1  0.51565700  0.18773300  0.33108300  1
  O  O78  1  0.74326500  0.65572900  0.15722200  1
  O  O79  1  0.78691300  0.79508000  0.74164700  1
  O  O80  1  0.79731900  0.79058500  0.92138000  1
  O  O81  1  0.61811500  0.52006100  0.67772800  1
  O  O82  1  0.51819400  0.33373200  0.82710600  1
  O  O83  1  0.47570200  0.37098200  0.16813500  1
  O  O84  1  0.33810100  0.07832800  0.15958700  1
  O  O85  1  0.20864100  0.98191200  0.93316400  1
  O  O86  1  0.20717500  0.00290600  0.75118800  1
  O  O87  1  0.34089100  0.25585100  0.66080900  1
  O  O88  1  0.24324400  0.24492800  0.43574100  1
  O  O89  1  0.21780500  0.20122800  0.25960100  1
