# generated using pymatgen
data_Li6V3P8O29
_symmetry_space_group_name_H-M   'P 1'
_cell_length_a   9.83320660
_cell_length_b   9.80992305
_cell_length_c   13.96832592
_cell_angle_alpha   90.40488915
_cell_angle_beta   90.72448551
_cell_angle_gamma   59.99954932
_symmetry_Int_Tables_number   1
_chemical_formula_structural   Li6V3P8O29
_chemical_formula_sum   'Li12 V6 P16 O58'
_cell_volume   1166.80667139
_cell_formula_units_Z   2
loop_
 _symmetry_equiv_pos_site_id
 _symmetry_equiv_pos_as_xyz
  1  'x, y, z'
loop_
 _atom_site_type_symbol
 _atom_site_label
 _atom_site_symmetry_multiplicity
 _atom_site_fract_x
 _atom_site_fract_y
 _atom_site_fract_z
 _atom_site_occupancy
  Li  Li0  1  0.67522100  0.66416000  0.38970500  1
  Li  Li1  1  0.67743900  0.66803600  0.88750800  1
  Li  Li2  1  0.77536800  0.30713600  0.06084700  1
  Li  Li3  1  0.30987900  0.91308500  0.06129800  1
  Li  Li4  1  0.66242600  0.23531300  0.44074900  1
  Li  Li5  1  0.32326200  0.76637300  0.56431200  1
  Li  Li6  1  0.68391700  0.09009500  0.93571100  1
  Li  Li7  1  0.22683500  0.67749100  0.94187000  1
  Li  Li8  1  0.09942700  0.66617800  0.43957500  1
  Li  Li9  1  0.23052200  0.10124500  0.44478100  1
  Li  Li10  1  0.09705200  0.22804800  0.93740200  1
  Li  Li11  1  0.95753800  0.02478300  0.50928400  1
  V  V12  1  0.56951400  0.42947700  0.24954100  1
  V  V13  1  0.43418700  0.56544800  0.75023600  1
  V  V14  1  0.56901200  0.99861200  0.74708100  1
  V  V15  1  0.43424900  0.00407000  0.25169200  1
  V  V16  1  0.00251200  0.56767900  0.24746200  1
  V  V17  1  0.99855700  0.43596500  0.74431700  1
  P  P18  1  0.91286400  0.77264800  0.83902300  1
  P  P19  1  0.78012400  0.91332300  0.33820900  1
  P  P20  1  0.91370800  0.31151100  0.34106300  1
  P  P21  1  0.66408000  0.66764400  0.12959100  1
  P  P22  1  0.66458700  0.66752900  0.62924900  1
  P  P23  1  0.77236100  0.32109300  0.84134400  1
  P  P24  1  0.68438800  0.22815600  0.65773400  1
  P  P25  1  0.32493600  0.90759100  0.84318200  1
  P  P26  1  0.68007300  0.08479500  0.15301700  1
  P  P27  1  0.32004800  0.77301100  0.34407700  1
  P  P28  1  0.23182900  0.67995100  0.16026800  1
  P  P29  1  0.33572200  0.33315300  0.37348300  1
  P  P30  1  0.33204800  0.33389300  0.87069400  1
  P  P31  1  0.08286400  0.68848200  0.65380300  1
  P  P32  1  0.22712200  0.08463000  0.65893100  1
  P  P33  1  0.08404800  0.23314900  0.15551700  1
  O  O34  1  0.01221500  0.77258400  0.56113100  1
  O  O35  1  0.92230500  0.74147300  0.34075100  1
  O  O36  1  0.74573900  0.00980900  0.06014700  1
  O  O37  1  0.74466100  0.91935700  0.84126700  1
  O  O38  1  0.89148600  0.62656300  0.82649300  1
  O  O39  1  0.80927100  0.66949000  0.17333100  1
  O  O40  1  0.90217000  0.47407900  0.33379300  1
  O  O41  1  0.99788700  0.24977000  0.06288100  1
  O  O42  1  0.92218100  0.33305200  0.84372500  1
  O  O43  1  0.67304900  0.80973100  0.67162800  1
  O  O44  1  0.62851200  0.90020400  0.33250800  1
  O  O45  1  0.81049600  0.51649800  0.67218600  1
  O  O46  1  0.65652000  0.67160900  0.02229600  1
  O  O47  1  0.66173600  0.66620600  0.52184100  1
  O  O48  1  0.66849500  0.51334500  0.16581300  1
  O  O49  1  0.49032300  0.88525900  0.82697600  1
  O  O50  1  0.51236700  0.81704300  0.17146000  1
  O  O51  1  0.74240600  0.34030000  0.34166100  1
  O  O52  1  0.79243100  0.21227500  0.74991500  1
  O  O53  1  0.77055900  0.21502200  0.56701900  1
  O  O54  1  0.75132600  0.24709100  0.92969900  1
  O  O55  1  0.63019200  0.48931800  0.82375600  1
  O  O56  1  0.50957600  0.67501800  0.66676600  1
  O  O57  1  0.66870100  0.24920200  0.16254300  1
  O  O58  1  0.48507900  0.62790500  0.32971000  1
  O  O59  1  0.33475400  0.92216500  0.34578300  1
  O  O60  1  0.79906600  0.98280800  0.23896200  1
  O  O61  1  0.78988100  0.00927100  0.41886800  1
  O  O62  1  0.22332900  0.99691300  0.56981200  1
  O  O63  1  0.65593700  0.08877800  0.66657200  1
  O  O64  1  0.53001500  0.38613200  0.66909500  1
  O  O65  1  0.34032700  0.74303100  0.84593500  1
  O  O66  1  0.48956200  0.32325300  0.33551500  1
  O  O67  1  0.38289500  0.51997800  0.18174300  1
  O  O68  1  0.24948700  0.75197500  0.07017400  1
  O  O69  1  0.23589600  0.76346600  0.43122500  1
  O  O70  1  0.21352900  0.79224600  0.25016200  1
  O  O71  1  0.24964800  0.66775100  0.66501300  1
  O  O72  1  0.48132600  0.18504200  0.83167400  1
  O  O73  1  0.51899200  0.10145000  0.17580500  1
  O  O74  1  0.33435700  0.48407700  0.83076600  1
  O  O75  1  0.32370000  0.33790300  0.97729700  1
  O  O76  1  0.33690100  0.32269100  0.47995600  1
  O  O77  1  0.19056200  0.48586600  0.33347900  1
  O  O78  1  0.38333400  0.08302300  0.67074700  1
  O  O79  1  0.32830900  0.18488300  0.32921600  1
  O  O80  1  0.08708500  0.66049100  0.16164600  1
  O  O81  1  0.98415000  0.79884500  0.74153600  1
  O  O82  1  0.01150900  0.76505600  0.92225600  1
  O  O83  1  0.08854000  0.52989100  0.66572200  1
  O  O84  1  0.18173400  0.33773600  0.82521900  1
  O  O85  1  0.09769000  0.38031700  0.17910200  1
  O  O86  1  0.24673800  0.08406400  0.15883300  1
  O  O87  1  0.24720800  0.00195000  0.93173300  1
  O  O88  1  0.21447300  0.99263800  0.75176100  1
  O  O89  1  0.08661000  0.24965400  0.66208800  1
  O  O90  1  0.00760600  0.20521900  0.42164500  1
  O  O91  1  0.98340500  0.21886800  0.24079500  1
