# generated using pymatgen
data_Li2V4P4O15
_symmetry_space_group_name_H-M   'P 1'
_cell_length_a   8.88048210
_cell_length_b   8.88048210
_cell_length_c   18.31732366
_cell_angle_alpha   83.37944380
_cell_angle_beta   83.37944380
_cell_angle_gamma   105.35397492
_symmetry_Int_Tables_number   1
_chemical_formula_structural   Li2V4P4O15
_chemical_formula_sum   'Li8 V16 P16 O60'
_cell_volume   1367.58278387
_cell_formula_units_Z   4
loop_
 _symmetry_equiv_pos_site_id
 _symmetry_equiv_pos_as_xyz
  1  'x, y, z'
loop_
 _atom_site_type_symbol
 _atom_site_label
 _atom_site_symmetry_multiplicity
 _atom_site_fract_x
 _atom_site_fract_y
 _atom_site_fract_z
 _atom_site_occupancy
  Li  Li0  1  0.46277700  0.01949000  0.74211100  1
  Li  Li1  1  0.34261300  0.44382100  0.92817100  1
  Li  Li2  1  0.55617900  0.65738700  0.57182900  1
  Li  Li3  1  0.01949000  0.46277700  0.24211100  1
  Li  Li4  1  0.98051000  0.53722300  0.75788900  1
  Li  Li5  1  0.44382100  0.34261300  0.42817100  1
  Li  Li6  1  0.65738700  0.55617900  0.07182900  1
  Li  Li7  1  0.53722300  0.98051000  0.25788900  1
  V  V8  1  0.95492500  0.85758900  0.57030000  1
  V  V9  1  0.90663000  0.27467600  0.93583900  1
  V  V10  1  0.00000000  0.50000000  0.50000000  1
  V  V11  1  0.85758900  0.95492500  0.07030000  1
  V  V12  1  0.81266000  0.18734000  0.75000000  1
  V  V13  1  0.54379600  0.45620400  0.75000000  1
  V  V14  1  0.04481000  0.95519000  0.75000000  1
  V  V15  1  0.27467600  0.90663000  0.43583900  1
  V  V16  1  0.72532400  0.09337000  0.56416100  1
  V  V17  1  0.95519000  0.04481000  0.25000000  1
  V  V18  1  0.45620400  0.54379600  0.25000000  1
  V  V19  1  0.18734000  0.81266000  0.25000000  1
  V  V20  1  0.14241100  0.04507500  0.92970000  1
  V  V21  1  0.09337000  0.72532400  0.06416100  1
  V  V22  1  0.04507500  0.14241100  0.42970000  1
  V  V23  1  0.50000000  0.00000000  0.00000000  1
  P  P24  1  0.77558600  0.90495000  0.89914500  1
  P  P25  1  0.97883200  0.68697300  0.89783900  1
  P  P26  1  0.70210500  0.84313300  0.68116500  1
  P  P27  1  0.90495000  0.77558600  0.39914500  1
  P  P28  1  0.68697300  0.97883200  0.39783900  1
  P  P29  1  0.76720000  0.46356000  0.62049500  1
  P  P30  1  0.84313300  0.70210500  0.18116500  1
  P  P31  1  0.53644000  0.23280000  0.87950500  1
  P  P32  1  0.46356000  0.76720000  0.12049500  1
  P  P33  1  0.15686700  0.29789500  0.81883500  1
  P  P34  1  0.23280000  0.53644000  0.37950500  1
  P  P35  1  0.31302700  0.02116800  0.60216100  1
  P  P36  1  0.09505000  0.22441400  0.60085500  1
  P  P37  1  0.29789500  0.15686700  0.31883500  1
  P  P38  1  0.02116800  0.31302700  0.10216100  1
  P  P39  1  0.22441400  0.09505000  0.10085500  1
  O  O40  1  0.83266400  0.97442100  0.81675200  1
  O  O41  1  0.87379300  0.83487600  0.68724100  1
  O  O42  1  0.81189100  0.73654600  0.91425900  1
  O  O43  1  0.60121600  0.87482500  0.92376700  1
  O  O44  1  0.93186500  0.51538600  0.92940400  1
  O  O45  1  0.97442100  0.83266400  0.31675200  1
  O  O46  1  0.69807200  0.84033900  0.59396500  1
  O  O47  1  0.89803400  0.61336800  0.58133300  1
  O  O48  1  0.98990100  0.32377000  0.81000800  1
  O  O49  1  0.83487600  0.87379300  0.18724100  1
  O  O50  1  0.57539700  0.70963900  0.73045800  1
  O  O51  1  0.73654600  0.81189100  0.41425900  1
  O  O52  1  0.87482500  0.60121600  0.42376700  1
  O  O53  1  0.51538600  0.93186500  0.42940400  1
  O  O54  1  0.79863700  0.42406500  0.70228300  1
  O  O55  1  0.27566900  0.96912500  0.68695800  1
  O  O56  1  0.88338400  0.01289500  0.94754800  1
  O  O57  1  0.09712400  0.78977300  0.94113500  1
  O  O58  1  0.66066400  0.21437300  0.93002100  1
  O  O59  1  0.84033900  0.69807200  0.09396500  1
  O  O60  1  0.51706200  0.40198500  0.87195700  1
  O  O61  1  0.61336800  0.89803400  0.08133300  1
  O  O62  1  0.59801500  0.48293800  0.62804300  1
  O  O63  1  0.78562700  0.33933600  0.56997900  1
  O  O64  1  0.21022700  0.90287600  0.55886500  1
  O  O65  1  0.98710500  0.11661600  0.55245200  1
  O  O66  1  0.32377000  0.98990100  0.31000800  1
  O  O67  1  0.70963900  0.57539700  0.23045800  1
  O  O68  1  0.03087500  0.72433100  0.81304200  1
  O  O69  1  0.57593500  0.20136300  0.79771700  1
  O  O70  1  0.42406500  0.79863700  0.20228300  1
  O  O71  1  0.96912500  0.27566900  0.18695800  1
  O  O72  1  0.29036100  0.42460300  0.76954200  1
  O  O73  1  0.67623000  0.01009900  0.68999200  1
  O  O74  1  0.01289500  0.88338400  0.44754800  1
  O  O75  1  0.78977300  0.09712400  0.44113500  1
  O  O76  1  0.21437300  0.66066400  0.43002100  1
  O  O77  1  0.40198500  0.51706200  0.37195700  1
  O  O78  1  0.38663200  0.10196600  0.91866700  1
  O  O79  1  0.48293800  0.59801500  0.12804300  1
  O  O80  1  0.15966100  0.30192800  0.90603500  1
  O  O81  1  0.33933600  0.78562700  0.06997900  1
  O  O82  1  0.90287600  0.21022700  0.05886500  1
  O  O83  1  0.11661600  0.98710500  0.05245200  1
  O  O84  1  0.72433100  0.03087500  0.31304200  1
  O  O85  1  0.20136300  0.57593500  0.29771700  1
  O  O86  1  0.48461400  0.06813500  0.57059600  1
  O  O87  1  0.12517500  0.39878400  0.57623300  1
  O  O88  1  0.26345400  0.18810900  0.58574100  1
  O  O89  1  0.42460300  0.29036100  0.26954200  1
  O  O90  1  0.16512400  0.12620700  0.81275900  1
  O  O91  1  0.01009900  0.67623000  0.18999200  1
  O  O92  1  0.10196600  0.38663200  0.41866700  1
  O  O93  1  0.30192800  0.15966100  0.40603500  1
  O  O94  1  0.02557900  0.16733600  0.68324800  1
  O  O95  1  0.06813500  0.48461400  0.07059600  1
  O  O96  1  0.39878400  0.12517500  0.07623300  1
  O  O97  1  0.18810900  0.26345400  0.08574100  1
  O  O98  1  0.12620700  0.16512400  0.31275900  1
  O  O99  1  0.16733600  0.02557900  0.18324800  1
