# generated using pymatgen
data_LiCrPO4
_symmetry_space_group_name_H-M   'P 1'
_cell_length_a   8.70664677
_cell_length_b   8.70664677
_cell_length_c   8.70664620
_cell_angle_alpha   107.56171035
_cell_angle_beta   107.56171035
_cell_angle_gamma   107.56171500
_symmetry_Int_Tables_number   1
_chemical_formula_structural   LiCrPO4
_chemical_formula_sum   'Li6 Cr6 P6 O24'
_cell_volume   541.02208305
_cell_formula_units_Z   6
loop_
 _symmetry_equiv_pos_site_id
 _symmetry_equiv_pos_as_xyz
  1  'x, y, z'
loop_
 _atom_site_type_symbol
 _atom_site_label
 _atom_site_symmetry_multiplicity
 _atom_site_fract_x
 _atom_site_fract_y
 _atom_site_fract_z
 _atom_site_occupancy
  Li  Li0  1  0.92720400  0.14660300  0.33394900  1
  Li  Li1  1  0.85435100  0.61710100  0.44937000  1
  Li  Li2  1  0.61710100  0.44937000  0.85435100  1
  Li  Li3  1  0.14660300  0.33394900  0.92720400  1
  Li  Li4  1  0.44937000  0.85435100  0.61710100  1
  Li  Li5  1  0.33394900  0.92720400  0.14660300  1
  Cr  Cr6  1  0.76972800  0.18433200  0.95251400  1
  Cr  Cr7  1  0.65811500  0.26328800  0.49682100  1
  Cr  Cr8  1  0.95251400  0.76972800  0.18433200  1
  Cr  Cr9  1  0.49682100  0.65811500  0.26328800  1
  Cr  Cr10  1  0.26328800  0.49682100  0.65811500  1
  Cr  Cr11  1  0.18433200  0.95251400  0.76972800  1
  P  P12  1  0.82518300  0.00430500  0.59728500  1
  P  P13  1  0.51071800  0.29843500  0.11368600  1
  P  P14  1  0.29843500  0.11368700  0.51071800  1
  P  P15  1  0.59728500  0.82518300  0.00430500  1
  P  P16  1  0.11368600  0.51071800  0.29843500  1
  P  P17  1  0.00430500  0.59728500  0.82518300  1
  O  O18  1  0.73581000  0.02132100  0.07954200  1
  O  O19  1  0.80866200  0.12367100  0.49701200  1
  O  O20  1  0.70492300  0.00684000  0.69810700  1
  O  O21  1  0.02048900  0.63771800  0.32837200  1
  O  O22  1  0.80874600  0.45897200  0.75988900  1
  O  O23  1  0.63771800  0.32837200  0.02048900  1
  O  O24  1  0.39832500  0.07148100  0.39323400  1
  O  O25  1  0.62904500  0.38707100  0.32036000  1
  O  O26  1  0.38998600  0.09731400  0.04243800  1
  O  O27  1  0.09731400  0.04243800  0.38998600  1
  O  O28  1  0.38707100  0.32036000  0.62904500  1
  O  O29  1  0.69810700  0.70492300  0.00684000  1
  O  O30  1  0.39323400  0.39832500  0.07148100  1
  O  O31  1  0.75988900  0.80874600  0.45897200  1
  O  O32  1  0.02132100  0.07954200  0.73581000  1
  O  O33  1  0.45897200  0.75988900  0.80874600  1
  O  O34  1  0.07148100  0.39323400  0.39832500  1
  O  O35  1  0.49701200  0.80866200  0.12367100  1
  O  O36  1  0.04243800  0.38998600  0.09731400  1
  O  O37  1  0.32036000  0.62904500  0.38707100  1
  O  O38  1  0.12367100  0.49701200  0.80866200  1
  O  O39  1  0.07954200  0.73581000  0.02132100  1
  O  O40  1  0.32837200  0.02048900  0.63771800  1
  O  O41  1  0.00684000  0.69810700  0.70492300  1
