# generated using pymatgen
data_Li2V(PO4)2
_symmetry_space_group_name_H-M   'P 1'
_cell_length_a   17.38433100
_cell_length_b   4.89746600
_cell_length_c   6.59392341
_cell_angle_alpha   85.13495872
_cell_angle_beta   90.00000000
_cell_angle_gamma   90.00000000
_symmetry_Int_Tables_number   1
_chemical_formula_structural   Li2V(PO4)2
_chemical_formula_sum   'Li8 V4 P8 O32'
_cell_volume   559.37856518
_cell_formula_units_Z   4
loop_
 _symmetry_equiv_pos_site_id
 _symmetry_equiv_pos_as_xyz
  1  'x, y, z'
loop_
 _atom_site_type_symbol
 _atom_site_label
 _atom_site_symmetry_multiplicity
 _atom_site_fract_x
 _atom_site_fract_y
 _atom_site_fract_z
 _atom_site_occupancy
  Li  Li0  1  0.37981700  0.53667700  0.74240400  1
  Li  Li1  1  0.11703200  0.03362100  0.26245100  1
  Li  Li2  1  0.19512200  0.55962700  0.07041200  1
  Li  Li3  1  0.87981700  0.46332300  0.25759600  1
  Li  Li4  1  0.44492400  0.01605800  0.95156900  1
  Li  Li5  1  0.61703200  0.96637900  0.73754900  1
  Li  Li6  1  0.69512200  0.44037300  0.92958800  1
  Li  Li7  1  0.94492400  0.98394200  0.04843100  1
  V  V8  1  0.87033000  0.45983300  0.72824700  1
  V  V9  1  0.37033000  0.54016700  0.27175300  1
  V  V10  1  0.62709600  0.94302300  0.24726400  1
  V  V11  1  0.12709600  0.05697700  0.75273600  1
  P  P12  1  0.28695100  0.08043900  0.02904800  1
  P  P13  1  0.78695100  0.91956100  0.97095200  1
  P  P14  1  0.46373800  0.01823800  0.47540100  1
  P  P15  1  0.03709200  0.51839100  0.97507100  1
  P  P16  1  0.96373800  0.98176200  0.52459900  1
  P  P17  1  0.21409600  0.58301300  0.52962100  1
  P  P18  1  0.71409600  0.41698700  0.47037900  1
  P  P19  1  0.53709200  0.48160900  0.02492900  1
  O  O20  1  0.19194800  0.27089100  0.57203000  1
  O  O21  1  0.06803200  0.37890700  0.16787100  1
  O  O22  1  0.67638400  0.29582100  0.66226200  1
  O  O23  1  0.05382900  0.96775600  0.54505700  1
  O  O24  1  0.30403800  0.60140900  0.50651800  1
  O  O25  1  0.69194800  0.72910900  0.42797000  1
  O  O26  1  0.93013300  0.12344600  0.70936400  1
  O  O27  1  0.33457200  0.19100600  0.85135300  1
  O  O28  1  0.93515300  0.67544800  0.54571100  1
  O  O29  1  0.69203900  0.27232600  0.27537100  1
  O  O30  1  0.06199300  0.83123200  0.95861300  1
  O  O31  1  0.30374700  0.76456700  0.07640100  1
  O  O32  1  0.43013300  0.87655400  0.29063600  1
  O  O33  1  0.44653200  0.47532600  0.03717900  1
  O  O34  1  0.83457200  0.80899400  0.14864700  1
  O  O35  1  0.06829200  0.38106300  0.78647800  1
  O  O36  1  0.30483300  0.23134700  0.22389200  1
  O  O37  1  0.55382900  0.03224400  0.45494300  1
  O  O38  1  0.94070900  0.11890400  0.32203200  1
  O  O39  1  0.94653200  0.52467400  0.96282100  1
  O  O40  1  0.69792400  0.87865200  0.00393500  1
  O  O41  1  0.56829200  0.61893700  0.21352200  1
  O  O42  1  0.80403800  0.39859100  0.49348200  1
  O  O43  1  0.80374700  0.23543300  0.92359900  1
  O  O44  1  0.19792400  0.12134800  0.99606500  1
  O  O45  1  0.44070900  0.88109600  0.67796800  1
  O  O46  1  0.56199300  0.16876800  0.04138700  1
  O  O47  1  0.80483300  0.76865300  0.77610800  1
  O  O48  1  0.17638400  0.70417900  0.33773800  1
  O  O49  1  0.43515300  0.32455200  0.45428900  1
  O  O50  1  0.56803200  0.62109300  0.83212900  1
  O  O51  1  0.19203900  0.72767400  0.72462900  1
