# generated using pymatgen
data_Li3VPCO7
_symmetry_space_group_name_H-M   'P 1'
_cell_length_a   8.16171616
_cell_length_b   8.16196918
_cell_length_c   8.63999587
_cell_angle_alpha   90.95382461
_cell_angle_beta   89.05466120
_cell_angle_gamma   73.94341674
_symmetry_Int_Tables_number   1
_chemical_formula_structural   Li3VPCO7
_chemical_formula_sum   'Li12 V4 P4 C4 O28'
_cell_volume   552.89600168
_cell_formula_units_Z   4
loop_
 _symmetry_equiv_pos_site_id
 _symmetry_equiv_pos_as_xyz
  1  'x, y, z'
loop_
 _atom_site_type_symbol
 _atom_site_label
 _atom_site_symmetry_multiplicity
 _atom_site_fract_x
 _atom_site_fract_y
 _atom_site_fract_z
 _atom_site_occupancy
  Li  Li0  1  0.50693700  0.78203800  0.11719100  1
  Li  Li1  1  0.00686900  0.28200000  0.11720300  1
  Li  Li2  1  0.53188800  0.25681500  0.88274200  1
  Li  Li3  1  0.03192600  0.75695100  0.88274600  1
  Li  Li4  1  0.32909300  0.11857600  0.30350400  1
  Li  Li5  1  0.82912300  0.61852400  0.30350700  1
  Li  Li6  1  0.86856800  0.07921600  0.69650100  1
  Li  Li7  1  0.36859600  0.57918300  0.69645400  1
  Li  Li8  1  0.75111300  0.97906800  0.36740400  1
  Li  Li9  1  0.25101600  0.47907600  0.36744100  1
  Li  Li10  1  0.22902900  0.00107700  0.63258200  1
  Li  Li11  1  0.72911800  0.50101800  0.63259200  1
  V  V12  1  0.10857300  0.87056200  0.24576700  1
  V  V13  1  0.12117500  0.35841600  0.75445500  1
  V  V14  1  0.60807000  0.37100900  0.24556700  1
  V  V15  1  0.62090600  0.85832900  0.75426500  1
  P  P16  1  0.47193300  0.76031200  0.41943500  1
  P  P17  1  0.97191400  0.26029800  0.41941900  1
  P  P18  1  0.51032900  0.22191300  0.58056700  1
  P  P19  1  0.01031500  0.72192300  0.58058000  1
  C  C20  1  0.77777200  0.01268400  0.03767700  1
  C  C21  1  0.27777800  0.51269500  0.03764300  1
  C  C22  1  0.26267600  0.02775100  0.96234600  1
  C  C23  1  0.76264900  0.52774000  0.96232100  1
  O  O24  1  0.91797200  0.89337600  0.05997700  1
  O  O25  1  0.41790800  0.39329800  0.05995900  1
  O  O26  1  0.14339700  0.16800700  0.94001800  1
  O  O27  1  0.64337300  0.66797200  0.93999800  1
  O  O28  1  0.28884200  0.97302200  0.10561200  1
  O  O29  1  0.78874000  0.47297100  0.10559000  1
  O  O30  1  0.72293100  0.03886900  0.89442500  1
  O  O31  1  0.22299000  0.53891300  0.89441300  1
  O  O32  1  0.69041300  0.10288000  0.14878600  1
  O  O33  1  0.19047200  0.60290000  0.14874000  1
  O  O34  1  0.35278200  0.94034300  0.85124200  1
  O  O35  1  0.85285200  0.44035200  0.85125400  1
  O  O36  1  0.44448800  0.60278100  0.33443100  1
  O  O37  1  0.94470400  0.10265900  0.33438800  1
  O  O38  1  0.35285800  0.19449100  0.66571800  1
  O  O39  1  0.85276500  0.69457900  0.66561300  1
  O  O40  1  0.61386600  0.81159800  0.32634000  1
  O  O41  1  0.11382200  0.31167500  0.32630600  1
  O  O42  1  0.56160100  0.36389100  0.67364100  1
  O  O43  1  0.06158700  0.86391500  0.67363800  1
  O  O44  1  0.46854700  0.26262300  0.40763900  1
  O  O45  1  0.96861200  0.76258300  0.40761700  1
  O  O46  1  0.51264200  0.71864200  0.59237800  1
  O  O47  1  0.01271600  0.21874800  0.59241500  1
  O  O48  1  0.30263800  0.90823800  0.41441800  1
  O  O49  1  0.80255900  0.40820900  0.41438900  1
  O  O50  1  0.65827000  0.05263400  0.58555200  1
  O  O51  1  0.15828400  0.55265000  0.58559600  1
