# generated using pymatgen
data_Li4Ti3Mn3(SbO8)2
_symmetry_space_group_name_H-M   'P 1'
_cell_length_a   6.10977295
_cell_length_b   6.10977295
_cell_length_c   9.90833016
_cell_angle_alpha   88.45556897
_cell_angle_beta   88.45556897
_cell_angle_gamma   58.87741907
_symmetry_Int_Tables_number   1
_chemical_formula_structural   Li4Ti3Mn3(SbO8)2
_chemical_formula_sum   'Li4 Ti3 Mn3 Sb2 O16'
_cell_volume   316.48161436
_cell_formula_units_Z   1
loop_
 _symmetry_equiv_pos_site_id
 _symmetry_equiv_pos_as_xyz
  1  'x, y, z'
loop_
 _atom_site_type_symbol
 _atom_site_label
 _atom_site_symmetry_multiplicity
 _atom_site_fract_x
 _atom_site_fract_y
 _atom_site_fract_z
 _atom_site_occupancy
  Li  Li0  1  0.65592900  0.65592900  0.09604500  1
  Li  Li1  1  0.99528600  0.99528600  0.01186100  1
  Li  Li2  1  0.00896300  0.00896300  0.50943800  1
  Li  Li3  1  0.33438200  0.33438200  0.60220900  1
  Ti  Ti4  1  0.34700000  0.83418100  0.78396800  1
  Ti  Ti5  1  0.83418100  0.34700000  0.78396800  1
  Ti  Ti6  1  0.17076500  0.17076500  0.28352200  1
  Mn  Mn7  1  0.83205500  0.83205500  0.79349900  1
  Mn  Mn8  1  0.17220300  0.66244600  0.28423000  1
  Mn  Mn9  1  0.66244600  0.17220300  0.28423000  1
  Sb  Sb10  1  0.67738400  0.67738400  0.50393700  1
  Sb  Sb11  1  0.33217300  0.33217300  0.01256700  1
  O  O12  1  0.33564900  0.85404000  0.39461400  1
  O  O13  1  0.52002300  0.52002300  0.67053200  1
  O  O14  1  0.64958900  0.64958900  0.89440700  1
  O  O15  1  0.01154700  0.01154700  0.70020200  1
  O  O16  1  0.00290200  0.00290200  0.19661800  1
  O  O17  1  0.85404000  0.33564900  0.39461400  1
  O  O18  1  0.49287200  0.97017900  0.66510400  1
  O  O19  1  0.97017900  0.49287200  0.66510400  1
  O  O20  1  0.16584200  0.16584200  0.90307900  1
  O  O21  1  0.84894500  0.84894500  0.40567500  1
  O  O22  1  0.03145900  0.46274600  0.14770000  1
  O  O23  1  0.46274600  0.03145900  0.14770000  1
  O  O24  1  0.32527300  0.32527300  0.38825000  1
  O  O25  1  0.17401100  0.66508900  0.90986700  1
  O  O26  1  0.47360900  0.47360900  0.14981700  1
  O  O27  1  0.66508900  0.17401100  0.90986700  1
