# generated using pymatgen
data_Li5Fe4P4O16F
_symmetry_space_group_name_H-M   'P 1'
_cell_length_a   8.30637992
_cell_length_b   8.30637992
_cell_length_c   8.30637992
_cell_angle_alpha   95.93920808
_cell_angle_beta   95.93920808
_cell_angle_gamma   142.47179832
_symmetry_Int_Tables_number   1
_chemical_formula_structural   Li5Fe4P4O16F
_chemical_formula_sum   'Li5 Fe4 P4 O16 F1'
_cell_volume   330.55412523
_cell_formula_units_Z   1
loop_
 _symmetry_equiv_pos_site_id
 _symmetry_equiv_pos_as_xyz
  1  'x, y, z'
loop_
 _atom_site_type_symbol
 _atom_site_label
 _atom_site_symmetry_multiplicity
 _atom_site_fract_x
 _atom_site_fract_y
 _atom_site_fract_z
 _atom_site_occupancy
  Li  Li0  1  0.50000000  0.50000000  0.00000000  1
  Li  Li1  1  0.11512500  0.44395300  0.44775600  1
  Li  Li2  1  0.33263100  0.88487500  0.32882800  1
  Li  Li3  1  0.55604700  0.00380300  0.67117200  1
  Li  Li4  1  0.99619700  0.66736900  0.55224400  1
  Fe  Fe5  1  0.84769000  0.12685300  0.04233500  1
  Fe  Fe6  1  0.87314700  0.91548100  0.72083700  1
  Fe  Fe7  1  0.19464500  0.15231000  0.27916300  1
  Fe  Fe8  1  0.08451900  0.80535500  0.95766500  1
  P  P9  1  0.62737000  0.78892500  0.34814100  1
  P  P10  1  0.72077100  0.37263000  0.16155500  1
  P  P11  1  0.21107500  0.55921600  0.83844500  1
  P  P12  1  0.44078400  0.27922900  0.65185900  1
  O  O13  1  0.38411300  0.50547200  0.20413400  1
  O  O14  1  0.84555400  0.03731400  0.27114700  1
  O  O15  1  0.20582100  0.67472100  0.99129500  1
  O  O16  1  0.32527900  0.31657400  0.53110000  1
  O  O17  1  0.50834100  0.83224300  0.44326300  1
  O  O18  1  0.93492200  0.49165900  0.32390100  1
  O  O19  1  0.82002100  0.61588700  0.12135900  1
  O  O20  1  0.42559300  0.15444600  0.19176000  1
  O  O21  1  0.96268600  0.23383300  0.80824000  1
  O  O22  1  0.49452800  0.69866200  0.87864100  1
  O  O23  1  0.16775700  0.61102100  0.67609900  1
  O  O24  1  0.38897900  0.06507800  0.55673700  1
  O  O25  1  0.78547400  0.79417900  0.46890000  1
  O  O26  1  0.68342600  0.21452600  0.00870500  1
  O  O27  1  0.76616700  0.57440700  0.72885300  1
  O  O28  1  0.30133800  0.17997900  0.79586600  1
  F  F29  1  0.00000000  0.00000000  0.00000000  1
