# generated using pymatgen
data_Li2Mn2OF4
_symmetry_space_group_name_H-M   'P 1'
_cell_length_a   4.02027600
_cell_length_b   8.49156241
_cell_length_c   13.72188968
_cell_angle_alpha   98.39182614
_cell_angle_beta   90.04429791
_cell_angle_gamma   90.01779958
_symmetry_Int_Tables_number   1
_chemical_formula_structural   Li2Mn2OF4
_chemical_formula_sum   'Li8 Mn8 O4 F16'
_cell_volume   463.42796445
_cell_formula_units_Z   4
loop_
 _symmetry_equiv_pos_site_id
 _symmetry_equiv_pos_as_xyz
  1  'x, y, z'
loop_
 _atom_site_type_symbol
 _atom_site_label
 _atom_site_symmetry_multiplicity
 _atom_site_fract_x
 _atom_site_fract_y
 _atom_site_fract_z
 _atom_site_occupancy
  Li  Li0  1  0.73695500  0.21063500  0.98934800  1
  Li  Li1  1  0.24418600  0.40571200  0.94261000  1
  Li  Li2  1  0.74657200  0.58811700  0.55493100  1
  Li  Li3  1  0.76615600  0.21512100  0.50135300  1
  Li  Li4  1  0.24059800  0.79369100  0.51195000  1
  Li  Li5  1  0.25478400  0.41458300  0.43331600  1
  Li  Li6  1  0.75245500  0.58439900  0.04750200  1
  Li  Li7  1  0.25890200  0.78504500  0.01944200  1
  Mn  Mn8  1  0.74542800  0.39478400  0.76007400  1
  Mn  Mn9  1  0.73797000  0.96276900  0.66450800  1
  Mn  Mn10  1  0.23514000  0.00565600  0.84276200  1
  Mn  Mn11  1  0.24555500  0.66809700  0.71858000  1
  Mn  Mn12  1  0.75428000  0.36787200  0.26919500  1
  Mn  Mn13  1  0.76367200  0.96566600  0.15852400  1
  Mn  Mn14  1  0.26508700  0.02037400  0.33417600  1
  Mn  Mn15  1  0.25457200  0.64806100  0.23445600  1
  O  O16  1  0.23852000  0.91407500  0.69150700  1
  O  O17  1  0.74558300  0.60394500  0.70418200  1
  O  O18  1  0.26281500  0.90266300  0.18889500  1
  O  O19  1  0.25436800  0.42430400  0.28732900  1
  F  F20  1  0.23892900  0.18231000  0.96701600  1
  F  F21  1  0.74521700  0.41289600  0.93645400  1
  F  F22  1  0.24555900  0.38809500  0.79809200  1
  F  F23  1  0.25148200  0.78029400  0.87877400  1
  F  F24  1  0.75262300  0.20417300  0.64034500  1
  F  F25  1  0.73583600  0.08049500  0.83616700  1
  F  F26  1  0.24751900  0.58599700  0.54685700  1
  F  F27  1  0.26035600  0.17519400  0.46650500  1
  F  F28  1  0.74257900  0.81944700  0.52707700  1
  F  F29  1  0.75392500  0.40749500  0.44660400  1
  F  F30  1  0.24593600  0.79671000  0.37549800  1
  F  F31  1  0.74806100  0.20008400  0.12917700  1
  F  F32  1  0.75436100  0.60691500  0.19326900  1
  F  F33  1  0.76448200  0.10174400  0.32162000  1
  F  F34  1  0.25211600  0.57425700  0.05429700  1
  F  F35  1  0.75742300  0.80832500  0.02761000  1
