# generated using pymatgen
data_LiFe7(OF3)3
_symmetry_space_group_name_H-M   'P 1'
_cell_length_a   5.44956817
_cell_length_b   5.72286725
_cell_length_c   9.55733471
_cell_angle_alpha   85.78955684
_cell_angle_beta   71.93454376
_cell_angle_gamma   117.61620674
_symmetry_Int_Tables_number   1
_chemical_formula_structural   LiFe7(OF3)3
_chemical_formula_sum   'Li1 Fe7 O3 F9'
_cell_volume   242.60126597
_cell_formula_units_Z   1
loop_
 _symmetry_equiv_pos_site_id
 _symmetry_equiv_pos_as_xyz
  1  'x, y, z'
loop_
 _atom_site_type_symbol
 _atom_site_label
 _atom_site_symmetry_multiplicity
 _atom_site_fract_x
 _atom_site_fract_y
 _atom_site_fract_z
 _atom_site_occupancy
  Li  Li0  1  0.85724869  0.63357781  0.93189072  1
  Fe  Fe1  1  0.13625298  0.34494110  0.07990444  1
  Fe  Fe2  1  0.18449396  0.90386357  0.57619476  1
  Fe  Fe3  1  0.32311464  0.89005161  0.17153193  1
  Fe  Fe4  1  0.63351634  0.62820688  0.32460366  1
  Fe  Fe5  1  0.35955772  0.36572725  0.66537464  1
  Fe  Fe6  1  0.87929828  0.13889521  0.43576054  1
  Fe  Fe7  1  0.65558954  0.12352559  0.80876394  1
  O  O8  1  0.01985901  0.01209924  0.23322516  1
  O  O9  1  0.27118736  0.29349636  0.47266213  1
  O  O10  1  0.55999129  0.11571035  0.62623053  1
  F  F11  1  0.06615006  0.52848027  0.72266749  1
  F  F12  1  0.43156649  0.88278893  0.36209205  1
  F  F13  1  0.54097898  0.63524666  0.11640858  1
  F  F14  1  0.24349375  0.75699197  0.97301125  1
  F  F15  1  0.74523427  0.22371894  0.01526829  1
  F  F16  1  0.77846404  0.72492525  0.54313469  1
  F  F17  1  0.43525069  0.36604210  0.87240785  1
  F  F18  1  0.93423459  0.95757330  0.79540667  1
  F  F19  1  0.94451732  0.47413662  0.27346167  1
