# generated using pymatgen
data_Li4Fe(OF)2
_symmetry_space_group_name_H-M   'P 1'
_cell_length_a   3.66066114
_cell_length_b   10.55239390
_cell_length_c   10.61987813
_cell_angle_alpha   70.90700584
_cell_angle_beta   90.01272962
_cell_angle_gamma   99.96475141
_symmetry_Int_Tables_number   1
_chemical_formula_structural   Li4Fe(OF)2
_chemical_formula_sum   'Li16 Fe4 O8 F8'
_cell_volume   381.11581526
_cell_formula_units_Z   4
loop_
 _symmetry_equiv_pos_site_id
 _symmetry_equiv_pos_as_xyz
  1  'x, y, z'
loop_
 _atom_site_type_symbol
 _atom_site_label
 _atom_site_symmetry_multiplicity
 _atom_site_fract_x
 _atom_site_fract_y
 _atom_site_fract_z
 _atom_site_occupancy
  Li  Li0  1  0.56414600  0.12296200  0.70166500  1
  Li  Li1  1  0.06414900  0.12297500  0.20167400  1
  Li  Li2  1  0.81423100  0.62299400  0.95161200  1
  Li  Li3  1  0.31422800  0.62300800  0.45160800  1
  Li  Li4  1  0.69049600  0.37433300  0.54692100  1
  Li  Li5  1  0.19048600  0.37430900  0.04692600  1
  Li  Li6  1  0.94043400  0.87435200  0.79688400  1
  Li  Li7  1  0.44042500  0.87431200  0.29689200  1
  Li  Li8  1  0.13274300  0.25960800  0.79433800  1
  Li  Li9  1  0.63273100  0.25957500  0.29436300  1
  Li  Li10  1  0.38262900  0.75962800  0.04435000  1
  Li  Li11  1  0.88265500  0.75958900  0.54434700  1
  Li  Li12  1  0.12258100  0.23916300  0.45360100  1
  Li  Li13  1  0.62257800  0.23917700  0.95360300  1
  Li  Li14  1  0.37257600  0.73914600  0.70364500  1
  Li  Li15  1  0.87256200  0.73915400  0.20365100  1
  Fe  Fe16  1  0.50281400  0.99965800  0.49906700  1
  Fe  Fe17  1  0.25281200  0.49961700  0.24910900  1
  Fe  Fe18  1  0.00287600  0.99970800  0.99904100  1
  Fe  Fe19  1  0.75280500  0.49962400  0.74907200  1
  O  O20  1  0.66153200  0.31681400  0.74527500  1
  O  O21  1  0.16151200  0.31675500  0.24533500  1
  O  O22  1  0.91128500  0.81686100  0.99520600  1
  O  O23  1  0.41152200  0.81681600  0.49528300  1
  O  O24  1  0.59421900  0.18274200  0.50331900  1
  O  O25  1  0.09419000  0.18269500  0.00332700  1
  O  O26  1  0.84428600  0.68269900  0.75319700  1
  O  O27  1  0.34420200  0.68274200  0.25330800  1
  F  F28  1  0.04157800  0.07915000  0.78353800  1
  F  F29  1  0.54156200  0.07913400  0.28359000  1
  F  F30  1  0.29195800  0.57912000  0.03363100  1
  F  F31  1  0.79184400  0.57913300  0.53354800  1
  F  F32  1  0.21168100  0.41979800  0.46483800  1
  F  F33  1  0.71153300  0.41974700  0.96494800  1
  F  F34  1  0.46146200  0.91972700  0.71489600  1
  F  F35  1  0.96148400  0.91972400  0.21495500  1
