# generated using pymatgen
data_Li2V2Si5O13
_symmetry_space_group_name_H-M   'P 1'
_cell_length_a   7.45497300
_cell_length_b   7.59560894
_cell_length_c   10.01490629
_cell_angle_alpha   83.34463931
_cell_angle_beta   68.51801790
_cell_angle_gamma   75.39759345
_symmetry_Int_Tables_number   1
_chemical_formula_structural   Li2V2Si5O13
_chemical_formula_sum   'Li4 V4 Si10 O26'
_cell_volume   510.47971536
_cell_formula_units_Z   2
loop_
 _symmetry_equiv_pos_site_id
 _symmetry_equiv_pos_as_xyz
  1  'x, y, z'
loop_
 _atom_site_type_symbol
 _atom_site_label
 _atom_site_symmetry_multiplicity
 _atom_site_fract_x
 _atom_site_fract_y
 _atom_site_fract_z
 _atom_site_occupancy
  Li  Li0  1  0.17718600  0.08041200  0.87502800  1
  Li  Li1  1  0.16265300  0.40753600  0.74531200  1
  Li  Li2  1  0.83734700  0.59246400  0.25468800  1
  Li  Li3  1  0.82281400  0.91958800  0.12497200  1
  V  V4  1  0.03515400  0.15260600  0.60050400  1
  V  V5  1  0.45253500  0.85396500  0.39916400  1
  V  V6  1  0.54746500  0.14603500  0.60083600  1
  V  V7  1  0.96484600  0.84739400  0.39949600  1
  Si  Si8  1  0.15051200  0.22217400  0.26481500  1
  Si  Si9  1  0.21336100  0.69129300  0.04404000  1
  Si  Si10  1  0.31025600  0.45816200  0.40884500  1
  Si  Si11  1  0.26748400  0.76938600  0.73081200  1
  Si  Si12  1  0.63212000  0.70406600  0.04373900  1
  Si  Si13  1  0.36788000  0.29593400  0.95626100  1
  Si  Si14  1  0.73251600  0.23061400  0.26918800  1
  Si  Si15  1  0.68974400  0.54183800  0.59115500  1
  Si  Si16  1  0.78663900  0.30870700  0.95596000  1
  Si  Si17  1  0.84948800  0.77782600  0.73518500  1
  O  O18  1  0.02433100  0.77083200  0.18003800  1
  O  O19  1  0.16094400  0.04917100  0.37684300  1
  O  O20  1  0.29633300  0.16230200  0.09980000  1
  O  O21  1  0.19774100  0.40014400  0.31068900  1
  O  O22  1  0.07422700  0.69598100  0.74073400  1
  O  O23  1  0.41442500  0.67691600  0.07229700  1
  O  O24  1  0.24351600  0.67717700  0.42742100  1
  O  O25  1  0.27720000  0.32183500  0.55099700  1
  O  O26  1  0.55076300  0.40817600  0.31088700  1
  O  O27  1  0.36138900  0.21819400  0.81652000  1
  O  O28  1  0.20775100  0.49414600  0.99576600  1
  O  O29  1  0.30631700  0.94732400  0.62582800  1
  O  O30  1  0.21699900  0.82853000  0.89907100  1
  O  O31  1  0.78300100  0.17147000  0.10092900  1
  O  O32  1  0.69368300  0.05267600  0.37417200  1
  O  O33  1  0.79224900  0.50585400  0.00423400  1
  O  O34  1  0.63861100  0.78180600  0.18348000  1
  O  O35  1  0.44923700  0.59182400  0.68911300  1
  O  O36  1  0.72280000  0.67816500  0.44900300  1
  O  O37  1  0.75648400  0.32282300  0.57257900  1
  O  O38  1  0.58557500  0.32308400  0.92770300  1
  O  O39  1  0.92577300  0.30401900  0.25926600  1
  O  O40  1  0.80225900  0.59985600  0.68931100  1
  O  O41  1  0.70366700  0.83769800  0.90020000  1
  O  O42  1  0.83905600  0.95082900  0.62315700  1
  O  O43  1  0.97566900  0.22916800  0.81996200  1
