# generated using pymatgen
data_Li4Ti4Mn5O18
_symmetry_space_group_name_H-M   'P 1'
_cell_length_a   2.91091300
_cell_length_b   9.12685100
_cell_length_c   26.23829800
_cell_angle_alpha   90.00000000
_cell_angle_beta   90.00000000
_cell_angle_gamma   90.00000000
_symmetry_Int_Tables_number   1
_chemical_formula_structural   Li4Ti4Mn5O18
_chemical_formula_sum   'Li8 Ti8 Mn10 O36'
_cell_volume   697.08517463
_cell_formula_units_Z   2
loop_
 _symmetry_equiv_pos_site_id
 _symmetry_equiv_pos_as_xyz
  1  'x, y, z'
loop_
 _atom_site_type_symbol
 _atom_site_label
 _atom_site_symmetry_multiplicity
 _atom_site_fract_x
 _atom_site_fract_y
 _atom_site_fract_z
 _atom_site_occupancy
  Li  Li0  1  0.00000000  0.19644700  0.48501200  1
  Li  Li1  1  0.00000000  0.20372600  0.68371200  1
  Li  Li2  1  0.00000000  0.29627400  0.18371200  1
  Li  Li3  1  0.00000000  0.30355300  0.98501200  1
  Li  Li4  1  0.00000000  0.69644700  0.01498800  1
  Li  Li5  1  0.00000000  0.70372600  0.81628800  1
  Li  Li6  1  0.00000000  0.79627400  0.31628800  1
  Li  Li7  1  0.00000000  0.80355300  0.51498800  1
  Ti  Ti8  1  0.00000000  0.99510600  0.60147400  1
  Ti  Ti9  1  0.50000000  0.14780700  0.30784300  1
  Ti  Ti10  1  0.50000000  0.35219300  0.80784300  1
  Ti  Ti11  1  0.00000000  0.50489400  0.10147400  1
  Ti  Ti12  1  0.00000000  0.49510600  0.89852600  1
  Ti  Ti13  1  0.50000000  0.64780700  0.19215700  1
  Ti  Ti14  1  0.50000000  0.85219300  0.69215700  1
  Ti  Ti15  1  0.00000000  0.00489400  0.39852600  1
  Mn  Mn16  1  0.00000000  0.00000000  0.00000000  1
  Mn  Mn17  1  0.00000000  0.01071800  0.80926500  1
  Mn  Mn18  1  0.50000000  0.15289200  0.08545300  1
  Mn  Mn19  1  0.50000000  0.34710800  0.58545300  1
  Mn  Mn20  1  0.00000000  0.48928200  0.30926500  1
  Mn  Mn21  1  0.00000000  0.50000000  0.50000000  1
  Mn  Mn22  1  0.00000000  0.51071800  0.69073500  1
  Mn  Mn23  1  0.50000000  0.65289200  0.41454700  1
  Mn  Mn24  1  0.50000000  0.84710800  0.91454700  1
  Mn  Mn25  1  0.00000000  0.98928200  0.19073500  1
  O  O26  1  0.00000000  0.98641500  0.92591300  1
  O  O27  1  0.00000000  0.01358500  0.07408700  1
  O  O28  1  0.50000000  0.05990200  0.44202400  1
  O  O29  1  0.50000000  0.04916500  0.65522200  1
  O  O30  1  0.50000000  0.11820100  0.16694700  1
  O  O31  1  0.00000000  0.09930200  0.26347100  1
  O  O32  1  0.50000000  0.14278100  0.99954500  1
  O  O33  1  0.50000000  0.14279800  0.79114900  1
  O  O34  1  0.00000000  0.18346700  0.35858900  1
  O  O35  1  0.00000000  0.20353700  0.58384700  1
  O  O36  1  0.00000000  0.29646300  0.08384700  1
  O  O37  1  0.00000000  0.31653300  0.85858900  1
  O  O38  1  0.50000000  0.35720200  0.29114900  1
  O  O39  1  0.50000000  0.35721900  0.49954500  1
  O  O40  1  0.00000000  0.40069800  0.76347100  1
  O  O41  1  0.50000000  0.38179900  0.66694700  1
  O  O42  1  0.50000000  0.45083500  0.15522200  1
  O  O43  1  0.50000000  0.44009800  0.94202400  1
  O  O44  1  0.00000000  0.48641500  0.57408700  1
  O  O45  1  0.00000000  0.51358500  0.42591300  1
  O  O46  1  0.50000000  0.55990200  0.05797600  1
  O  O47  1  0.50000000  0.54916500  0.84477800  1
  O  O48  1  0.50000000  0.61820100  0.33305300  1
  O  O49  1  0.00000000  0.59930200  0.23652900  1
  O  O50  1  0.50000000  0.64278100  0.50045500  1
  O  O51  1  0.50000000  0.64279800  0.70885100  1
  O  O52  1  0.00000000  0.68346700  0.14141100  1
  O  O53  1  0.00000000  0.70353700  0.91615300  1
  O  O54  1  0.00000000  0.79646300  0.41615300  1
  O  O55  1  0.00000000  0.81653300  0.64141100  1
  O  O56  1  0.50000000  0.85720200  0.20885100  1
  O  O57  1  0.50000000  0.85721900  0.00045500  1
  O  O58  1  0.00000000  0.90069800  0.73652900  1
  O  O59  1  0.50000000  0.88179900  0.83305300  1
  O  O60  1  0.50000000  0.95083500  0.34477800  1
  O  O61  1  0.50000000  0.94009800  0.55797600  1
