# generated using pymatgen
data_Li4Mn3Nb3(FeO8)2
_symmetry_space_group_name_H-M   'P 1'
_cell_length_a   6.11725800
_cell_length_b   6.24356583
_cell_length_c   9.80691285
_cell_angle_alpha   92.16940078
_cell_angle_beta   90.50900713
_cell_angle_gamma   118.88232461
_symmetry_Int_Tables_number   1
_chemical_formula_structural   Li4Mn3Nb3(FeO8)2
_chemical_formula_sum   'Li4 Mn3 Nb3 Fe2 O16'
_cell_volume   327.57705110
_cell_formula_units_Z   1
loop_
 _symmetry_equiv_pos_site_id
 _symmetry_equiv_pos_as_xyz
  1  'x, y, z'
loop_
 _atom_site_type_symbol
 _atom_site_label
 _atom_site_symmetry_multiplicity
 _atom_site_fract_x
 _atom_site_fract_y
 _atom_site_fract_z
 _atom_site_occupancy
  Li  Li0  1  0.67700700  0.34781600  0.09685300  1
  Li  Li1  1  0.99564300  0.99635400  0.99743400  1
  Li  Li2  1  0.01404400  0.03305700  0.51395800  1
  Li  Li3  1  0.34447900  0.67726800  0.61309900  1
  Mn  Mn4  1  0.83293800  0.17084500  0.78993800  1
  Mn  Mn5  1  0.33566800  0.15847400  0.79151400  1
  Mn  Mn6  1  0.17366600  0.34394200  0.28735400  1
  Nb  Nb7  1  0.82184200  0.65374100  0.78048700  1
  Nb  Nb8  1  0.66368600  0.83502800  0.28332900  1
  Nb  Nb9  1  0.16903800  0.83470500  0.28610100  1
  Fe  Fe10  1  0.65154000  0.29283100  0.52612500  1
  Fe  Fe11  1  0.31270200  0.64007300  0.99499400  1
  O  O12  1  0.82201800  0.15158800  0.40076900  1
  O  O13  1  0.54272000  0.03989900  0.65968100  1
  O  O14  1  0.69278000  0.34808700  0.89426900  1
  O  O15  1  0.97181600  0.98511000  0.69758200  1
  O  O16  1  0.99215000  0.98771100  0.18314200  1
  O  O17  1  0.32857100  0.14762500  0.40551000  1
  O  O18  1  0.96475600  0.49857100  0.64980000  1
  O  O19  1  0.53069700  0.48614500  0.64841900  1
  O  O20  1  0.13803900  0.31245300  0.90944800  1
  O  O21  1  0.85076900  0.69928300  0.39211700  1
  O  O22  1  0.49756500  0.54576400  0.15738400  1
  O  O23  1  0.04769900  0.54717500  0.15968500  1
  O  O24  1  0.35483700  0.70268200  0.39851900  1
  O  O25  1  0.64595400  0.78721000  0.90313700  1
  O  O26  1  0.48285500  0.97290400  0.16986000  1
  O  O27  1  0.14481600  0.80365700  0.90165400  1
