# generated using pymatgen
data_Li2SnP2O7
_symmetry_space_group_name_H-M   'P 1'
_cell_length_a   14.44792400
_cell_length_b   5.53638700
_cell_length_c   9.56806077
_cell_angle_alpha   56.17287342
_cell_angle_beta   90.00000000
_cell_angle_gamma   90.00000000
_symmetry_Int_Tables_number   1
_chemical_formula_structural   Li2SnP2O7
_chemical_formula_sum   'Li8 Sn4 P8 O28'
_cell_volume   635.78606119
_cell_formula_units_Z   4
loop_
 _symmetry_equiv_pos_site_id
 _symmetry_equiv_pos_as_xyz
  1  'x, y, z'
loop_
 _atom_site_type_symbol
 _atom_site_label
 _atom_site_symmetry_multiplicity
 _atom_site_fract_x
 _atom_site_fract_y
 _atom_site_fract_z
 _atom_site_occupancy
  Li  Li0  1  0.59210100  0.05431200  0.64992200  1
  Li  Li1  1  0.18382800  0.51768600  0.68348600  1
  Li  Li2  1  0.68382800  0.48231400  0.81651400  1
  Li  Li3  1  0.09210100  0.94568800  0.85007800  1
  Li  Li4  1  0.90789900  0.05431200  0.14992200  1
  Li  Li5  1  0.31617200  0.51768600  0.18348600  1
  Li  Li6  1  0.81617200  0.48231400  0.31651400  1
  Li  Li7  1  0.40789900  0.94568800  0.35007800  1
  Sn  Sn8  1  0.84289500  0.03179000  0.77059500  1
  Sn  Sn9  1  0.34289500  0.96821000  0.72940500  1
  Sn  Sn10  1  0.65710500  0.03179000  0.27059500  1
  Sn  Sn11  1  0.15710500  0.96821000  0.22940500  1
  P  P12  1  0.82618300  0.74513700  0.52788000  1
  P  P13  1  0.47740300  0.48919500  0.72012500  1
  P  P14  1  0.97740300  0.51080500  0.77987500  1
  P  P15  1  0.32618300  0.25486300  0.97212000  1
  P  P16  1  0.67381700  0.74513700  0.02788000  1
  P  P17  1  0.02259700  0.48919500  0.22012500  1
  P  P18  1  0.52259700  0.51080500  0.27987500  1
  P  P19  1  0.17381700  0.25486300  0.47212000  1
  O  O20  1  0.93289200  0.69122200  0.58413800  1
  O  O21  1  0.79447500  0.47423400  0.52994600  1
  O  O22  1  0.76865900  0.78100000  0.65046100  1
  O  O23  1  0.17959100  0.97685600  0.65206500  1
  O  O24  1  0.40066600  0.70586700  0.60732000  1
  O  O25  1  0.49463600  0.25196800  0.68831000  1
  O  O26  1  0.56287700  0.63758100  0.73119100  1
  O  O27  1  0.06287700  0.36241900  0.76880900  1
  O  O28  1  0.99463600  0.74803200  0.81169000  1
  O  O29  1  0.90066600  0.29413300  0.89268000  1
  O  O30  1  0.26865900  0.21900000  0.84953900  1
  O  O31  1  0.67959100  0.02314400  0.84793500  1
  O  O32  1  0.29447500  0.52576600  0.97005400  1
  O  O33  1  0.43289200  0.30877800  0.91586200  1
  O  O34  1  0.56710800  0.69122200  0.08413800  1
  O  O35  1  0.70552500  0.47423400  0.02994600  1
  O  O36  1  0.32040900  0.97685600  0.15206500  1
  O  O37  1  0.73134100  0.78100000  0.15046100  1
  O  O38  1  0.09933400  0.70586700  0.10732000  1
  O  O39  1  0.00536400  0.25196800  0.18831000  1
  O  O40  1  0.93712300  0.63758100  0.23119100  1
  O  O41  1  0.43712300  0.36241900  0.26880900  1
  O  O42  1  0.50536400  0.74803200  0.31169000  1
  O  O43  1  0.59933400  0.29413300  0.39268000  1
  O  O44  1  0.82040900  0.02314400  0.34793500  1
  O  O45  1  0.23134100  0.21900000  0.34953900  1
  O  O46  1  0.20552500  0.52576600  0.47005400  1
  O  O47  1  0.06710800  0.30877800  0.41586200  1
