# generated using pymatgen
data_Li7V3P8O29
_symmetry_space_group_name_H-M   'P 1'
_cell_length_a   9.86174804
_cell_length_b   9.86174804
_cell_length_c   13.86120385
_cell_angle_alpha   89.79078552
_cell_angle_beta   89.79078552
_cell_angle_gamma   59.70754129
_symmetry_Int_Tables_number   1
_chemical_formula_structural   Li7V3P8O29
_chemical_formula_sum   'Li14 V6 P16 O58'
_cell_volume   1163.98694847
_cell_formula_units_Z   2
loop_
 _symmetry_equiv_pos_site_id
 _symmetry_equiv_pos_as_xyz
  1  'x, y, z'
loop_
 _atom_site_type_symbol
 _atom_site_label
 _atom_site_symmetry_multiplicity
 _atom_site_fract_x
 _atom_site_fract_y
 _atom_site_fract_z
 _atom_site_occupancy
  Li  Li0  1  0.67310800  0.23422500  0.56180400  1
  Li  Li1  1  0.23422500  0.67310800  0.06180400  1
  Li  Li2  1  0.33679500  0.33107500  0.88299700  1
  Li  Li3  1  0.33107500  0.33679500  0.38299700  1
  Li  Li4  1  0.23590100  0.09600300  0.56227800  1
  Li  Li5  1  0.90399700  0.76409900  0.93772200  1
  Li  Li6  1  0.09600300  0.23590100  0.06227800  1
  Li  Li7  1  0.76409900  0.90399700  0.43772200  1
  Li  Li8  1  0.66320500  0.66892500  0.11700300  1
  Li  Li9  1  0.66892500  0.66320500  0.61700300  1
  Li  Li10  1  0.76577500  0.32689200  0.93819600  1
  Li  Li11  1  0.32689200  0.76577500  0.43819600  1
  Li  Li12  1  0.00000000  0.00000000  0.50000000  1
  Li  Li13  1  0.00000000  0.00000000  0.00000000  1
  V  V14  1  0.00371800  0.56386100  0.74456600  1
  V  V15  1  0.99628200  0.43613900  0.25543400  1
  V  V16  1  0.56386100  0.00371800  0.24456600  1
  V  V17  1  0.43613900  0.99628200  0.75543400  1
  V  V18  1  0.56489400  0.43510600  0.75000000  1
  V  V19  1  0.43510600  0.56489400  0.25000000  1
  P  P20  1  0.68514500  0.22392600  0.34388600  1
  P  P21  1  0.68796700  0.08645500  0.84426700  1
  P  P22  1  0.22392600  0.68514500  0.84388600  1
  P  P23  1  0.33573100  0.32825900  0.62600700  1
  P  P24  1  0.32825900  0.33573100  0.12600700  1
  P  P25  1  0.08645500  0.68796700  0.34426700  1
  P  P26  1  0.91141300  0.77200900  0.15597400  1
  P  P27  1  0.22799100  0.08858700  0.34402600  1
  P  P28  1  0.77200900  0.91141300  0.65597400  1
  P  P29  1  0.08858700  0.22799100  0.84402600  1
  P  P30  1  0.91354500  0.31203300  0.65573300  1
  P  P31  1  0.67174100  0.66426900  0.87399300  1
  P  P32  1  0.66426900  0.67174100  0.37399300  1
  P  P33  1  0.77607400  0.31485500  0.15611400  1
  P  P34  1  0.31203300  0.91354500  0.15573300  1
  P  P35  1  0.31485500  0.77607400  0.65611400  1
  O  O36  1  0.78141400  0.22885500  0.06576200  1
  O  O37  1  0.66775200  0.25146500  0.84484200  1
  O  O38  1  0.76911100  0.00047100  0.56586800  1
  O  O39  1  0.66657000  0.07722100  0.33854200  1
  O  O40  1  0.51930500  0.37035300  0.33263000  1
  O  O41  1  0.48419800  0.32824900  0.66171200  1
  O  O42  1  0.37035300  0.51930500  0.83263000  1
  O  O43  1  0.22885500  0.78141400  0.56576200  1
  O  O44  1  0.25146500  0.66775200  0.34484200  1
  O  O45  1  0.47516100  0.18629300  0.17145200  1
  O  O46  1  0.52161300  0.10543100  0.83267800  1
  O  O47  1  0.32824900  0.48419800  0.16171200  1
  O  O48  1  0.32954800  0.32502400  0.51811600  1
  O  O49  1  0.32502400  0.32954800  0.01811600  1
  O  O50  1  0.18629300  0.47516100  0.67145200  1
  O  O51  1  0.37738700  0.10241200  0.33209600  1
  O  O52  1  0.33542700  0.18028900  0.66902100  1
  O  O53  1  0.07722100  0.66657000  0.83854200  1
  O  O54  1  0.00659300  0.78407600  0.24580300  1
  O  O55  1  0.00047100  0.76911100  0.06586800  1
  O  O56  1  0.98822900  0.78517100  0.42714000  1
  O  O57  1  0.10543100  0.52161300  0.33267800  1
  O  O58  1  0.18028900  0.33542700  0.16902100  1
  O  O59  1  0.91508500  0.74637900  0.65871800  1
  O  O60  1  0.10241200  0.37738700  0.83209600  1
  O  O61  1  0.25362100  0.08491500  0.84128200  1
  O  O62  1  0.78407600  0.00659300  0.74580300  1
  O  O63  1  0.78517100  0.98822900  0.92714000  1
  O  O64  1  0.21482900  0.01177100  0.07286000  1
  O  O65  1  0.74637900  0.91508500  0.15871800  1
  O  O66  1  0.89758800  0.62261300  0.16790400  1
  O  O67  1  0.08491500  0.25362100  0.34128200  1
  O  O68  1  0.81971100  0.66457300  0.83097900  1
  O  O69  1  0.89456900  0.47838700  0.66732200  1
  O  O70  1  0.01177100  0.21482900  0.57286000  1
  O  O71  1  0.99952900  0.23088900  0.93413200  1
  O  O72  1  0.99340700  0.21592400  0.75419700  1
  O  O73  1  0.92277900  0.33343000  0.16145800  1
  O  O74  1  0.66457300  0.81971100  0.33097900  1
  O  O75  1  0.62261300  0.89758800  0.66790400  1
  O  O76  1  0.81370700  0.52483900  0.32854800  1
  O  O77  1  0.67045200  0.67497600  0.48188400  1
  O  O78  1  0.67497600  0.67045200  0.98188400  1
  O  O79  1  0.67175100  0.51580200  0.83828800  1
  O  O80  1  0.47838700  0.89456900  0.16732200  1
  O  O81  1  0.52483900  0.81370700  0.82854800  1
  O  O82  1  0.74853500  0.33224800  0.65515800  1
  O  O83  1  0.78759500  0.21240500  0.25000000  1
  O  O84  1  0.77114500  0.21858600  0.43423800  1
  O  O85  1  0.62964700  0.48069500  0.16737000  1
  O  O86  1  0.51580200  0.67175100  0.33828800  1
  O  O87  1  0.48069500  0.62964700  0.66737000  1
  O  O88  1  0.33343000  0.92277900  0.66145800  1
  O  O89  1  0.23088900  0.99952900  0.43413200  1
  O  O90  1  0.21592400  0.99340700  0.25419700  1
  O  O91  1  0.33224800  0.74853500  0.15515800  1
  O  O92  1  0.21858600  0.77114500  0.93423800  1
  O  O93  1  0.21240500  0.78759500  0.75000000  1
