# generated using pymatgen
data_Li2Cr3CuO8
_symmetry_space_group_name_H-M   'P 1'
_cell_length_a   5.84419887
_cell_length_b   5.84419887
_cell_length_c   9.56498284
_cell_angle_alpha   89.78455087
_cell_angle_beta   89.78455087
_cell_angle_gamma   119.91970839
_symmetry_Int_Tables_number   1
_chemical_formula_structural   Li2Cr3CuO8
_chemical_formula_sum   'Li4 Cr6 Cu2 O16'
_cell_volume   283.14138631
_cell_formula_units_Z   2
loop_
 _symmetry_equiv_pos_site_id
 _symmetry_equiv_pos_as_xyz
  1  'x, y, z'
loop_
 _atom_site_type_symbol
 _atom_site_label
 _atom_site_symmetry_multiplicity
 _atom_site_fract_x
 _atom_site_fract_y
 _atom_site_fract_z
 _atom_site_occupancy
  Li  Li0  1  0.66381100  0.33244300  0.10041200  1
  Li  Li1  1  0.00282100  0.00288900  0.00346000  1
  Li  Li2  1  0.00288900  0.00282100  0.50346000  1
  Li  Li3  1  0.33244300  0.66381100  0.60041200  1
  Cr  Cr4  1  0.82831000  0.65568400  0.78444100  1
  Cr  Cr5  1  0.33463800  0.16401700  0.79056200  1
  Cr  Cr6  1  0.82928500  0.16201500  0.79120300  1
  Cr  Cr7  1  0.16201500  0.82928500  0.29120300  1
  Cr  Cr8  1  0.65568400  0.82831000  0.28444100  1
  Cr  Cr9  1  0.16401700  0.33463800  0.29056200  1
  Cu  Cu10  1  0.67472500  0.33683400  0.51690200  1
  Cu  Cu11  1  0.33683400  0.67472500  0.01690200  1
  O  O12  1  0.84737000  0.67674700  0.39436400  1
  O  O13  1  0.51220600  0.47211100  0.66447000  1
  O  O14  1  0.66367400  0.32806700  0.89735000  1
  O  O15  1  0.00153900  0.00052200  0.68674700  1
  O  O16  1  0.00052200  0.00153900  0.18674700  1
  O  O17  1  0.32891800  0.16379800  0.38960100  1
  O  O18  1  0.96283300  0.47270000  0.66562300  1
  O  O19  1  0.52231700  0.04116200  0.66763700  1
  O  O20  1  0.17153400  0.84733000  0.89330600  1
  O  O21  1  0.84733000  0.17153400  0.39330600  1
  O  O22  1  0.47270000  0.96283300  0.16562300  1
  O  O23  1  0.04116200  0.52231700  0.16763700  1
  O  O24  1  0.32806700  0.66367400  0.39735000  1
  O  O25  1  0.67674700  0.84737000  0.89436400  1
  O  O26  1  0.47211100  0.51220600  0.16447000  1
  O  O27  1  0.16379800  0.32891800  0.88960100  1
