# generated using pymatgen
data_Li5V3P8O29
_symmetry_space_group_name_H-M   'P 1'
_cell_length_a   9.77937900
_cell_length_b   9.79763243
_cell_length_c   13.98574197
_cell_angle_alpha   89.77193033
_cell_angle_beta   89.78653950
_cell_angle_gamma   60.06453532
_symmetry_Int_Tables_number   1
_chemical_formula_structural   Li5V3P8O29
_chemical_formula_sum   'Li10 V6 P16 O58'
_cell_volume   1161.25153899
_cell_formula_units_Z   2
loop_
 _symmetry_equiv_pos_site_id
 _symmetry_equiv_pos_as_xyz
  1  'x, y, z'
loop_
 _atom_site_type_symbol
 _atom_site_label
 _atom_site_symmetry_multiplicity
 _atom_site_fract_x
 _atom_site_fract_y
 _atom_site_fract_z
 _atom_site_occupancy
  Li  Li0  1  0.22613400  0.09534500  0.55527000  1
  Li  Li1  1  0.09396900  0.67539500  0.55983300  1
  Li  Li2  1  0.23487500  0.66153300  0.06097000  1
  Li  Li3  1  0.66703000  0.09589900  0.06124100  1
  Li  Li4  1  0.32086400  0.77410500  0.43817400  1
  Li  Li5  1  0.68705400  0.22635000  0.55929400  1
  Li  Li6  1  0.33076100  0.90627200  0.94063700  1
  Li  Li7  1  0.76562400  0.33670400  0.94244700  1
  Li  Li8  1  0.77131000  0.90666600  0.43906300  1
  Li  Li9  1  0.00022300  0.99862200  0.00446400  1
  V  V10  1  0.43293800  0.56592800  0.25243700  1
  V  V11  1  0.56880500  0.43243200  0.74727700  1
  V  V12  1  0.43346700  0.00324500  0.75026900  1
  V  V13  1  0.56701600  0.99953200  0.24844400  1
  V  V14  1  0.00237700  0.42938500  0.24743200  1
  V  V15  1  0.99534300  0.56626800  0.75612900  1
  P  P16  1  0.08251800  0.22426400  0.84354100  1
  P  P17  1  0.22899300  0.08915100  0.33829800  1
  P  P18  1  0.08482500  0.68097400  0.34393300  1
  P  P19  1  0.33238700  0.33574700  0.12714300  1
  P  P20  1  0.33065500  0.33601100  0.62947400  1
  P  P21  1  0.22817500  0.68368800  0.84083000  1
  P  P22  1  0.31947100  0.77008800  0.65770400  1
  P  P23  1  0.68538600  0.08874500  0.84353200  1
  P  P24  1  0.31493000  0.91004500  0.15617900  1
  P  P25  1  0.68100500  0.22972100  0.34320500  1
  P  P26  1  0.77310500  0.31447300  0.15996100  1
  P  P27  1  0.66965400  0.66680300  0.37032200  1
  P  P28  1  0.66440900  0.66533200  0.87261700  1
  P  P29  1  0.91706000  0.31514000  0.65536500  1
  P  P30  1  0.77042900  0.91087400  0.66053600  1
  P  P31  1  0.91687700  0.77395900  0.15824200  1
  O  O32  1  0.00965900  0.23511700  0.56860200  1
  O  O33  1  0.08412700  0.25606000  0.33487800  1
  O  O34  1  0.22696900  0.98298900  0.06553100  1
  O  O35  1  0.25204400  0.08453200  0.84190900  1
  O  O36  1  0.08430500  0.38269700  0.82983400  1
  O  O37  1  0.18693000  0.33116700  0.17555000  1
  O  O38  1  0.09499000  0.52222400  0.32347900  1
  O  O39  1  0.00875700  0.78708500  0.07587600  1
  O  O40  1  0.08343900  0.65863000  0.83446600  1
  O  O41  1  0.32698200  0.18573100  0.67005500  1
  O  O42  1  0.38086200  0.09704600  0.32139000  1
  O  O43  1  0.18359800  0.48563300  0.67415100  1
  O  O44  1  0.32602600  0.33875300  0.02055000  1
  O  O45  1  0.32581000  0.34094300  0.52279300  1
  O  O46  1  0.32236900  0.48980000  0.16730200  1
  O  O47  1  0.52795400  0.09125800  0.83074000  1
  O  O48  1  0.48726400  0.18942400  0.16551600  1
  O  O49  1  0.25031400  0.66498200  0.34379200  1
  O  O50  1  0.20798500  0.79311000  0.74885200  1
  O  O51  1  0.24394200  0.75473700  0.56794500  1
  O  O52  1  0.22046700  0.77416400  0.92982200  1
  O  O53  1  0.38112700  0.52828500  0.82898700  1
  O  O54  1  0.48629000  0.32657600  0.66787500  1
  O  O55  1  0.34036300  0.74011600  0.16421600  1
  O  O56  1  0.52027500  0.37995800  0.32181600  1
  O  O57  1  0.66185900  0.08195100  0.33941400  1
  O  O58  1  0.20668700  0.99879000  0.24877500  1
  O  O59  1  0.24007100  0.00104100  0.42910700  1
  O  O60  1  0.76040300  0.99819000  0.56989700  1
  O  O61  1  0.33714100  0.91726000  0.65712400  1
  O  O62  1  0.47984200  0.61991800  0.67705200  1
  O  O63  1  0.66027800  0.25837800  0.83594300  1
  O  O64  1  0.51455100  0.67212700  0.33352200  1
  O  O65  1  0.61983700  0.47039600  0.16998200  1
  O  O66  1  0.78093600  0.22282500  0.07078300  1
  O  O67  1  0.75243800  0.24067500  0.43408500  1
  O  O68  1  0.79258600  0.20637900  0.25184300  1
  O  O69  1  0.74909200  0.33703400  0.65662400  1
  O  O70  1  0.51113500  0.81319200  0.83307500  1
  O  O71  1  0.47104700  0.90806400  0.16902800  1
  O  O72  1  0.67671800  0.51082700  0.83272600  1
  O  O73  1  0.67184800  0.66311900  0.97899800  1
  O  O74  1  0.67530600  0.66517800  0.47691000  1
  O  O75  1  0.81542400  0.52297900  0.32015100  1
  O  O76  1  0.62203900  0.89815100  0.67817700  1
  O  O77  1  0.67334300  0.81611900  0.33045300  1
  O  O78  1  0.91745100  0.33930300  0.16449500  1
  O  O79  1  0.00092400  0.20664700  0.74831100  1
  O  O80  1  0.99168900  0.21913300  0.92811700  1
  O  O81  1  0.90856100  0.47533700  0.67772800  1
  O  O82  1  0.81167600  0.67044600  0.82491700  1
  O  O83  1  0.91814300  0.61696000  0.16868600  1
  O  O84  1  0.74552300  0.91558000  0.15835400  1
  O  O85  1  0.77063900  0.01532700  0.93470800  1
  O  O86  1  0.79398300  0.99903200  0.75117600  1
  O  O87  1  0.91907700  0.74384900  0.66181100  1
  O  O88  1  0.99707700  0.75557500  0.43526700  1
  O  O89  1  0.99152100  0.79669800  0.25647200  1
