# generated using pymatgen
data_Li10Sn(PSe6)2
_symmetry_space_group_name_H-M   'P 1'
_cell_length_a   9.32218100
_cell_length_b   9.32218100
_cell_length_c   13.52214100
_cell_angle_alpha   90.00000000
_cell_angle_beta   90.00000000
_cell_angle_gamma   90.00000000
_symmetry_Int_Tables_number   1
_chemical_formula_structural   Li10Sn(PSe6)2
_chemical_formula_sum   'Li20 Sn2 P4 Se24'
_cell_volume   1175.11541168
_cell_formula_units_Z   2
loop_
 _symmetry_equiv_pos_site_id
 _symmetry_equiv_pos_as_xyz
  1  'x, y, z'
loop_
 _atom_site_type_symbol
 _atom_site_label
 _atom_site_symmetry_multiplicity
 _atom_site_fract_x
 _atom_site_fract_y
 _atom_site_fract_z
 _atom_site_occupancy
  Li  Li0  1  0.22733000  0.27289500  0.29430300  1
  Li  Li1  1  0.77267000  0.72710500  0.29430300  1
  Li  Li2  1  0.27289500  0.77267000  0.79430300  1
  Li  Li3  1  0.72710500  0.22733000  0.79430300  1
  Li  Li4  1  0.22733000  0.72710500  0.29430300  1
  Li  Li5  1  0.77267000  0.27289500  0.29430300  1
  Li  Li6  1  0.27289500  0.22733000  0.79430300  1
  Li  Li7  1  0.72710500  0.77267000  0.79430300  1
  Li  Li8  1  0.00000000  0.00000000  0.94159700  1
  Li  Li9  1  0.00000000  0.00000000  0.44159700  1
  Li  Li10  1  0.50000000  0.50000000  0.54748200  1
  Li  Li11  1  0.50000000  0.50000000  0.04748200  1
  Li  Li12  1  0.25735500  0.72615700  0.03664800  1
  Li  Li13  1  0.74264500  0.27384300  0.03664800  1
  Li  Li14  1  0.27384300  0.25735500  0.53664800  1
  Li  Li15  1  0.72615700  0.74264500  0.53664800  1
  Li  Li16  1  0.27384300  0.74264500  0.53664800  1
  Li  Li17  1  0.72615700  0.25735500  0.53664800  1
  Li  Li18  1  0.25735500  0.27384300  0.03664800  1
  Li  Li19  1  0.74264500  0.72615700  0.03664800  1
  Sn  Sn20  1  0.50000000  0.50000000  0.80158000  1
  Sn  Sn21  1  0.50000000  0.50000000  0.30158000  1
  P  P22  1  0.00000000  0.00000000  0.68515000  1
  P  P23  1  0.00000000  0.00000000  0.18515000  1
  P  P24  1  0.00000000  0.50000000  0.50340500  1
  P  P25  1  0.50000000  0.00000000  0.00340500  1
  Se  Se26  1  0.00000000  0.69893500  0.41028000  1
  Se  Se27  1  0.00000000  0.30106500  0.41028000  1
  Se  Se28  1  0.30106500  0.00000000  0.91028000  1
  Se  Se29  1  0.69893500  0.00000000  0.91028000  1
  Se  Se30  1  0.50000000  0.19349800  0.09962000  1
  Se  Se31  1  0.50000000  0.80650200  0.09962000  1
  Se  Se32  1  0.19349800  0.50000000  0.59962000  1
  Se  Se33  1  0.80650200  0.50000000  0.59962000  1
  Se  Se34  1  0.00000000  0.80043300  0.09273200  1
  Se  Se35  1  0.00000000  0.19956700  0.09273200  1
  Se  Se36  1  0.19956700  0.00000000  0.59273200  1
  Se  Se37  1  0.80043300  0.00000000  0.59273200  1
  Se  Se38  1  0.50000000  0.27292900  0.40844800  1
  Se  Se39  1  0.50000000  0.72707100  0.40844800  1
  Se  Se40  1  0.27292900  0.50000000  0.90844800  1
  Se  Se41  1  0.72707100  0.50000000  0.90844800  1
  Se  Se42  1  0.00000000  0.19552500  0.77895700  1
  Se  Se43  1  0.00000000  0.80447500  0.77895700  1
  Se  Se44  1  0.80447500  0.00000000  0.27895700  1
  Se  Se45  1  0.19552500  0.00000000  0.27895700  1
  Se  Se46  1  0.50000000  0.72270500  0.69205600  1
  Se  Se47  1  0.50000000  0.27729500  0.69205600  1
  Se  Se48  1  0.72270500  0.50000000  0.19205600  1
  Se  Se49  1  0.27729500  0.50000000  0.19205600  1
