# generated using pymatgen
data_Li6MnFe5(BO3)6
_symmetry_space_group_name_H-M   'P 1'
_cell_length_a   8.24364400
_cell_length_b   8.24476530
_cell_length_c   12.55723042
_cell_angle_alpha   89.78503549
_cell_angle_beta   89.82981292
_cell_angle_gamma   60.01455242
_symmetry_Int_Tables_number   1
_chemical_formula_structural   Li6MnFe5(BO3)6
_chemical_formula_sum   'Li12 Mn2 Fe10 B12 O36'
_cell_volume   739.23459542
_cell_formula_units_Z   2
loop_
 _symmetry_equiv_pos_site_id
 _symmetry_equiv_pos_as_xyz
  1  'x, y, z'
loop_
 _atom_site_type_symbol
 _atom_site_label
 _atom_site_symmetry_multiplicity
 _atom_site_fract_x
 _atom_site_fract_y
 _atom_site_fract_z
 _atom_site_occupancy
  Li  Li0  1  0.98425600  0.30171700  0.87476100  1
  Li  Li1  1  0.98507400  0.30178800  0.12571900  1
  Li  Li2  1  0.98468400  0.30090500  0.37516500  1
  Li  Li3  1  0.98446100  0.30055600  0.62441900  1
  Li  Li4  1  0.30150600  0.71451100  0.87439100  1
  Li  Li5  1  0.30197500  0.71393400  0.62448700  1
  Li  Li6  1  0.30105600  0.71345900  0.37505700  1
  Li  Li7  1  0.30098800  0.71410300  0.12531100  1
  Li  Li8  1  0.71318400  0.98608600  0.62419300  1
  Li  Li9  1  0.71385100  0.98488500  0.37488700  1
  Li  Li10  1  0.71263200  0.98521900  0.87595600  1
  Li  Li11  1  0.71419900  0.98473700  0.12527000  1
  Mn  Mn12  1  0.36106900  0.01217100  0.75024500  1
  Mn  Mn13  1  0.01229600  0.62659700  0.99964900  1
  Fe  Fe14  1  0.35901600  0.00730100  0.00187900  1
  Fe  Fe15  1  0.36136700  0.00743800  0.49940600  1
  Fe  Fe16  1  0.35970100  0.00694200  0.25090700  1
  Fe  Fe17  1  0.00755800  0.63187600  0.49918100  1
  Fe  Fe18  1  0.00648300  0.63406100  0.74792600  1
  Fe  Fe19  1  0.00760300  0.63065600  0.25084100  1
  Fe  Fe20  1  0.63272900  0.36004600  0.49944300  1
  Fe  Fe21  1  0.63387300  0.35931500  0.99991500  1
  Fe  Fe22  1  0.63371200  0.35894600  0.74987000  1
  Fe  Fe23  1  0.63295600  0.35989000  0.24968000  1
  B  B24  1  0.99836000  0.00213100  0.00023800  1
  B  B25  1  0.99966300  0.99811500  0.74976300  1
  B  B26  1  0.00021400  0.99983900  0.49974900  1
  B  B27  1  0.99990900  0.99990500  0.25024600  1
  B  B28  1  0.66601900  0.66672700  0.12692600  1
  B  B29  1  0.66657500  0.66570400  0.87503500  1
  B  B30  1  0.66808100  0.66544200  0.62317900  1
  B  B31  1  0.66674700  0.66598600  0.37513900  1
  B  B32  1  0.33362600  0.33429000  0.87496700  1
  B  B33  1  0.33290800  0.33524600  0.62356400  1
  B  B34  1  0.33310900  0.33333500  0.37503800  1
  B  B35  1  0.33476500  0.33259700  0.12651500  1
  O  O36  1  0.91633700  0.19294500  0.75032500  1
  O  O37  1  0.91646400  0.19678200  0.00079700  1
  O  O38  1  0.91463600  0.19444600  0.50025800  1
  O  O39  1  0.91531100  0.19429800  0.25054600  1
  O  O40  1  0.57948300  0.55897400  0.12505400  1
  O  O41  1  0.58001800  0.55774700  0.87489400  1
  O  O42  1  0.58063900  0.55836800  0.62492300  1
  O  O43  1  0.57937900  0.55884700  0.37482000  1
  O  O44  1  0.19289500  0.89126700  0.00018500  1
  O  O45  1  0.19425800  0.89125200  0.49861100  1
  O  O46  1  0.19433500  0.89042500  0.24941800  1
  O  O47  1  0.19289700  0.88693300  0.74944200  1
  O  O48  1  0.86034300  0.57970900  0.12873300  1
  O  O49  1  0.86090600  0.57878300  0.37672300  1
  O  O50  1  0.86022900  0.57963100  0.87242500  1
  O  O51  1  0.86189400  0.57879000  0.62430400  1
  O  O52  1  0.55866000  0.86083100  0.12567000  1
  O  O53  1  0.55878600  0.85974900  0.87783400  1
  O  O54  1  0.55952900  0.86027400  0.37367600  1
  O  O55  1  0.56059400  0.85990700  0.62157900  1
  O  O56  1  0.25283300  0.22075800  0.87726800  1
  O  O57  1  0.25427800  0.21797700  0.37495700  1
  O  O58  1  0.25338400  0.22034400  0.62367500  1
  O  O59  1  0.25474100  0.21852100  0.12660700  1
  O  O60  1  0.88686600  0.92019200  0.99978600  1
  O  O61  1  0.88682300  0.91640200  0.74972800  1
  O  O62  1  0.89077400  0.91492400  0.50039600  1
  O  O63  1  0.89074400  0.91501100  0.25095800  1
  O  O64  1  0.52754000  0.25446900  0.87529200  1
  O  O65  1  0.52714900  0.25502100  0.62471300  1
  O  O66  1  0.52714800  0.25460700  0.37490800  1
  O  O67  1  0.52857500  0.25416000  0.12500700  1
  O  O68  1  0.21813900  0.52882500  0.62335600  1
  O  O69  1  0.21950000  0.52822300  0.87237900  1
  O  O70  1  0.21774100  0.52730600  0.37512700  1
  O  O71  1  0.21996500  0.52684000  0.12670900  1
