# generated using pymatgen
data_Li2AlFeO4
_symmetry_space_group_name_H-M   'P 1'
_cell_length_a   5.96842200
_cell_length_b   5.33127400
_cell_length_c   10.90250784
_cell_angle_alpha   71.90222929
_cell_angle_beta   90.00000000
_cell_angle_gamma   90.00000000
_symmetry_Int_Tables_number   1
_chemical_formula_structural   Li2AlFeO4
_chemical_formula_sum   'Li8 Al4 Fe4 O16'
_cell_volume   329.74769291
_cell_formula_units_Z   4
loop_
 _symmetry_equiv_pos_site_id
 _symmetry_equiv_pos_as_xyz
  1  'x, y, z'
loop_
 _atom_site_type_symbol
 _atom_site_label
 _atom_site_symmetry_multiplicity
 _atom_site_fract_x
 _atom_site_fract_y
 _atom_site_fract_z
 _atom_site_occupancy
  Li  Li0  1  0.33827000  0.93563100  0.19188100  1
  Li  Li1  1  0.16173000  0.93563100  0.69188100  1
  Li  Li2  1  0.15695600  0.69830200  0.43198500  1
  Li  Li3  1  0.34304400  0.69830200  0.93198500  1
  Li  Li4  1  0.65695600  0.30169800  0.06801500  1
  Li  Li5  1  0.84304400  0.30169800  0.56801500  1
  Li  Li6  1  0.83827000  0.06436900  0.30811900  1
  Li  Li7  1  0.66173000  0.06436900  0.80811900  1
  Al  Al8  1  0.83071400  0.82086700  0.05821100  1
  Al  Al9  1  0.66928600  0.82086700  0.55821100  1
  Al  Al10  1  0.33071400  0.17913300  0.44178900  1
  Al  Al11  1  0.16928600  0.17913300  0.94178900  1
  Fe  Fe12  1  0.17373500  0.43152300  0.18326100  1
  Fe  Fe13  1  0.67373500  0.56847700  0.31673900  1
  Fe  Fe14  1  0.32626500  0.43152300  0.68326100  1
  Fe  Fe15  1  0.82626500  0.56847700  0.81673900  1
  O  O16  1  0.67738900  0.91608000  0.17943100  1
  O  O17  1  0.82261100  0.91608000  0.67943100  1
  O  O18  1  0.14061200  0.82060600  0.06011400  1
  O  O19  1  0.35938800  0.82060600  0.56011400  1
  O  O20  1  0.81454000  0.69402400  0.44424200  1
  O  O21  1  0.34506000  0.54092700  0.31387200  1
  O  O22  1  0.68546000  0.69402400  0.94424200  1
  O  O23  1  0.15494000  0.54092700  0.81387200  1
  O  O24  1  0.84506000  0.45907300  0.18612800  1
  O  O25  1  0.31454000  0.30597600  0.05575800  1
  O  O26  1  0.65494000  0.45907300  0.68612800  1
  O  O27  1  0.18546000  0.30597600  0.55575800  1
  O  O28  1  0.64061200  0.17939400  0.43988600  1
  O  O29  1  0.85938800  0.17939400  0.93988600  1
  O  O30  1  0.17738900  0.08392000  0.32056900  1
  O  O31  1  0.32261100  0.08392000  0.82056900  1
