# generated using pymatgen
data_LiNiCO4
_symmetry_space_group_name_H-M   'P 1'
_cell_length_a   9.35510400
_cell_length_b   3.10686500
_cell_length_c   9.41919039
_cell_angle_alpha   73.58869352
_cell_angle_beta   90.00000000
_cell_angle_gamma   90.00000000
_symmetry_Int_Tables_number   1
_chemical_formula_structural   LiNiCO4
_chemical_formula_sum   'Li4 Ni4 C4 O16'
_cell_volume   262.61535564
_cell_formula_units_Z   4
loop_
 _symmetry_equiv_pos_site_id
 _symmetry_equiv_pos_as_xyz
  1  'x, y, z'
loop_
 _atom_site_type_symbol
 _atom_site_label
 _atom_site_symmetry_multiplicity
 _atom_site_fract_x
 _atom_site_fract_y
 _atom_site_fract_z
 _atom_site_occupancy
  Li  Li0  1  0.59532900  0.40072900  0.82283900  1
  Li  Li1  1  0.09532900  0.59927100  0.67716100  1
  Li  Li2  1  0.90467100  0.40072900  0.32283900  1
  Li  Li3  1  0.40467100  0.59927100  0.17716100  1
  Ni  Ni4  1  0.88145200  0.78467600  0.94280800  1
  Ni  Ni5  1  0.38145200  0.21532400  0.55719200  1
  Ni  Ni6  1  0.61854800  0.78467600  0.44280800  1
  Ni  Ni7  1  0.11854800  0.21532400  0.05719200  1
  C  C8  1  0.33324600  0.93785800  0.86171800  1
  C  C9  1  0.83324600  0.06214200  0.63828200  1
  C  C10  1  0.16675400  0.93785800  0.36171800  1
  C  C11  1  0.66675400  0.06214200  0.13828200  1
  O  O12  1  0.26059800  0.84613200  0.98714400  1
  O  O13  1  0.00379600  0.37492700  0.88861700  1
  O  O14  1  0.46434500  0.85399800  0.86709400  1
  O  O15  1  0.76441900  0.89780000  0.76225900  1
  O  O16  1  0.26441900  0.10220000  0.73774100  1
  O  O17  1  0.96434500  0.14600200  0.63290600  1
  O  O18  1  0.50379600  0.62507300  0.61138300  1
  O  O19  1  0.76059800  0.15386800  0.51285600  1
  O  O20  1  0.23940200  0.84613200  0.48714400  1
  O  O21  1  0.49620400  0.37492700  0.38861700  1
  O  O22  1  0.03565500  0.85399800  0.36709400  1
  O  O23  1  0.73558100  0.89780000  0.26225900  1
  O  O24  1  0.23558100  0.10220000  0.23774100  1
  O  O25  1  0.53565500  0.14600200  0.13290600  1
  O  O26  1  0.99620400  0.62507300  0.11138300  1
  O  O27  1  0.73940200  0.15386800  0.01285600  1
