# generated using pymatgen
data_LiZn6Fe17O32
_symmetry_space_group_name_H-M   'P 1'
_cell_length_a   6.04746269
_cell_length_b   6.04746269
_cell_length_c   19.92422127
_cell_angle_alpha   81.45915043
_cell_angle_beta   81.45915043
_cell_angle_gamma   60.07595273
_symmetry_Int_Tables_number   1
_chemical_formula_structural   LiZn6Fe17O32
_chemical_formula_sum   'Li1 Zn6 Fe17 O32'
_cell_volume   622.16189389
_cell_formula_units_Z   1
loop_
 _symmetry_equiv_pos_site_id
 _symmetry_equiv_pos_as_xyz
  1  'x, y, z'
loop_
 _atom_site_type_symbol
 _atom_site_label
 _atom_site_symmetry_multiplicity
 _atom_site_fract_x
 _atom_site_fract_y
 _atom_site_fract_z
 _atom_site_occupancy
  Li  Li0  1  0.06306000  0.06306000  0.81083800  1
  Zn  Zn1  1  0.65783700  0.65783700  0.02972400  1
  Zn  Zn2  1  0.78108800  0.78108800  0.15583200  1
  Zn  Zn3  1  0.15518900  0.15518900  0.53299700  1
  Zn  Zn4  1  0.03117900  0.03117900  0.40677400  1
  Zn  Zn5  1  0.90605500  0.90605500  0.28138600  1
  Zn  Zn6  1  0.27884100  0.27884100  0.65833800  1
  Fe  Fe7  1  0.30723000  0.30723000  0.06555000  1
  Fe  Fe8  1  0.25531200  0.25531200  0.24832900  1
  Fe  Fe9  1  0.00202500  0.00202500  0.99635500  1
  Fe  Fe10  1  0.53060900  0.03110800  0.40676600  1
  Fe  Fe11  1  0.03110800  0.53060900  0.40676600  1
  Fe  Fe12  1  0.28121000  0.78122000  0.15589000  1
  Fe  Fe13  1  0.78122000  0.28121000  0.15589000  1
  Fe  Fe14  1  0.55727600  0.55727600  0.31455900  1
  Fe  Fe15  1  0.50416000  0.50416000  0.50053900  1
  Fe  Fe16  1  0.27698000  0.78551100  0.65855300  1
  Fe  Fe17  1  0.78551100  0.27698000  0.65855300  1
  Fe  Fe18  1  0.80686300  0.80686300  0.56346700  1
  Fe  Fe19  1  0.53008300  0.53008300  0.90375500  1
  Fe  Fe20  1  0.40679500  0.40679500  0.78378300  1
  Fe  Fe21  1  0.75469400  0.75469400  0.74957300  1
  Fe  Fe22  1  0.03899800  0.52970100  0.90324700  1
  Fe  Fe23  1  0.52970100  0.03899800  0.90324700  1
  O  O24  1  0.09650700  0.60988100  0.21460600  1
  O  O25  1  0.60988100  0.09650700  0.21460600  1
  O  O26  1  0.46664900  0.95101000  0.09583400  1
  O  O27  1  0.95101000  0.46664900  0.09583400  1
  O  O28  1  0.47405600  0.47405600  0.09662100  1
  O  O29  1  0.72301500  0.72301500  0.34730800  1
  O  O30  1  0.58981200  0.58981200  0.21424400  1
  O  O31  1  0.22241200  0.22241200  0.34761200  1
  O  O32  1  0.09025100  0.09025100  0.21391700  1
  O  O33  1  0.97314200  0.97314200  0.09599000  1
  O  O34  1  0.34659400  0.85914700  0.46624000  1
  O  O35  1  0.85914700  0.34659400  0.46624000  1
  O  O36  1  0.71604300  0.20234200  0.34649500  1
  O  O37  1  0.20234200  0.71604300  0.34649500  1
  O  O38  1  0.09118500  0.09118500  0.70966000  1
  O  O39  1  0.84049600  0.84049600  0.46365600  1
  O  O40  1  0.96901000  0.96901000  0.59880500  1
  O  O41  1  0.46972700  0.46972700  0.60015700  1
  O  O42  1  0.33955900  0.33955900  0.46531400  1
  O  O43  1  0.58308700  0.58308700  0.72073500  1
  O  O44  1  0.58931400  0.11845000  0.72224700  1
  O  O45  1  0.11845000  0.58931400  0.72224700  1
  O  O46  1  0.96193400  0.45642600  0.59752100  1
  O  O47  1  0.23736300  0.68089300  0.84568900  1
  O  O48  1  0.68089300  0.23736300  0.84568900  1
  O  O49  1  0.45642600  0.96193400  0.59752100  1
  O  O50  1  0.23872300  0.23872300  0.84482300  1
  O  O51  1  0.34423000  0.34423000  0.96543000  1
  O  O52  1  0.71696100  0.71696100  0.84927700  1
  O  O53  1  0.83875400  0.83875400  0.96370800  1
  O  O54  1  0.35988000  0.84010100  0.96238200  1
  O  O55  1  0.84010100  0.35988000  0.96238200  1
