# generated using pymatgen
data_Na5Li3Ti5O14
_symmetry_space_group_name_H-M   'P 1'
_cell_length_a   5.22810700
_cell_length_b   7.03750954
_cell_length_c   8.19284408
_cell_angle_alpha   88.47939609
_cell_angle_beta   101.75013490
_cell_angle_gamma   97.62297738
_symmetry_Int_Tables_number   1
_chemical_formula_structural   Na5Li3Ti5O14
_chemical_formula_sum   'Na5 Li3 Ti5 O14'
_cell_volume   292.51327475
_cell_formula_units_Z   1
loop_
 _symmetry_equiv_pos_site_id
 _symmetry_equiv_pos_as_xyz
  1  'x, y, z'
loop_
 _atom_site_type_symbol
 _atom_site_label
 _atom_site_symmetry_multiplicity
 _atom_site_fract_x
 _atom_site_fract_y
 _atom_site_fract_z
 _atom_site_occupancy
  Na  Na0  1  0.64925000  0.29327800  0.79954800  1
  Na  Na1  1  0.07189700  0.13634500  0.63991900  1
  Na  Na2  1  0.51024400  0.00236900  0.49419000  1
  Na  Na3  1  0.90460300  0.85680500  0.35815600  1
  Na  Na4  1  0.35692700  0.72954000  0.22069400  1
  Li  Li5  1  0.22594700  0.43631600  0.93840200  1
  Li  Li6  1  0.86057500  0.70482100  0.71443600  1
  Li  Li7  1  0.77828200  0.57029600  0.06617800  1
  Ti  Ti8  1  0.00583800  0.99178500  0.99758400  1
  Ti  Ti9  1  0.43830500  0.85959600  0.86986200  1
  Ti  Ti10  1  0.28818800  0.57630700  0.58974900  1
  Ti  Ti11  1  0.70553800  0.42530100  0.41554600  1
  Ti  Ti12  1  0.13227900  0.28380200  0.26540200  1
  O  O13  1  0.11740300  0.74658600  0.95886700  1
  O  O14  1  0.29985300  0.09293200  0.89586800  1
  O  O15  1  0.49421900  0.58138800  0.81185800  1
  O  O16  1  0.74301500  0.98428500  0.78455500  1
  O  O17  1  0.20975200  0.82445800  0.62541300  1
  O  O18  1  0.97388700  0.44840600  0.64971800  1
  O  O19  1  0.39967500  0.31296700  0.51178100  1
  O  O20  1  0.59540800  0.67571400  0.48409300  1
  O  O21  1  0.02522000  0.54585400  0.33428000  1
  O  O22  1  0.84234600  0.18897700  0.38221700  1
  O  O23  1  0.19735300  0.02861500  0.23070000  1
  O  O24  1  0.46363600  0.42585500  0.20626500  1
  O  O25  1  0.68820200  0.84513600  0.07104000  1
  O  O26  1  0.95406000  0.28167400  0.04395500  1
