# generated using pymatgen
data_LiCoPO4
_symmetry_space_group_name_H-M   'P 1'
_cell_length_a   5.03672772
_cell_length_b   5.03674389
_cell_length_c   15.94061453
_cell_angle_alpha   88.44977606
_cell_angle_beta   91.55056910
_cell_angle_gamma   110.16436679
_symmetry_Int_Tables_number   1
_chemical_formula_structural   LiCoPO4
_chemical_formula_sum   'Li4 Co4 P4 O16'
_cell_volume   379.39987108
_cell_formula_units_Z   4
loop_
 _symmetry_equiv_pos_site_id
 _symmetry_equiv_pos_as_xyz
  1  'x, y, z'
loop_
 _atom_site_type_symbol
 _atom_site_label
 _atom_site_symmetry_multiplicity
 _atom_site_fract_x
 _atom_site_fract_y
 _atom_site_fract_z
 _atom_site_occupancy
  Li  Li0  1  0.29921400  0.75004000  0.74286200  1
  Li  Li1  1  0.24996700  0.70079100  0.24286500  1
  Li  Li2  1  0.74996700  0.29929500  0.75711500  1
  Li  Li3  1  0.70071200  0.25003900  0.25711000  1
  Co  Co4  1  0.91940000  0.60551600  0.58232800  1
  Co  Co5  1  0.39447800  0.08059500  0.08232700  1
  Co  Co6  1  0.60556700  0.91941200  0.91766800  1
  Co  Co7  1  0.08058600  0.39443400  0.41766900  1
  P  P8  1  0.25009900  0.27793800  0.62901600  1
  P  P9  1  0.27798300  0.25013700  0.87099000  1
  P  P10  1  0.72206000  0.74989900  0.12901800  1
  P  P11  1  0.74986000  0.72201900  0.37098900  1
  O  O12  1  0.08234400  0.39034800  0.69083800  1
  O  O13  1  0.60965400  0.91765000  0.19083900  1
  O  O14  1  0.39037600  0.08234100  0.80917200  1
  O  O15  1  0.91766000  0.60962300  0.30917200  1
  O  O16  1  0.95485700  0.18137400  0.86352900  1
  O  O17  1  0.81862700  0.04514400  0.36352900  1
  O  O18  1  0.18132900  0.95477600  0.63649100  1
  O  O19  1  0.04522400  0.81866200  0.13649200  1
  O  O20  1  0.43508600  0.56936100  0.85289700  1
  O  O21  1  0.43064000  0.56491900  0.35289700  1
  O  O22  1  0.56935800  0.43503200  0.64709600  1
  O  O23  1  0.56496300  0.43063600  0.14709400  1
  O  O24  1  0.15594000  0.36429700  0.54077300  1
  O  O25  1  0.63570200  0.84405900  0.04077200  1
  O  O26  1  0.36439300  0.15604900  0.95922800  1
  O  O27  1  0.84395400  0.63561500  0.45922800  1
