# generated using pymatgen
data_LiSiBiO4
_symmetry_space_group_name_H-M   'P 1'
_cell_length_a   6.40788200
_cell_length_b   5.85329600
_cell_length_c   11.39951517
_cell_angle_alpha   64.36495596
_cell_angle_beta   90.00000000
_cell_angle_gamma   90.00000000
_symmetry_Int_Tables_number   1
_chemical_formula_structural   LiSiBiO4
_chemical_formula_sum   'Li4 Si4 Bi4 O16'
_cell_volume   385.47826920
_cell_formula_units_Z   4
loop_
 _symmetry_equiv_pos_site_id
 _symmetry_equiv_pos_as_xyz
  1  'x, y, z'
loop_
 _atom_site_type_symbol
 _atom_site_label
 _atom_site_symmetry_multiplicity
 _atom_site_fract_x
 _atom_site_fract_y
 _atom_site_fract_z
 _atom_site_occupancy
  Li  Li0  1  0.36767300  0.58209000  0.56327100  1
  Li  Li1  1  0.86767300  0.41791000  0.93672900  1
  Li  Li2  1  0.13232700  0.58209000  0.06327100  1
  Li  Li3  1  0.63232700  0.41791000  0.43672900  1
  Si  Si4  1  0.69936100  0.80836600  0.63265000  1
  Si  Si5  1  0.80063900  0.80836600  0.13265000  1
  Si  Si6  1  0.19936100  0.19163400  0.86735000  1
  Si  Si7  1  0.30063900  0.19163400  0.36735000  1
  Bi  Bi8  1  0.66525600  0.96752900  0.85831100  1
  Bi  Bi9  1  0.83474400  0.96752900  0.35831100  1
  Bi  Bi10  1  0.16525600  0.03247100  0.64168900  1
  Bi  Bi11  1  0.33474400  0.03247100  0.14168900  1
  O  O12  1  0.29708000  0.90881200  0.97090300  1
  O  O13  1  0.20292000  0.90881200  0.47090300  1
  O  O14  1  0.85289400  0.71097900  0.76024500  1
  O  O15  1  0.46975100  0.82693400  0.69171300  1
  O  O16  1  0.68660100  0.65209000  0.54076100  1
  O  O17  1  0.64710600  0.71097900  0.26024500  1
  O  O18  1  0.03024900  0.82693400  0.19171300  1
  O  O19  1  0.18660100  0.34791000  0.95923900  1
  O  O20  1  0.81339900  0.65209000  0.04076100  1
  O  O21  1  0.96975100  0.17306600  0.80828700  1
  O  O22  1  0.35289400  0.28902100  0.73975500  1
  O  O23  1  0.31339900  0.34791000  0.45923900  1
  O  O24  1  0.53024900  0.17306600  0.30828700  1
  O  O25  1  0.14710600  0.28902100  0.23975500  1
  O  O26  1  0.79708000  0.09118800  0.52909700  1
  O  O27  1  0.70292000  0.09118800  0.02909700  1
