# generated using pymatgen
data_LiV3P5O19
_symmetry_space_group_name_H-M   'P 1'
_cell_length_a   8.50341011
_cell_length_b   8.50341011
_cell_length_c   6.35293541
_cell_angle_alpha   81.58504730
_cell_angle_beta   81.58504730
_cell_angle_gamma   113.94571439
_symmetry_Int_Tables_number   1
_chemical_formula_structural   LiV3P5O19
_chemical_formula_sum   'Li1 V3 P5 O19'
_cell_volume   404.41426123
_cell_formula_units_Z   1
loop_
 _symmetry_equiv_pos_site_id
 _symmetry_equiv_pos_as_xyz
  1  'x, y, z'
loop_
 _atom_site_type_symbol
 _atom_site_label
 _atom_site_symmetry_multiplicity
 _atom_site_fract_x
 _atom_site_fract_y
 _atom_site_fract_z
 _atom_site_occupancy
  Li  Li0  1  0.09580100  0.09580100  0.47137300  1
  V  V1  1  0.76525300  0.76525300  0.15567000  1
  V  V2  1  0.48840200  0.24417200  0.82077500  1
  V  V3  1  0.24417200  0.48840200  0.82077500  1
  P  P4  1  0.67258100  0.67258100  0.69570500  1
  P  P5  1  0.60773900  0.31522500  0.27213300  1
  P  P6  1  0.31522500  0.60773900  0.27213300  1
  P  P7  1  0.81337000  0.18384700  0.99972100  1
  P  P8  1  0.18384700  0.81337000  0.99972100  1
  O  O9  1  0.78017600  0.78017600  0.84507800  1
  O  O10  1  0.77823100  0.77823100  0.46126300  1
  O  O11  1  0.99801900  0.32239500  0.88478600  1
  O  O12  1  0.32239500  0.99801900  0.88478600  1
  O  O13  1  0.66792900  0.48653700  0.73800000  1
  O  O14  1  0.48653700  0.66792900  0.73800000  1
  O  O15  1  0.51646900  0.70837100  0.22170200  1
  O  O16  1  0.70837100  0.51646900  0.22170200  1
  O  O17  1  0.68262400  0.16378000  0.85630900  1
  O  O18  1  0.16378000  0.68262400  0.85630900  1
  O  O19  1  0.24685700  0.75585100  0.21460200  1
  O  O20  1  0.75585100  0.24685700  0.21460200  1
  O  O21  1  0.51934100  0.23217400  0.51086800  1
  O  O22  1  0.23217400  0.51934100  0.51086800  1
  O  O23  1  0.32012200  0.32012200  0.81025200  1
  O  O24  1  0.01389000  0.82390600  0.09870000  1
  O  O25  1  0.82390600  0.01389000  0.09870000  1
  O  O26  1  0.46852000  0.24754100  0.13696500  1
  O  O27  1  0.24754100  0.46852000  0.13696500  1
