# generated using pymatgen
data_Li5V(P2O7)2
_symmetry_space_group_name_H-M   'P 1'
_cell_length_a   7.08615000
_cell_length_b   8.82705643
_cell_length_c   9.14088133
_cell_angle_alpha   76.96319214
_cell_angle_beta   77.47007229
_cell_angle_gamma   69.68297100
_symmetry_Int_Tables_number   1
_chemical_formula_structural   Li5V(P2O7)2
_chemical_formula_sum   'Li10 V2 P8 O28'
_cell_volume   516.32070457
_cell_formula_units_Z   2
loop_
 _symmetry_equiv_pos_site_id
 _symmetry_equiv_pos_as_xyz
  1  'x, y, z'
loop_
 _atom_site_type_symbol
 _atom_site_label
 _atom_site_symmetry_multiplicity
 _atom_site_fract_x
 _atom_site_fract_y
 _atom_site_fract_z
 _atom_site_occupancy
  Li  Li0  1  0.30581700  0.18363000  0.27754400  1
  Li  Li1  1  0.23348000  0.24426500  0.59254700  1
  Li  Li2  1  0.75797200  0.25900300  0.11610300  1
  Li  Li3  1  0.03630200  0.52518900  0.13454400  1
  Li  Li4  1  0.41728100  0.47800400  0.34953700  1
  Li  Li5  1  0.58271900  0.52199600  0.65046300  1
  Li  Li6  1  0.96369800  0.47481100  0.86545600  1
  Li  Li7  1  0.24202800  0.74099700  0.88389700  1
  Li  Li8  1  0.76652000  0.75573500  0.40745300  1
  Li  Li9  1  0.69418300  0.81637000  0.72245600  1
  V  V10  1  0.87061300  0.12545500  0.76390600  1
  V  V11  1  0.12938700  0.87454500  0.23609400  1
  P  P12  1  0.16877800  0.11871700  0.98339700  1
  P  P13  1  0.69444400  0.10861600  0.45093600  1
  P  P14  1  0.41397000  0.33793400  0.95116500  1
  P  P15  1  0.86816600  0.38253900  0.42893900  1
  P  P16  1  0.13183400  0.61746100  0.57106100  1
  P  P17  1  0.58603000  0.66206600  0.04883500  1
  P  P18  1  0.30555600  0.89138400  0.54906400  1
  P  P19  1  0.83122200  0.88128300  0.01660300  1
  O  O20  1  0.17541100  0.02053500  0.64953100  1
  O  O21  1  0.07927500  0.14133400  0.14940600  1
  O  O22  1  0.77743100  0.06563700  0.00988900  1
  O  O23  1  0.73237200  0.06075600  0.61710000  1
  O  O24  1  0.02953000  0.22898300  0.86625400  1
  O  O25  1  0.47107400  0.16940400  0.43297200  1
  O  O26  1  0.37001100  0.17074400  0.93331000  1
  O  O27  1  0.06839700  0.37841600  0.32706400  1
  O  O28  1  0.46056000  0.31221600  0.11160100  1
  O  O29  1  0.76561300  0.27067700  0.37219700  1
  O  O30  1  0.59512600  0.33815100  0.82253300  1
  O  O31  1  0.90393000  0.30793900  0.59433300  1
  O  O32  1  0.21913500  0.48384400  0.92837400  1
  O  O33  1  0.29621600  0.45086700  0.57499000  1
  O  O34  1  0.70378400  0.54913300  0.42501000  1
  O  O35  1  0.78086500  0.51615600  0.07162600  1
  O  O36  1  0.09607000  0.69206100  0.40566700  1
  O  O37  1  0.40487400  0.66184900  0.17746700  1
  O  O38  1  0.23438700  0.72932300  0.62780300  1
  O  O39  1  0.53944000  0.68778400  0.88839900  1
  O  O40  1  0.93160300  0.62158400  0.67293600  1
  O  O41  1  0.62998900  0.82925600  0.06669000  1
  O  O42  1  0.52892600  0.83059600  0.56702800  1
  O  O43  1  0.97047100  0.77101700  0.13374600  1
  O  O44  1  0.26762800  0.93924400  0.38290000  1
  O  O45  1  0.22256900  0.93436300  0.99011100  1
  O  O46  1  0.92072500  0.85866600  0.85059400  1
  O  O47  1  0.82458900  0.97946500  0.35046900  1
