# generated using pymatgen
data_Li2ZnFe(PO4)2
_symmetry_space_group_name_H-M   'P 1'
_cell_length_a   7.70105575
_cell_length_b   7.70186276
_cell_length_c   10.35713849
_cell_angle_alpha   90.18628124
_cell_angle_beta   90.19465707
_cell_angle_gamma   103.63540392
_symmetry_Int_Tables_number   1
_chemical_formula_structural   Li2ZnFe(PO4)2
_chemical_formula_sum   'Li8 Zn4 Fe4 P8 O32'
_cell_volume   596.98493790
_cell_formula_units_Z   4
loop_
 _symmetry_equiv_pos_site_id
 _symmetry_equiv_pos_as_xyz
  1  'x, y, z'
loop_
 _atom_site_type_symbol
 _atom_site_label
 _atom_site_symmetry_multiplicity
 _atom_site_fract_x
 _atom_site_fract_y
 _atom_site_fract_z
 _atom_site_occupancy
  Li  Li0  1  0.00000400  0.00001300  0.99999000  1
  Li  Li1  1  0.49998300  0.50000400  0.99999800  1
  Li  Li2  1  0.24999000  0.75000000  0.99993300  1
  Li  Li3  1  0.75001900  0.24996100  0.00004000  1
  Li  Li4  1  0.24998500  0.24997700  0.49998500  1
  Li  Li5  1  0.74997000  0.75000500  0.50003300  1
  Li  Li6  1  0.49999200  0.99997900  0.50000000  1
  Li  Li7  1  0.99999800  0.49997800  0.49999100  1
  Zn  Zn8  1  0.61341300  0.36342600  0.28264600  1
  Zn  Zn9  1  0.11337600  0.86340000  0.28267100  1
  Zn  Zn10  1  0.38655100  0.63657700  0.71738000  1
  Zn  Zn11  1  0.88663700  0.13662600  0.71735200  1
  Fe  Fe12  1  0.11246500  0.36240300  0.21995700  1
  Fe  Fe13  1  0.88740700  0.63748700  0.78011500  1
  Fe  Fe14  1  0.61232300  0.86235900  0.22007200  1
  Fe  Fe15  1  0.38761300  0.13759700  0.77992400  1
  P  P16  1  0.33362400  0.08355900  0.09558100  1
  P  P17  1  0.83361000  0.58360700  0.09561800  1
  P  P18  1  0.66640000  0.91643900  0.90443000  1
  P  P19  1  0.16644500  0.41640300  0.90439900  1
  P  P20  1  0.83413100  0.08420000  0.40690000  1
  P  P21  1  0.33413200  0.58412600  0.40696800  1
  P  P22  1  0.16585500  0.91579800  0.59309800  1
  P  P23  1  0.66585500  0.41590900  0.59299900  1
  O  O24  1  0.72771100  0.97779500  0.04371100  1
  O  O25  1  0.22776700  0.47765100  0.04371000  1
  O  O26  1  0.27230900  0.02223500  0.95631200  1
  O  O27  1  0.77226400  0.52238400  0.95631900  1
  O  O28  1  0.49535100  0.24532700  0.09981600  1
  O  O29  1  0.99535900  0.74532500  0.09985900  1
  O  O30  1  0.50468200  0.75468200  0.90019400  1
  O  O31  1  0.00466200  0.25470400  0.90015500  1
  O  O32  1  0.49524500  0.74527600  0.40519500  1
  O  O33  1  0.99539600  0.24530200  0.40515100  1
  O  O34  1  0.50478200  0.25472000  0.59481500  1
  O  O35  1  0.00458500  0.75467200  0.59490000  1
  O  O36  1  0.22757100  0.97762100  0.45384100  1
  O  O37  1  0.72769700  0.47770300  0.45374400  1
  O  O38  1  0.77240000  0.02234600  0.54615100  1
  O  O39  1  0.27228700  0.52226100  0.54620800  1
  O  O40  1  0.16453800  0.11812600  0.16633100  1
  O  O41  1  0.66454100  0.61809900  0.16637700  1
  O  O42  1  0.36820100  0.91455400  0.16638500  1
  O  O43  1  0.86818200  0.41448900  0.16627200  1
  O  O44  1  0.63184900  0.08543700  0.83361000  1
  O  O45  1  0.13189200  0.58551100  0.83371900  1
  O  O46  1  0.83551400  0.88183100  0.83374300  1
  O  O47  1  0.33548700  0.38185000  0.83366700  1
  O  O48  1  0.86842200  0.91436700  0.33594200  1
  O  O49  1  0.36854900  0.41427000  0.33611000  1
  O  O50  1  0.66428900  0.11875300  0.33609000  1
  O  O51  1  0.16421800  0.61852700  0.33609200  1
  O  O52  1  0.13154000  0.08565600  0.66399200  1
  O  O53  1  0.63138600  0.58579400  0.66376900  1
  O  O54  1  0.33573300  0.88130300  0.66387900  1
  O  O55  1  0.83581400  0.38159500  0.66386300  1
