# generated using pymatgen
data_Li2Cr(PO4)2
_symmetry_space_group_name_H-M   'P 1'
_cell_length_a   12.45503000
_cell_length_b   6.25316000
_cell_length_c   7.46619808
_cell_angle_alpha   82.14643006
_cell_angle_beta   90.00000000
_cell_angle_gamma   90.00000000
_symmetry_Int_Tables_number   1
_chemical_formula_structural   Li2Cr(PO4)2
_chemical_formula_sum   'Li8 Cr4 P8 O32'
_cell_volume   576.03801502
_cell_formula_units_Z   4
loop_
 _symmetry_equiv_pos_site_id
 _symmetry_equiv_pos_as_xyz
  1  'x, y, z'
loop_
 _atom_site_type_symbol
 _atom_site_label
 _atom_site_symmetry_multiplicity
 _atom_site_fract_x
 _atom_site_fract_y
 _atom_site_fract_z
 _atom_site_occupancy
  Li  Li0  1  0.22471000  0.36613900  0.05776800  1
  Li  Li1  1  0.27529000  0.86613900  0.05776800  1
  Li  Li2  1  0.62373300  0.05351000  0.54291100  1
  Li  Li3  1  0.12373300  0.44649000  0.45708900  1
  Li  Li4  1  0.87626700  0.55351000  0.54291100  1
  Li  Li5  1  0.37626700  0.94649000  0.45708900  1
  Li  Li6  1  0.72471000  0.13386100  0.94223200  1
  Li  Li7  1  0.77529000  0.63386100  0.94223200  1
  Cr  Cr8  1  0.92358900  0.24442000  0.22892500  1
  Cr  Cr9  1  0.57641100  0.74442000  0.22892500  1
  Cr  Cr10  1  0.42358900  0.25558000  0.77107500  1
  Cr  Cr11  1  0.07641100  0.75558000  0.77107500  1
  P  P12  1  0.52950400  0.25979300  0.16997200  1
  P  P13  1  0.97049600  0.75979300  0.16997200  1
  P  P14  1  0.35777700  0.46189800  0.36296900  1
  P  P15  1  0.14222300  0.96189800  0.36296900  1
  P  P16  1  0.85777700  0.03810200  0.63703100  1
  P  P17  1  0.64222300  0.53810200  0.63703100  1
  P  P18  1  0.02950400  0.24020700  0.83002800  1
  P  P19  1  0.47049600  0.74020700  0.83002800  1
  O  O20  1  0.03471600  0.27251300  0.02962900  1
  O  O21  1  0.46528400  0.77251300  0.02962900  1
  O  O22  1  0.81673900  0.32939500  0.08979100  1
  O  O23  1  0.68326100  0.82939500  0.08979100  1
  O  O24  1  0.40967700  0.33427600  0.20671700  1
  O  O25  1  0.54641300  0.04589700  0.29730200  1
  O  O26  1  0.60631900  0.43341800  0.21582900  1
  O  O27  1  0.25371900  0.01121200  0.28717400  1
  O  O28  1  0.09032300  0.83427600  0.20671700  1
  O  O29  1  0.95358700  0.54589700  0.29730200  1
  O  O30  1  0.89368100  0.93341800  0.21582900  1
  O  O31  1  0.24628100  0.51121200  0.28717400  1
  O  O32  1  0.07111900  0.15779300  0.37967300  1
  O  O33  1  0.42888100  0.65779300  0.37967300  1
  O  O34  1  0.85353100  0.20761900  0.46594000  1
  O  O35  1  0.64646900  0.70761900  0.46594000  1
  O  O36  1  0.35353100  0.29238100  0.53406000  1
  O  O37  1  0.14646900  0.79238100  0.53406000  1
  O  O38  1  0.57111900  0.34220700  0.62032700  1
  O  O39  1  0.92888100  0.84220700  0.62032700  1
  O  O40  1  0.75371900  0.48878800  0.71282600  1
  O  O41  1  0.10631900  0.06658200  0.78417100  1
  O  O42  1  0.04641300  0.45410300  0.70269800  1
  O  O43  1  0.90967700  0.16572400  0.79328300  1
  O  O44  1  0.74628100  0.98878800  0.71282600  1
  O  O45  1  0.39368100  0.56658200  0.78417100  1
  O  O46  1  0.45358700  0.95410300  0.70269800  1
  O  O47  1  0.59032300  0.66572400  0.79328300  1
  O  O48  1  0.31673900  0.17060500  0.91020900  1
  O  O49  1  0.18326100  0.67060500  0.91020900  1
  O  O50  1  0.53471600  0.22748700  0.97037100  1
  O  O51  1  0.96528400  0.72748700  0.97037100  1
