# generated using pymatgen
data_Li4MnV(PO4)3
_symmetry_space_group_name_H-M   'P 1'
_cell_length_a   9.27267175
_cell_length_b   8.45098627
_cell_length_c   8.45237482
_cell_angle_alpha   60.61341675
_cell_angle_beta   63.21085659
_cell_angle_gamma   90.55454965
_symmetry_Int_Tables_number   1
_chemical_formula_structural   Li4MnV(PO4)3
_chemical_formula_sum   'Li8 Mn2 V2 P6 O24'
_cell_volume   491.97484921
_cell_formula_units_Z   2
loop_
 _symmetry_equiv_pos_site_id
 _symmetry_equiv_pos_as_xyz
  1  'x, y, z'
loop_
 _atom_site_type_symbol
 _atom_site_label
 _atom_site_symmetry_multiplicity
 _atom_site_fract_x
 _atom_site_fract_y
 _atom_site_fract_z
 _atom_site_occupancy
  Li  Li0  1  0.86381000  0.26384900  0.81017100  1
  Li  Li1  1  0.89923900  0.93759500  0.36945700  1
  Li  Li2  1  0.85513500  0.66449700  0.06676100  1
  Li  Li3  1  0.59295200  0.78991700  0.66691700  1
  Li  Li4  1  0.41276600  0.20001500  0.32486300  1
  Li  Li5  1  0.14770200  0.34347200  0.92821000  1
  Li  Li6  1  0.09725200  0.06066600  0.63132600  1
  Li  Li7  1  0.13701500  0.73174300  0.19730200  1
  Mn  Mn8  1  0.96622300  0.64858900  0.69001500  1
  Mn  Mn9  1  0.56210100  0.85144100  0.28654400  1
  V  V10  1  0.44086500  0.15139000  0.70609900  1
  V  V11  1  0.03494600  0.35163800  0.30819100  1
  P  P12  1  0.74894900  0.95754900  0.78163200  1
  P  P13  1  0.75023100  0.53762700  0.50853500  1
  P  P14  1  0.75838300  0.25190100  0.20233300  1
  P  P15  1  0.24189800  0.75351600  0.80633100  1
  P  P16  1  0.24950600  0.44784100  0.49802900  1
  P  P17  1  0.25181100  0.05552800  0.20247600  1
  O  O18  1  0.89371700  0.15350000  0.63618200  1
  O  O19  1  0.80388400  0.48562700  0.67105200  1
  O  O20  1  0.79888200  0.84207700  0.67751600  1
  O  O21  1  0.89816300  0.55114900  0.30558900  1
  O  O22  1  0.90090900  0.20741300  0.25988400  1
  O  O23  1  0.72489500  0.73859800  0.43048800  1
  O  O24  1  0.58006800  0.98924100  0.80119100  1
  O  O25  1  0.58702400  0.38861900  0.60674900  1
  O  O26  1  0.81055000  0.46541200  0.03390500  1
  O  O27  1  0.74857300  0.13092300  0.11607400  1
  O  O28  1  0.58640200  0.19071300  0.40390000  1
  O  O29  1  0.73970500  0.85553200  0.99612300  1
  O  O30  1  0.27570900  0.16078800  0.97718300  1
  O  O31  1  0.41004500  0.79279000  0.61694400  1
  O  O32  1  0.26478300  0.87823900  0.88664900  1
  O  O33  1  0.18009700  0.53712700  0.98721700  1
  O  O34  1  0.40863700  0.60154400  0.38325200  1
  O  O35  1  0.41444300  0.03503200  0.20280700  1
  O  O36  1  0.28200200  0.24569400  0.57283100  1
  O  O37  1  0.10030400  0.80082300  0.75387800  1
  O  O38  1  0.10242700  0.42752700  0.70236900  1
  O  O39  1  0.18692100  0.17274100  0.30667700  1
  O  O40  1  0.18121400  0.48761300  0.34652200  1
  O  O41  1  0.10986300  0.86250900  0.33982200  1
