# generated using pymatgen
data_LiCr(PO3)4
_symmetry_space_group_name_H-M   'P 1'
_cell_length_a   7.19376287
_cell_length_b   7.19376287
_cell_length_c   10.01932883
_cell_angle_alpha   66.49173574
_cell_angle_beta   66.49173574
_cell_angle_gamma   70.16586444
_symmetry_Int_Tables_number   1
_chemical_formula_structural   LiCr(PO3)4
_chemical_formula_sum   'Li2 Cr2 P8 O24'
_cell_volume   425.87745656
_cell_formula_units_Z   2
loop_
 _symmetry_equiv_pos_site_id
 _symmetry_equiv_pos_as_xyz
  1  'x, y, z'
loop_
 _atom_site_type_symbol
 _atom_site_label
 _atom_site_symmetry_multiplicity
 _atom_site_fract_x
 _atom_site_fract_y
 _atom_site_fract_z
 _atom_site_occupancy
  Li  Li0  1  0.00000000  0.50000000  0.50000000  1
  Li  Li1  1  0.50000000  0.00000000  0.00000000  1
  Cr  Cr2  1  0.05344900  0.94655100  0.25000000  1
  Cr  Cr3  1  0.94655100  0.05344900  0.75000000  1
  P  P4  1  0.26835500  0.75426000  0.52202400  1
  P  P5  1  0.69045900  0.71528500  0.30198000  1
  P  P6  1  0.28471500  0.30954100  0.19802000  1
  P  P7  1  0.24574000  0.73164500  0.97797600  1
  P  P8  1  0.75426000  0.26835500  0.02202400  1
  P  P9  1  0.71528500  0.69045900  0.80198000  1
  P  P10  1  0.30954100  0.28471500  0.69802000  1
  P  P11  1  0.73164500  0.24574000  0.47797600  1
  O  O12  1  0.19052600  0.73160700  0.41032200  1
  O  O13  1  0.34929100  0.18947600  0.84762500  1
  O  O14  1  0.26502400  0.12027000  0.18315800  1
  O  O15  1  0.29528100  0.53679700  0.65220800  1
  O  O16  1  0.50118000  0.78915600  0.44035700  1
  O  O17  1  0.14982400  0.92061200  0.59584400  1
  O  O18  1  0.21084400  0.49882000  0.05964300  1
  O  O19  1  0.18947600  0.34929100  0.34762500  1
  O  O20  1  0.73160700  0.19052600  0.91032200  1
  O  O21  1  0.07938800  0.85017600  0.90415600  1
  O  O22  1  0.87973000  0.73497600  0.31684200  1
  O  O23  1  0.53679700  0.29528100  0.15220800  1
  O  O24  1  0.46320300  0.70471900  0.84779200  1
  O  O25  1  0.12027000  0.26502400  0.68315800  1
  O  O26  1  0.92061200  0.14982400  0.09584400  1
  O  O27  1  0.26839300  0.80947400  0.08967800  1
  O  O28  1  0.81052400  0.65070900  0.65237500  1
  O  O29  1  0.78915600  0.50118000  0.94035700  1
  O  O30  1  0.85017600  0.07938800  0.40415600  1
  O  O31  1  0.49882000  0.21084400  0.55964300  1
  O  O32  1  0.70471900  0.46320300  0.34779200  1
  O  O33  1  0.73497600  0.87973000  0.81684200  1
  O  O34  1  0.65070900  0.81052400  0.15237500  1
  O  O35  1  0.80947400  0.26839300  0.58967800  1
