# generated using pymatgen
data_Li4Ni2OF7
_symmetry_space_group_name_H-M   'P 1'
_cell_length_a   5.96266895
_cell_length_b   5.96273890
_cell_length_c   10.26831134
_cell_angle_alpha   91.31485064
_cell_angle_beta   105.66379629
_cell_angle_gamma   119.70900565
_symmetry_Int_Tables_number   1
_chemical_formula_structural   Li4Ni2OF7
_chemical_formula_sum   'Li8 Ni4 O2 F14'
_cell_volume   299.90261213
_cell_formula_units_Z   2
loop_
 _symmetry_equiv_pos_site_id
 _symmetry_equiv_pos_as_xyz
  1  'x, y, z'
loop_
 _atom_site_type_symbol
 _atom_site_label
 _atom_site_symmetry_multiplicity
 _atom_site_fract_x
 _atom_site_fract_y
 _atom_site_fract_z
 _atom_site_occupancy
  Li  Li0  1  0.88894700  0.68493900  0.57395100  1
  Li  Li1  1  0.88890500  0.18512900  0.07396900  1
  Li  Li2  1  0.11362400  0.31993400  0.43344600  1
  Li  Li3  1  0.11364600  0.81978900  0.93341300  1
  Li  Li4  1  0.50170900  0.99679600  0.49864300  1
  Li  Li5  1  0.50169200  0.49681000  0.99863700  1
  Li  Li6  1  0.48109900  0.25482600  0.73600000  1
  Li  Li7  1  0.48099800  0.75484600  0.23600800  1
  Ni  Ni8  1  0.50478700  0.76057500  0.75392400  1
  Ni  Ni9  1  0.99344500  0.24912800  0.75394100  1
  Ni  Ni10  1  0.50484100  0.26056900  0.25402400  1
  Ni  Ni11  1  0.99329800  0.74938900  0.25393800  1
  O  O12  1  0.76943900  0.60111500  0.37031700  1
  O  O13  1  0.76939900  0.10094000  0.87043400  1
  F  F14  1  0.24820300  0.38765400  0.63594700  1
  F  F15  1  0.24819600  0.88776500  0.13584700  1
  F  F16  1  0.25368100  0.11797900  0.37146200  1
  F  F17  1  0.25367800  0.61774800  0.87151200  1
  F  F18  1  0.74410300  0.88311200  0.62723600  1
  F  F19  1  0.74405700  0.38331200  0.12718300  1
  F  F20  1  0.25491900  0.14583900  0.86479800  1
  F  F21  1  0.25470400  0.64601000  0.36471700  1
  F  F22  1  0.71892600  0.60986000  0.86481700  1
  F  F23  1  0.71886300  0.10989300  0.36478900  1
  F  F24  1  0.28092900  0.38621200  0.13279600  1
  F  F25  1  0.28098300  0.88614600  0.63280800  1
  F  F26  1  0.74635300  0.85194400  0.13265200  1
  F  F27  1  0.74657400  0.35174000  0.63279000  1
