# generated using pymatgen
data_Li3V(Si2O5)3
_symmetry_space_group_name_H-M   'P 1'
_cell_length_a   7.90621100
_cell_length_b   9.90784600
_cell_length_c   15.00292000
_cell_angle_alpha   90.00000000
_cell_angle_beta   90.00000000
_cell_angle_gamma   90.00000000
_symmetry_Int_Tables_number   1
_chemical_formula_structural   Li3V(Si2O5)3
_chemical_formula_sum   'Li12 V4 Si24 O60'
_cell_volume   1175.23154935
_cell_formula_units_Z   4
loop_
 _symmetry_equiv_pos_site_id
 _symmetry_equiv_pos_as_xyz
  1  'x, y, z'
loop_
 _atom_site_type_symbol
 _atom_site_label
 _atom_site_symmetry_multiplicity
 _atom_site_fract_x
 _atom_site_fract_y
 _atom_site_fract_z
 _atom_site_occupancy
  Li  Li0  1  0.25000000  0.57839800  0.06337700  1
  Li  Li1  1  0.25000000  0.92160200  0.56337700  1
  Li  Li2  1  0.00195000  0.00275300  0.24321600  1
  Li  Li3  1  0.49805000  0.00275300  0.24321600  1
  Li  Li4  1  0.99805000  0.99724700  0.75678400  1
  Li  Li5  1  0.50195000  0.99724700  0.75678400  1
  Li  Li6  1  0.75000000  0.07839800  0.43662300  1
  Li  Li7  1  0.75000000  0.42160200  0.93662300  1
  Li  Li8  1  0.99805000  0.50275300  0.25678400  1
  Li  Li9  1  0.50195000  0.50275300  0.25678400  1
  Li  Li10  1  0.49805000  0.49724700  0.74321600  1
  Li  Li11  1  0.00195000  0.49724700  0.74321600  1
  V  V12  1  0.25000000  0.75291500  0.25073600  1
  V  V13  1  0.25000000  0.74708500  0.75073600  1
  V  V14  1  0.75000000  0.24708500  0.74926400  1
  V  V15  1  0.75000000  0.25291500  0.24926400  1
  Si  Si16  1  0.75000000  0.52811900  0.40154100  1
  Si  Si17  1  0.75000000  0.52747600  0.59845500  1
  Si  Si18  1  0.55793100  0.70712200  0.09850300  1
  Si  Si19  1  0.94206900  0.70712200  0.09850300  1
  Si  Si20  1  0.94050400  0.70422900  0.89958800  1
  Si  Si21  1  0.55949600  0.70422900  0.89958800  1
  Si  Si22  1  0.94050400  0.79577100  0.39958800  1
  Si  Si23  1  0.55793100  0.79287800  0.59850300  1
  Si  Si24  1  0.55949600  0.79577100  0.39958800  1
  Si  Si25  1  0.94206900  0.79287800  0.59850300  1
  Si  Si26  1  0.75000000  0.97252400  0.09845500  1
  Si  Si27  1  0.75000000  0.97188100  0.90154100  1
  Si  Si28  1  0.25000000  0.02747600  0.90154500  1
  Si  Si29  1  0.25000000  0.02811900  0.09845900  1
  Si  Si30  1  0.44206900  0.20712200  0.40149700  1
  Si  Si31  1  0.05949600  0.20422900  0.60041200  1
  Si  Si32  1  0.05793100  0.20712200  0.40149700  1
  Si  Si33  1  0.44050400  0.20422900  0.60041200  1
  Si  Si34  1  0.05949600  0.29577100  0.10041200  1
  Si  Si35  1  0.44206900  0.29287800  0.90149700  1
  Si  Si36  1  0.05793100  0.29287800  0.90149700  1
  Si  Si37  1  0.44050400  0.29577100  0.10041200  1
  Si  Si38  1  0.25000000  0.47188100  0.59845900  1
  Si  Si39  1  0.25000000  0.47252400  0.40154500  1
  O  O40  1  0.25000000  0.54530900  0.49980600  1
  O  O41  1  0.25000000  0.56996900  0.31675600  1
  O  O42  1  0.25000000  0.56739000  0.68264600  1
  O  O43  1  0.58496800  0.63161700  0.39456700  1
  O  O44  1  0.91503200  0.63161700  0.39456700  1
  O  O45  1  0.58383300  0.63135800  0.60568300  1
  O  O46  1  0.91616700  0.63135800  0.60568300  1
  O  O47  1  0.75000000  0.63791600  0.10690100  1
  O  O48  1  0.75000000  0.62992800  0.89767100  1
  O  O49  1  0.07108000  0.65275900  0.17102700  1
  O  O50  1  0.42892000  0.65275900  0.17102700  1
  O  O51  1  0.05867600  0.65499100  0.81998400  1
  O  O52  1  0.44132400  0.65499100  0.81998400  1
  O  O53  1  0.47766400  0.66413900  0.99906700  1
  O  O54  1  0.02233600  0.66413900  0.99906700  1
  O  O55  1  0.47766400  0.83586100  0.49906700  1
  O  O56  1  0.02233600  0.83586100  0.49906700  1
  O  O57  1  0.07108000  0.84724100  0.67102700  1
  O  O58  1  0.05867600  0.84500900  0.31998400  1
  O  O59  1  0.44132400  0.84500900  0.31998400  1
  O  O60  1  0.42892000  0.84724100  0.67102700  1
  O  O61  1  0.75000000  0.87007200  0.39767100  1
  O  O62  1  0.75000000  0.86208400  0.60690100  1
  O  O63  1  0.91616700  0.86864200  0.10568300  1
  O  O64  1  0.58383300  0.86864200  0.10568300  1
  O  O65  1  0.91503200  0.86838300  0.89456700  1
  O  O66  1  0.58496800  0.86838300  0.89456700  1
  O  O67  1  0.25000000  0.93261000  0.18264600  1
  O  O68  1  0.25000000  0.93003100  0.81675600  1
  O  O69  1  0.25000000  0.95469100  0.99980600  1
  O  O70  1  0.75000000  0.04530900  0.00019400  1
  O  O71  1  0.75000000  0.06996900  0.18324400  1
  O  O72  1  0.75000000  0.06739000  0.81735400  1
  O  O73  1  0.08383300  0.13135800  0.89431700  1
  O  O74  1  0.41616700  0.13135800  0.89431700  1
  O  O75  1  0.08496800  0.13161700  0.10543300  1
  O  O76  1  0.41503200  0.13161700  0.10543300  1
  O  O77  1  0.25000000  0.12992800  0.60232900  1
  O  O78  1  0.25000000  0.13791600  0.39309900  1
  O  O79  1  0.55867600  0.15499100  0.68001600  1
  O  O80  1  0.94132400  0.15499100  0.68001600  1
  O  O81  1  0.57108000  0.15275900  0.32897300  1
  O  O82  1  0.92892000  0.15275900  0.32897300  1
  O  O83  1  0.97766400  0.16413900  0.50093300  1
  O  O84  1  0.52233600  0.16413900  0.50093300  1
  O  O85  1  0.97766400  0.33586100  0.00093300  1
  O  O86  1  0.52233600  0.33586100  0.00093300  1
  O  O87  1  0.55867600  0.34500900  0.18001600  1
  O  O88  1  0.94132400  0.34500900  0.18001600  1
  O  O89  1  0.57108000  0.34724100  0.82897300  1
  O  O90  1  0.92892000  0.34724100  0.82897300  1
  O  O91  1  0.25000000  0.37007200  0.10232900  1
  O  O92  1  0.25000000  0.36208400  0.89309900  1
  O  O93  1  0.41503200  0.36838300  0.60543300  1
  O  O94  1  0.41616700  0.36864200  0.39431700  1
  O  O95  1  0.08383300  0.36864200  0.39431700  1
  O  O96  1  0.08496800  0.36838300  0.60543300  1
  O  O97  1  0.75000000  0.43261000  0.31735400  1
  O  O98  1  0.75000000  0.43003100  0.68324400  1
  O  O99  1  0.75000000  0.45469100  0.50019400  1
