# generated using pymatgen
data_Li3Bi2(PO4)3
_symmetry_space_group_name_H-M   'P 1'
_cell_length_a   9.71711846
_cell_length_b   9.71711846
_cell_length_c   17.38783958
_cell_angle_alpha   63.94400128
_cell_angle_beta   63.94400128
_cell_angle_gamma   49.34402391
_symmetry_Int_Tables_number   1
_chemical_formula_structural   Li3Bi2(PO4)3
_chemical_formula_sum   'Li12 Bi8 P12 O48'
_cell_volume   1090.35164493
_cell_formula_units_Z   4
loop_
 _symmetry_equiv_pos_site_id
 _symmetry_equiv_pos_as_xyz
  1  'x, y, z'
loop_
 _atom_site_type_symbol
 _atom_site_label
 _atom_site_symmetry_multiplicity
 _atom_site_fract_x
 _atom_site_fract_y
 _atom_site_fract_z
 _atom_site_occupancy
  Li  Li0  1  0.50347500  0.76792300  0.85448300  1
  Li  Li1  1  0.13256300  0.22509100  0.44914200  1
  Li  Li2  1  0.53459700  0.46540300  0.75000000  1
  Li  Li3  1  0.77490900  0.86743700  0.05085800  1
  Li  Li4  1  0.23207700  0.49652500  0.64551700  1
  Li  Li5  1  0.00000000  0.50000000  0.00000000  1
  Li  Li6  1  0.76792300  0.50347500  0.35448300  1
  Li  Li7  1  0.22509100  0.13256300  0.94914200  1
  Li  Li8  1  0.46540300  0.53459700  0.25000000  1
  Li  Li9  1  0.86743700  0.77490900  0.55085800  1
  Li  Li10  1  0.49652500  0.23207700  0.14551700  1
  Li  Li11  1  0.50000000  0.00000000  0.50000000  1
  Bi  Bi12  1  0.20197100  0.71883200  0.02995100  1
  Bi  Bi13  1  0.93258500  0.74906900  0.33531100  1
  Bi  Bi14  1  0.25093100  0.06741500  0.16468900  1
  Bi  Bi15  1  0.28116800  0.79802900  0.47004900  1
  Bi  Bi16  1  0.71883200  0.20197100  0.52995100  1
  Bi  Bi17  1  0.74906900  0.93258500  0.83531100  1
  Bi  Bi18  1  0.06741500  0.25093100  0.66468900  1
  Bi  Bi19  1  0.79802900  0.28116800  0.97004900  1
  P  P20  1  0.05913100  0.93678800  0.86310000  1
  P  P21  1  0.06836000  0.50761100  0.18883500  1
  P  P22  1  0.67065400  0.61347300  0.53901400  1
  P  P23  1  0.38652700  0.32934700  0.96098600  1
  P  P24  1  0.49238900  0.93164000  0.31116500  1
  P  P25  1  0.06321200  0.94086900  0.63690000  1
  P  P26  1  0.93678800  0.05913100  0.36310000  1
  P  P27  1  0.50761100  0.06836000  0.68883500  1
  P  P28  1  0.61347300  0.67065400  0.03901400  1
  P  P29  1  0.32934600  0.38652700  0.46098600  1
  P  P30  1  0.93164000  0.49238900  0.81116500  1
  P  P31  1  0.94086900  0.06321200  0.13690000  1
  O  O32  1  0.53214500  0.96935400  0.78467700  1
  O  O33  1  0.69129000  0.95539100  0.62303800  1
  O  O34  1  0.82454600  0.03594900  0.33516800  1
  O  O35  1  0.06007100  0.04792700  0.03809500  1
  O  O36  1  0.48081300  0.74997800  0.98093700  1
  O  O37  1  0.03014000  0.85763900  0.19017400  1
  O  O38  1  0.25928700  0.83784400  0.86858900  1
  O  O39  1  0.26338000  0.46861300  0.16384700  1
  O  O40  1  0.78069700  0.70616100  0.50213200  1
  O  O41  1  0.64657400  0.92341100  0.32307900  1
  O  O42  1  0.67881300  0.50894900  0.63558000  1
  O  O43  1  0.96935400  0.53214500  0.28467700  1
  O  O44  1  0.21556500  0.53126200  0.97344800  1
  O  O45  1  0.95539100  0.69129000  0.12303800  1
  O  O46  1  0.46873800  0.78443500  0.52655200  1
  O  O47  1  0.03594900  0.82454600  0.83516800  1
  O  O48  1  0.49105100  0.32118700  0.86442000  1
  O  O49  1  0.04792700  0.06007100  0.53809500  1
  O  O50  1  0.07658900  0.35342600  0.17692100  1
  O  O51  1  0.74997800  0.48081300  0.48093700  1
  O  O52  1  0.85763900  0.03014000  0.69017400  1
  O  O53  1  0.29383900  0.21930300  0.99786800  1
  O  O54  1  0.16215600  0.74071300  0.63141100  1
  O  O55  1  0.53138700  0.73662000  0.33615300  1
  O  O56  1  0.46861300  0.26338000  0.66384700  1
  O  O57  1  0.83784400  0.25928700  0.36858900  1
  O  O58  1  0.70616100  0.78069700  0.00213200  1
  O  O59  1  0.14236100  0.96986000  0.30982600  1
  O  O60  1  0.25002200  0.51918700  0.51906300  1
  O  O61  1  0.92341100  0.64657400  0.82307900  1
  O  O62  1  0.95207300  0.93992900  0.46190500  1
  O  O63  1  0.50894900  0.67881300  0.13558000  1
  O  O64  1  0.96405100  0.17545400  0.16483200  1
  O  O65  1  0.53126200  0.21556500  0.47344800  1
  O  O66  1  0.04460900  0.30871000  0.87696200  1
  O  O67  1  0.78443500  0.46873800  0.02655200  1
  O  O68  1  0.03064600  0.46785500  0.71532300  1
  O  O69  1  0.32118700  0.49105100  0.36442000  1
  O  O70  1  0.35342600  0.07658900  0.67692100  1
  O  O71  1  0.21930300  0.29383900  0.49786800  1
  O  O72  1  0.73662000  0.53138700  0.83615300  1
  O  O73  1  0.74071300  0.16215600  0.13141100  1
  O  O74  1  0.96986000  0.14236100  0.80982600  1
  O  O75  1  0.51918700  0.25002200  0.01906300  1
  O  O76  1  0.93992900  0.95207300  0.96190500  1
  O  O77  1  0.17545400  0.96405100  0.66483200  1
  O  O78  1  0.30871000  0.04460900  0.37696200  1
  O  O79  1  0.46785500  0.03064600  0.21532300  1
