# generated using pymatgen
data_LiSn4P7O24
_symmetry_space_group_name_H-M   'P 1'
_cell_length_a   10.54328800
_cell_length_b   11.03431160
_cell_length_c   11.43265473
_cell_angle_alpha   109.05391642
_cell_angle_beta   111.89592452
_cell_angle_gamma   104.28251002
_symmetry_Int_Tables_number   1
_chemical_formula_structural   LiSn4P7O24
_chemical_formula_sum   'Li2 Sn8 P14 O48'
_cell_volume   1058.55987348
_cell_formula_units_Z   2
loop_
 _symmetry_equiv_pos_site_id
 _symmetry_equiv_pos_as_xyz
  1  'x, y, z'
loop_
 _atom_site_type_symbol
 _atom_site_label
 _atom_site_symmetry_multiplicity
 _atom_site_fract_x
 _atom_site_fract_y
 _atom_site_fract_z
 _atom_site_occupancy
  Li  Li0  1  0.59836700  0.41729200  0.71867400  1
  Li  Li1  1  0.40163300  0.58270800  0.28132600  1
  Sn  Sn2  1  0.50287100  0.90882900  0.75395800  1
  Sn  Sn3  1  0.01112500  0.37019500  0.08152400  1
  Sn  Sn4  1  0.50501100  0.65247600  0.90267900  1
  Sn  Sn5  1  0.98258000  0.80301800  0.39899700  1
  Sn  Sn6  1  0.01742000  0.19698200  0.60100300  1
  Sn  Sn7  1  0.49498900  0.34752400  0.09732100  1
  Sn  Sn8  1  0.98887500  0.62980500  0.91847600  1
  Sn  Sn9  1  0.49712900  0.09117100  0.24604200  1
  P  P10  1  0.78447800  0.81288500  0.78239700  1
  P  P11  1  0.22576500  0.62178400  0.44756100  1
  P  P12  1  0.20634300  0.93374200  0.26368500  1
  P  P13  1  0.25274300  0.04087300  0.75329500  1
  P  P14  1  0.26176700  0.37761300  0.50750700  1
  P  P15  1  0.73898500  0.15926700  0.12491500  1
  P  P16  1  0.75634700  0.51688600  0.04156500  1
  P  P17  1  0.24365300  0.48311400  0.95843500  1
  P  P18  1  0.26101500  0.84073300  0.87508500  1
  P  P19  1  0.73823300  0.62238700  0.49249300  1
  P  P20  1  0.74725700  0.95912700  0.24670500  1
  P  P21  1  0.79365700  0.06625800  0.73631500  1
  P  P22  1  0.77423500  0.37821600  0.55243900  1
  P  P23  1  0.21552200  0.18711500  0.21760300  1
  O  O24  1  0.86867000  0.20340100  0.87205600  1
  O  O25  1  0.62130400  0.99751900  0.67471900  1
  O  O26  1  0.64634200  0.05778300  0.96566700  1
  O  O27  1  0.09716300  0.20285200  0.10745900  1
  O  O28  1  0.38794800  0.73446100  0.55802900  1
  O  O29  1  0.22074500  0.56206800  0.30285100  1
  O  O30  1  0.68553900  0.56273300  0.92724300  1
  O  O31  1  0.64951200  0.81115700  0.80530700  1
  O  O32  1  0.20067700  0.49322400  0.48933600  1
  O  O33  1  0.36862000  0.01009400  0.71055000  1
  O  O34  1  0.28574000  0.31621900  0.37128600  1
  O  O35  1  0.14350300  0.04638300  0.22326100  1
  O  O36  1  0.17008800  0.92246300  0.37672800  1
  O  O37  1  0.41630600  0.44150900  0.63434200  1
  O  O38  1  0.90114700  0.50798300  0.02992600  1
  O  O39  1  0.10332500  0.66926400  0.45070800  1
  O  O40  1  0.86924400  0.29074100  0.16711000  1
  O  O41  1  0.31667600  0.18351600  0.87811300  1
  O  O42  1  0.18682500  0.92045300  0.79283800  1
  O  O43  1  0.13556700  0.26234800  0.49205900  1
  O  O44  1  0.11356900  0.01831600  0.61965900  1
  O  O45  1  0.36672400  0.80339000  0.81714600  1
  O  O46  1  0.35531000  0.62908500  0.00066900  1
  O  O47  1  0.80699100  0.62179200  0.19607600  1
  O  O48  1  0.19300900  0.37820800  0.80392400  1
  O  O49  1  0.64469000  0.37091500  0.99933100  1
  O  O50  1  0.63327600  0.19661000  0.18285400  1
  O  O51  1  0.88643100  0.98168400  0.38034100  1
  O  O52  1  0.86443300  0.73765200  0.50794100  1
  O  O53  1  0.81317500  0.07954700  0.20716200  1
  O  O54  1  0.68332400  0.81648400  0.12188700  1
  O  O55  1  0.13075600  0.70925900  0.83289000  1
  O  O56  1  0.89667500  0.33073600  0.54929200  1
  O  O57  1  0.09885300  0.49201700  0.97007400  1
  O  O58  1  0.58369400  0.55849100  0.36565800  1
  O  O59  1  0.82991200  0.07753700  0.62327200  1
  O  O60  1  0.85649700  0.95361700  0.77673900  1
  O  O61  1  0.71426000  0.68378100  0.62871400  1
  O  O62  1  0.63137900  0.98990600  0.28945000  1
  O  O63  1  0.79932300  0.50677600  0.51066400  1
  O  O64  1  0.35048800  0.18884300  0.19469300  1
  O  O65  1  0.31446100  0.43726700  0.07275700  1
  O  O66  1  0.77925500  0.43793200  0.69714900  1
  O  O67  1  0.61205200  0.26553900  0.44197100  1
  O  O68  1  0.90283700  0.79714800  0.89254100  1
  O  O69  1  0.35365800  0.94221700  0.03433300  1
  O  O70  1  0.37869600  0.00248100  0.32528100  1
  O  O71  1  0.13133000  0.79659900  0.12794400  1
