# generated using pymatgen
data_Li10Ti4O13
_symmetry_space_group_name_H-M   'P 1'
_cell_length_a   7.78479500
_cell_length_b   8.95331238
_cell_length_c   10.74095897
_cell_angle_alpha   66.11674182
_cell_angle_beta   71.97348981
_cell_angle_gamma   76.12303752
_symmetry_Int_Tables_number   1
_chemical_formula_structural   Li10Ti4O13
_chemical_formula_sum   'Li20 Ti8 O26'
_cell_volume   645.26223445
_cell_formula_units_Z   2
loop_
 _symmetry_equiv_pos_site_id
 _symmetry_equiv_pos_as_xyz
  1  'x, y, z'
loop_
 _atom_site_type_symbol
 _atom_site_label
 _atom_site_symmetry_multiplicity
 _atom_site_fract_x
 _atom_site_fract_y
 _atom_site_fract_z
 _atom_site_occupancy
  Li  Li0  1  0.51691600  0.61464000  0.09749700  1
  Li  Li1  1  0.14052200  0.53836400  0.11378200  1
  Li  Li2  1  0.19190900  0.20459100  0.03426700  1
  Li  Li3  1  0.79433300  0.06120500  0.09282900  1
  Li  Li4  1  0.48768200  0.95909000  0.13026900  1
  Li  Li5  1  0.98983000  0.30434400  0.42259300  1
  Li  Li6  1  0.39940000  0.50545800  0.37315600  1
  Li  Li7  1  0.10751900  0.02715500  0.38642000  1
  Li  Li8  1  0.63812900  0.21319600  0.52187400  1
  Li  Li9  1  0.75790900  0.92710600  0.39640700  1
  Li  Li10  1  0.24209100  0.07289400  0.60359300  1
  Li  Li11  1  0.36187100  0.78680400  0.47812600  1
  Li  Li12  1  0.89248100  0.97284500  0.61358000  1
  Li  Li13  1  0.60060000  0.49454200  0.62684400  1
  Li  Li14  1  0.01017000  0.69565600  0.57740700  1
  Li  Li15  1  0.51231800  0.04091000  0.86973100  1
  Li  Li16  1  0.20566700  0.93879500  0.90717100  1
  Li  Li17  1  0.80809100  0.79540900  0.96573300  1
  Li  Li18  1  0.85947800  0.46163600  0.88621800  1
  Li  Li19  1  0.48308400  0.38536000  0.90250300  1
  Ti  Ti20  1  0.75151600  0.67102000  0.27727500  1
  Ti  Ti21  1  0.81635200  0.31137900  0.21915200  1
  Ti  Ti22  1  0.40619500  0.24696300  0.24229500  1
  Ti  Ti23  1  0.15170000  0.79840600  0.23057600  1
  Ti  Ti24  1  0.84830000  0.20159400  0.76942400  1
  Ti  Ti25  1  0.59380500  0.75303700  0.75770500  1
  Ti  Ti26  1  0.18364800  0.68862100  0.78084800  1
  Ti  Ti27  1  0.24848400  0.32898000  0.72272500  1
  O  O28  1  0.62555700  0.74716000  0.14898100  1
  O  O29  1  0.25667500  0.60037100  0.22243700  1
  O  O30  1  0.30796500  0.34050000  0.09141600  1
  O  O31  1  0.91771600  0.27273300  0.05864200  1
  O  O32  1  0.89816400  0.47113800  0.25713000  1
  O  O33  1  0.56686400  0.38105800  0.24473500  1
  O  O34  1  0.26152200  0.96048500  0.07881300  1
  O  O35  1  0.55704300  0.06408600  0.22980200  1
  O  O36  1  0.22805900  0.18261200  0.40301300  1
  O  O37  1  0.85458900  0.13023500  0.36845300  1
  O  O38  1  0.89612500  0.83277200  0.24194900  1
  O  O39  1  0.17510900  0.80199100  0.39269000  1
  O  O40  1  0.41012900  0.35236800  0.55863200  1
  O  O41  1  0.58987100  0.64763200  0.44136800  1
  O  O42  1  0.82489100  0.19800900  0.60731000  1
  O  O43  1  0.10387500  0.16722800  0.75805100  1
  O  O44  1  0.14541100  0.86976500  0.63154700  1
  O  O45  1  0.77194100  0.81738800  0.59698700  1
  O  O46  1  0.44295700  0.93591400  0.77019800  1
  O  O47  1  0.73847800  0.03951500  0.92118700  1
  O  O48  1  0.43313600  0.61894200  0.75526500  1
  O  O49  1  0.10183600  0.52886200  0.74287000  1
  O  O50  1  0.08228400  0.72726700  0.94135800  1
  O  O51  1  0.69203500  0.65950000  0.90858400  1
  O  O52  1  0.74332500  0.39962900  0.77756300  1
  O  O53  1  0.37444300  0.25284000  0.85101900  1
