# generated using pymatgen
data_Li5V6O5F19
_symmetry_space_group_name_H-M   'P 1'
_cell_length_a   5.20829000
_cell_length_b   5.40008793
_cell_length_c   16.16101278
_cell_angle_alpha   99.46037060
_cell_angle_beta   90.14388296
_cell_angle_gamma   90.38026020
_symmetry_Int_Tables_number   1
_chemical_formula_structural   Li5V6O5F19
_chemical_formula_sum   'Li5 V6 O5 F19'
_cell_volume   448.33738660
_cell_formula_units_Z   1
loop_
 _symmetry_equiv_pos_site_id
 _symmetry_equiv_pos_as_xyz
  1  'x, y, z'
loop_
 _atom_site_type_symbol
 _atom_site_label
 _atom_site_symmetry_multiplicity
 _atom_site_fract_x
 _atom_site_fract_y
 _atom_site_fract_z
 _atom_site_occupancy
  Li  Li0  1  0.03424100  0.95366300  0.77291900  1
  Li  Li1  1  0.74170600  0.49721100  0.48197800  1
  Li  Li2  1  0.78593900  0.30401000  0.15104500  1
  Li  Li3  1  0.45939900  0.49725000  0.78607500  1
  Li  Li4  1  0.97466500  0.37232700  0.89998200  1
  V  V5  1  0.52374100  0.86376200  0.66470100  1
  V  V6  1  0.99948900  0.66781000  0.33166700  1
  V  V7  1  0.02731300  0.96032800  0.99702700  1
  V  V8  1  0.52749700  0.48566800  0.00631200  1
  V  V9  1  0.97809200  0.36384200  0.66555200  1
  V  V10  1  0.51662200  0.19288800  0.33373600  1
  O  O11  1  0.80759700  0.63715400  0.69534800  1
  O  O12  1  0.70939600  0.46163200  0.35188600  1
  O  O13  1  0.78652100  0.30357500  0.01643500  1
  O  O14  1  0.19512000  0.68867000  0.97217500  1
  O  O15  1  0.70140800  0.13380400  0.69356500  1
  F  F16  1  0.79855200  0.96683200  0.35558900  1
  F  F17  1  0.70221800  0.81266600  0.02846700  1
  F  F18  1  0.29490700  0.87505400  0.31565100  1
  F  F19  1  0.91832700  0.61867700  0.22097000  1
  F  F20  1  0.91430700  0.98665200  0.88178700  1
  F  F21  1  0.58374100  0.77010400  0.55166000  1
  F  F22  1  0.41696300  0.52517800  0.11532900  1
  F  F23  1  0.38321700  0.84202100  0.77506200  1
  F  F24  1  0.06585900  0.69032700  0.44264200  1
  F  F25  1  0.20265700  0.36497200  0.30849800  1
  F  F26  1  0.31076700  0.51733800  0.64769800  1
  F  F27  1  0.62340100  0.47709000  0.88444400  1
  F  F28  1  0.07332600  0.07513500  0.11050800  1
  F  F29  1  0.90799900  0.29615900  0.55255200  1
  F  F30  1  0.59282100  0.12176500  0.21848500  1
  F  F31  1  0.43049700  0.22580000  0.44687500  1
  F  F32  1  0.11243400  0.34643100  0.78164500  1
  F  F33  1  0.28374700  0.20409700  0.96762800  1
  F  F34  1  0.18975300  0.02508200  0.64821400  1
