# generated using pymatgen
data_Li5Ti3Mn2(PO4)6
_symmetry_space_group_name_H-M   'P 1'
_cell_length_a   8.52967908
_cell_length_b   8.61100242
_cell_length_c   8.60783596
_cell_angle_alpha   62.61957827
_cell_angle_beta   63.08521256
_cell_angle_gamma   63.04280769
_symmetry_Int_Tables_number   1
_chemical_formula_structural   Li5Ti3Mn2(PO4)6
_chemical_formula_sum   'Li5 Ti3 Mn2 P6 O24'
_cell_volume   476.00061877
_cell_formula_units_Z   1
loop_
 _symmetry_equiv_pos_site_id
 _symmetry_equiv_pos_as_xyz
  1  'x, y, z'
loop_
 _atom_site_type_symbol
 _atom_site_label
 _atom_site_symmetry_multiplicity
 _atom_site_fract_x
 _atom_site_fract_y
 _atom_site_fract_z
 _atom_site_occupancy
  Li  Li0  1  0.75636200  0.14212000  0.35544500  1
  Li  Li1  1  0.19459700  0.85242200  0.66696600  1
  Li  Li2  1  0.66681700  0.19256700  0.85417100  1
  Li  Li3  1  0.85359900  0.66534500  0.19419900  1
  Li  Li4  1  0.84183600  0.83640400  0.84252300  1
  Ti  Ti5  1  0.14830800  0.14755200  0.14332900  1
  Ti  Ti6  1  0.35482100  0.35753800  0.35516400  1
  Ti  Ti7  1  0.64793000  0.64884100  0.65278000  1
  Mn  Mn8  1  0.00874200  0.99738900  0.99128600  1
  Mn  Mn9  1  0.48567500  0.50571600  0.49952400  1
  P  P10  1  0.25381600  0.54419600  0.95742000  1
  P  P11  1  0.55104400  0.95828600  0.25495700  1
  P  P12  1  0.95074800  0.25313800  0.54347600  1
  P  P13  1  0.05084100  0.75427800  0.45096700  1
  P  P14  1  0.45106300  0.05109500  0.75598600  1
  P  P15  1  0.75453800  0.45010600  0.05306600  1
  O  O16  1  0.11064400  0.32346200  0.48540900  1
  O  O17  1  0.33404600  0.49472600  0.10679600  1
  O  O18  1  0.04943200  0.91770400  0.26409700  1
  O  O19  1  0.52235100  0.10707600  0.32567400  1
  O  O20  1  0.03006800  0.81163200  0.60332200  1
  O  O21  1  0.24043600  0.59933700  0.41930700  1
  O  O22  1  0.25782800  0.06989000  0.90728200  1
  O  O23  1  0.43810900  0.23707800  0.58970700  1
  O  O24  1  0.18610500  0.39001500  0.99323600  1
  O  O25  1  0.60197000  0.41831100  0.24851300  1
  O  O26  1  0.09934200  0.73324100  0.94830900  1
  O  O27  1  0.38599800  0.00358300  0.19565700  1
  O  O28  1  0.60554000  0.02475600  0.81687500  1
  O  O29  1  0.90363000  0.25277800  0.07475500  1
  O  O30  1  0.40237000  0.57110700  0.75957400  1
  O  O31  1  0.81573900  0.60112400  0.02894000  1
  O  O32  1  0.56878700  0.76200400  0.40640000  1
  O  O33  1  0.73865400  0.94305900  0.09833800  1
  O  O34  1  0.75524000  0.40437900  0.57528700  1
  O  O35  1  0.96815000  0.19248500  0.39105200  1
  O  O36  1  0.48693800  0.89008700  0.69504600  1
  O  O37  1  0.94873200  0.09684900  0.73125200  1
  O  O38  1  0.69089400  0.48552500  0.89446500  1
  O  O39  1  0.88825900  0.68980100  0.49244600  1
