# generated using pymatgen
data_Li2V(BO2)5
_symmetry_space_group_name_H-M   'P 1'
_cell_length_a   15.40250500
_cell_length_b   7.26205000
_cell_length_c   7.29046526
_cell_angle_alpha   89.11929344
_cell_angle_beta   90.00000000
_cell_angle_gamma   90.00000000
_symmetry_Int_Tables_number   1
_chemical_formula_structural   Li2V(BO2)5
_chemical_formula_sum   'Li8 V4 B20 O40'
_cell_volume   815.36962677
_cell_formula_units_Z   4
loop_
 _symmetry_equiv_pos_site_id
 _symmetry_equiv_pos_as_xyz
  1  'x, y, z'
loop_
 _atom_site_type_symbol
 _atom_site_label
 _atom_site_symmetry_multiplicity
 _atom_site_fract_x
 _atom_site_fract_y
 _atom_site_fract_z
 _atom_site_occupancy
  Li  Li0  1  0.83132100  0.90118500  0.99990800  1
  Li  Li1  1  0.66867900  0.90118500  0.49990800  1
  Li  Li2  1  0.07400500  0.69485400  0.59052200  1
  Li  Li3  1  0.42599500  0.69485400  0.09052200  1
  Li  Li4  1  0.57400500  0.30514600  0.90947800  1
  Li  Li5  1  0.92599500  0.30514600  0.40947800  1
  Li  Li6  1  0.33132100  0.09881500  0.50009200  1
  Li  Li7  1  0.16867900  0.09881500  0.00009200  1
  V  V8  1  0.87590500  0.84797100  0.53557400  1
  V  V9  1  0.62409500  0.84797100  0.03557400  1
  V  V10  1  0.37590500  0.15202900  0.96442600  1
  V  V11  1  0.12409500  0.15202900  0.46442600  1
  B  B12  1  0.97400100  0.79792200  0.90873500  1
  B  B13  1  0.52599900  0.79792200  0.40873500  1
  B  B14  1  0.22337200  0.78343600  0.52132500  1
  B  B15  1  0.27662800  0.78343600  0.02132500  1
  B  B16  1  0.49575700  0.75277100  0.73338100  1
  B  B17  1  0.00424300  0.75277100  0.23338100  1
  B  B18  1  0.37955200  0.68199100  0.50531400  1
  B  B19  1  0.12044800  0.68199100  0.00531400  1
  B  B20  1  0.74190600  0.54239500  0.50108200  1
  B  B21  1  0.75809400  0.54239500  0.00108200  1
  B  B22  1  0.24190600  0.45760500  0.99891800  1
  B  B23  1  0.25809400  0.45760500  0.49891800  1
  B  B24  1  0.87955200  0.31800900  0.99468600  1
  B  B25  1  0.62044800  0.31800900  0.49468600  1
  B  B26  1  0.99575700  0.24722900  0.76661900  1
  B  B27  1  0.50424300  0.24722900  0.26661900  1
  B  B28  1  0.72337200  0.21656400  0.97867500  1
  B  B29  1  0.77662800  0.21656400  0.47867500  1
  B  B30  1  0.47400100  0.20207800  0.59126500  1
  B  B31  1  0.02599900  0.20207800  0.09126500  1
  O  O32  1  0.15762300  0.90691000  0.53880000  1
  O  O33  1  0.34237700  0.90691000  0.03880000  1
  O  O34  1  0.91133900  0.84968300  0.78727800  1
  O  O35  1  0.58866100  0.84968300  0.28727800  1
  O  O36  1  0.19097800  0.82950500  0.99376100  1
  O  O37  1  0.54854500  0.82905100  0.59394400  1
  O  O38  1  0.30902200  0.82950500  0.49376100  1
  O  O39  1  0.95145500  0.82905100  0.09394400  1
  O  O40  1  0.52370700  0.75020300  0.91230100  1
  O  O41  1  0.97629300  0.75020300  0.41230100  1
  O  O42  1  0.76722400  0.72274300  0.50946000  1
  O  O43  1  0.05274100  0.72353400  0.86225800  1
  O  O44  1  0.73277600  0.72274300  0.00946000  1
  O  O45  1  0.44725900  0.72353400  0.36225800  1
  O  O46  1  0.41699700  0.68207600  0.69018600  1
  O  O47  1  0.08300300  0.68207600  0.19018600  1
  O  O48  1  0.19737600  0.59709300  0.53727500  1
  O  O49  1  0.30262400  0.59709300  0.03727500  1
  O  O50  1  0.65737200  0.49796100  0.53068900  1
  O  O51  1  0.15737200  0.50203900  0.96931100  1
  O  O52  1  0.84262800  0.49796100  0.03068900  1
  O  O53  1  0.34262800  0.50203900  0.46931100  1
  O  O54  1  0.69737600  0.40290700  0.96272500  1
  O  O55  1  0.80262400  0.40290700  0.46272500  1
  O  O56  1  0.91699700  0.31792400  0.80981400  1
  O  O57  1  0.58300300  0.31792400  0.30981400  1
  O  O58  1  0.55274100  0.27646600  0.63774200  1
  O  O59  1  0.26722400  0.27725700  0.99054000  1
  O  O60  1  0.94725900  0.27646600  0.13774200  1
  O  O61  1  0.23277600  0.27725700  0.49054000  1
  O  O62  1  0.02370700  0.24979700  0.58769900  1
  O  O63  1  0.47629300  0.24979700  0.08769900  1
  O  O64  1  0.04854500  0.17094900  0.90605600  1
  O  O65  1  0.69097800  0.17049500  0.50623900  1
  O  O66  1  0.45145500  0.17094900  0.40605600  1
  O  O67  1  0.80902200  0.17049500  0.00623900  1
  O  O68  1  0.41133900  0.15031700  0.71272200  1
  O  O69  1  0.08866100  0.15031700  0.21272200  1
  O  O70  1  0.65762300  0.09309000  0.96120000  1
  O  O71  1  0.84237700  0.09309000  0.46120000  1
