# generated using pymatgen
data_Li6MnO4F
_symmetry_space_group_name_H-M   'P 1'
_cell_length_a   5.43718539
_cell_length_b   8.74079415
_cell_length_c   10.74183433
_cell_angle_alpha   66.96972731
_cell_angle_beta   76.81655274
_cell_angle_gamma   93.53860352
_symmetry_Int_Tables_number   1
_chemical_formula_structural   Li6MnO4F
_chemical_formula_sum   'Li24 Mn4 O16 F4'
_cell_volume   450.90110122
_cell_formula_units_Z   4
loop_
 _symmetry_equiv_pos_site_id
 _symmetry_equiv_pos_as_xyz
  1  'x, y, z'
loop_
 _atom_site_type_symbol
 _atom_site_label
 _atom_site_symmetry_multiplicity
 _atom_site_fract_x
 _atom_site_fract_y
 _atom_site_fract_z
 _atom_site_occupancy
  Li  Li0  1  0.14764200  0.54926100  0.74648000  1
  Li  Li1  1  0.64757900  0.04915200  0.74653700  1
  Li  Li2  1  0.35580000  0.95429900  0.24661400  1
  Li  Li3  1  0.85583500  0.45427200  0.24661100  1
  Li  Li4  1  0.28788500  0.65927700  0.24201700  1
  Li  Li5  1  0.78786800  0.15923200  0.24203600  1
  Li  Li6  1  0.21997300  0.84880400  0.74199100  1
  Li  Li7  1  0.72007200  0.34873800  0.74204000  1
  Li  Li8  1  0.61641500  0.10501100  0.00106500  1
  Li  Li9  1  0.11653000  0.60502500  0.00103000  1
  Li  Li10  1  0.13232400  0.64391400  0.50104300  1
  Li  Li11  1  0.63233200  0.14389100  0.50104600  1
  Li  Li12  1  0.41070800  0.86911500  0.50465600  1
  Li  Li13  1  0.91062600  0.36910400  0.50472000  1
  Li  Li14  1  0.33470300  0.87610600  0.00464200  1
  Li  Li15  1  0.83468300  0.37614100  0.00462800  1
  Li  Li16  1  0.38437500  0.39294300  0.45089200  1
  Li  Li17  1  0.88453400  0.89299400  0.45086400  1
  Li  Li18  1  0.91478000  0.90654500  0.95088700  1
  Li  Li19  1  0.41467900  0.40639800  0.95090900  1
  Li  Li20  1  0.14647900  0.13995700  0.05905700  1
  Li  Li21  1  0.64665700  0.64004700  0.05898600  1
  Li  Li22  1  0.54459300  0.55103400  0.55903800  1
  Li  Li23  1  0.04457100  0.05104500  0.55906400  1
  Mn  Mn24  1  0.73600700  0.72702400  0.74071100  1
  Mn  Mn25  1  0.77327200  0.78210700  0.24085500  1
  Mn  Mn26  1  0.23601300  0.22722700  0.74076500  1
  Mn  Mn27  1  0.27339400  0.28242100  0.24064900  1
  O  O28  1  0.47470700  0.75039000  0.38919800  1
  O  O29  1  0.97484500  0.25046700  0.38917600  1
  O  O30  1  0.88625700  0.61026300  0.88902000  1
  O  O31  1  0.38615900  0.11023700  0.88911100  1
  O  O32  1  0.58512700  0.86242600  0.10069700  1
  O  O33  1  0.08495100  0.36242600  0.10064000  1
  O  O34  1  0.06416600  0.78700100  0.60055100  1
  O  O35  1  0.56407500  0.28699300  0.60055700  1
  O  O36  1  0.11634900  0.41208700  0.61454100  1
  O  O37  1  0.61634800  0.91199800  0.61449400  1
  O  O38  1  0.51891300  0.22363300  0.11427300  1
  O  O39  1  0.01888600  0.72356300  0.11433000  1
  O  O40  1  0.99323800  0.97471100  0.25156800  1
  O  O41  1  0.49330700  0.47476700  0.25155300  1
  O  O42  1  0.50507000  0.52357500  0.75159500  1
  O  O43  1  0.00517500  0.02374400  0.75154900  1
  F  F44  1  0.93361100  0.24830300  0.89948500  1
  F  F45  1  0.43383200  0.74826300  0.89947100  1
  F  F46  1  0.41737800  0.10205000  0.39915400  1
  F  F47  1  0.91728300  0.60201900  0.39920000  1
