# generated using pymatgen
data_Li2Ni4P4O15
_symmetry_space_group_name_H-M   'P 1'
_cell_length_a   8.58090074
_cell_length_b   8.58090074
_cell_length_c   17.93278848
_cell_angle_alpha   82.89800150
_cell_angle_beta   82.89800150
_cell_angle_gamma   106.65037681
_symmetry_Int_Tables_number   1
_chemical_formula_structural   Li2Ni4P4O15
_chemical_formula_sum   'Li8 Ni16 P16 O60'
_cell_volume   1237.66015375
_cell_formula_units_Z   4
loop_
 _symmetry_equiv_pos_site_id
 _symmetry_equiv_pos_as_xyz
  1  'x, y, z'
loop_
 _atom_site_type_symbol
 _atom_site_label
 _atom_site_symmetry_multiplicity
 _atom_site_fract_x
 _atom_site_fract_y
 _atom_site_fract_z
 _atom_site_occupancy
  Li  Li0  1  0.70503000  0.53922900  0.54684500  1
  Li  Li1  1  0.00404900  0.52768600  0.25543100  1
  Li  Li2  1  0.53922900  0.70503000  0.04684500  1
  Li  Li3  1  0.29497000  0.46077100  0.45315500  1
  Li  Li4  1  0.99595100  0.47231400  0.74456900  1
  Li  Li5  1  0.46077100  0.29497000  0.95315500  1
  Li  Li6  1  0.47231400  0.99595100  0.24456900  1
  Li  Li7  1  0.52768600  0.00404900  0.75543100  1
  Ni  Ni8  1  0.04096000  0.14625500  0.93102800  1
  Ni  Ni9  1  0.95904000  0.85374500  0.06897200  1
  Ni  Ni10  1  0.26399400  0.90491500  0.93674000  1
  Ni  Ni11  1  0.95123900  0.04876100  0.75000000  1
  Ni  Ni12  1  0.14625500  0.04096000  0.43102800  1
  Ni  Ni13  1  0.52391000  0.47609000  0.25000000  1
  Ni  Ni14  1  0.90491500  0.26399400  0.43674000  1
  Ni  Ni15  1  0.47609000  0.52391000  0.75000000  1
  Ni  Ni16  1  0.17642800  0.82357200  0.75000000  1
  Ni  Ni17  1  0.50000000  0.00000000  0.50000000  1
  Ni  Ni18  1  0.09508500  0.73600600  0.56326000  1
  Ni  Ni19  1  0.73600600  0.09508500  0.06326000  1
  Ni  Ni20  1  0.85374500  0.95904000  0.56897200  1
  Ni  Ni21  1  0.00000000  0.50000000  0.00000000  1
  Ni  Ni22  1  0.82357200  0.17642800  0.25000000  1
  Ni  Ni23  1  0.04876100  0.95123900  0.25000000  1
  P  P24  1  0.77824100  0.45426500  0.12407600  1
  P  P25  1  0.98080000  0.68013700  0.39947400  1
  P  P26  1  0.28919800  0.15483800  0.82110400  1
  P  P27  1  0.22175900  0.54573500  0.87592400  1
  P  P28  1  0.31986300  0.01920000  0.10052600  1
  P  P29  1  0.15483800  0.28919800  0.32110400  1
  P  P30  1  0.68013700  0.98080000  0.89947400  1
  P  P31  1  0.54573500  0.22175900  0.37592400  1
  P  P32  1  0.89397800  0.76909300  0.90128600  1
  P  P33  1  0.76909300  0.89397800  0.40128600  1
  P  P34  1  0.23090700  0.10602200  0.59871400  1
  P  P35  1  0.45426500  0.77824100  0.62407600  1
  P  P36  1  0.84516200  0.71080200  0.67889600  1
  P  P37  1  0.01920000  0.31986300  0.60052600  1
  P  P38  1  0.10602200  0.23090700  0.09871400  1
  P  P39  1  0.71080200  0.84516200  0.17889600  1
  O  O40  1  0.38529100  0.09116500  0.42079900  1
  O  O41  1  0.41122900  0.13849300  0.57233500  1
  O  O42  1  0.33424800  0.78368600  0.56576200  1
  O  O43  1  0.59404400  0.16094600  0.30152400  1
  O  O44  1  0.21631400  0.66575200  0.93423800  1
  O  O45  1  0.71893900  0.57044600  0.73385700  1
  O  O46  1  0.50196600  0.93608400  0.93336300  1
  O  O47  1  0.52755600  0.39587300  0.35833100  1
  O  O48  1  0.39587300  0.52755600  0.85833100  1
  O  O49  1  0.78368600  0.33424800  0.06576200  1
  O  O50  1  0.42955400  0.28106100  0.76614300  1
  O  O51  1  0.16094600  0.59404400  0.80152400  1
  O  O52  1  0.69526600  0.02131600  0.18405800  1
  O  O53  1  0.40595600  0.83905400  0.69847600  1
  O  O54  1  0.10124700  0.79072200  0.44286400  1
  O  O55  1  0.13849300  0.41122900  0.07233500  1
  O  O56  1  0.93608400  0.50196600  0.43336300  1
  O  O57  1  0.83905400  0.40595600  0.19847600  1
  O  O58  1  0.29773400  0.16191600  0.90896700  1
  O  O59  1  0.71728800  0.80264500  0.91984700  1
  O  O60  1  0.28271200  0.19735500  0.08015300  1
  O  O61  1  0.83123900  0.88597300  0.68477800  1
  O  O62  1  0.83223700  0.95898900  0.31650000  1
  O  O63  1  0.90883500  0.61470900  0.07920100  1
  O  O64  1  0.83808400  0.70226600  0.59103300  1
  O  O65  1  0.02131600  0.69526600  0.68405800  1
  O  O66  1  0.99327900  0.11516700  0.05096900  1
  O  O67  1  0.66575200  0.21631400  0.43423800  1
  O  O68  1  0.80264500  0.71728800  0.41984700  1
  O  O69  1  0.96524600  0.27769600  0.68704900  1
  O  O70  1  0.88483300  0.00672100  0.44903100  1
  O  O71  1  0.70226600  0.83808400  0.09103300  1
  O  O72  1  0.19735500  0.28271200  0.58015300  1
  O  O73  1  0.58877100  0.86150700  0.42766500  1
  O  O74  1  0.30473400  0.97868400  0.81594200  1
  O  O75  1  0.97868400  0.30473400  0.31594200  1
  O  O76  1  0.49803400  0.06391600  0.06663700  1
  O  O77  1  0.16876100  0.11402700  0.31522200  1
  O  O78  1  0.09116500  0.38529100  0.92079900  1
  O  O79  1  0.06391600  0.49803400  0.56663700  1
  O  O80  1  0.89875300  0.20927800  0.55713600  1
  O  O81  1  0.20927800  0.89875300  0.05713600  1
  O  O82  1  0.60412700  0.47244400  0.14166900  1
  O  O83  1  0.61470900  0.90883500  0.57920100  1
  O  O84  1  0.03475400  0.72230400  0.31295100  1
  O  O85  1  0.72230400  0.03475400  0.81295100  1
  O  O86  1  0.95898900  0.83223700  0.81650000  1
  O  O87  1  0.47244400  0.60412700  0.64166900  1
  O  O88  1  0.16776300  0.04101100  0.68350000  1
  O  O89  1  0.00672100  0.88483300  0.94903100  1
  O  O90  1  0.27769600  0.96524600  0.18704900  1
  O  O91  1  0.28106100  0.42955400  0.26614300  1
  O  O92  1  0.57044600  0.71893900  0.23385700  1
  O  O93  1  0.11516700  0.99327900  0.55096900  1
  O  O94  1  0.16191600  0.29773400  0.40896700  1
  O  O95  1  0.04101100  0.16776300  0.18350000  1
  O  O96  1  0.79072200  0.10124700  0.94286400  1
  O  O97  1  0.88597300  0.83123900  0.18477800  1
  O  O98  1  0.11402700  0.16876100  0.81522200  1
  O  O99  1  0.86150700  0.58877100  0.92766500  1
