# generated using pymatgen
data_K2Li2NiO4
_symmetry_space_group_name_H-M   'P 1'
_cell_length_a   9.04552400
_cell_length_b   5.46513900
_cell_length_c   11.07352470
_cell_angle_alpha   67.90413057
_cell_angle_beta   90.00000000
_cell_angle_gamma   90.00000000
_symmetry_Int_Tables_number   1
_chemical_formula_structural   K2Li2NiO4
_chemical_formula_sum   'K8 Li8 Ni4 O16'
_cell_volume   507.21533738
_cell_formula_units_Z   4
loop_
 _symmetry_equiv_pos_site_id
 _symmetry_equiv_pos_as_xyz
  1  'x, y, z'
loop_
 _atom_site_type_symbol
 _atom_site_label
 _atom_site_symmetry_multiplicity
 _atom_site_fract_x
 _atom_site_fract_y
 _atom_site_fract_z
 _atom_site_occupancy
  K  K0  1  0.50033300  0.69823900  0.64369300  1
  K  K1  1  0.24805800  0.22007900  0.13744200  1
  K  K2  1  0.00033300  0.30176100  0.85630700  1
  K  K3  1  0.74805800  0.77992100  0.36255800  1
  K  K4  1  0.25194200  0.22007900  0.63744200  1
  K  K5  1  0.99966700  0.69823900  0.14369300  1
  K  K6  1  0.75194200  0.77992100  0.86255800  1
  K  K7  1  0.49966700  0.30176100  0.35630700  1
  Li  Li8  1  0.24661900  0.61467800  0.81106700  1
  Li  Li9  1  0.98698300  0.65438400  0.56731400  1
  Li  Li10  1  0.48698300  0.34561600  0.93268600  1
  Li  Li11  1  0.74661900  0.38532200  0.68893300  1
  Li  Li12  1  0.25338100  0.61467800  0.31106700  1
  Li  Li13  1  0.51301700  0.65438400  0.06731400  1
  Li  Li14  1  0.01301700  0.34561600  0.43268600  1
  Li  Li15  1  0.75338100  0.38532200  0.18893300  1
  Ni  Ni16  1  0.21470000  0.88007300  0.44979000  1
  Ni  Ni17  1  0.71470000  0.11992700  0.05021000  1
  Ni  Ni18  1  0.28530000  0.88007300  0.94979000  1
  Ni  Ni19  1  0.78530000  0.11992700  0.55021000  1
  O  O20  1  0.18843900  0.72620400  0.62656000  1
  O  O21  1  0.79636200  0.76516200  0.61327400  1
  O  O22  1  0.57211000  0.27361900  0.11581300  1
  O  O23  1  0.88576400  0.23252100  0.09264800  1
  O  O24  1  0.29636200  0.23483800  0.88672600  1
  O  O25  1  0.68843900  0.27379600  0.87344000  1
  O  O26  1  0.38576400  0.76747900  0.40735200  1
  O  O27  1  0.07211000  0.72638100  0.38418700  1
  O  O28  1  0.92789000  0.27361900  0.61581300  1
  O  O29  1  0.61423600  0.23252100  0.59264800  1
  O  O30  1  0.31156100  0.72620400  0.12656000  1
  O  O31  1  0.70363800  0.76516200  0.11327400  1
  O  O32  1  0.11423600  0.76747900  0.90735200  1
  O  O33  1  0.42789000  0.72638100  0.88418700  1
  O  O34  1  0.20363800  0.23483800  0.38672600  1
  O  O35  1  0.81156100  0.27379600  0.37344000  1
