# generated using pymatgen
data_Li4Mn3WO8
_symmetry_space_group_name_H-M   'P 1'
_cell_length_a   6.09341430
_cell_length_b   6.09356837
_cell_length_c   10.78937017
_cell_angle_alpha   92.10348792
_cell_angle_beta   74.69597945
_cell_angle_gamma   62.12131353
_symmetry_Int_Tables_number   1
_chemical_formula_structural   Li4Mn3WO8
_chemical_formula_sum   'Li8 Mn6 W2 O16'
_cell_volume   335.48520391
_cell_formula_units_Z   2
loop_
 _symmetry_equiv_pos_site_id
 _symmetry_equiv_pos_as_xyz
  1  'x, y, z'
loop_
 _atom_site_type_symbol
 _atom_site_label
 _atom_site_symmetry_multiplicity
 _atom_site_fract_x
 _atom_site_fract_y
 _atom_site_fract_z
 _atom_site_occupancy
  Li  Li0  1  0.49992700  0.25007400  0.75000000  1
  Li  Li1  1  0.49992500  0.75007300  0.25000000  1
  Li  Li2  1  0.49998000  0.99995000  0.00000700  1
  Li  Li3  1  0.49998600  0.49994500  0.50000200  1
  Li  Li4  1  0.00006700  0.74992800  0.75000400  1
  Li  Li5  1  0.00007600  0.24992800  0.24999600  1
  Li  Li6  1  0.00005800  0.50001300  0.99999300  1
  Li  Li7  1  0.00005700  0.00001200  0.49999800  1
  Mn  Mn8  1  0.99881400  0.25092000  0.75042800  1
  Mn  Mn9  1  0.50035400  0.99964700  0.50000000  1
  Mn  Mn10  1  0.49950800  0.25075800  0.24957200  1
  Mn  Mn11  1  0.99884000  0.75089800  0.25041800  1
  Mn  Mn12  1  0.50035400  0.49965100  0.99999600  1
  Mn  Mn13  1  0.49950700  0.75074800  0.74958400  1
  W  W14  1  0.00020400  0.49979500  0.50000200  1
  W  W15  1  0.00020400  0.99979500  0.00000300  1
  O  O16  1  0.26049000  0.39106200  0.13034300  1
  O  O17  1  0.26049600  0.89102800  0.63036200  1
  O  O18  1  0.73929000  0.60916100  0.86965600  1
  O  O19  1  0.73934200  0.10913200  0.36963800  1
  O  O20  1  0.21654200  0.66060400  0.88688200  1
  O  O21  1  0.21652000  0.16062500  0.38687900  1
  O  O22  1  0.77402200  0.38182800  0.60771200  1
  O  O23  1  0.77404900  0.88180900  0.10770100  1
  O  O24  1  0.77394700  0.10249700  0.88705200  1
  O  O25  1  0.77398300  0.60247900  0.38703600  1
  O  O26  1  0.78457200  0.33897700  0.11294500  1
  O  O27  1  0.78457600  0.83895700  0.61296100  1
  O  O28  1  0.22586500  0.61828500  0.39228800  1
  O  O29  1  0.22587100  0.11827200  0.89229900  1
  O  O30  1  0.22629900  0.89656000  0.11311900  1
  O  O31  1  0.22627500  0.39658800  0.61312400  1
