# generated using pymatgen
data_Li4V2Cr3Sn3O16
_symmetry_space_group_name_H-M   'P 1'
_cell_length_a   6.09962717
_cell_length_b   6.09962717
_cell_length_c   9.63924380
_cell_angle_alpha   89.49260281
_cell_angle_beta   89.49260281
_cell_angle_gamma   60.35857093
_symmetry_Int_Tables_number   1
_chemical_formula_structural   Li4V2Cr3Sn3O16
_chemical_formula_sum   'Li4 V2 Cr3 Sn3 O16'
_cell_volume   311.68454451
_cell_formula_units_Z   1
loop_
 _symmetry_equiv_pos_site_id
 _symmetry_equiv_pos_as_xyz
  1  'x, y, z'
loop_
 _atom_site_type_symbol
 _atom_site_label
 _atom_site_symmetry_multiplicity
 _atom_site_fract_x
 _atom_site_fract_y
 _atom_site_fract_z
 _atom_site_occupancy
  Li  Li0  1  0.32944700  0.32944700  0.11254600  1
  Li  Li1  1  0.01291600  0.01291600  0.00932800  1
  Li  Li2  1  0.00697000  0.00697000  0.49868700  1
  Li  Li3  1  0.66504100  0.66504100  0.60130700  1
  V  V4  1  0.32290100  0.32290100  0.50285400  1
  V  V5  1  0.66134500  0.66134500  0.01532500  1
  Cr  Cr6  1  0.16959900  0.16959900  0.78545900  1
  Cr  Cr7  1  0.82267100  0.34401500  0.28503800  1
  Cr  Cr8  1  0.34401500  0.82267100  0.28503800  1
  Sn  Sn9  1  0.66183300  0.16937400  0.78635300  1
  Sn  Sn10  1  0.16937400  0.66183300  0.78635300  1
  Sn  Sn11  1  0.82961100  0.82961100  0.28598400  1
  O  O12  1  0.66594900  0.17085300  0.40634200  1
  O  O13  1  0.47853200  0.47853200  0.65059600  1
  O  O14  1  0.32838500  0.32838500  0.90130500  1
  O  O15  1  0.00524400  0.00524400  0.68381100  1
  O  O16  1  0.00547200  0.00547200  0.19469100  1
  O  O17  1  0.17085300  0.66594900  0.40634200  1
  O  O18  1  0.47280100  0.04358200  0.65468100  1
  O  O19  1  0.04358200  0.47280100  0.65468100  1
  O  O20  1  0.83745300  0.83745300  0.90546000  1
  O  O21  1  0.17656200  0.17656200  0.40320000  1
  O  O22  1  0.95967800  0.51278700  0.15788000  1
  O  O23  1  0.51278700  0.95967800  0.15788000  1
  O  O24  1  0.66144500  0.66144500  0.39657900  1
  O  O25  1  0.83810300  0.32762500  0.89996100  1
  O  O26  1  0.51998200  0.51998200  0.16449400  1
  O  O27  1  0.32762500  0.83810300  0.89996100  1
