# generated using pymatgen
data_Li5Ti6FeO16
_symmetry_space_group_name_H-M   'P 1'
_cell_length_a   5.97180000
_cell_length_b   5.95629400
_cell_length_c   8.45482215
_cell_angle_alpha   89.67128089
_cell_angle_beta   90.00000000
_cell_angle_gamma   90.00000000
_symmetry_Int_Tables_number   1
_chemical_formula_structural   Li5Ti6FeO16
_chemical_formula_sum   'Li5 Ti6 Fe1 O16'
_cell_volume   300.73135386
_cell_formula_units_Z   1
loop_
 _symmetry_equiv_pos_site_id
 _symmetry_equiv_pos_as_xyz
  1  'x, y, z'
loop_
 _atom_site_type_symbol
 _atom_site_label
 _atom_site_symmetry_multiplicity
 _atom_site_fract_x
 _atom_site_fract_y
 _atom_site_fract_z
 _atom_site_occupancy
  Li  Li0  1  0.50000000  0.50256300  0.99869000  1
  Li  Li1  1  0.00000000  0.75997100  0.11772300  1
  Li  Li2  1  0.00000000  0.99524900  0.50159100  1
  Li  Li3  1  0.50000000  0.26289000  0.62230600  1
  Li  Li4  1  0.00000000  0.23415300  0.87901700  1
  Ti  Ti5  1  0.50000000  0.00638800  0.99181000  1
  Ti  Ti6  1  0.75873400  0.24850500  0.24646100  1
  Ti  Ti7  1  0.24126600  0.24850500  0.24646100  1
  Ti  Ti8  1  0.00000000  0.47864000  0.50528100  1
  Ti  Ti9  1  0.24861600  0.74852500  0.75837300  1
  Ti  Ti10  1  0.75138400  0.74852500  0.75837300  1
  Fe  Fe11  1  0.50000000  0.73718700  0.38417600  1
  O  O12  1  0.72618500  0.23582100  0.02320000  1
  O  O13  1  0.27381500  0.23582100  0.02320000  1
  O  O14  1  0.50000000  0.01139700  0.24772700  1
  O  O15  1  0.50000000  0.47591600  0.25184000  1
  O  O16  1  0.00000000  0.47691500  0.25809800  1
  O  O17  1  0.00000000  0.03849800  0.25228600  1
  O  O18  1  0.77054700  0.26868000  0.48080900  1
  O  O19  1  0.22945300  0.26868000  0.48080900  1
  O  O20  1  0.23733500  0.73786400  0.50971200  1
  O  O21  1  0.76266500  0.73786400  0.50971200  1
  O  O22  1  0.00000000  0.95759800  0.74279600  1
  O  O23  1  0.00000000  0.51870700  0.73709900  1
  O  O24  1  0.50000000  0.98455700  0.76232400  1
  O  O25  1  0.50000000  0.54183000  0.74970800  1
  O  O26  1  0.27059600  0.76937400  0.98020800  1
  O  O27  1  0.72940400  0.76937400  0.98020800  1
