# generated using pymatgen
data_Li5Mn2P2(CO7)2
_symmetry_space_group_name_H-M   'P 1'
_cell_length_a   6.44234900
_cell_length_b   8.51357500
_cell_length_c   10.09104096
_cell_angle_alpha   86.09875414
_cell_angle_beta   90.00000000
_cell_angle_gamma   90.00000000
_symmetry_Int_Tables_number   1
_chemical_formula_structural   Li5Mn2P2(CO7)2
_chemical_formula_sum   'Li10 Mn4 P4 C4 O28'
_cell_volume   552.18508071
_cell_formula_units_Z   2
loop_
 _symmetry_equiv_pos_site_id
 _symmetry_equiv_pos_as_xyz
  1  'x, y, z'
loop_
 _atom_site_type_symbol
 _atom_site_label
 _atom_site_symmetry_multiplicity
 _atom_site_fract_x
 _atom_site_fract_y
 _atom_site_fract_z
 _atom_site_occupancy
  Li  Li0  1  0.75000000  0.90298500  0.61713600  1
  Li  Li1  1  0.97990200  0.75229400  0.88074200  1
  Li  Li2  1  0.52009800  0.75229400  0.88074200  1
  Li  Li3  1  0.97930600  0.73832300  0.36404200  1
  Li  Li4  1  0.52069400  0.73832300  0.36404200  1
  Li  Li5  1  0.47930600  0.26167700  0.63595800  1
  Li  Li6  1  0.02069400  0.26167700  0.63595800  1
  Li  Li7  1  0.47990200  0.24770600  0.11925800  1
  Li  Li8  1  0.02009800  0.24770600  0.11925800  1
  Li  Li9  1  0.25000000  0.09701500  0.38286400  1
  Mn  Mn10  1  0.25000000  0.66134500  0.60736600  1
  Mn  Mn11  1  0.25000000  0.65881000  0.10137700  1
  Mn  Mn12  1  0.75000000  0.34119000  0.89862300  1
  Mn  Mn13  1  0.75000000  0.33865500  0.39263400  1
  P  P14  1  0.75000000  0.58574600  0.63887700  1
  P  P15  1  0.75000000  0.58161100  0.13674800  1
  P  P16  1  0.25000000  0.41838900  0.86325200  1
  P  P17  1  0.25000000  0.41425400  0.36112300  1
  C  C18  1  0.25000000  0.96418700  0.63944800  1
  C  C19  1  0.25000000  0.95351700  0.14629300  1
  C  C20  1  0.75000000  0.04648300  0.85370700  1
  C  C21  1  0.75000000  0.03581300  0.36055200  1
  O  O22  1  0.25000000  0.92409000  0.51684600  1
  O  O23  1  0.75000000  0.90385100  0.81483600  1
  O  O24  1  0.25000000  0.91983000  0.02554500  1
  O  O25  1  0.25000000  0.84801000  0.73276900  1
  O  O26  1  0.75000000  0.89282900  0.33177600  1
  O  O27  1  0.25000000  0.83498800  0.24012000  1
  O  O28  1  0.93627600  0.68803600  0.58557100  1
  O  O29  1  0.56372400  0.68803600  0.58557100  1
  O  O30  1  0.94010800  0.67358000  0.07928700  1
  O  O31  1  0.55989200  0.67358000  0.07928700  1
  O  O32  1  0.25000000  0.59146400  0.90519000  1
  O  O33  1  0.75000000  0.57021600  0.79296600  1
  O  O34  1  0.25000000  0.58066100  0.41368900  1
  O  O35  1  0.75000000  0.57277700  0.29186200  1
  O  O36  1  0.25000000  0.42722300  0.70813800  1
  O  O37  1  0.75000000  0.41933900  0.58631100  1
  O  O38  1  0.25000000  0.42978400  0.20703400  1
  O  O39  1  0.75000000  0.40853600  0.09481000  1
  O  O40  1  0.05989200  0.32642000  0.92071300  1
  O  O41  1  0.44010800  0.32642000  0.92071300  1
  O  O42  1  0.43627600  0.31196400  0.41442900  1
  O  O43  1  0.06372400  0.31196400  0.41442900  1
  O  O44  1  0.75000000  0.16501200  0.75988000  1
  O  O45  1  0.25000000  0.10717100  0.66822400  1
  O  O46  1  0.75000000  0.15199000  0.26723100  1
  O  O47  1  0.75000000  0.08017000  0.97445500  1
  O  O48  1  0.25000000  0.09614900  0.18516400  1
  O  O49  1  0.75000000  0.07591000  0.48315400  1
