# generated using pymatgen
data_LiMn3Al2(HO2)6
_symmetry_space_group_name_H-M   'P 1'
_cell_length_a   5.94454200
_cell_length_b   7.86961120
_cell_length_c   10.12209970
_cell_angle_alpha   109.40159869
_cell_angle_beta   90.42803128
_cell_angle_gamma   100.73146907
_symmetry_Int_Tables_number   1
_chemical_formula_structural   LiMn3Al2(HO2)6
_chemical_formula_sum   'Li2 Mn6 Al4 H12 O24'
_cell_volume   437.59353818
_cell_formula_units_Z   2
loop_
 _symmetry_equiv_pos_site_id
 _symmetry_equiv_pos_as_xyz
  1  'x, y, z'
loop_
 _atom_site_type_symbol
 _atom_site_label
 _atom_site_symmetry_multiplicity
 _atom_site_fract_x
 _atom_site_fract_y
 _atom_site_fract_z
 _atom_site_occupancy
  Li  Li0  1  0.65793600  0.15623700  0.50104600  1
  Li  Li1  1  0.34206400  0.84376300  0.49895400  1
  Mn  Mn2  1  0.66236500  0.16854100  0.00381700  1
  Mn  Mn3  1  0.33763500  0.83145900  0.99618300  1
  Mn  Mn4  1  0.50000000  0.50000000  0.00000000  1
  Mn  Mn5  1  0.16347400  0.16924600  0.00249500  1
  Mn  Mn6  1  0.83652600  0.83075400  0.99750500  1
  Mn  Mn7  1  0.00000000  0.50000000  0.00000000  1
  Al  Al8  1  0.50000000  0.50000000  0.50000000  1
  Al  Al9  1  0.16826000  0.16189400  0.50203700  1
  Al  Al10  1  0.00000000  0.50000000  0.50000000  1
  Al  Al11  1  0.83174000  0.83810600  0.49796300  1
  H  H12  1  0.74609500  0.48879100  0.70337200  1
  H  H13  1  0.60862200  0.84273700  0.29043300  1
  H  H14  1  0.74509300  0.51025600  0.28749200  1
  H  H15  1  0.39137800  0.15726300  0.70956700  1
  H  H16  1  0.59279300  0.80537300  0.70320600  1
  H  H17  1  0.40720700  0.19462700  0.29679400  1
  H  H18  1  0.25490700  0.48974400  0.71250800  1
  H  H19  1  0.07761200  0.86040200  0.29130300  1
  H  H20  1  0.25390500  0.51120900  0.29662800  1
  H  H21  1  0.92238800  0.13959800  0.70869700  1
  H  H22  1  0.06117700  0.80595200  0.69837500  1
  H  H23  1  0.93882300  0.19404800  0.30162500  1
  O  O24  1  0.59624800  0.90538100  0.89660000  1
  O  O25  1  0.76155800  0.55114300  0.89653000  1
  O  O26  1  0.73890100  0.45156200  0.60042000  1
  O  O27  1  0.61438300  0.88154600  0.39229700  1
  O  O28  1  0.70500100  0.42680000  0.11191100  1
  O  O29  1  0.76537100  0.55676800  0.39278400  1
  O  O30  1  0.38561700  0.11845400  0.60770300  1
  O  O31  1  0.42772400  0.23290500  0.90163100  1
  O  O32  1  0.58406400  0.75709400  0.60013900  1
  O  O33  1  0.41593600  0.24290600  0.39986100  1
  O  O34  1  0.57227600  0.76709500  0.09836900  1
  O  O35  1  0.40375200  0.09461900  0.10340000  1
  O  O36  1  0.29499900  0.57320000  0.88808900  1
  O  O37  1  0.23462900  0.44323200  0.60721600  1
  O  O38  1  0.09872000  0.89194100  0.89623000  1
  O  O39  1  0.26109900  0.54843800  0.39958000  1
  O  O40  1  0.23844200  0.44885700  0.10347000  1
  O  O41  1  0.08230100  0.90786200  0.39421800  1
  O  O42  1  0.92016600  0.23100700  0.90005900  1
  O  O43  1  0.91769900  0.09213800  0.60578200  1
  O  O44  1  0.04494600  0.75610700  0.59552800  1
  O  O45  1  0.95505400  0.24389300  0.40447200  1
  O  O46  1  0.90128000  0.10805900  0.10377000  1
  O  O47  1  0.07983400  0.76899300  0.09994100  1
