# generated using pymatgen
data_SrLiVPO6
_symmetry_space_group_name_H-M   'P 1'
_cell_length_a   10.84009200
_cell_length_b   5.42075400
_cell_length_c   8.36719532
_cell_angle_alpha   89.76177578
_cell_angle_beta   90.00000000
_cell_angle_gamma   90.00000000
_symmetry_Int_Tables_number   1
_chemical_formula_structural   SrLiVPO6
_chemical_formula_sum   'Sr4 Li4 V4 P4 O24'
_cell_volume   491.66446447
_cell_formula_units_Z   4
loop_
 _symmetry_equiv_pos_site_id
 _symmetry_equiv_pos_as_xyz
  1  'x, y, z'
loop_
 _atom_site_type_symbol
 _atom_site_label
 _atom_site_symmetry_multiplicity
 _atom_site_fract_x
 _atom_site_fract_y
 _atom_site_fract_z
 _atom_site_occupancy
  Sr  Sr0  1  0.27233800  0.31904700  0.11295800  1
  Sr  Sr1  1  0.22766200  0.31904700  0.61295800  1
  Sr  Sr2  1  0.77233800  0.68095300  0.38704200  1
  Sr  Sr3  1  0.72766200  0.68095300  0.88704200  1
  Li  Li4  1  0.98328100  0.31363200  0.37369400  1
  Li  Li5  1  0.51671900  0.31363200  0.87369400  1
  Li  Li6  1  0.48328100  0.68636800  0.12630600  1
  Li  Li7  1  0.01671900  0.68636800  0.62630600  1
  V  V8  1  0.91017200  0.14005300  0.08184400  1
  V  V9  1  0.58982800  0.14005300  0.58184400  1
  V  V10  1  0.41017200  0.85994700  0.41815600  1
  V  V11  1  0.08982800  0.85994700  0.91815600  1
  P  P12  1  0.60893300  0.17573300  0.19809300  1
  P  P13  1  0.89106700  0.17573300  0.69809300  1
  P  P14  1  0.10893300  0.82426700  0.30190700  1
  P  P15  1  0.39106700  0.82426700  0.80190700  1
  O  O16  1  0.87367300  0.39434300  0.19802300  1
  O  O17  1  0.62632700  0.39434300  0.69802300  1
  O  O18  1  0.59652000  0.39669400  0.08052100  1
  O  O19  1  0.90348000  0.39669400  0.58052100  1
  O  O20  1  0.64500800  0.27830900  0.36494800  1
  O  O21  1  0.85499200  0.27830900  0.86494800  1
  O  O22  1  0.07743100  0.17295500  0.02097200  1
  O  O23  1  0.42256900  0.17295500  0.52097200  1
  O  O24  1  0.48073000  0.03797700  0.20113300  1
  O  O25  1  0.01927000  0.03797700  0.70113300  1
  O  O26  1  0.20910600  0.01256900  0.36055900  1
  O  O27  1  0.70910600  0.98743100  0.13944100  1
  O  O28  1  0.29089400  0.01256900  0.86055900  1
  O  O29  1  0.79089400  0.98743100  0.63944100  1
  O  O30  1  0.98073000  0.96202300  0.29886700  1
  O  O31  1  0.51927000  0.96202300  0.79886700  1
  O  O32  1  0.57743100  0.82704500  0.47902800  1
  O  O33  1  0.92256900  0.82704500  0.97902800  1
  O  O34  1  0.14500800  0.72169100  0.13505200  1
  O  O35  1  0.35499200  0.72169100  0.63505200  1
  O  O36  1  0.09652000  0.60330600  0.41947900  1
  O  O37  1  0.40348000  0.60330600  0.91947900  1
  O  O38  1  0.37367300  0.60565700  0.30197700  1
  O  O39  1  0.12632700  0.60565700  0.80197700  1
