# generated using pymatgen
data_Li3MnV(PO4)3
_symmetry_space_group_name_H-M   'P 1'
_cell_length_a   9.86304368
_cell_length_b   9.86304368
_cell_length_c   9.80810726
_cell_angle_alpha   86.76591468
_cell_angle_beta   86.76591468
_cell_angle_gamma   85.09616720
_symmetry_Int_Tables_number   1
_chemical_formula_structural   Li3MnV(PO4)3
_chemical_formula_sum   'Li12 Mn4 V4 P12 O48'
_cell_volume   947.84511556
_cell_formula_units_Z   4
loop_
 _symmetry_equiv_pos_site_id
 _symmetry_equiv_pos_as_xyz
  1  'x, y, z'
loop_
 _atom_site_type_symbol
 _atom_site_label
 _atom_site_symmetry_multiplicity
 _atom_site_fract_x
 _atom_site_fract_y
 _atom_site_fract_z
 _atom_site_occupancy
  Li  Li0  1  0.98809400  0.51321700  0.24697600  1
  Li  Li1  1  0.02306800  0.25044100  0.38664200  1
  Li  Li2  1  0.77475600  0.56360500  0.46745400  1
  Li  Li3  1  0.77194200  0.73458700  0.17992600  1
  Li  Li4  1  0.74955900  0.97693200  0.61335800  1
  Li  Li5  1  0.62741600  0.74910700  0.80909500  1
  Li  Li6  1  0.48678300  0.01190600  0.75302400  1
  Li  Li7  1  0.43639500  0.22524400  0.53254600  1
  Li  Li8  1  0.30828900  0.91923800  0.97996500  1
  Li  Li9  1  0.26541300  0.22805800  0.82007400  1
  Li  Li10  1  0.25089300  0.37258400  0.19090500  1
  Li  Li11  1  0.08076200  0.69171100  0.02003500  1
  Mn  Mn12  1  0.46635500  0.53364500  0.50000000  1
  Mn  Mn13  1  0.25718500  0.97355500  0.27757300  1
  Mn  Mn14  1  0.24375000  0.75625000  0.50000000  1
  Mn  Mn15  1  0.02644500  0.74281500  0.72242700  1
  V  V16  1  0.97201100  0.24753700  0.78232000  1
  V  V17  1  0.75270800  0.24729200  0.00000000  1
  V  V18  1  0.75246300  0.02798900  0.21768000  1
  V  V19  1  0.52824100  0.47175900  0.00000000  1
  P  P20  1  0.94649200  0.81667500  0.40547500  1
  P  P21  1  0.82733400  0.94632900  0.90303900  1
  P  P22  1  0.84038400  0.54824900  0.93171500  1
  P  P23  1  0.67581500  0.34071600  0.30173700  1
  P  P24  1  0.65928400  0.32418500  0.69826300  1
  P  P25  1  0.55609100  0.83750700  0.42532100  1
  P  P26  1  0.45175100  0.15961600  0.06828500  1
  P  P27  1  0.35013700  0.68777800  0.80050000  1
  P  P28  1  0.31222200  0.64986300  0.19950000  1
  P  P29  1  0.16249300  0.44390900  0.57467900  1
  P  P30  1  0.18332500  0.05350800  0.59452500  1
  P  P31  1  0.05367100  0.17266600  0.09696100  1
  O  O32  1  0.96778000  0.87257100  0.87005000  1
  O  O33  1  0.90735400  0.82423100  0.55925500  1
  O  O34  1  0.88374800  0.61174500  0.79405800  1
  O  O35  1  0.89048000  0.95334200  0.33393500  1
  O  O36  1  0.89519800  0.69241900  0.34225600  1
  O  O37  1  0.87484700  0.38947100  0.92893000  1
  O  O38  1  0.90219400  0.60153500  0.05626300  1
  O  O39  1  0.89399700  0.16329900  0.12480100  1
  O  O40  1  0.83670100  0.10600300  0.87519900  1
  O  O41  1  0.81736800  0.31083000  0.67375800  1
  O  O42  1  0.79138600  0.91027500  0.05742900  1
  O  O43  1  0.79911600  0.40559300  0.34838900  1
  O  O44  1  0.71497500  0.91229900  0.81314600  1
  O  O45  1  0.67812800  0.58011300  0.94692500  1
  O  O46  1  0.68917000  0.18263200  0.32624200  1
  O  O47  1  0.66723700  0.37741400  0.13839800  1
  O  O48  1  0.63271600  0.87910900  0.28820400  1
  O  O49  1  0.59729600  0.90459800  0.55057400  1
  O  O50  1  0.62258600  0.33276300  0.86160200  1
  O  O51  1  0.61244800  0.46267600  0.63081700  1
  O  O52  1  0.58910000  0.67652700  0.43894200  1
  O  O53  1  0.59440700  0.20088400  0.65161100  1
  O  O54  1  0.61052900  0.12515300  0.07107000  1
  O  O55  1  0.53732400  0.38755200  0.36918300  1
  O  O56  1  0.42676000  0.80724500  0.84149200  1
  O  O57  1  0.44982000  0.58105200  0.13945300  1
  O  O58  1  0.41894800  0.55018000  0.86054700  1
  O  O59  1  0.39953900  0.87362400  0.40943400  1
  O  O60  1  0.37180200  0.67563000  0.64090400  1
  O  O61  1  0.39846500  0.09780600  0.94373700  1
  O  O62  1  0.41988700  0.32187200  0.05307500  1
  O  O63  1  0.38825500  0.11625200  0.20594200  1
  O  O64  1  0.32437000  0.62819800  0.35909600  1
  O  O65  1  0.30137300  0.80059500  0.14959100  1
  O  O66  1  0.32347300  0.41090000  0.56105800  1
  O  O67  1  0.30758100  0.10480200  0.65774400  1
  O  O68  1  0.19940500  0.69862700  0.85040900  1
  O  O69  1  0.18181100  0.89461500  0.62440200  1
  O  O70  1  0.19275500  0.57324000  0.15850800  1
  O  O71  1  0.17576900  0.09264600  0.44074500  1
  O  O72  1  0.12637600  0.60046100  0.59056600  1
  O  O73  1  0.10538500  0.81818900  0.37559800  1
  O  O74  1  0.12089100  0.36728400  0.71179600  1
  O  O75  1  0.08972500  0.20861400  0.94257100  1
  O  O76  1  0.09540200  0.40270400  0.44942600  1
  O  O77  1  0.12742900  0.03222000  0.12995000  1
  O  O78  1  0.08770100  0.28502500  0.18685400  1
  O  O79  1  0.04665800  0.10952000  0.66606500  1
