# generated using pymatgen
data_LiMnF3
_symmetry_space_group_name_H-M   'P 1'
_cell_length_a   10.66651490
_cell_length_b   10.66651490
_cell_length_c   10.66651490
_cell_angle_alpha   109.72241793
_cell_angle_beta   109.72241793
_cell_angle_gamma   108.96998576
_symmetry_Int_Tables_number   1
_chemical_formula_structural   LiMnF3
_chemical_formula_sum   'Li16 Mn16 F48'
_cell_volume   934.15907962
_cell_formula_units_Z   16
loop_
 _symmetry_equiv_pos_site_id
 _symmetry_equiv_pos_as_xyz
  1  'x, y, z'
loop_
 _atom_site_type_symbol
 _atom_site_label
 _atom_site_symmetry_multiplicity
 _atom_site_fract_x
 _atom_site_fract_y
 _atom_site_fract_z
 _atom_site_occupancy
  Li  Li0  1  0.74864300  0.87196500  0.37136500  1
  Li  Li1  1  0.37500000  0.62500000  0.25000000  1
  Li  Li2  1  0.62196500  0.75060000  0.62332200  1
  Li  Li3  1  0.87500000  0.62500000  0.25000000  1
  Li  Li4  1  0.75000000  0.25000000  0.50000000  1
  Li  Li5  1  0.37500000  0.62500000  0.75000000  1
  Li  Li6  1  0.25000000  0.75000000  0.50000000  1
  Li  Li7  1  0.12727800  0.99864300  0.37667800  1
  Li  Li8  1  0.24940000  0.87272200  0.87136500  1
  Li  Li9  1  0.37500000  0.12500000  0.75000000  1
  Li  Li10  1  0.50060000  0.37727800  0.62863500  1
  Li  Li11  1  0.62272200  0.25135700  0.12332200  1
  Li  Li12  1  0.00000000  0.00000000  0.00000000  1
  Li  Li13  1  0.50000000  0.50000000  0.00000000  1
  Li  Li14  1  0.12803500  0.49940000  0.87667800  1
  Li  Li15  1  0.00135700  0.37803500  0.12863500  1
  Mn  Mn16  1  0.74466900  0.74466900  0.00000000  1
  Mn  Mn17  1  0.37500000  0.12500000  0.25000000  1
  Mn  Mn18  1  0.49466900  0.99466900  0.50000000  1
  Mn  Mn19  1  0.63339200  0.52168100  0.36591400  1
  Mn  Mn20  1  0.59423300  0.98252100  0.86591400  1
  Mn  Mn21  1  0.73252100  0.36660800  0.88828900  1
  Mn  Mn22  1  0.27168100  0.40576700  0.38828900  1
  Mn  Mn23  1  0.87500000  0.12500000  0.25000000  1
  Mn  Mn24  1  0.87500000  0.62500000  0.75000000  1
  Mn  Mn25  1  0.47831900  0.84423300  0.11171100  1
  Mn  Mn26  1  0.01747900  0.88339200  0.61171100  1
  Mn  Mn27  1  0.15576700  0.26747900  0.63408600  1
  Mn  Mn28  1  0.11660800  0.72831900  0.13408600  1
  Mn  Mn29  1  0.00533100  0.50533100  0.50000000  1
  Mn  Mn30  1  0.87500000  0.12500000  0.75000000  1
  Mn  Mn31  1  0.25533100  0.25533100  0.00000000  1
  F  F32  1  0.79974300  0.72682900  0.38511400  1
  F  F33  1  0.78254300  0.71533600  0.61823100  1
  F  F34  1  0.29058300  0.75726100  0.34492100  1
  F  F35  1  0.55664000  0.08258700  0.34551100  1
  F  F36  1  0.57974600  0.76097200  0.77934200  1
  F  F37  1  0.65097700  0.94102600  0.64751000  1
  F  F38  1  0.29351700  0.00346700  0.35249000  1
  F  F39  1  0.05433900  0.70941700  0.46667800  1
  F  F40  1  0.50726100  0.66234000  0.96667800  1
  F  F41  1  0.98163000  0.80040400  0.22065800  1
  F  F42  1  0.73707600  0.21112900  0.65448900  1
  F  F43  1  0.83258700  0.98707600  0.02594600  1
  F  F44  1  0.78887100  0.44336000  0.52594600  1
  F  F45  1  0.41234000  0.94566100  0.65507900  1
  F  F46  1  0.40828400  0.83537000  0.88511400  1
  F  F47  1  0.46533600  0.34710500  0.43279300  1
  F  F48  1  0.83568900  0.21745700  0.93279300  1
  F  F49  1  0.75346700  0.90097700  0.20995100  1
  F  F50  1  0.05897400  0.70648300  0.70995100  1
  F  F51  1  0.55040400  0.82974600  0.31877400  1
  F  F52  1  0.23902800  0.01837000  0.81877400  1
  F  F53  1  0.09710500  0.16431100  0.38176900  1
  F  F54  1  0.16463000  0.04974300  0.57291400  1
  F  F55  1  0.27317100  0.65828400  0.07291400  1
  F  F56  1  0.47682900  0.59171600  0.42708600  1
  F  F57  1  0.58537000  0.20025700  0.92708600  1
  F  F58  1  0.65289500  0.08568900  0.11823100  1
  F  F59  1  0.19959600  0.42025400  0.18122600  1
  F  F60  1  0.51097200  0.23163000  0.68122600  1
  F  F61  1  0.69102600  0.54351700  0.79004900  1
  F  F62  1  0.99653200  0.34902300  0.29004900  1
  F  F63  1  0.28466400  0.90289500  0.06720700  1
  F  F64  1  0.91431100  0.03254300  0.56720700  1
  F  F65  1  0.34171600  0.41463000  0.61488600  1
  F  F66  1  0.33766000  0.30433900  0.84492100  1
  F  F67  1  0.91741300  0.26292400  0.47405400  1
  F  F68  1  0.96112900  0.80664000  0.97405400  1
  F  F69  1  0.01292400  0.03887100  0.84551100  1
  F  F70  1  0.76837000  0.44959600  0.27934200  1
  F  F71  1  0.69566100  0.54058300  0.03332200  1
  F  F72  1  0.24273900  0.58766000  0.53332200  1
  F  F73  1  0.45648300  0.24653300  0.14751000  1
  F  F74  1  0.09902300  0.30897400  0.85249000  1
  F  F75  1  0.17025400  0.48902800  0.72065800  1
  F  F76  1  0.19336000  0.16741300  0.15448900  1
  F  F77  1  0.45941700  0.49273900  0.15507900  1
  F  F78  1  0.96745700  0.53466400  0.88176900  1
  F  F79  1  0.95025700  0.52317100  0.11488600  1
