# generated using pymatgen
data_Na9LiFe10(SiO3)20
_symmetry_space_group_name_H-M   'P 1'
_cell_length_a   9.80861900
_cell_length_b   10.38370195
_cell_length_c   11.25028302
_cell_angle_alpha   94.86315076
_cell_angle_beta   98.25649128
_cell_angle_gamma   99.11177322
_symmetry_Int_Tables_number   1
_chemical_formula_structural   Na9LiFe10(SiO3)20
_chemical_formula_sum   'Na9 Li1 Fe10 Si20 O60'
_cell_volume   1112.85469689
_cell_formula_units_Z   1
loop_
 _symmetry_equiv_pos_site_id
 _symmetry_equiv_pos_as_xyz
  1  'x, y, z'
loop_
 _atom_site_type_symbol
 _atom_site_label
 _atom_site_symmetry_multiplicity
 _atom_site_fract_x
 _atom_site_fract_y
 _atom_site_fract_z
 _atom_site_occupancy
  Na  Na0  1  0.99066300  0.71268700  0.98135100  1
  Na  Na1  1  0.80938500  0.48738100  0.61874200  1
  Na  Na2  1  0.79069400  0.91260400  0.58134100  1
  Na  Na3  1  0.60950000  0.68748300  0.21865500  1
  Na  Na4  1  0.39055200  0.31263100  0.78128000  1
  Na  Na5  1  0.20928700  0.08736400  0.41863700  1
  Na  Na6  1  0.40928700  0.88742000  0.81876000  1
  Na  Na7  1  0.19057100  0.51243200  0.38118600  1
  Na  Na8  1  0.00943600  0.28734200  0.01872500  1
  Li  Li9  1  0.59274600  0.12101700  0.18550600  1
  Fe  Fe10  1  0.87008800  0.23085200  0.74054200  1
  Fe  Fe11  1  0.92966300  0.96905600  0.85973000  1
  Fe  Fe12  1  0.72957200  0.16864000  0.45862800  1
  Fe  Fe13  1  0.67014100  0.43063000  0.34028700  1
  Fe  Fe14  1  0.52954400  0.36810500  0.05973500  1
  Fe  Fe15  1  0.47033300  0.63113100  0.94071200  1
  Fe  Fe16  1  0.32974400  0.56901600  0.65950900  1
  Fe  Fe17  1  0.27044200  0.83110000  0.54031800  1
  Fe  Fe18  1  0.07020400  0.03080200  0.14039700  1
  Fe  Fe19  1  0.12986700  0.76915500  0.25939700  1
  Si  Si20  1  0.92433600  0.27558000  0.26860600  1
  Si  Si21  1  0.86081500  0.51863600  0.14056100  1
  Si  Si22  1  0.93906800  0.68115000  0.45946600  1
  Si  Si23  1  0.87472900  0.92353000  0.33083700  1
  Si  Si24  1  0.73865900  0.88166500  0.06027200  1
  Si  Si25  1  0.72535800  0.47647900  0.86930500  1
  Si  Si26  1  0.67409600  0.12318200  0.93228400  1
  Si  Si27  1  0.66086300  0.71875100  0.74042400  1
  Si  Si28  1  0.53922200  0.08144900  0.66005400  1
  Si  Si29  1  0.52536000  0.67667100  0.46904000  1
  Si  Si30  1  0.47474500  0.32358400  0.53061100  1
  Si  Si31  1  0.46164400  0.91962600  0.33916700  1
  Si  Si32  1  0.33960500  0.28025200  0.25928100  1
  Si  Si33  1  0.32606700  0.87720300  0.06917500  1
  Si  Si34  1  0.27485300  0.52351700  0.13073000  1
  Si  Si35  1  0.26084300  0.11878400  0.94035800  1
  Si  Si36  1  0.12531300  0.07642200  0.66927200  1
  Si  Si37  1  0.06067300  0.31864900  0.54033700  1
  Si  Si38  1  0.13910200  0.48129000  0.85957100  1
  Si  Si39  1  0.07464500  0.72358900  0.73066400  1
  O  O40  1  0.94838000  0.15595400  0.17620700  1
  O  O41  1  0.94975900  0.40847500  0.19595700  1
  O  O42  1  0.97111500  0.06453100  0.71270200  1
  O  O43  1  0.95015100  0.66495900  0.18100500  1
  O  O44  1  0.85242700  0.04379700  0.42379600  1
  O  O45  1  0.90261200  0.29121500  0.57586600  1
  O  O46  1  0.89662000  0.90886700  0.02398700  1
  O  O47  1  0.95247000  0.70171100  0.60940800  1
  O  O48  1  0.84981400  0.53462000  0.41886200  1
  O  O49  1  0.76820800  0.26117200  0.30925100  1
  O  O50  1  0.82804100  0.13564000  0.88796200  1
  O  O51  1  0.84987300  0.79118600  0.40434000  1
  O  O52  1  0.65079800  0.24141400  0.02718300  1
  O  O53  1  0.84738300  0.49788900  0.99059700  1
  O  O54  1  0.70267700  0.49115000  0.17615200  1
  O  O55  1  0.69680900  0.10864200  0.62353500  1
  O  O56  1  0.75268000  0.90143400  0.21000600  1
  O  O57  1  0.74793400  0.35611700  0.77662400  1
  O  O58  1  0.64983500  0.73515800  0.01899300  1
  O  O59  1  0.75010100  0.60871500  0.79577600  1
  O  O60  1  0.62900100  0.33561800  0.48724000  1
  O  O61  1  0.64903500  0.99198300  0.00676900  1
  O  O62  1  0.75000700  0.86514700  0.78102600  1
  O  O63  1  0.55118900  0.06655300  0.37683000  1
  O  O64  1  0.64742300  0.69818500  0.59040200  1
  O  O65  1  0.49810300  0.30412600  0.22341300  1
  O  O66  1  0.55281700  0.10218200  0.81013400  1
  O  O67  1  0.54790400  0.55612200  0.37636700  1
  O  O68  1  0.55008900  0.80924500  0.39555700  1
  O  O69  1  0.57135000  0.46387700  0.91281800  1
  O  O70  1  0.42904300  0.53537700  0.08750300  1
  O  O71  1  0.45000400  0.19125800  0.60413300  1
  O  O72  1  0.45206200  0.44378000  0.62335500  1
  O  O73  1  0.44913000  0.90059100  0.18953100  1
  O  O74  1  0.50286300  0.69117000  0.77599200  1
  O  O75  1  0.35284000  0.30182400  0.40924100  1
  O  O76  1  0.44997900  0.93515900  0.61914900  1
  O  O77  1  0.24923800  0.13453700  0.21906300  1
  O  O78  1  0.34988600  0.00883800  0.99513900  1
  O  O79  1  0.37124300  0.66451200  0.51251400  1
  O  O80  1  0.25121000  0.39112900  0.20428500  1
  O  O81  1  0.34981000  0.26530200  0.98076200  1
  O  O82  1  0.25215600  0.64375400  0.22346900  1
  O  O83  1  0.24745000  0.09823400  0.79038400  1
  O  O84  1  0.30382000  0.89175400  0.37571700  1
  O  O85  1  0.29711500  0.50877600  0.82397800  1
  O  O86  1  0.15257200  0.50178700  0.00954300  1
  O  O87  1  0.34808100  0.75625600  0.97678000  1
  O  O88  1  0.15002900  0.20868200  0.59565200  1
  O  O89  1  0.17173500  0.86449600  0.11271800  1
  O  O90  1  0.22881200  0.73555600  0.68731000  1
  O  O91  1  0.15012800  0.46493200  0.58084300  1
  O  O92  1  0.04607800  0.29807900  0.39032400  1
  O  O93  1  0.10275700  0.09125500  0.97588700  1
  O  O94  1  0.09717700  0.70879100  0.42394100  1
  O  O95  1  0.14797400  0.95615800  0.57654800  1
  O  O96  1  0.04975900  0.33491900  0.81896800  1
  O  O97  1  0.02889800  0.93543200  0.28749300  1
  O  O98  1  0.04987300  0.59128700  0.80418900  1
  O  O99  1  0.05195900  0.84382900  0.82337300  1
