# generated using pymatgen
data_Li4P5HO15
_symmetry_space_group_name_H-M   'P 1'
_cell_length_a   6.72345400
_cell_length_b   7.34789540
_cell_length_c   11.54445696
_cell_angle_alpha   72.69883296
_cell_angle_beta   83.29545405
_cell_angle_gamma   85.40146526
_symmetry_Int_Tables_number   1
_chemical_formula_structural   Li4P5HO15
_chemical_formula_sum   'Li8 P10 H2 O30'
_cell_volume   540.18316505
_cell_formula_units_Z   2
loop_
 _symmetry_equiv_pos_site_id
 _symmetry_equiv_pos_as_xyz
  1  'x, y, z'
loop_
 _atom_site_type_symbol
 _atom_site_label
 _atom_site_symmetry_multiplicity
 _atom_site_fract_x
 _atom_site_fract_y
 _atom_site_fract_z
 _atom_site_occupancy
  Li  Li0  1  0.31344500  0.31121400  0.73631800  1
  Li  Li1  1  0.42485400  0.39653800  0.17612100  1
  Li  Li2  1  0.27906400  0.28756500  0.98808300  1
  Li  Li3  1  0.38524800  0.36124400  0.44487900  1
  Li  Li4  1  0.61475200  0.63875600  0.55512100  1
  Li  Li5  1  0.72093600  0.71243500  0.01191700  1
  Li  Li6  1  0.57514600  0.60346200  0.82387900  1
  Li  Li7  1  0.68655500  0.68878600  0.26368200  1
  P  P8  1  0.07249000  0.65622000  0.83016200  1
  P  P9  1  0.20064000  0.75958700  0.22718400  1
  P  P10  1  0.14395100  0.72142100  0.56296300  1
  P  P11  1  0.39044500  0.97505600  0.35929100  1
  P  P12  1  0.29091400  0.87583800  0.95184800  1
  P  P13  1  0.70908600  0.12416200  0.04815200  1
  P  P14  1  0.60955500  0.02494400  0.64070900  1
  P  P15  1  0.85604900  0.27857900  0.43703700  1
  P  P16  1  0.79936000  0.24041300  0.77281600  1
  P  P17  1  0.92751000  0.34378000  0.16983800  1
  H  H18  1  0.04206700  0.29694900  0.57693500  1
  H  H19  1  0.95793300  0.70305100  0.42306500  1
  O  O20  1  0.00539600  0.28367500  0.70659200  1
  O  O21  1  0.05644400  0.30981100  0.48263500  1
  O  O22  1  0.13778300  0.39446100  0.12012800  1
  O  O23  1  0.16824900  0.83648900  0.08579000  1
  O  O24  1  0.07457100  0.77223400  0.68536800  1
  O  O25  1  0.11957000  0.83059300  0.87856100  1
  O  O26  1  0.21837800  0.92086400  0.47572200  1
  O  O27  1  0.27113500  0.95151500  0.25051300  1
  O  O28  1  0.23999500  0.50477700  0.84390900  1
  O  O29  1  0.30450700  0.56540200  0.57155100  1
  O  O30  1  0.36617500  0.60666900  0.25437600  1
  O  O31  1  0.42100400  0.18323900  0.33314700  1
  O  O32  1  0.32036400  0.08578800  0.90381000  1
  O  O33  1  0.53742700  0.26832300  0.04688300  1
  O  O34  1  0.43624200  0.16803700  0.61622000  1
  O  O35  1  0.56375800  0.83196300  0.38378000  1
  O  O36  1  0.46257300  0.73167700  0.95311700  1
  O  O37  1  0.67963600  0.91421200  0.09619000  1
  O  O38  1  0.57899600  0.81676100  0.66685300  1
  O  O39  1  0.63382500  0.39333100  0.74562400  1
  O  O40  1  0.69549300  0.43459800  0.42844900  1
  O  O41  1  0.76000500  0.49522300  0.15609100  1
  O  O42  1  0.72886500  0.04848500  0.74948700  1
  O  O43  1  0.78162200  0.07913600  0.52427800  1
  O  O44  1  0.88043000  0.16940700  0.12143900  1
  O  O45  1  0.92542900  0.22776600  0.31463200  1
  O  O46  1  0.83175100  0.16351100  0.91421000  1
  O  O47  1  0.86221700  0.60553900  0.87987200  1
  O  O48  1  0.94355600  0.69018900  0.51736500  1
  O  O49  1  0.99460400  0.71632500  0.29340800  1
