# generated using pymatgen
data_Li7Cr3Fe(PO4)6
_symmetry_space_group_name_H-M   'P 1'
_cell_length_a   8.71904132
_cell_length_b   8.71904132
_cell_length_c   8.71904105
_cell_angle_alpha   61.03661219
_cell_angle_beta   61.03661219
_cell_angle_gamma   61.03661200
_symmetry_Int_Tables_number   1
_chemical_formula_structural   Li7Cr3Fe(PO4)6
_chemical_formula_sum   'Li7 Cr3 Fe1 P6 O24'
_cell_volume   479.63707291
_cell_formula_units_Z   1
loop_
 _symmetry_equiv_pos_site_id
 _symmetry_equiv_pos_as_xyz
  1  'x, y, z'
loop_
 _atom_site_type_symbol
 _atom_site_label
 _atom_site_symmetry_multiplicity
 _atom_site_fract_x
 _atom_site_fract_y
 _atom_site_fract_z
 _atom_site_occupancy
  Li  Li0  1  0.21238400  0.72839500  0.39227200  1
  Li  Li1  1  0.39227200  0.21238400  0.72839500  1
  Li  Li2  1  0.23803600  0.64243100  0.81356200  1
  Li  Li3  1  0.98163600  0.98163600  0.98163600  1
  Li  Li4  1  0.72839500  0.39227200  0.21238400  1
  Li  Li5  1  0.64243100  0.81356200  0.23803600  1
  Li  Li6  1  0.81356200  0.23803600  0.64243100  1
  Cr  Cr7  1  0.14204400  0.14204400  0.14204400  1
  Cr  Cr8  1  0.64454600  0.64454600  0.64454600  1
  Cr  Cr9  1  0.35462500  0.35462500  0.35462500  1
  Fe  Fe10  1  0.84844100  0.84844100  0.84844100  1
  P  P11  1  0.04602100  0.45319300  0.74838200  1
  P  P12  1  0.45319300  0.74838200  0.04602100  1
  P  P13  1  0.74838200  0.04602100  0.45319300  1
  P  P14  1  0.25147600  0.95932300  0.54168900  1
  P  P15  1  0.54168900  0.25147600  0.95932300  1
  P  P16  1  0.95932300  0.54168900  0.25147600  1
  O  O17  1  0.48994900  0.71020700  0.87588300  1
  O  O18  1  0.71020700  0.87588300  0.48994900  1
  O  O19  1  0.87588300  0.48994900  0.71020700  1
  O  O20  1  0.07857700  0.26255900  0.90542700  1
  O  O21  1  0.22966000  0.43617100  0.57875800  1
  O  O22  1  0.03467200  0.61138900  0.79040300  1
  O  O23  1  0.26255900  0.90542700  0.07857700  1
  O  O24  1  0.43617100  0.57875800  0.22966000  1
  O  O25  1  0.57875800  0.22966000  0.43617100  1
  O  O26  1  0.20943000  0.97413600  0.37859300  1
  O  O27  1  0.08722400  0.94003400  0.72564600  1
  O  O28  1  0.37859300  0.20943000  0.97413600  1
  O  O29  1  0.61138900  0.79040300  0.03467200  1
  O  O30  1  0.90542700  0.07857700  0.26255900  1
  O  O31  1  0.79040300  0.03467200  0.61138900  1
  O  O32  1  0.41302300  0.77006700  0.56889300  1
  O  O33  1  0.56889300  0.41302300  0.77006700  1
  O  O34  1  0.72564600  0.08722400  0.94003400  1
  O  O35  1  0.97413600  0.37859300  0.20943000  1
  O  O36  1  0.77006700  0.56889300  0.41302300  1
  O  O37  1  0.94003400  0.72564600  0.08722400  1
  O  O38  1  0.12273100  0.50169100  0.30033500  1
  O  O39  1  0.30033500  0.12273100  0.50169100  1
  O  O40  1  0.50169100  0.30033500  0.12273100  1
