# generated using pymatgen
data_Li2V2(SiO3)3
_symmetry_space_group_name_H-M   'P 1'
_cell_length_a   10.08846837
_cell_length_b   10.08846837
_cell_length_c   12.57626800
_cell_angle_alpha   90.00000000
_cell_angle_beta   90.00000000
_cell_angle_gamma   120.00000242
_symmetry_Int_Tables_number   1
_chemical_formula_structural   Li2V2(SiO3)3
_chemical_formula_sum   'Li12 V12 Si18 O54'
_cell_volume   1108.49280379
_cell_formula_units_Z   6
loop_
 _symmetry_equiv_pos_site_id
 _symmetry_equiv_pos_as_xyz
  1  'x, y, z'
loop_
 _atom_site_type_symbol
 _atom_site_label
 _atom_site_symmetry_multiplicity
 _atom_site_fract_x
 _atom_site_fract_y
 _atom_site_fract_z
 _atom_site_occupancy
  Li  Li0  1  0.47440500  0.63647800  0.18487600  1
  Li  Li1  1  0.62745600  0.49221100  0.01538400  1
  Li  Li2  1  0.50778900  0.13524400  0.68205000  1
  Li  Li3  1  0.36352200  0.83792700  0.85154300  1
  Li  Li4  1  0.86475600  0.37254400  0.34871700  1
  Li  Li5  1  0.49786400  0.69814300  0.67977600  1
  Li  Li6  1  0.67369700  0.99583200  0.74765200  1
  Li  Li7  1  0.16207300  0.52559500  0.51821000  1
  Li  Li8  1  0.20028000  0.50213600  0.01310900  1
  Li  Li9  1  0.00416800  0.67786500  0.41431800  1
  Li  Li10  1  0.32213500  0.32630300  0.08098500  1
  Li  Li11  1  0.30185700  0.79972000  0.34644200  1
  V  V12  1  0.66923400  0.49780500  0.49350700  1
  V  V13  1  0.50219500  0.17142900  0.16017300  1
  V  V14  1  0.82857100  0.33076600  0.82684000  1
  V  V15  1  0.67248500  0.99404200  0.24442000  1
  V  V16  1  0.70381800  0.00185400  0.00234300  1
  V  V17  1  0.82059200  0.82601400  0.83936400  1
  V  V18  1  0.00542200  0.17940800  0.17269700  1
  V  V19  1  0.32155600  0.32751500  0.57775300  1
  V  V20  1  0.29803600  0.29618200  0.33567600  1
  V  V21  1  0.99814600  0.70196400  0.66900900  1
  V  V22  1  0.00595800  0.67844400  0.91108600  1
  V  V23  1  0.17398600  0.99457800  0.50603100  1
  Si  Si24  1  0.46963200  0.62295700  0.91648900  1
  Si  Si25  1  0.62221000  0.48270200  0.76226900  1
  Si  Si26  1  0.51051100  0.18089900  0.90187500  1
  Si  Si27  1  0.67038800  0.48948900  0.23520800  1
  Si  Si28  1  0.37704300  0.84667500  0.58315600  1
  Si  Si29  1  0.51729800  0.13950900  0.42893600  1
  Si  Si30  1  0.50670400  0.67504500  0.43679800  1
  Si  Si31  1  0.81910100  0.32961200  0.56854200  1
  Si  Si32  1  0.86049100  0.37779000  0.09560200  1
  Si  Si33  1  0.95357200  0.16106800  0.44798900  1
  Si  Si34  1  0.80291800  0.85662300  0.57091000  1
  Si  Si35  1  0.15332500  0.53036800  0.24982300  1
  Si  Si36  1  0.16834100  0.49329600  0.77013100  1
  Si  Si37  1  0.05370500  0.19708200  0.90424400  1
  Si  Si38  1  0.83893200  0.79250300  0.11465600  1
  Si  Si39  1  0.20749700  0.04642800  0.78132300  1
  Si  Si40  1  0.14337700  0.94629500  0.23757700  1
  Si  Si41  1  0.32495500  0.83165900  0.10346500  1
  O  O42  1  0.42512100  0.48782300  0.43929000  1
  O  O43  1  0.42978000  0.55457000  0.03526000  1
  O  O44  1  0.52020000  0.51727800  0.84675400  1
  O  O45  1  0.48717900  0.36595800  0.23209300  1
  O  O46  1  0.39045100  0.19211800  0.44651400  1
  O  O47  1  0.35580600  0.04518400  0.84145200  1
  O  O48  1  0.55230700  0.45338800  0.64356400  1
  O  O49  1  0.47723200  0.25046100  0.00683700  1
  O  O50  1  0.68937800  0.64419400  0.17478500  1
  O  O51  1  0.59966800  0.31795500  0.80870300  1
  O  O52  1  0.48272200  0.00292200  0.51342100  1
  O  O53  1  0.77322900  0.52276800  0.34017000  1
  O  O54  1  0.44543000  0.87521000  0.70192600  1
  O  O55  1  0.54661200  0.09891900  0.31023100  1
  O  O56  1  0.80166600  0.60954900  0.77984700  1
  O  O57  1  0.71828700  0.40033200  0.14203600  1
  O  O58  1  0.63404200  0.12122100  0.89875900  1
  O  O59  1  0.51217700  0.93729700  0.10595600  1
  O  O60  1  0.40961300  0.71573500  0.52599400  1
  O  O61  1  0.68204500  0.28171300  0.47536900  1
  O  O62  1  0.52739800  0.76540900  0.32725900  1
  O  O63  1  0.74953900  0.22677100  0.67350400  1
  O  O64  1  0.87877900  0.51282100  0.56542600  1
  O  O65  1  0.90108100  0.44769300  0.97689800  1
  O  O66  1  0.59592500  0.80121100  0.89816800  1
  O  O67  1  0.80788200  0.19833400  0.11318000  1
  O  O68  1  0.99707800  0.47980000  0.18008700  1
  O  O69  1  0.95481600  0.31062200  0.50811900  1
  O  O70  1  0.67199700  0.71472800  0.49496600  1
  O  O71  1  0.06270300  0.57487900  0.77262300  1
  O  O72  1  0.89125800  0.15484200  0.32733000  1
  O  O73  1  0.72881000  0.84334400  0.68727900  1
  O  O74  1  0.12479000  0.57022000  0.36859300  1
  O  O75  1  0.82586800  0.01139800  0.51253900  1
  O  O76  1  0.81276000  0.93861000  0.13086700  1
  O  O77  1  0.88547400  0.04826400  0.89542500  1
  O  O78  1  0.04273100  0.32800300  0.82829900  1
  O  O79  1  0.84515800  0.73641600  0.99399700  1
  O  O80  1  0.11453400  0.27119000  0.02061300  1
  O  O81  1  0.23801200  0.47260200  0.66059200  1
  O  O82  1  0.20528600  0.40407500  0.23150100  1
  O  O83  1  0.95173600  0.83721100  0.56209100  1
  O  O84  1  0.12584900  0.18724000  0.46420000  1
  O  O85  1  0.30612200  0.59038700  0.85932800  1
  O  O86  1  0.98860200  0.81447000  0.17920600  1
  O  O87  1  0.18553000  0.17413200  0.84587200  1
  O  O88  1  0.16278900  0.11452600  0.22875800  1
  O  O89  1  0.06139000  0.87415100  0.79753300  1
  O  O90  1  0.15665600  0.88546600  0.35394600  1
  O  O91  1  0.26358400  0.10874200  0.66066400  1
  O  O92  1  0.19878900  0.79471400  0.56483500  1
  O  O93  1  0.28527200  0.95726900  0.16163300  1
  O  O94  1  0.23459100  0.76198800  0.99392600  1
  O  O95  1  0.28426500  0.69387800  0.19266100  1
