# generated using pymatgen
data_Li11V6O5F19
_symmetry_space_group_name_H-M   'P 1'
_cell_length_a   5.16283800
_cell_length_b   5.43925113
_cell_length_c   16.27456440
_cell_angle_alpha   99.30525989
_cell_angle_beta   90.40076761
_cell_angle_gamma   90.69236946
_symmetry_Int_Tables_number   1
_chemical_formula_structural   Li11V6O5F19
_chemical_formula_sum   'Li11 V6 O5 F19'
_cell_volume   450.95638867
_cell_formula_units_Z   1
loop_
 _symmetry_equiv_pos_site_id
 _symmetry_equiv_pos_as_xyz
  1  'x, y, z'
loop_
 _atom_site_type_symbol
 _atom_site_label
 _atom_site_symmetry_multiplicity
 _atom_site_fract_x
 _atom_site_fract_y
 _atom_site_fract_z
 _atom_site_occupancy
  Li  Li0  1  0.48370500  0.24323900  0.55855100  1
  Li  Li1  1  0.00845700  0.36685200  0.88919000  1
  Li  Li2  1  0.50778000  0.40753700  0.78201300  1
  Li  Li3  1  0.00039700  0.10194600  0.22954200  1
  Li  Li4  1  0.50792700  0.10618300  0.10467100  1
  Li  Li5  1  0.99608300  0.24667400  0.42904700  1
  Li  Li6  1  0.01127100  0.71679800  0.55658800  1
  Li  Li7  1  0.49796600  0.54726200  0.22298000  1
  Li  Li8  1  0.47508100  0.90527600  0.89100300  1
  Li  Li9  1  0.99861000  0.60420100  0.10737200  1
  Li  Li10  1  0.49940200  0.79443800  0.44177500  1
  V  V11  1  0.99354200  0.02884000  0.00356200  1
  V  V12  1  0.98400000  0.34770300  0.66455800  1
  V  V13  1  0.50169300  0.16679600  0.33436600  1
  V  V14  1  0.51949100  0.81966400  0.66595600  1
  V  V15  1  0.49596800  0.46570200  0.00165300  1
  V  V16  1  0.00285200  0.66826500  0.33426700  1
  O  O17  1  0.67851900  0.16870500  0.96692400  1
  O  O18  1  0.81014000  0.35153300  0.30973000  1
  O  O19  1  0.68860300  0.51152200  0.62981300  1
  O  O20  1  0.18911200  0.32162700  0.04217100  1
  O  O21  1  0.20137400  0.97846000  0.36359400  1
  F  F22  1  0.82681700  0.00245500  0.62420200  1
  F  F23  1  0.32916000  0.17594800  0.69164900  1
  F  F24  1  0.63918200  0.15420200  0.45153800  1
  F  F25  1  0.86098600  0.98400200  0.12004600  1
  F  F26  1  0.86514600  0.35008800  0.77851200  1
  F  F27  1  0.36547100  0.18272400  0.21877600  1
  F  F28  1  0.36139200  0.51328400  0.88553600  1
  F  F29  1  0.13076200  0.34688000  0.54825000  1
  F  F30  1  0.82321500  0.66930600  0.96983300  1
  F  F31  1  0.31571000  0.49495300  0.38135300  1
  F  F32  1  0.18560600  0.66366200  0.69586900  1
  F  F33  1  0.14134200  0.64685700  0.21913000  1
  F  F34  1  0.85894500  0.69096600  0.45058500  1
  F  F35  1  0.64928700  0.48364500  0.11851000  1
  F  F36  1  0.13672900  0.02669900  0.88960400  1
  F  F37  1  0.60097000  0.85407500  0.78123400  1
  F  F38  1  0.36473500  0.85109200  0.55364400  1
  F  F39  1  0.68389100  0.83578900  0.29063300  1
  F  F40  1  0.31563800  0.81691800  0.03764900  1
