# generated using pymatgen
data_Li10Mn3Cr5O16
_symmetry_space_group_name_H-M   'P 1'
_cell_length_a   5.99742700
_cell_length_b   6.03749453
_cell_length_c   9.86964589
_cell_angle_alpha   91.14494206
_cell_angle_beta   89.69592529
_cell_angle_gamma   119.57416551
_symmetry_Int_Tables_number   1
_chemical_formula_structural   Li10Mn3Cr5O16
_chemical_formula_sum   'Li10 Mn3 Cr5 O16'
_cell_volume   310.74836637
_cell_formula_units_Z   1
loop_
 _symmetry_equiv_pos_site_id
 _symmetry_equiv_pos_as_xyz
  1  'x, y, z'
loop_
 _atom_site_type_symbol
 _atom_site_label
 _atom_site_symmetry_multiplicity
 _atom_site_fract_x
 _atom_site_fract_y
 _atom_site_fract_z
 _atom_site_occupancy
  Li  Li0  1  0.17755800  0.79746000  0.05696700  1
  Li  Li1  1  0.65592600  0.33000500  0.77424700  1
  Li  Li2  1  0.38106800  0.19106300  0.55797500  1
  Li  Li3  1  0.33056900  0.66707800  0.27469900  1
  Li  Li4  1  0.79094000  0.59360100  0.55354500  1
  Li  Li5  1  0.58234800  0.80197200  0.04973500  1
  Li  Li6  1  0.79300900  0.17549900  0.55997800  1
  Li  Li7  1  0.18956000  0.39025500  0.05516100  1
  Li  Li8  1  0.98544600  0.97065200  0.48663600  1
  Li  Li9  1  0.98158300  0.98475600  0.99004900  1
  Mn  Mn10  1  0.32742600  0.15645000  0.28869300  1
  Mn  Mn11  1  0.14960300  0.31870000  0.78815700  1
  Mn  Mn12  1  0.82313500  0.15440800  0.28692200  1
  Cr  Cr13  1  0.81822900  0.64479100  0.28585400  1
  Cr  Cr14  1  0.32019600  0.64243800  0.53040500  1
  Cr  Cr15  1  0.64718400  0.31727400  0.02883500  1
  Cr  Cr16  1  0.15175400  0.81567900  0.78644700  1
  Cr  Cr17  1  0.64442500  0.81476100  0.78668300  1
  O  O18  1  0.14260100  0.79329100  0.40902500  1
  O  O19  1  0.81849000  0.65553300  0.90238500  1
  O  O20  1  0.47122200  0.96037800  0.66439000  1
  O  O21  1  0.51016800  0.49852600  0.15638000  1
  O  O22  1  0.65019300  0.80390600  0.41128300  1
  O  O23  1  0.31401000  0.14186200  0.91327700  1
  O  O24  1  0.00619300  0.50455200  0.65821700  1
  O  O25  1  0.32324300  0.66940300  0.90328400  1
  O  O26  1  0.64133000  0.32339600  0.40190200  1
  O  O27  1  0.96475900  0.48552000  0.15521800  1
  O  O28  1  0.48837200  0.50776100  0.66041000  1
  O  O29  1  0.48791200  0.01780900  0.15880700  1
  O  O30  1  0.80119700  0.13549900  0.91560300  1
  O  O31  1  0.16437600  0.30555300  0.41816800  1
  O  O32  1  0.97283400  0.96527800  0.67591600  1
  O  O33  1  0.00496300  0.97705400  0.18116300  1
