# generated using pymatgen
data_Li4VCr3O8
_symmetry_space_group_name_H-M   'P 1'
_cell_length_a   5.14756000
_cell_length_b   5.95200754
_cell_length_c   10.28912012
_cell_angle_alpha   89.76496591
_cell_angle_beta   99.69595812
_cell_angle_gamma   106.99927937
_symmetry_Int_Tables_number   1
_chemical_formula_structural   Li4VCr3O8
_chemical_formula_sum   'Li8 V2 Cr6 O16'
_cell_volume   296.82070002
_cell_formula_units_Z   2
loop_
 _symmetry_equiv_pos_site_id
 _symmetry_equiv_pos_as_xyz
  1  'x, y, z'
loop_
 _atom_site_type_symbol
 _atom_site_label
 _atom_site_symmetry_multiplicity
 _atom_site_fract_x
 _atom_site_fract_y
 _atom_site_fract_z
 _atom_site_occupancy
  Li  Li0  1  0.49998700  0.25031500  0.24889600  1
  Li  Li1  1  0.50203800  0.25150300  0.75064800  1
  Li  Li2  1  0.50000000  0.00000000  0.00000000  1
  Li  Li3  1  0.50000000  0.00000000  0.50000000  1
  Li  Li4  1  0.49796200  0.74849700  0.24935200  1
  Li  Li5  1  0.50001300  0.74968500  0.75110400  1
  Li  Li6  1  0.50000000  0.50000000  0.00000000  1
  Li  Li7  1  0.50000000  0.50000000  0.50000000  1
  V  V8  1  0.99975000  0.12250200  0.37637800  1
  V  V9  1  0.00025000  0.87749800  0.62362200  1
  Cr  Cr10  1  0.99980000  0.12589200  0.87485700  1
  Cr  Cr11  1  0.00020000  0.87410800  0.12514300  1
  Cr  Cr12  1  0.00029700  0.62607400  0.87507100  1
  Cr  Cr13  1  0.99961600  0.62206000  0.37444300  1
  Cr  Cr14  1  0.99970300  0.37392600  0.12492900  1
  Cr  Cr15  1  0.00038400  0.37794000  0.62555700  1
  O  O16  1  0.77458200  0.06675300  0.18953600  1
  O  O17  1  0.77273900  0.07246600  0.68989500  1
  O  O18  1  0.22491600  0.18156100  0.06064900  1
  O  O19  1  0.23166000  0.18709100  0.56224900  1
  O  O20  1  0.77508400  0.81843900  0.93935100  1
  O  O21  1  0.22541800  0.93324700  0.81046400  1
  O  O22  1  0.76834000  0.81290900  0.43775100  1
  O  O23  1  0.22726100  0.92753400  0.31010500  1
  O  O24  1  0.77465600  0.56667300  0.18900400  1
  O  O25  1  0.22467500  0.68119000  0.06035000  1
  O  O26  1  0.77513500  0.57024700  0.68956800  1
  O  O27  1  0.22769500  0.68104600  0.55881500  1
  O  O28  1  0.77532500  0.31881000  0.93965000  1
  O  O29  1  0.22534400  0.43332700  0.81099600  1
  O  O30  1  0.77230500  0.31895400  0.44118500  1
  O  O31  1  0.22486500  0.42975300  0.31043200  1
