# generated using pymatgen
data_Li4Sb2C4SO16
_symmetry_space_group_name_H-M   'P 1'
_cell_length_a   9.58041900
_cell_length_b   9.70195436
_cell_length_c   9.81322716
_cell_angle_alpha   115.58217280
_cell_angle_beta   116.77210025
_cell_angle_gamma   94.16677138
_symmetry_Int_Tables_number   1
_chemical_formula_structural   Li4Sb2C4SO16
_chemical_formula_sum   'Li8 Sb4 C8 S2 O32'
_cell_volume   692.91741732
_cell_formula_units_Z   2
loop_
 _symmetry_equiv_pos_site_id
 _symmetry_equiv_pos_as_xyz
  1  'x, y, z'
loop_
 _atom_site_type_symbol
 _atom_site_label
 _atom_site_symmetry_multiplicity
 _atom_site_fract_x
 _atom_site_fract_y
 _atom_site_fract_z
 _atom_site_occupancy
  Li  Li0  1  0.82500300  0.07047700  0.75001600  1
  Li  Li1  1  0.85278000  0.08017300  0.14107100  1
  Li  Li2  1  0.43183700  0.06433500  0.77791900  1
  Li  Li3  1  0.54531200  0.26876800  0.19426100  1
  Li  Li4  1  0.83185300  0.70116100  0.77239700  1
  Li  Li5  1  0.40422700  0.62599500  0.66428300  1
  Li  Li6  1  0.55861400  0.93904500  0.26708300  1
  Li  Li7  1  0.19911400  0.90913800  0.23524800  1
  Sb  Sb8  1  0.99094700  0.51107800  0.49822100  1
  Sb  Sb9  1  0.98684700  0.48960600  0.98780500  1
  Sb  Sb10  1  0.50793700  0.50759100  0.01881800  1
  Sb  Sb11  1  0.02441500  0.99119300  0.50657600  1
  C  C12  1  0.83839400  0.27366300  0.57581300  1
  C  C13  1  0.75798700  0.31029800  0.05270200  1
  C  C14  1  0.79838200  0.74419100  0.06664600  1
  C  C15  1  0.74247300  0.69821900  0.43683900  1
  C  C16  1  0.22446100  0.30396100  0.56875600  1
  C  C17  1  0.20976600  0.24628900  0.90919900  1
  C  C18  1  0.21528100  0.67744100  0.91896300  1
  C  C19  1  0.20040700  0.76227100  0.45673500  1
  S  S20  1  0.38614400  0.12804500  0.26599300  1
  S  S21  1  0.63171300  0.88426700  0.77149900  1
  O  O22  1  0.81578300  0.13670400  0.45386400  1
  O  O23  1  0.88665300  0.30598700  0.03953700  1
  O  O24  1  0.84153300  0.28801700  0.71742500  1
  O  O25  1  0.73565300  0.26195400  0.14606400  1
  O  O26  1  0.85593900  0.40609800  0.56973600  1
  O  O27  1  0.44109300  0.06097900  0.38770900  1
  O  O28  1  0.45107200  0.05624500  0.14491300  1
  O  O29  1  0.65100800  0.36277200  0.96184600  1
  O  O30  1  0.80176600  0.62944900  0.93601400  1
  O  O31  1  0.85748700  0.68975400  0.57012300  1
  O  O32  1  0.20194300  0.06996200  0.16474500  1
  O  O33  1  0.45931400  0.30587300  0.35885500  1
  O  O34  1  0.22201900  0.17526000  0.58842200  1
  O  O35  1  0.35327800  0.23280400  0.95027900  1
  O  O36  1  0.65815500  0.55548800  0.28063400  1
  O  O37  1  0.89879800  0.88877500  0.16349300  1
  O  O38  1  0.36115300  0.41606900  0.66217500  1
  O  O39  1  0.07284600  0.12237300  0.76997800  1
  O  O40  1  0.68761200  0.71254500  0.10350000  1
  O  O41  1  0.71982000  0.82812200  0.45322400  1
  O  O42  1  0.59314100  0.70862100  0.64977500  1
  O  O43  1  0.81810100  0.95813900  0.88835800  1
  O  O44  1  0.19612400  0.38342800  0.99777100  1
  O  O45  1  0.08342600  0.30380000  0.45628300  1
  O  O46  1  0.35874000  0.71999000  0.05159000  1
  O  O47  1  0.55696700  0.90226000  0.87978200  1
  O  O48  1  0.57054500  0.97386200  0.67755400  1
  O  O49  1  0.22878400  0.64125300  0.46812600  1
  O  O50  1  0.19594000  0.63377000  0.76096600  1
  O  O51  1  0.14636100  0.76880600  0.31433800  1
  O  O52  1  0.08418700  0.67205200  0.92998300  1
  O  O53  1  0.21441500  0.89158200  0.59963700  1
