# generated using pymatgen
data_Li2MnFe(BO3)2
_symmetry_space_group_name_H-M   'P 1'
_cell_length_a   3.16191500
_cell_length_b   8.26431600
_cell_length_c   14.31362748
_cell_angle_alpha   89.98522936
_cell_angle_beta   90.00000000
_cell_angle_gamma   90.00000000
_symmetry_Int_Tables_number   1
_chemical_formula_structural   Li2MnFe(BO3)2
_chemical_formula_sum   'Li6 Mn3 Fe3 B6 O18'
_cell_volume   374.03031359
_cell_formula_units_Z   3
loop_
 _symmetry_equiv_pos_site_id
 _symmetry_equiv_pos_as_xyz
  1  'x, y, z'
loop_
 _atom_site_type_symbol
 _atom_site_label
 _atom_site_symmetry_multiplicity
 _atom_site_fract_x
 _atom_site_fract_y
 _atom_site_fract_z
 _atom_site_occupancy
  Li  Li0  1  0.50000000  0.70743900  0.01051300  1
  Li  Li1  1  0.50000000  0.65801600  0.64201900  1
  Li  Li2  1  0.50000000  0.63268900  0.34809100  1
  Li  Li3  1  0.50000000  0.20704700  0.50655400  1
  Li  Li4  1  0.50000000  0.16013100  0.14228100  1
  Li  Li5  1  0.50000000  0.13453400  0.85050300  1
  Mn  Mn6  1  0.00000000  0.86583500  0.49363200  1
  Mn  Mn7  1  0.00000000  0.80802200  0.82016000  1
  Mn  Mn8  1  0.00000000  0.32566300  0.68591400  1
  Fe  Fe9  1  0.00000000  0.82426600  0.18369800  1
  Fe  Fe10  1  0.00000000  0.36355300  0.99660100  1
  Fe  Fe11  1  0.00000000  0.31307900  0.32005800  1
  B  B12  1  0.50000000  0.00034800  0.33139500  1
  B  B13  1  0.00000000  0.00195800  0.00055800  1
  B  B14  1  0.50000000  0.99980200  0.66667400  1
  B  B15  1  0.50000000  0.49968500  0.83538800  1
  B  B16  1  0.00000000  0.49812000  0.49951400  1
  B  B17  1  0.50000000  0.50003500  0.16646900  1
  O  O18  1  0.50000000  0.99101100  0.56969100  1
  O  O19  1  0.50000000  0.98202700  0.23466300  1
  O  O20  1  0.50000000  0.86314400  0.38828700  1
  O  O21  1  0.50000000  0.85868100  0.71948100  1
  O  O22  1  0.00000000  0.84934100  0.04242200  1
  O  O23  1  0.50000000  0.65278800  0.87603700  1
  O  O24  1  0.50000000  0.65239100  0.20829800  1
  O  O25  1  0.00000000  0.63534000  0.55619000  1
  O  O26  1  0.00000000  0.51392600  0.40238200  1
  O  O27  1  0.50000000  0.48705000  0.06955900  1
  O  O28  1  0.50000000  0.48541000  0.73819700  1
  O  O29  1  0.50000000  0.36227300  0.89159300  1
  O  O30  1  0.50000000  0.36119100  0.22166300  1
  O  O31  1  0.00000000  0.34465900  0.53954000  1
  O  O32  1  0.50000000  0.15427300  0.37131200  1
  O  O33  1  0.50000000  0.14938500  0.71089600  1
  O  O34  1  0.00000000  0.14045200  0.05601400  1
  O  O35  1  0.00000000  0.01643800  0.90375200  1
