# generated using pymatgen
data_Li5V3P8O29
_symmetry_space_group_name_H-M   'P 1'
_cell_length_a   9.78692500
_cell_length_b   9.80251059
_cell_length_c   14.08415730
_cell_angle_alpha   89.74092330
_cell_angle_beta   90.75809654
_cell_angle_gamma   119.68582406
_symmetry_Int_Tables_number   1
_chemical_formula_structural   Li5V3P8O29
_chemical_formula_sum   'Li10 V6 P16 O58'
_cell_volume   1173.74052043
_cell_formula_units_Z   2
loop_
 _symmetry_equiv_pos_site_id
 _symmetry_equiv_pos_as_xyz
  1  'x, y, z'
loop_
 _atom_site_type_symbol
 _atom_site_label
 _atom_site_symmetry_multiplicity
 _atom_site_fract_x
 _atom_site_fract_y
 _atom_site_fract_z
 _atom_site_occupancy
  Li  Li0  1  0.22750900  0.90846900  0.44353700  1
  Li  Li1  1  0.08322200  0.31383200  0.43909000  1
  Li  Li2  1  0.32266900  0.67073600  0.10903000  1
  Li  Li3  1  0.23042200  0.32048600  0.93827600  1
  Li  Li4  1  0.67209400  0.90527700  0.93588000  1
  Li  Li5  1  0.31887100  0.23082300  0.56409600  1
  Li  Li6  1  0.67692100  0.77207300  0.44228500  1
  Li  Li7  1  0.33147300  0.09519400  0.05910000  1
  Li  Li8  1  0.90528500  0.68134700  0.56468700  1
  Li  Li9  1  0.96438400  0.94508400  0.00005900  1
  V  V10  1  0.43359900  0.43715800  0.75432000  1
  V  V11  1  0.57319300  0.56747200  0.24818700  1
  V  V12  1  0.43346100  0.00049000  0.25413900  1
  V  V13  1  0.57211900  0.00474300  0.74807200  1
  V  V14  1  0.00382400  0.56756500  0.75573100  1
  V  V15  1  0.99544600  0.43336100  0.24324600  1
  P  P16  1  0.08614300  0.78145800  0.15908400  1
  P  P17  1  0.22985200  0.91212300  0.66170700  1
  P  P18  1  0.08566100  0.31996300  0.65588200  1
  P  P19  1  0.33923200  0.67223200  0.87202800  1
  P  P20  1  0.33179000  0.66197900  0.36928800  1
  P  P21  1  0.22819800  0.31716500  0.15793500  1
  P  P22  1  0.32035300  0.23401500  0.34283500  1
  P  P23  1  0.68201700  0.90892600  0.15491600  1
  P  P24  1  0.31760500  0.08767600  0.84439400  1
  P  P25  1  0.67657600  0.76727600  0.65741100  1
  P  P26  1  0.77755000  0.69079500  0.83879200  1
  P  P27  1  0.66245100  0.33479700  0.63052900  1
  P  P28  1  0.66048500  0.33149200  0.12733100  1
  P  P29  1  0.91604000  0.68159300  0.34372100  1
  P  P30  1  0.77486500  0.08572000  0.33798300  1
  P  P31  1  0.91894100  0.22257800  0.83942300  1
  O  O32  1  0.99832800  0.75830500  0.43530900  1
  O  O33  1  0.08321800  0.74802300  0.66060200  1
  O  O34  1  0.23637600  0.01027700  0.93414600  1
  O  O35  1  0.25978900  0.92194900  0.16471100  1
  O  O36  1  0.09931100  0.62950900  0.16510900  1
  O  O37  1  0.19721500  0.68024600  0.82985400  1
  O  O38  1  0.09452000  0.47853100  0.67973800  1
  O  O39  1  0.00737800  0.20112900  0.91991600  1
  O  O40  1  0.08860400  0.34477900  0.15636800  1
  O  O41  1  0.32804500  0.81310800  0.33338900  1
  O  O42  1  0.38137000  0.90161400  0.68026400  1
  O  O43  1  0.18326300  0.51647700  0.32360000  1
  O  O44  1  0.34936000  0.67582300  0.97902100  1
  O  O45  1  0.33597100  0.65595500  0.47474300  1
  O  O46  1  0.32766900  0.51370900  0.83712700  1
  O  O47  1  0.51828500  0.89312700  0.16882000  1
  O  O48  1  0.49442100  0.81670800  0.83274700  1
  O  O49  1  0.25341700  0.33924300  0.66554400  1
  O  O50  1  0.20991000  0.21278900  0.25138800  1
  O  O51  1  0.24658800  0.24987800  0.43156900  1
  O  O52  1  0.23817900  0.23378100  0.07126100  1
  O  O53  1  0.38111200  0.48066600  0.17244700  1
  O  O54  1  0.48219500  0.66431600  0.32598600  1
  O  O55  1  0.34107300  0.25571000  0.83994700  1
  O  O56  1  0.51793300  0.62249900  0.67716300  1
  O  O57  1  0.65804400  0.91536900  0.66586900  1
  O  O58  1  0.20933400  0.00117600  0.75151200  1
  O  O59  1  0.24427000  0.00225300  0.57199800  1
  O  O60  1  0.76139000  0.98780900  0.42109200  1
  O  O61  1  0.33591800  0.08450700  0.34383700  1
  O  O62  1  0.47960600  0.38199300  0.32188200  1
  O  O63  1  0.66005100  0.74049800  0.17023000  1
  O  O64  1  0.51226700  0.33126100  0.67137800  1
  O  O65  1  0.61838300  0.53652500  0.83081500  1
  O  O66  1  0.79094300  0.79488100  0.91943900  1
  O  O67  1  0.75025300  0.75777400  0.56667200  1
  O  O68  1  0.79754600  0.78713200  0.74156100  1
  O  O69  1  0.74771700  0.66390800  0.33991200  1
  O  O70  1  0.51268300  0.18500200  0.16669900  1
  O  O71  1  0.47385200  0.08742500  0.82806200  1
  O  O72  1  0.66361600  0.48057100  0.17724800  1
  O  O73  1  0.65733900  0.34234200  0.02276400  1
  O  O74  1  0.65110400  0.31672500  0.52552600  1
  O  O75  1  0.81270900  0.48331100  0.66790200  1
  O  O76  1  0.62044300  0.09355300  0.31927200  1
  O  O77  1  0.66175800  0.18487100  0.68014500  1
  O  O78  1  0.91287800  0.65373400  0.83577200  1
  O  O79  1  0.00979700  0.79710000  0.25739700  1
  O  O80  1  0.00193700  0.80066200  0.07718600  1
  O  O81  1  0.90417400  0.52305100  0.32550100  1
  O  O82  1  0.81194500  0.33604600  0.17111500  1
  O  O83  1  0.91861800  0.37791200  0.83368100  1
  O  O84  1  0.74522700  0.08158400  0.83790100  1
  O  O85  1  0.76076300  0.97376200  0.06292200  1
  O  O86  1  0.79593000  0.00971900  0.24042600  1
  O  O87  1  0.91720400  0.25219800  0.33814300  1
  O  O88  1  0.01160300  0.25355000  0.56273900  1
  O  O89  1  0.98786800  0.20111400  0.74001100  1
