# generated using pymatgen
data_LiBiB2O5
_symmetry_space_group_name_H-M   'P 1'
_cell_length_a   10.03066900
_cell_length_b   6.45870100
_cell_length_c   7.32450130
_cell_angle_alpha   69.24545075
_cell_angle_beta   90.00000000
_cell_angle_gamma   90.00000000
_symmetry_Int_Tables_number   1
_chemical_formula_structural   LiBiB2O5
_chemical_formula_sum   'Li4 Bi4 B8 O20'
_cell_volume   443.72559795
_cell_formula_units_Z   4
loop_
 _symmetry_equiv_pos_site_id
 _symmetry_equiv_pos_as_xyz
  1  'x, y, z'
loop_
 _atom_site_type_symbol
 _atom_site_label
 _atom_site_symmetry_multiplicity
 _atom_site_fract_x
 _atom_site_fract_y
 _atom_site_fract_z
 _atom_site_occupancy
  Li  Li0  1  0.80379300  0.71613000  0.77663800  1
  Li  Li1  1  0.69620700  0.21613000  0.77663800  1
  Li  Li2  1  0.30379300  0.78387000  0.22336200  1
  Li  Li3  1  0.19620700  0.28387000  0.22336200  1
  Bi  Bi4  1  0.45109500  0.73097600  0.76759000  1
  Bi  Bi5  1  0.04890500  0.23097600  0.76759000  1
  Bi  Bi6  1  0.95109500  0.76902400  0.23241000  1
  Bi  Bi7  1  0.54890500  0.26902400  0.23241000  1
  B  B8  1  0.14461900  0.72726200  0.88915200  1
  B  B9  1  0.35538100  0.22726200  0.88915200  1
  B  B10  1  0.09261200  0.76260300  0.54099200  1
  B  B11  1  0.59261200  0.73739700  0.45900800  1
  B  B12  1  0.40738800  0.26260300  0.54099200  1
  B  B13  1  0.90738800  0.23739700  0.45900800  1
  B  B14  1  0.64461900  0.77273800  0.11084800  1
  B  B15  1  0.85538100  0.27273800  0.11084800  1
  O  O16  1  0.71017700  0.90549900  0.95671000  1
  O  O17  1  0.04168400  0.86923500  0.90136800  1
  O  O18  1  0.78982300  0.40549900  0.95671000  1
  O  O19  1  0.45831600  0.36923500  0.90136800  1
  O  O20  1  0.17980500  0.73402500  0.69794200  1
  O  O21  1  0.64555500  0.71157500  0.63867000  1
  O  O22  1  0.32019500  0.23402500  0.69794200  1
  O  O23  1  0.95624800  0.74063400  0.56074100  1
  O  O24  1  0.85444500  0.21157500  0.63867000  1
  O  O25  1  0.45624800  0.75936600  0.43925900  1
  O  O26  1  0.54375200  0.24063400  0.56074100  1
  O  O27  1  0.14555500  0.78842500  0.36133000  1
  O  O28  1  0.04375200  0.25936600  0.43925900  1
  O  O29  1  0.67980500  0.76597500  0.30205800  1
  O  O30  1  0.35444500  0.28842500  0.36133000  1
  O  O31  1  0.82019500  0.26597500  0.30205800  1
  O  O32  1  0.54168400  0.63076500  0.09863200  1
  O  O33  1  0.21017700  0.59450100  0.04329000  1
  O  O34  1  0.95831600  0.13076500  0.09863200  1
  O  O35  1  0.28982300  0.09450100  0.04329000  1
