# generated using pymatgen
data_Li4Mn2Fe3P6WO24
_symmetry_space_group_name_H-M   'P 1'
_cell_length_a   8.58273300
_cell_length_b   8.63874767
_cell_length_c   8.69785710
_cell_angle_alpha   63.24133612
_cell_angle_beta   63.52672960
_cell_angle_gamma   63.67676143
_symmetry_Int_Tables_number   1
_chemical_formula_structural   Li4Mn2Fe3P6WO24
_chemical_formula_sum   'Li4 Mn2 Fe3 P6 W1 O24'
_cell_volume   491.10936182
_cell_formula_units_Z   1
loop_
 _symmetry_equiv_pos_site_id
 _symmetry_equiv_pos_as_xyz
  1  'x, y, z'
loop_
 _atom_site_type_symbol
 _atom_site_label
 _atom_site_symmetry_multiplicity
 _atom_site_fract_x
 _atom_site_fract_y
 _atom_site_fract_z
 _atom_site_occupancy
  Li  Li0  1  0.25445700  0.64957800  0.84796400  1
  Li  Li1  1  0.70185200  0.35545900  0.15541900  1
  Li  Li2  1  0.35576500  0.15356500  0.70722200  1
  Li  Li3  1  0.15275500  0.70198500  0.36370300  1
  Mn  Mn4  1  0.97863600  0.00243600  0.99015600  1
  Mn  Mn5  1  0.51376800  0.50150700  0.49568300  1
  Fe  Fe6  1  0.65129400  0.65027700  0.64571400  1
  Fe  Fe7  1  0.85061800  0.85122400  0.84974100  1
  Fe  Fe8  1  0.34606900  0.34341300  0.34792000  1
  P  P9  1  0.94968000  0.55694400  0.25277300  1
  P  P10  1  0.55454700  0.25574300  0.94612500  1
  P  P11  1  0.25399200  0.94634400  0.55652400  1
  P  P12  1  0.75220800  0.04827100  0.45487100  1
  P  P13  1  0.44432400  0.74860100  0.05112500  1
  P  P14  1  0.05690500  0.45273400  0.75385400  1
  W  W15  1  0.14567700  0.14658800  0.14993800  1
  O  O16  1  0.52875300  0.31536800  0.10052000  1
  O  O17  1  0.32067900  0.09846800  0.52813300  1
  O  O18  1  0.09939700  0.52756500  0.32355600  1
  O  O19  1  0.94805000  0.73401500  0.08817300  1
  O  O20  1  0.00218300  0.39161800  0.18794600  1
  O  O21  1  0.76151500  0.56565900  0.39729000  1
  O  O22  1  0.73672500  0.10210000  0.92275800  1
  O  O23  1  0.54610900  0.41594800  0.76730800  1
  O  O24  1  0.82716500  0.00997700  0.59981900  1
  O  O25  1  0.39922500  0.75455400  0.57259500  1
  O  O26  1  0.90237500  0.08135500  0.25399400  1
  O  O27  1  0.60296200  0.81266400  0.00156100  1
  O  O28  1  0.38901100  0.19043700  0.99435800  1
  O  O29  1  0.10378400  0.92320400  0.74532100  1
  O  O30  1  0.60136800  0.24077600  0.43199200  1
  O  O31  1  0.18867700  0.99114000  0.39786700  1
  O  O32  1  0.43150500  0.59315300  0.24039400  1
  O  O33  1  0.24822900  0.90188200  0.09181300  1
  O  O34  1  0.24426900  0.42801700  0.59718800  1
  O  O35  1  0.04291300  0.59529500  0.82139300  1
  O  O36  1  0.08215800  0.25158200  0.90244400  1
  O  O37  1  0.89113000  0.49413500  0.70454300  1
  O  O38  1  0.69125800  0.89605400  0.48105700  1
  O  O39  1  0.44801100  0.69736700  0.90224700  1
