# generated using pymatgen
data_Li2Ti(FeO3)2
_symmetry_space_group_name_H-M   'P 1'
_cell_length_a   7.94942672
_cell_length_b   7.94942672
_cell_length_c   6.04472620
_cell_angle_alpha   78.69106934
_cell_angle_beta   78.69106934
_cell_angle_gamma   68.47683312
_symmetry_Int_Tables_number   1
_chemical_formula_structural   Li2Ti(FeO3)2
_chemical_formula_sum   'Li6 Ti3 Fe6 O18'
_cell_volume   345.20858850
_cell_formula_units_Z   3
loop_
 _symmetry_equiv_pos_site_id
 _symmetry_equiv_pos_as_xyz
  1  'x, y, z'
loop_
 _atom_site_type_symbol
 _atom_site_label
 _atom_site_symmetry_multiplicity
 _atom_site_fract_x
 _atom_site_fract_y
 _atom_site_fract_z
 _atom_site_occupancy
  Li  Li0  1  0.50015200  0.16414400  0.82964300  1
  Li  Li1  1  0.16414400  0.50015200  0.82964300  1
  Li  Li2  1  0.49984800  0.83585600  0.17035700  1
  Li  Li3  1  0.83585600  0.49984800  0.17035700  1
  Li  Li4  1  0.17058000  0.82942000  0.50000000  1
  Li  Li5  1  0.82942000  0.17058000  0.50000000  1
  Ti  Ti6  1  0.16696900  0.83303100  0.00000000  1
  Ti  Ti7  1  0.50000000  0.50000000  0.00000000  1
  Ti  Ti8  1  0.83303100  0.16696900  0.00000000  1
  Fe  Fe9  1  0.49206200  0.16482100  0.33652600  1
  Fe  Fe10  1  0.83353900  0.83353900  0.33700800  1
  Fe  Fe11  1  0.16482100  0.49206200  0.33652600  1
  Fe  Fe12  1  0.50793800  0.83517900  0.66347400  1
  Fe  Fe13  1  0.83517900  0.50793800  0.66347400  1
  Fe  Fe14  1  0.16646100  0.16646100  0.66299200  1
  O  O15  1  0.99215200  0.99215200  0.22720100  1
  O  O16  1  0.65804400  0.00460600  0.56287500  1
  O  O17  1  0.00460600  0.65804400  0.56287500  1
  O  O18  1  0.00784800  0.00784800  0.77279900  1
  O  O19  1  0.67076500  0.01737900  0.09867400  1
  O  O20  1  0.01737900  0.67076500  0.09867400  1
  O  O21  1  0.34195600  0.99539400  0.43712500  1
  O  O22  1  0.67815200  0.67815200  0.42653300  1
  O  O23  1  0.99539400  0.34195600  0.43712500  1
  O  O24  1  0.32923500  0.98262100  0.90132600  1
  O  O25  1  0.65208800  0.65208800  0.90666300  1
  O  O26  1  0.98262100  0.32923500  0.90132600  1
  O  O27  1  0.32932400  0.66979900  0.21825000  1
  O  O28  1  0.66979900  0.32932400  0.21825000  1
  O  O29  1  0.32184800  0.32184800  0.57346700  1
  O  O30  1  0.33020100  0.67067600  0.78175000  1
  O  O31  1  0.67067600  0.33020100  0.78175000  1
  O  O32  1  0.34791200  0.34791200  0.09333700  1
