# generated using pymatgen
data_Li10Cr(SiO5)2
_symmetry_space_group_name_H-M   'P 1'
_cell_length_a   6.13186919
_cell_length_b   15.39878268
_cell_length_c   5.16146571
_cell_angle_alpha   79.78907346
_cell_angle_beta   90.02375385
_cell_angle_gamma   78.57482874
_symmetry_Int_Tables_number   1
_chemical_formula_structural   Li10Cr(SiO5)2
_chemical_formula_sum   'Li20 Cr2 Si4 O20'
_cell_volume   469.82029234
_cell_formula_units_Z   2
loop_
 _symmetry_equiv_pos_site_id
 _symmetry_equiv_pos_as_xyz
  1  'x, y, z'
loop_
 _atom_site_type_symbol
 _atom_site_label
 _atom_site_symmetry_multiplicity
 _atom_site_fract_x
 _atom_site_fract_y
 _atom_site_fract_z
 _atom_site_occupancy
  Li  Li0  1  0.50934405  0.98121394  0.75915591  1
  Li  Li1  1  0.35184457  0.86837618  0.23784433  1
  Li  Li2  1  0.77766200  0.86735412  0.23701383  1
  Li  Li3  1  0.13025131  0.73685270  0.48226755  1
  Li  Li4  1  0.34614467  0.73855651  0.02639521  1
  Li  Li5  1  0.91557994  0.73841487  0.02405772  1
  Li  Li6  1  0.67237532  0.65016984  0.41718334  1
  Li  Li7  1  0.43833554  0.61062197  0.78892576  1
  Li  Li8  1  0.95275413  0.61088105  0.78599600  1
  Li  Li9  1  0.73219321  0.54051293  0.13334504  1
  Li  Li10  1  0.26932983  0.45999572  0.86122796  1
  Li  Li11  1  0.56268524  0.38966961  0.21005836  1
  Li  Li12  1  0.04765245  0.38980455  0.21093514  1
  Li  Li13  1  0.32622527  0.34882547  0.57897806  1
  Li  Li14  1  0.08277466  0.26211430  0.97593649  1
  Li  Li15  1  0.64909745  0.26178175  0.97496219  1
  Li  Li16  1  0.86670616  0.26214122  0.51955617  1
  Li  Li17  1  0.64448375  0.13171048  0.76544555  1
  Li  Li18  1  0.21964397  0.13116495  0.76637524  1
  Li  Li19  1  0.48999924  0.01739299  0.24637402  1
  Cr  Cr20  1  0.03380175  0.92963131  0.87120934  1
  Cr  Cr21  1  0.96094541  0.07244336  0.13474337  1
  Si  Si22  1  0.60025399  0.79965040  0.69257756  1
  Si  Si23  1  0.22034635  0.56256225  0.30740725  1
  Si  Si24  1  0.78123486  0.43781029  0.68998765  1
  Si  Si25  1  0.39863093  0.19962622  0.30915884  1
  O  O26  1  0.55028141  0.89962899  0.49839729  1
  O  O27  1  0.08835521  0.81626188  0.13227254  1
  O  O28  1  0.59450353  0.80973659  0.00725509  1
  O  O29  1  0.41017677  0.74263042  0.63477981  1
  O  O30  1  0.84481877  0.74195927  0.63383137  1
  O  O31  1  0.97021912  0.61378372  0.16847721  1
  O  O32  1  0.42050060  0.61376408  0.17069618  1
  O  O33  1  0.21488922  0.57284742  0.61861754  1
  O  O34  1  0.72899846  0.54365792  0.73601543  1
  O  O35  1  0.27228276  0.45678414  0.26106914  1
  O  O36  1  0.78591236  0.42809928  0.37787151  1
  O  O37  1  0.03191084  0.38654414  0.82761004  1
  O  O38  1  0.58219266  0.38655855  0.82801591  1
  O  O39  1  0.15176466  0.25715260  0.36687288  1
  O  O40  1  0.58521951  0.25741209  0.36796828  1
  O  O41  1  0.40230808  0.18990703  0.99468296  1
  O  O42  1  0.90317334  0.18323622  0.87142921  1
  O  O43  1  0.44694546  0.09952340  0.50447796  1
  O  O44  1  0.24941990  0.99989728  0.00354618  1
  O  O45  1  0.76024032  0.00055698  0.00005661  1
