# generated using pymatgen
data_LiCrSiO4
_symmetry_space_group_name_H-M   'P 1'
_cell_length_a   5.57876200
_cell_length_b   7.96747300
_cell_length_c   5.84547200
_cell_angle_alpha   90.00004118
_cell_angle_beta   89.99989964
_cell_angle_gamma   89.99989112
_symmetry_Int_Tables_number   1
_chemical_formula_structural   LiCrSiO4
_chemical_formula_sum   'Li4 Cr4 Si4 O16'
_cell_volume   259.82325489
_cell_formula_units_Z   4
loop_
 _symmetry_equiv_pos_site_id
 _symmetry_equiv_pos_as_xyz
  1  'x, y, z'
loop_
 _atom_site_type_symbol
 _atom_site_label
 _atom_site_symmetry_multiplicity
 _atom_site_fract_x
 _atom_site_fract_y
 _atom_site_fract_z
 _atom_site_occupancy
  Li  Li0  1  0.24999400  0.24999900  0.25000100  1
  Li  Li1  1  0.74999400  0.74999900  0.74999300  1
  Li  Li2  1  0.74999700  0.24999500  0.24998200  1
  Li  Li3  1  0.24999700  0.74999600  0.74997400  1
  Cr  Cr4  1  0.50021900  0.49996200  0.50017900  1
  Cr  Cr5  1  0.99985300  0.99994500  0.50016700  1
  Cr  Cr6  1  0.00024100  0.99993700  0.99978100  1
  Cr  Cr7  1  0.49974200  0.50015800  0.99988700  1
  Si  Si8  1  0.50001500  0.13543900  0.75003100  1
  Si  Si9  1  0.99998800  0.63539400  0.25002100  1
  Si  Si10  1  0.99999000  0.36457500  0.75000900  1
  Si  Si11  1  0.50001700  0.86461700  0.25004200  1
  O  O12  1  0.75563100  0.49242700  0.75000400  1
  O  O13  1  0.25556900  0.99237900  0.25000500  1
  O  O14  1  0.25565800  0.00757300  0.74997100  1
  O  O15  1  0.75556200  0.50761700  0.24999000  1
  O  O16  1  0.24435300  0.49242400  0.74997900  1
  O  O17  1  0.74444600  0.99238200  0.24998800  1
  O  O18  1  0.74435800  0.00757600  0.74999300  1
  O  O19  1  0.24442100  0.50761700  0.25001500  1
  O  O20  1  0.49997400  0.24889900  0.98491200  1
  O  O21  1  0.99999100  0.74886000  0.48499900  1
  O  O22  1  0.49999800  0.24886200  0.51507600  1
  O  O23  1  0.00001200  0.74884300  0.01501000  1
  O  O24  1  0.99998800  0.25112200  0.51508000  1
  O  O25  1  0.49997500  0.75116400  0.01500800  1
  O  O26  1  0.00001200  0.25111400  0.98490500  1
  O  O27  1  0.50000200  0.75112400  0.48499700  1
