# generated using pymatgen
data_Li24Ti11CrO36
_symmetry_space_group_name_H-M   'P 1'
_cell_length_a   5.10492400
_cell_length_b   10.68642761
_cell_length_c   13.20071374
_cell_angle_alpha   112.21904760
_cell_angle_beta   97.15736409
_cell_angle_gamma   94.73528625
_symmetry_Int_Tables_number   1
_chemical_formula_structural   Li24Ti11CrO36
_chemical_formula_sum   'Li24 Ti11 Cr1 O36'
_cell_volume   654.85031531
_cell_formula_units_Z   1
loop_
 _symmetry_equiv_pos_site_id
 _symmetry_equiv_pos_as_xyz
  1  'x, y, z'
loop_
 _atom_site_type_symbol
 _atom_site_label
 _atom_site_symmetry_multiplicity
 _atom_site_fract_x
 _atom_site_fract_y
 _atom_site_fract_z
 _atom_site_occupancy
  Li  Li0  1  0.78421300  0.05842700  0.05886700  1
  Li  Li1  1  0.66508600  0.33332100  0.08296300  1
  Li  Li2  1  0.88498800  0.27476900  0.27473100  1
  Li  Li3  1  0.33304000  0.16642000  0.16576500  1
  Li  Li4  1  0.55633700  0.60750600  0.10768100  1
  Li  Li5  1  0.00002900  0.00001300  0.25002100  1
  Li  Li6  1  0.00096600  0.49913900  0.99983300  1
  Li  Li7  1  0.77787200  0.05928800  0.55882600  1
  Li  Li8  1  0.44698300  0.39191800  0.39212700  1
  Li  Li9  1  0.66671500  0.33337700  0.58342300  1
  Li  Li10  1  0.66675100  0.83322300  0.33327100  1
  Li  Li11  1  0.11099800  0.72589100  0.22541900  1
  Li  Li12  1  0.89030600  0.27387600  0.77508900  1
  Li  Li13  1  0.33370500  0.16657800  0.66620500  1
  Li  Li14  1  0.33323100  0.66627000  0.41639200  1
  Li  Li15  1  0.55239800  0.60818400  0.60757400  1
  Li  Li16  1  0.00000900  0.49994600  0.49996200  1
  Li  Li17  1  0.22206000  0.94078700  0.44121500  1
  Li  Li18  1  0.44075000  0.39283200  0.89269500  1
  Li  Li19  1  0.66722400  0.83303300  0.83328900  1
  Li  Li20  1  0.11426700  0.72519900  0.72578300  1
  Li  Li21  1  0.33330800  0.66676500  0.91670700  1
  Li  Li22  1  0.99976800  0.00100300  0.75125300  1
  Li  Li23  1  0.21670500  0.94279700  0.94107000  1
  Ti  Ti24  1  0.88935100  0.77804500  0.02810500  1
  Ti  Ti25  1  0.55572800  0.11143900  0.36133800  1
  Ti  Ti26  1  0.78043100  0.55381600  0.30525600  1
  Ti  Ti27  1  0.22647500  0.44645900  0.19275300  1
  Ti  Ti28  1  0.44400600  0.88825900  0.13806300  1
  Ti  Ti29  1  0.11054500  0.22160000  0.47156700  1
  Ti  Ti30  1  0.88980700  0.77828600  0.52851600  1
  Ti  Ti31  1  0.55484200  0.10933100  0.86316500  1
  Ti  Ti32  1  0.77724700  0.55473100  0.80508000  1
  Ti  Ti33  1  0.22258300  0.44488000  0.69485900  1
  Ti  Ti34  1  0.44487800  0.88923700  0.63839200  1
  Cr  Cr35  1  0.10636300  0.22327700  0.97242000  1
  O  O36  1  0.42449900  0.14168100  0.00276300  1
  O  O37  1  0.64298200  0.07688300  0.21137100  1
  O  O38  1  0.90438400  0.52720500  0.16395800  1
  O  O39  1  0.31347200  0.41157100  0.04557700  1
  O  O40  1  0.88078700  0.04345400  0.40649200  1
  O  O41  1  0.02397200  0.25426800  0.11796600  1
  O  O42  1  0.54746800  0.37633800  0.23976600  1
  O  O43  1  0.78552700  0.28991500  0.42679700  1
  O  O44  1  0.76203100  0.80563800  0.16894100  1
  O  O45  1  0.23774000  0.19419900  0.33086500  1
  O  O46  1  0.21441300  0.71019400  0.07317900  1
  O  O47  1  0.45167300  0.62278800  0.25955700  1
  O  O48  1  0.42848300  0.13900700  0.50218900  1
  O  O49  1  0.97612900  0.74313700  0.37804100  1
  O  O50  1  0.11903300  0.95655600  0.09345100  1
  O  O51  1  0.69031000  0.58998400  0.45521800  1
  O  O52  1  0.09376600  0.47131800  0.33465100  1
  O  O53  1  0.64038100  0.07759900  0.71202800  1
  O  O54  1  0.35719600  0.92326300  0.28848100  1
  O  O55  1  0.90479800  0.52746600  0.66437800  1
  O  O56  1  0.30953700  0.41002600  0.54478100  1
  O  O57  1  0.87703000  0.04249100  0.90595500  1
  O  O58  1  0.02395000  0.25645100  0.62190800  1
  O  O59  1  0.57123500  0.86118200  0.49782400  1
  O  O60  1  0.54744000  0.37663500  0.74021700  1
  O  O61  1  0.79616600  0.29014000  0.92860200  1
  O  O62  1  0.76174400  0.80590800  0.66894100  1
  O  O63  1  0.23675400  0.19508700  0.83371600  1
  O  O64  1  0.21438100  0.71025600  0.57331100  1
  O  O65  1  0.45226500  0.62315500  0.76005300  1
  O  O66  1  0.97607700  0.74325000  0.87810300  1
  O  O67  1  0.11893000  0.95665300  0.59358400  1
  O  O68  1  0.69056000  0.58983800  0.95519400  1
  O  O69  1  0.09533700  0.47237900  0.83559900  1
  O  O70  1  0.35792700  0.92306800  0.78907500  1
  O  O71  1  0.57166100  0.86109900  0.99779100  1
