# generated using pymatgen
data_LiVF4
_symmetry_space_group_name_H-M   'P 1'
_cell_length_a   5.64252762
_cell_length_b   5.64252762
_cell_length_c   5.64252762
_cell_angle_alpha   107.55813695
_cell_angle_beta   107.55813695
_cell_angle_gamma   113.36912447
_symmetry_Int_Tables_number   1
_chemical_formula_structural   LiVF4
_chemical_formula_sum   'Li2 V2 F8'
_cell_volume   137.80918609
_cell_formula_units_Z   2
loop_
 _symmetry_equiv_pos_site_id
 _symmetry_equiv_pos_as_xyz
  1  'x, y, z'
loop_
 _atom_site_type_symbol
 _atom_site_label
 _atom_site_symmetry_multiplicity
 _atom_site_fract_x
 _atom_site_fract_y
 _atom_site_fract_z
 _atom_site_occupancy
  Li  Li0  1  0.48864000  0.48864000  0.00000000  1
  Li  Li1  1  0.73864000  0.23864000  0.50000000  1
  V  V2  1  0.01222000  0.01222000  0.00000000  1
  V  V3  1  0.26222000  0.76222000  0.50000000  1
  F  F4  1  0.01098400  0.71181000  0.70082600  1
  F  F5  1  0.01098400  0.31015800  0.29917400  1
  F  F6  1  0.48858600  0.78991700  0.30133100  1
  F  F7  1  0.43725600  0.23858600  0.19866900  1
  F  F8  1  0.96181000  0.76098400  0.20082600  1
  F  F9  1  0.56015800  0.76098400  0.79917400  1
  F  F10  1  0.03991700  0.23858600  0.80133100  1
  F  F11  1  0.48858600  0.18725600  0.69866900  1
