# generated using pymatgen
data_LiMnV(P2O7)2
_symmetry_space_group_name_H-M   'P 1'
_cell_length_a   8.17388000
_cell_length_b   9.73242291
_cell_length_c   9.98795090
_cell_angle_alpha   94.91070351
_cell_angle_beta   90.53301365
_cell_angle_gamma   91.89825518
_symmetry_Int_Tables_number   1
_chemical_formula_structural   LiMnV(P2O7)2
_chemical_formula_sum   'Li3 Mn3 V3 P12 O42'
_cell_volume   791.14826002
_cell_formula_units_Z   3
loop_
 _symmetry_equiv_pos_site_id
 _symmetry_equiv_pos_as_xyz
  1  'x, y, z'
loop_
 _atom_site_type_symbol
 _atom_site_label
 _atom_site_symmetry_multiplicity
 _atom_site_fract_x
 _atom_site_fract_y
 _atom_site_fract_z
 _atom_site_occupancy
  Li  Li0  1  0.35772600  0.27762700  0.05110900  1
  Li  Li1  1  0.86349500  0.72413900  0.94765600  1
  Li  Li2  1  0.86285000  0.05811000  0.61304600  1
  Mn  Mn3  1  0.00767200  0.91625200  0.35000300  1
  Mn  Mn4  1  0.99314100  0.25562400  0.02355100  1
  Mn  Mn5  1  0.00603400  0.58245800  0.68228500  1
  V  V6  1  0.50474700  0.41273500  0.31446800  1
  V  V7  1  0.49591900  0.74334800  0.97506200  1
  V  V8  1  0.49463500  0.07763200  0.64021200  1
  P  P9  1  0.78073500  0.98760900  0.10395200  1
  P  P10  1  0.28860600  0.67950600  0.23433700  1
  P  P11  1  0.68207700  0.45530300  0.02761300  1
  P  P12  1  0.17615000  0.87880200  0.64181800  1
  P  P13  1  0.78217500  0.65444700  0.43605200  1
  P  P14  1  0.67937300  0.78851800  0.69580300  1
  P  P15  1  0.17518900  0.21194000  0.30615500  1
  P  P16  1  0.28687900  0.34785100  0.56598300  1
  P  P17  1  0.67840900  0.12248200  0.36285700  1
  P  P18  1  0.17744200  0.54679300  0.97566100  1
  P  P19  1  0.78125200  0.32140800  0.77011000  1
  P  P20  1  0.28902100  0.01208300  0.89840800  1
  O  O21  1  0.68634400  0.87746600  0.01107500  1
  O  O22  1  0.93281000  0.92488000  0.16089000  1
  O  O23  1  0.43906100  0.73845600  0.16150000  1
  O  O24  1  0.15103000  0.63183300  0.11873600  1
  O  O25  1  0.20387400  0.77718100  0.33117200  1
  O  O26  1  0.82761400  0.78140700  0.36194200  1
  O  O27  1  0.03855900  0.92843200  0.55472800  1
  O  O28  1  0.84764900  0.42583000  0.08039800  1
  O  O29  1  0.34701900  0.92295800  0.59435100  1
  O  O30  1  0.53701500  0.40722300  0.11151300  1
  O  O31  1  0.67081100  0.94183900  0.66487400  1
  O  O32  1  0.34173900  0.54672100  0.29525100  1
  O  O33  1  0.68045500  0.55188900  0.34215800  1
  O  O34  1  0.14960900  0.96702400  0.78558000  1
  O  O35  1  0.65317000  0.69899600  0.55408300  1
  O  O36  1  0.82112400  0.11264800  0.02677600  1
  O  O37  1  0.93196300  0.59286400  0.49665600  1
  O  O38  1  0.17229000  0.72651000  0.66329400  1
  O  O39  1  0.03840300  0.25452800  0.21591200  1
  O  O40  1  0.34465600  0.25908900  0.25435300  1
  O  O41  1  0.84403600  0.75675400  0.75471200  1
  O  O42  1  0.53597100  0.74663200  0.78366300  1
  O  O43  1  0.66206300  0.27423300  0.33163300  1
  O  O44  1  0.44047100  0.40798300  0.49981600  1
  O  O45  1  0.33301300  0.88009100  0.96280400  1
  O  O46  1  0.15264200  0.29891500  0.44938400  1
  O  O47  1  0.65236100  0.03194300  0.22026900  1
  O  O48  1  0.20080800  0.44353200  0.66400800  1
  O  O49  1  0.17418800  0.05956100  0.33063500  1
  O  O50  1  0.82621600  0.44773900  0.69632900  1
  O  O51  1  0.03889700  0.59246800  0.88783300  1
  O  O52  1  0.84358200  0.09092400  0.41996400  1
  O  O53  1  0.34828100  0.58869500  0.92687200  1
  O  O54  1  0.53521200  0.07714700  0.44905400  1
  O  O55  1  0.67070400  0.60855100  0.99790300  1
  O  O56  1  0.33759100  0.21504300  0.63001600  1
  O  O57  1  0.68942600  0.21120700  0.67555000  1
  O  O58  1  0.64910700  0.36452500  0.88427500  1
  O  O59  1  0.93109100  0.25892900  0.83257300  1
  O  O60  1  0.17653900  0.39263000  0.99696500  1
  O  O61  1  0.44121600  0.07241600  0.82996600  1
  O  O62  1  0.21270500  0.11738100  0.99558500  1
