# generated using pymatgen
data_Li4Fe5P6WO24
_symmetry_space_group_name_H-M   'P 1'
_cell_length_a   8.49226800
_cell_length_b   8.65805847
_cell_length_c   8.67987376
_cell_angle_alpha   62.81701115
_cell_angle_beta   63.57486137
_cell_angle_gamma   63.62300710
_symmetry_Int_Tables_number   1
_chemical_formula_structural   Li4Fe5P6WO24
_chemical_formula_sum   'Li4 Fe5 P6 W1 O24'
_cell_volume   484.57839479
_cell_formula_units_Z   1
loop_
 _symmetry_equiv_pos_site_id
 _symmetry_equiv_pos_as_xyz
  1  'x, y, z'
loop_
 _atom_site_type_symbol
 _atom_site_label
 _atom_site_symmetry_multiplicity
 _atom_site_fract_x
 _atom_site_fract_y
 _atom_site_fract_z
 _atom_site_occupancy
  Li  Li0  1  0.74479400  0.15256800  0.35371900  1
  Li  Li1  1  0.29376700  0.84098300  0.64219900  1
  Li  Li2  1  0.63510500  0.29738200  0.84731800  1
  Li  Li3  1  0.84579800  0.64342400  0.29673200  1
  Fe  Fe4  1  0.01701000  0.00465600  0.00410400  1
  Fe  Fe5  1  0.35100000  0.35443300  0.34970000  1
  Fe  Fe6  1  0.48860700  0.50440800  0.49798300  1
  Fe  Fe7  1  0.14844200  0.15099900  0.14921100  1
  Fe  Fe8  1  0.65237100  0.65323100  0.65484600  1
  P  P9  1  0.05622000  0.74580200  0.44329900  1
  P  P10  1  0.44142100  0.05250700  0.74578900  1
  P  P11  1  0.74645500  0.44024800  0.05342800  1
  P  P12  1  0.24984900  0.54670900  0.95004800  1
  P  P13  1  0.55699600  0.95238200  0.25170500  1
  P  P14  1  0.93943300  0.24611300  0.54465900  1
  W  W15  1  0.85338500  0.85019300  0.85533800  1
  O  O16  1  0.46844600  0.89993400  0.68340900  1
  O  O17  1  0.67992600  0.46937400  0.90201100  1
  O  O18  1  0.90447900  0.67200800  0.47654700  1
  O  O19  1  0.05457900  0.90964000  0.26419600  1
  O  O20  1  0.01126600  0.80773700  0.60569800  1
  O  O21  1  0.24828500  0.60078300  0.43099000  1
  O  O22  1  0.25198200  0.07784500  0.89352500  1
  O  O23  1  0.46071800  0.23140000  0.58638200  1
  O  O24  1  0.16724700  0.40642000  0.98918500  1
  O  O25  1  0.60286200  0.42888300  0.24524200  1
  O  O26  1  0.10362500  0.75146800  0.91231900  1
  O  O27  1  0.40178300  0.00533900  0.18146900  1
  O  O28  1  0.59960200  0.99587600  0.82681400  1
  O  O29  1  0.89694800  0.25170000  0.07755500  1
  O  O30  1  0.40451500  0.56330800  0.75855900  1
  O  O31  1  0.81178100  0.60493600  0.00541800  1
  O  O32  1  0.56525600  0.76090400  0.40657700  1
  O  O33  1  0.75884600  0.91106600  0.10227400  1
  O  O34  1  0.74931500  0.40207800  0.57111200  1
  O  O35  1  0.95051900  0.17785600  0.40541300  1
  O  O36  1  0.91620300  0.09539700  0.74633400  1
  O  O37  1  0.10627500  0.29536300  0.50451200  1
  O  O38  1  0.30986800  0.52355200  0.10114700  1
  O  O39  1  0.55502000  0.09809700  0.30623600  1
