# generated using pymatgen
data_Li4Nb5Cr3O16
_symmetry_space_group_name_H-M   'P 1'
_cell_length_a   6.15368252
_cell_length_b   6.15368252
_cell_length_c   10.08991031
_cell_angle_alpha   89.49965717
_cell_angle_beta   89.49965717
_cell_angle_gamma   59.08822709
_symmetry_Int_Tables_number   1
_chemical_formula_structural   Li4Nb5Cr3O16
_chemical_formula_sum   'Li4 Nb5 Cr3 O16'
_cell_volume   327.79499596
_cell_formula_units_Z   1
loop_
 _symmetry_equiv_pos_site_id
 _symmetry_equiv_pos_as_xyz
  1  'x, y, z'
loop_
 _atom_site_type_symbol
 _atom_site_label
 _atom_site_symmetry_multiplicity
 _atom_site_fract_x
 _atom_site_fract_y
 _atom_site_fract_z
 _atom_site_occupancy
  Li  Li0  1  0.67223400  0.67223400  0.90975800  1
  Li  Li1  1  0.00617900  0.00617900  0.98866600  1
  Li  Li2  1  0.99793300  0.99793300  0.49065100  1
  Li  Li3  1  0.33572500  0.33572500  0.39462800  1
  Nb  Nb4  1  0.65479600  0.65479600  0.49210300  1
  Nb  Nb5  1  0.82911900  0.82911900  0.22434300  1
  Nb  Nb6  1  0.33260000  0.33260000  0.99943700  1
  Nb  Nb7  1  0.63009200  0.18533900  0.71565400  1
  Nb  Nb8  1  0.18533900  0.63009200  0.71565400  1
  Cr  Cr9  1  0.83093900  0.33854400  0.21036600  1
  Cr  Cr10  1  0.33854400  0.83093900  0.21036600  1
  Cr  Cr11  1  0.16356900  0.16356900  0.70945100  1
  O  O12  1  0.81651100  0.33363200  0.59025200  1
  O  O13  1  0.52748900  0.52748900  0.35824100  1
  O  O14  1  0.67521100  0.67521100  0.10866200  1
  O  O15  1  0.99931000  0.99931000  0.30581700  1
  O  O16  1  0.99950900  0.99950900  0.80432700  1
  O  O17  1  0.33363200  0.81651100  0.59025200  1
  O  O18  1  0.96881800  0.52857400  0.34092100  1
  O  O19  1  0.52857400  0.96881800  0.34092100  1
  O  O20  1  0.17339900  0.17339900  0.08182000  1
  O  O21  1  0.82975700  0.82975700  0.59170500  1
  O  O22  1  0.49556100  0.04629500  0.84767100  1
  O  O23  1  0.04629500  0.49556100  0.84767100  1
  O  O24  1  0.31840000  0.31840000  0.58806400  1
  O  O25  1  0.66540300  0.15791300  0.09810900  1
  O  O26  1  0.49110600  0.49110600  0.85409900  1
  O  O27  1  0.15791300  0.66540300  0.09810900  1
