# generated using pymatgen
data_Li4V3P8O29
_symmetry_space_group_name_H-M   'P 1'
_cell_length_a   9.75865400
_cell_length_b   9.77625540
_cell_length_c   14.24234295
_cell_angle_alpha   90.05443377
_cell_angle_beta   90.24661771
_cell_angle_gamma   119.93716664
_symmetry_Int_Tables_number   1
_chemical_formula_structural   Li4V3P8O29
_chemical_formula_sum   'Li8 V6 P16 O58'
_cell_volume   1177.44968287
_cell_formula_units_Z   2
loop_
 _symmetry_equiv_pos_site_id
 _symmetry_equiv_pos_as_xyz
  1  'x, y, z'
loop_
 _atom_site_type_symbol
 _atom_site_label
 _atom_site_symmetry_multiplicity
 _atom_site_fract_x
 _atom_site_fract_y
 _atom_site_fract_z
 _atom_site_occupancy
  Li  Li0  1  0.22321100  0.92027600  0.45030300  1
  Li  Li1  1  0.09258000  0.31707000  0.44365500  1
  Li  Li2  1  0.23217400  0.33444000  0.94257000  1
  Li  Li3  1  0.66820700  0.90326700  0.94040700  1
  Li  Li4  1  0.68746500  0.77067700  0.43743500  1
  Li  Li5  1  0.32318200  0.09274500  0.05472300  1
  Li  Li6  1  0.77615300  0.08989000  0.56053600  1
  Li  Li7  1  0.97728100  0.94844300  0.99384800  1
  V  V8  1  0.43323300  0.43563500  0.74622600  1
  V  V9  1  0.57007700  0.56489700  0.25150700  1
  V  V10  1  0.43422000  0.00029700  0.25029300  1
  V  V11  1  0.56650400  0.00024200  0.75154300  1
  V  V12  1  0.00353900  0.57014800  0.75678300  1
  V  V13  1  0.99814300  0.43703700  0.24083600  1
  P  P14  1  0.08235300  0.78070200  0.15600400  1
  P  P15  1  0.22724900  0.91006700  0.66371000  1
  P  P16  1  0.08616500  0.31963200  0.65803000  1
  P  P17  1  0.33508700  0.66201100  0.87103500  1
  P  P18  1  0.33239300  0.66786000  0.36734800  1
  P  P19  1  0.23001700  0.31465900  0.15815700  1
  P  P20  1  0.31418100  0.22790400  0.33990500  1
  P  P21  1  0.68540600  0.91032500  0.15941000  1
  P  P22  1  0.31478700  0.09248000  0.84191800  1
  P  P23  1  0.68146900  0.77006700  0.65381900  1
  P  P24  1  0.77698600  0.69468000  0.83599000  1
  P  P25  1  0.67290600  0.33687000  0.63420500  1
  P  P26  1  0.66189300  0.32924600  0.13205800  1
  P  P27  1  0.91922000  0.68596300  0.34105300  1
  P  P28  1  0.77495900  0.09361000  0.33882700  1
  P  P29  1  0.91771500  0.22294900  0.83999300  1
  O  O30  1  0.01485000  0.76448100  0.42514600  1
  O  O31  1  0.08320800  0.74156000  0.67303200  1
  O  O32  1  0.22513400  0.02254700  0.93042600  1
  O  O33  1  0.25858500  0.91798500  0.16349900  1
  O  O34  1  0.07726600  0.61804500  0.16510200  1
  O  O35  1  0.18993900  0.66906400  0.82600600  1
  O  O36  1  0.09397000  0.47783000  0.67860700  1
  O  O37  1  0.00968900  0.20708900  0.91858600  1
  O  O38  1  0.08550500  0.34092200  0.16814300  1
  O  O39  1  0.33601600  0.82014400  0.32192200  1
  O  O40  1  0.38017000  0.90120100  0.68458200  1
  O  O41  1  0.18580800  0.52321200  0.31950400  1
  O  O42  1  0.32332500  0.64206300  0.97483400  1
  O  O43  1  0.31901100  0.67396000  0.47091900  1
  O  O44  1  0.32504900  0.50894000  0.82533800  1
  O  O45  1  0.52807400  0.91186700  0.17511100  1
  O  O46  1  0.48960400  0.80976100  0.83696500  1
  O  O47  1  0.25500300  0.34223300  0.66469900  1
  O  O48  1  0.21236000  0.19984800  0.24393100  1
  O  O49  1  0.22381300  0.23140300  0.42187200  1
  O  O50  1  0.22175900  0.22961800  0.06862500  1
  O  O51  1  0.38257400  0.47093400  0.17235900  1
  O  O52  1  0.48611600  0.67089900  0.33496500  1
  O  O53  1  0.34337700  0.26465500  0.83357900  1
  O  O54  1  0.51933000  0.62168500  0.67848300  1
  O  O55  1  0.66575300  0.91997400  0.66144900  1
  O  O56  1  0.20703300  0.00373000  0.75103300  1
  O  O57  1  0.23753000  0.98977000  0.57393800  1
  O  O58  1  0.76083200  0.00365800  0.42726300  1
  O  O59  1  0.33959800  0.08196900  0.34045700  1
  O  O60  1  0.47440400  0.38076500  0.32460800  1
  O  O61  1  0.65572100  0.74159100  0.17355100  1
  O  O62  1  0.52753500  0.34349700  0.68060800  1
  O  O63  1  0.61567200  0.54126800  0.82951200  1
  O  O64  1  0.79483700  0.80366900  0.91489200  1
  O  O65  1  0.74369000  0.75538100  0.56211300  1
  O  O66  1  0.79909900  0.78684700  0.73809600  1
  O  O67  1  0.75067100  0.66328300  0.34126700  1
  O  O68  1  0.50749100  0.18171200  0.17563700  1
  O  O69  1  0.47017000  0.09187000  0.83081600  1
  O  O70  1  0.67201100  0.47813100  0.17538900  1
  O  O71  1  0.65035600  0.31051200  0.02880300  1
  O  O72  1  0.67267100  0.34421700  0.53053000  1
  O  O73  1  0.81967000  0.47737800  0.68399000  1
  O  O74  1  0.62153000  0.10108500  0.32007600  1
  O  O75  1  0.66953400  0.18337300  0.67029400  1
  O  O76  1  0.91345900  0.65642900  0.83685100  1
  O  O77  1  0.00057400  0.79546600  0.24954800  1
  O  O78  1  0.00760000  0.80451300  0.07203700  1
  O  O79  1  0.90784400  0.52474300  0.31694300  1
  O  O80  1  0.81040800  0.32282800  0.17514400  1
  O  O81  1  0.92209400  0.38287100  0.83253700  1
  O  O82  1  0.74362200  0.08421600  0.83909900  1
  O  O83  1  0.76240000  0.97871000  0.06828200  1
  O  O84  1  0.79628900  0.00691400  0.24837500  1
  O  O85  1  0.92144800  0.26069300  0.33895400  1
  O  O86  1  0.00387000  0.24540900  0.56712300  1
  O  O87  1  0.98652600  0.20044900  0.74073400  1
