# generated using pymatgen
data_Li4Ti2Mn3Fe3O16
_symmetry_space_group_name_H-M   'P 1'
_cell_length_a   5.89224500
_cell_length_b   5.91452242
_cell_length_c   9.52728729
_cell_angle_alpha   91.22922084
_cell_angle_beta   89.66303542
_cell_angle_gamma   119.49481137
_symmetry_Int_Tables_number   1
_chemical_formula_structural   Li4Ti2Mn3Fe3O16
_chemical_formula_sum   'Li4 Ti2 Mn3 Fe3 O16'
_cell_volume   288.92327382
_cell_formula_units_Z   1
loop_
 _symmetry_equiv_pos_site_id
 _symmetry_equiv_pos_as_xyz
  1  'x, y, z'
loop_
 _atom_site_type_symbol
 _atom_site_label
 _atom_site_symmetry_multiplicity
 _atom_site_fract_x
 _atom_site_fract_y
 _atom_site_fract_z
 _atom_site_occupancy
  Li  Li0  1  0.66403800  0.32134100  0.89747400  1
  Li  Li1  1  0.99879600  0.00418700  0.99424600  1
  Li  Li2  1  0.99884300  0.00717900  0.49461600  1
  Li  Li3  1  0.33768100  0.66203300  0.39642200  1
  Ti  Ti4  1  0.66794400  0.34023200  0.49428600  1
  Ti  Ti5  1  0.33218100  0.66442400  0.99463800  1
  Mn  Mn6  1  0.82993300  0.17321300  0.21547100  1
  Mn  Mn7  1  0.66056000  0.82833600  0.71371900  1
  Mn  Mn8  1  0.16877700  0.34390900  0.71605500  1
  Fe  Fe9  1  0.82864300  0.65981700  0.21455200  1
  Fe  Fe10  1  0.34030900  0.17172900  0.21504800  1
  Fe  Fe11  1  0.17404200  0.83515300  0.71605800  1
  O  O12  1  0.83400000  0.67207000  0.59304700  1
  O  O13  1  0.52474800  0.48042200  0.34664000  1
  O  O14  1  0.66990400  0.32457900  0.10524900  1
  O  O15  1  0.99587900  0.00761100  0.30658900  1
  O  O16  1  0.99693500  0.01238600  0.80534500  1
  O  O17  1  0.33635400  0.17248200  0.59699000  1
  O  O18  1  0.96405600  0.47285800  0.33744600  1
  O  O19  1  0.53264200  0.03997800  0.33995700  1
  O  O20  1  0.16405300  0.82840500  0.08873500  1
  O  O21  1  0.85400200  0.19795100  0.59238500  1
  O  O22  1  0.48296900  0.95218200  0.84392200  1
  O  O23  1  0.03597700  0.51252400  0.83777900  1
  O  O24  1  0.33583400  0.65630200  0.60868200  1
  O  O25  1  0.66380500  0.83753100  0.09571800  1
  O  O26  1  0.45208000  0.48836900  0.84765800  1
  O  O27  1  0.15531500  0.33309700  0.09911500  1
