# generated using pymatgen
data_Li9Mn15O32
_symmetry_space_group_name_H-M   'P 1'
_cell_length_a   8.36423400
_cell_length_b   8.40519250
_cell_length_c   10.23122175
_cell_angle_alpha   114.20369594
_cell_angle_beta   113.96812891
_cell_angle_gamma   89.83583289
_symmetry_Int_Tables_number   1
_chemical_formula_structural   Li9Mn15O32
_chemical_formula_sum   'Li9 Mn15 O32'
_cell_volume   587.81057573
_cell_formula_units_Z   1
loop_
 _symmetry_equiv_pos_site_id
 _symmetry_equiv_pos_as_xyz
  1  'x, y, z'
loop_
 _atom_site_type_symbol
 _atom_site_label
 _atom_site_symmetry_multiplicity
 _atom_site_fract_x
 _atom_site_fract_y
 _atom_site_fract_z
 _atom_site_occupancy
  Li  Li0  1  0.50076400  0.00154500  0.00138300  1
  Li  Li1  1  0.31777300  0.56552500  0.87987400  1
  Li  Li2  1  0.81267500  0.06163600  0.88162100  1
  Li  Li3  1  0.43759300  0.69374500  0.62607600  1
  Li  Li4  1  0.93183600  0.19245400  0.62219700  1
  Li  Li5  1  0.07082600  0.80726900  0.37911300  1
  Li  Li6  1  0.56548300  0.30770100  0.37294800  1
  Li  Li7  1  0.68109800  0.43210300  0.12100600  1
  Li  Li8  1  0.19013400  0.94137900  0.12208200  1
  Mn  Mn9  1  0.75412300  0.75864800  0.00670500  1
  Mn  Mn10  1  0.25177500  0.24536400  0.99489600  1
  Mn  Mn11  1  0.00235600  0.49931900  0.99980600  1
  Mn  Mn12  1  0.86835300  0.63401900  0.75159300  1
  Mn  Mn13  1  0.62188200  0.37981400  0.74895000  1
  Mn  Mn14  1  0.12501200  0.87907100  0.74982700  1
  Mn  Mn15  1  0.37147800  0.11849300  0.74778300  1
  Mn  Mn16  1  0.50004800  0.99915800  0.50051000  1
  Mn  Mn17  1  0.25082800  0.24850000  0.49920600  1
  Mn  Mn18  1  0.74914500  0.75283100  0.50256500  1
  Mn  Mn19  1  0.99687600  0.49770900  0.49999100  1
  Mn  Mn20  1  0.38110500  0.61631100  0.25036200  1
  Mn  Mn21  1  0.87390500  0.12343100  0.25366800  1
  Mn  Mn22  1  0.62866300  0.87803300  0.25122500  1
  Mn  Mn23  1  0.13474400  0.37149600  0.25271300  1
  O  O24  1  0.75917500  0.51182300  0.98678200  1
  O  O25  1  0.98125200  0.73143800  0.98533400  1
  O  O26  1  0.46765500  0.23495900  0.97109700  1
  O  O27  1  0.23677600  0.00805100  0.97409900  1
  O  O28  1  0.65267500  0.65326600  0.77756900  1
  O  O29  1  0.34611000  0.89115400  0.74248600  1
  O  O30  1  0.84887100  0.40155700  0.74054500  1
  O  O31  1  0.13913500  0.11530000  0.75578100  1
  O  O32  1  0.88105100  0.85970500  0.73615000  1
  O  O33  1  0.09899900  0.63673500  0.73673100  1
  O  O34  1  0.37764900  0.34949100  0.73304700  1
  O  O35  1  0.59380100  0.11008900  0.73139400  1
  O  O36  1  0.27033800  0.01910000  0.50859800  1
  O  O37  1  0.75057700  0.53532600  0.52114700  1
  O  O38  1  0.48965800  0.23842700  0.51160200  1
  O  O39  1  0.98416400  0.74422400  0.51110100  1
  O  O40  1  0.51366900  0.76468000  0.49255000  1
  O  O41  1  0.73039700  0.97988000  0.49103200  1
  O  O42  1  0.01571800  0.25357100  0.49113200  1
  O  O43  1  0.24873300  0.46982500  0.48906400  1
  O  O44  1  0.87955100  0.36039700  0.26949300  1
  O  O45  1  0.40631000  0.88292600  0.26822700  1
  O  O46  1  0.62470100  0.64909100  0.26879700  1
  O  O47  1  0.11825000  0.14239100  0.26731700  1
  O  O48  1  0.15717900  0.60534100  0.25914000  1
  O  O49  1  0.86117200  0.88110200  0.24241700  1
  O  O50  1  0.65142500  0.10445300  0.25828800  1
  O  O51  1  0.37243000  0.35590800  0.21808300  1
  O  O52  1  0.53567600  0.76238300  0.02547700  1
  O  O53  1  0.76529200  0.99470200  0.02871900  1
  O  O54  1  0.02333900  0.27045700  0.01346900  1
  O  O55  1  0.23853600  0.48543200  0.00497500  1
