# generated using pymatgen
data_Li3Cr10Fe5O24
_symmetry_space_group_name_H-M   'P 1'
_cell_length_a   5.99049019
_cell_length_b   5.99049019
_cell_length_c   14.66454841
_cell_angle_alpha   89.92576705
_cell_angle_beta   89.92576705
_cell_angle_gamma   60.00220677
_symmetry_Int_Tables_number   1
_chemical_formula_structural   Li3Cr10Fe5O24
_chemical_formula_sum   'Li3 Cr10 Fe5 O24'
_cell_volume   455.75686415
_cell_formula_units_Z   1
loop_
 _symmetry_equiv_pos_site_id
 _symmetry_equiv_pos_as_xyz
  1  'x, y, z'
loop_
 _atom_site_type_symbol
 _atom_site_label
 _atom_site_symmetry_multiplicity
 _atom_site_fract_x
 _atom_site_fract_y
 _atom_site_fract_z
 _atom_site_occupancy
  Li  Li0  1  0.33240000  0.33240000  0.91691400  1
  Li  Li1  1  0.66620400  0.66620400  0.58349100  1
  Li  Li2  1  0.00027200  0.00027200  0.24908700  1
  Cr  Cr3  1  0.82921400  0.82921400  0.79349300  1
  Cr  Cr4  1  0.82932900  0.34067500  0.79348300  1
  Cr  Cr5  1  0.67521200  0.16279800  0.45917700  1
  Cr  Cr6  1  0.16279800  0.67521200  0.45917700  1
  Cr  Cr7  1  0.34067500  0.82932900  0.79348300  1
  Cr  Cr8  1  0.16275900  0.16275900  0.45895700  1
  Cr  Cr9  1  0.33388300  0.33388300  0.28806600  1
  Cr  Cr10  1  0.99988400  0.99988400  0.62220800  1
  Cr  Cr11  1  0.49623200  0.00809400  0.12538200  1
  Cr  Cr12  1  0.00809400  0.49623200  0.12538200  1
  Fe  Fe13  1  0.66559100  0.66559100  0.95432300  1
  Fe  Fe14  1  0.33345900  0.33345900  0.66722200  1
  Fe  Fe15  1  0.99922300  0.99922300  0.00028800  1
  Fe  Fe16  1  0.49405200  0.49405200  0.12576300  1
  Fe  Fe17  1  0.66751400  0.66751400  0.33262500  1
  O  O18  1  0.15674200  0.68614700  0.71158000  1
  O  O19  1  0.68614700  0.15674200  0.71158000  1
  O  O20  1  0.96898900  0.51487800  0.87113600  1
  O  O21  1  0.51487800  0.96898900  0.87113600  1
  O  O22  1  0.85057900  0.85057900  0.53749400  1
  O  O23  1  0.66653200  0.66653200  0.72253300  1
  O  O24  1  0.51421900  0.51421900  0.87093800  1
  O  O25  1  0.33353600  0.33353600  0.53459900  1
  O  O26  1  0.49090900  0.49090900  0.37706200  1
  O  O27  1  0.99960200  0.99960200  0.86809200  1
  O  O28  1  0.15695300  0.15695300  0.71153800  1
  O  O29  1  0.49037700  0.02030900  0.37673200  1
  O  O30  1  0.02030900  0.49037700  0.37673200  1
  O  O31  1  0.63573000  0.18077200  0.20393500  1
  O  O32  1  0.85092700  0.29853500  0.53736100  1
  O  O33  1  0.18077200  0.63573000  0.20393500  1
  O  O34  1  0.29853500  0.85092700  0.53736100  1
  O  O35  1  0.18510000  0.18510000  0.20344800  1
  O  O36  1  0.33243500  0.33243500  0.05248000  1
  O  O37  1  0.00037300  0.00037300  0.38764300  1
  O  O38  1  0.82360100  0.82360100  0.04459200  1
  O  O39  1  0.66822300  0.66822300  0.20064700  1
  O  O40  1  0.82652000  0.35122000  0.04446300  1
  O  O41  1  0.35122000  0.82652000  0.04446300  1
