# generated using pymatgen
data_LiVBO4
_symmetry_space_group_name_H-M   'P 1'
_cell_length_a   8.03759544
_cell_length_b   8.03759544
_cell_length_c   8.03759625
_cell_angle_alpha   106.60052002
_cell_angle_beta   106.60052002
_cell_angle_gamma   106.60051849
_symmetry_Int_Tables_number   1
_chemical_formula_structural   LiVBO4
_chemical_formula_sum   'Li6 V6 B6 O24'
_cell_volume   437.06515934
_cell_formula_units_Z   6
loop_
 _symmetry_equiv_pos_site_id
 _symmetry_equiv_pos_as_xyz
  1  'x, y, z'
loop_
 _atom_site_type_symbol
 _atom_site_label
 _atom_site_symmetry_multiplicity
 _atom_site_fract_x
 _atom_site_fract_y
 _atom_site_fract_z
 _atom_site_occupancy
  Li  Li0  1  0.91546700  0.52443800  0.76393200  1
  Li  Li1  1  0.47556200  0.23606800  0.08453300  1
  Li  Li2  1  0.23606800  0.08453300  0.47556200  1
  Li  Li3  1  0.76393200  0.91546700  0.52443800  1
  Li  Li4  1  0.52443800  0.76393200  0.91546700  1
  Li  Li5  1  0.08453300  0.47556200  0.23606800  1
  V  V6  1  0.86285700  0.14749200  0.29756400  1
  V  V7  1  0.70243600  0.13714300  0.85250800  1
  V  V8  1  0.85250800  0.70243600  0.13714300  1
  V  V9  1  0.14749200  0.29756400  0.86285700  1
  V  V10  1  0.29756400  0.86285700  0.14749200  1
  V  V11  1  0.13714300  0.85250800  0.70243600  1
  B  B12  1  0.61649400  0.23124000  0.45455400  1
  B  B13  1  0.76876000  0.54544600  0.38350600  1
  B  B14  1  0.54544600  0.38350600  0.76876000  1
  B  B15  1  0.45455400  0.61649400  0.23124000  1
  B  B16  1  0.23124000  0.45455400  0.61649400  1
  B  B17  1  0.38350600  0.76876000  0.54544600  1
  O  O18  1  0.70614500  0.04901700  0.04821400  1
  O  O19  1  0.95178600  0.29385500  0.95098300  1
  O  O20  1  0.73774400  0.12126600  0.45152600  1
  O  O21  1  0.54847400  0.26225600  0.87873400  1
  O  O22  1  0.41309100  0.09155200  0.34506900  1
  O  O23  1  0.65450100  0.33552100  0.65247200  1
  O  O24  1  0.87873400  0.54847400  0.26225600  1
  O  O25  1  0.66447900  0.34752800  0.34549900  1
  O  O26  1  0.90844800  0.65493100  0.58690900  1
  O  O27  1  0.65493100  0.58690900  0.90844800  1
  O  O28  1  0.34752800  0.34549900  0.66447900  1
  O  O29  1  0.95098300  0.95178600  0.29385500  1
  O  O30  1  0.04901700  0.04821400  0.70614500  1
  O  O31  1  0.65247200  0.65450100  0.33552100  1
  O  O32  1  0.34506900  0.41309100  0.09155200  1
  O  O33  1  0.09155200  0.34506900  0.41309100  1
  O  O34  1  0.33552100  0.65247200  0.65450100  1
  O  O35  1  0.12126600  0.45152600  0.73774400  1
  O  O36  1  0.34549900  0.66447900  0.34752800  1
  O  O37  1  0.58690900  0.90844800  0.65493100  1
  O  O38  1  0.45152600  0.73774400  0.12126600  1
  O  O39  1  0.26225600  0.87873400  0.54847400  1
  O  O40  1  0.04821400  0.70614500  0.04901700  1
  O  O41  1  0.29385500  0.95098300  0.95178600  1
