# generated using pymatgen
data_Li2CoH8(CO5)2
_symmetry_space_group_name_H-M   'P 1'
_cell_length_a   5.98839600
_cell_length_b   6.16084400
_cell_length_c   12.07168996
_cell_angle_alpha   67.70595633
_cell_angle_beta   90.00000000
_cell_angle_gamma   90.00000000
_symmetry_Int_Tables_number   1
_chemical_formula_structural   Li2CoH8(CO5)2
_chemical_formula_sum   'Li4 Co2 H16 C4 O20'
_cell_volume   412.07616600
_cell_formula_units_Z   2
loop_
 _symmetry_equiv_pos_site_id
 _symmetry_equiv_pos_as_xyz
  1  'x, y, z'
loop_
 _atom_site_type_symbol
 _atom_site_label
 _atom_site_symmetry_multiplicity
 _atom_site_fract_x
 _atom_site_fract_y
 _atom_site_fract_z
 _atom_site_occupancy
  Li  Li0  1  0.25498600  0.80143900  0.81218300  1
  Li  Li1  1  0.75498600  0.19856100  0.68781700  1
  Li  Li2  1  0.24501400  0.80143900  0.31218300  1
  Li  Li3  1  0.74501400  0.19856100  0.18781700  1
  Co  Co4  1  0.00000000  0.00000000  0.00000000  1
  Co  Co5  1  0.50000000  0.00000000  0.50000000  1
  H  H6  1  0.67306800  0.33144100  0.93077100  1
  H  H7  1  0.68233300  0.77465000  0.98097100  1
  H  H8  1  0.90833000  0.45127700  0.89744800  1
  H  H9  1  0.83084400  0.80796000  0.86207900  1
  H  H10  1  0.40833000  0.54872300  0.60255200  1
  H  H11  1  0.33084400  0.19204000  0.63792100  1
  H  H12  1  0.17306800  0.66855900  0.56922900  1
  H  H13  1  0.18233300  0.22535000  0.51902900  1
  H  H14  1  0.81766700  0.77465000  0.48097100  1
  H  H15  1  0.82693200  0.33144100  0.43077100  1
  H  H16  1  0.66915600  0.80796000  0.36207900  1
  H  H17  1  0.59167000  0.45127700  0.39744800  1
  H  H18  1  0.16915600  0.19204000  0.13792100  1
  H  H19  1  0.09167000  0.54872300  0.10255200  1
  H  H20  1  0.31766700  0.22535000  0.01902900  1
  H  H21  1  0.32693200  0.66855900  0.06922900  1
  C  C22  1  0.36086500  0.26172300  0.81777400  1
  C  C23  1  0.86086500  0.73827700  0.68222600  1
  C  C24  1  0.13913500  0.26172300  0.31777400  1
  C  C25  1  0.63913500  0.73827700  0.18222600  1
  O  O26  1  0.83014900  0.31978400  0.96161000  1
  O  O27  1  0.40350800  0.38004400  0.88364700  1
  O  O28  1  0.75187300  0.89536100  0.90632600  1
  O  O29  1  0.20989700  0.09770500  0.84729500  1
  O  O30  1  0.97127000  0.69553400  0.78167600  1
  O  O31  1  0.47127000  0.30446600  0.71832400  1
  O  O32  1  0.70989700  0.90229500  0.65270500  1
  O  O33  1  0.90350800  0.61995600  0.61635300  1
  O  O34  1  0.33014900  0.68021600  0.53839000  1
  O  O35  1  0.25187300  0.10463900  0.59367400  1
  O  O36  1  0.74812700  0.89536100  0.40632600  1
  O  O37  1  0.66985100  0.31978400  0.46161000  1
  O  O38  1  0.09649200  0.38004400  0.38364700  1
  O  O39  1  0.29010300  0.09770500  0.34729500  1
  O  O40  1  0.52873000  0.69553400  0.28167600  1
  O  O41  1  0.02873000  0.30446600  0.21832400  1
  O  O42  1  0.79010300  0.90229500  0.15270500  1
  O  O43  1  0.24812700  0.10463900  0.09367400  1
  O  O44  1  0.59649200  0.61995600  0.11635300  1
  O  O45  1  0.16985100  0.68021600  0.03839000  1
