# generated using pymatgen
data_Li2CrPO4F
_symmetry_space_group_name_H-M   'P 1'
_cell_length_a   5.20017300
_cell_length_b   11.44402700
_cell_length_c   13.26772900
_cell_angle_alpha   90.00000000
_cell_angle_beta   90.00000000
_cell_angle_gamma   90.00000000
_symmetry_Int_Tables_number   1
_chemical_formula_structural   Li2CrPO4F
_chemical_formula_sum   'Li16 Cr8 P8 O32 F8'
_cell_volume   789.57476198
_cell_formula_units_Z   8
loop_
 _symmetry_equiv_pos_site_id
 _symmetry_equiv_pos_as_xyz
  1  'x, y, z'
loop_
 _atom_site_type_symbol
 _atom_site_label
 _atom_site_symmetry_multiplicity
 _atom_site_fract_x
 _atom_site_fract_y
 _atom_site_fract_z
 _atom_site_occupancy
  Li  Li0  1  0.21964900  0.18099200  0.24039600  1
  Li  Li1  1  0.21964900  0.68099200  0.75960400  1
  Li  Li2  1  0.23181100  0.40185800  0.63586800  1
  Li  Li3  1  0.23181100  0.90185800  0.36413200  1
  Li  Li4  1  0.26818900  0.40185800  0.13586800  1
  Li  Li5  1  0.26818900  0.90185800  0.86413200  1
  Li  Li6  1  0.28035100  0.68099200  0.25960400  1
  Li  Li7  1  0.28035100  0.18099200  0.74039600  1
  Li  Li8  1  0.71964900  0.81900800  0.25960400  1
  Li  Li9  1  0.71964900  0.31900800  0.74039600  1
  Li  Li10  1  0.73181100  0.09814200  0.13586800  1
  Li  Li11  1  0.73181100  0.59814200  0.86413200  1
  Li  Li12  1  0.76818900  0.59814200  0.36413200  1
  Li  Li13  1  0.76818900  0.09814200  0.63586800  1
  Li  Li14  1  0.78035100  0.81900800  0.75960400  1
  Li  Li15  1  0.78035100  0.31900800  0.24039600  1
  Cr  Cr16  1  0.23362300  0.67087200  0.48823100  1
  Cr  Cr17  1  0.23362300  0.17087200  0.51176900  1
  Cr  Cr18  1  0.26637700  0.17087200  0.01176900  1
  Cr  Cr19  1  0.26637700  0.67087200  0.98823100  1
  Cr  Cr20  1  0.73362300  0.82912800  0.98823100  1
  Cr  Cr21  1  0.73362300  0.32912800  0.01176900  1
  Cr  Cr22  1  0.76637700  0.32912800  0.51176900  1
  Cr  Cr23  1  0.76637700  0.82912800  0.48823100  1
  P  P24  1  0.19904900  0.91274400  0.12631400  1
  P  P25  1  0.19904900  0.41274400  0.87368600  1
  P  P26  1  0.30095100  0.41274400  0.37368600  1
  P  P27  1  0.30095100  0.91274400  0.62631400  1
  P  P28  1  0.69904900  0.08725600  0.37368600  1
  P  P29  1  0.69904900  0.58725600  0.62631400  1
  P  P30  1  0.80095100  0.58725600  0.12631400  1
  P  P31  1  0.80095100  0.08725600  0.87368600  1
  O  O32  1  0.10260100  0.59205700  0.12509400  1
  O  O33  1  0.10260100  0.09205700  0.87490600  1
  O  O34  1  0.20106400  0.34556500  0.46965300  1
  O  O35  1  0.20106400  0.84556500  0.53034700  1
  O  O36  1  0.18625500  0.35873600  0.27851000  1
  O  O37  1  0.18625500  0.85873600  0.72149000  1
  O  O38  1  0.20944300  0.04170200  0.61688900  1
  O  O39  1  0.20944300  0.54170200  0.38311100  1
  O  O40  1  0.29055700  0.04170200  0.11688900  1
  O  O41  1  0.29055700  0.54170200  0.88311100  1
  O  O42  1  0.31374500  0.85873600  0.22149000  1
  O  O43  1  0.31374500  0.35873600  0.77851000  1
  O  O44  1  0.29893600  0.34556500  0.96965300  1
  O  O45  1  0.29893600  0.84556500  0.03034700  1
  O  O46  1  0.39739900  0.09205700  0.37490600  1
  O  O47  1  0.39739900  0.59205700  0.62509400  1
  O  O48  1  0.60260100  0.90794300  0.62509400  1
  O  O49  1  0.60260100  0.40794300  0.37490600  1
  O  O50  1  0.70106400  0.65443500  0.03034700  1
  O  O51  1  0.70106400  0.15443500  0.96965300  1
  O  O52  1  0.68625500  0.64126400  0.22149000  1
  O  O53  1  0.68625500  0.14126400  0.77851000  1
  O  O54  1  0.70944300  0.45829800  0.11688900  1
  O  O55  1  0.70944300  0.95829800  0.88311100  1
  O  O56  1  0.79055700  0.95829800  0.38311100  1
  O  O57  1  0.79055700  0.45829800  0.61688900  1
  O  O58  1  0.81374500  0.14126400  0.27851000  1
  O  O59  1  0.81374500  0.64126400  0.72149000  1
  O  O60  1  0.79893600  0.15443500  0.46965300  1
  O  O61  1  0.79893600  0.65443500  0.53034700  1
  O  O62  1  0.89739900  0.90794300  0.12509400  1
  O  O63  1  0.89739900  0.40794300  0.87490600  1
  F  F64  1  0.00000000  0.25000000  0.11971400  1
  F  F65  1  0.00000000  0.25000000  0.64049700  1
  F  F66  1  0.00000000  0.75000000  0.35950300  1
  F  F67  1  0.00000000  0.75000000  0.88028600  1
  F  F68  1  0.50000000  0.25000000  0.14049700  1
  F  F69  1  0.50000000  0.25000000  0.61971400  1
  F  F70  1  0.50000000  0.75000000  0.38028600  1
  F  F71  1  0.50000000  0.75000000  0.85950300  1
