# generated using pymatgen
data_Li6V3P8O29
_symmetry_space_group_name_H-M   'P 1'
_cell_length_a   9.81213750
_cell_length_b   9.81213750
_cell_length_c   14.03662726
_cell_angle_alpha   89.49051298
_cell_angle_beta   89.49051298
_cell_angle_gamma   60.17698161
_symmetry_Int_Tables_number   1
_chemical_formula_structural   Li6V3P8O29
_chemical_formula_sum   'Li12 V6 P16 O58'
_cell_volume   1172.38288366
_cell_formula_units_Z   2
loop_
 _symmetry_equiv_pos_site_id
 _symmetry_equiv_pos_as_xyz
  1  'x, y, z'
loop_
 _atom_site_type_symbol
 _atom_site_label
 _atom_site_symmetry_multiplicity
 _atom_site_fract_x
 _atom_site_fract_y
 _atom_site_fract_z
 _atom_site_occupancy
  Li  Li0  1  0.34429600  0.89614600  0.93780300  1
  Li  Li1  1  0.33315800  0.76493300  0.43883700  1
  Li  Li2  1  0.76550800  0.90479200  0.44274600  1
  Li  Li3  1  0.90479200  0.76550800  0.94274600  1
  Li  Li4  1  0.76493300  0.33315800  0.93883700  1
  Li  Li5  1  0.08653100  0.68278000  0.56223700  1
  Li  Li6  1  0.89614600  0.34429600  0.43780300  1
  Li  Li7  1  0.33658200  0.32397100  0.39200400  1
  Li  Li8  1  0.32397100  0.33658200  0.89200400  1
  Li  Li9  1  0.68278000  0.08653100  0.06223700  1
  Li  Li10  1  0.05054400  0.98022300  0.00280300  1
  Li  Li11  1  0.98022300  0.05054400  0.50280300  1
  V  V12  1  0.99810100  0.56055000  0.75211200  1
  V  V13  1  0.00211000  0.43267400  0.24263500  1
  V  V14  1  0.43455500  0.56625800  0.25047400  1
  V  V15  1  0.56625800  0.43455500  0.75047400  1
  V  V16  1  0.43267400  0.00211000  0.74263500  1
  V  V17  1  0.56055000  0.99810100  0.25211200  1
  P  P18  1  0.31381400  0.91327700  0.15653500  1
  P  P19  1  0.31173900  0.77236100  0.65600500  1
  P  P20  1  0.77591400  0.91433300  0.65696100  1
  P  P21  1  0.66414100  0.66956500  0.87059300  1
  P  P22  1  0.66956500  0.66414100  0.37059300  1
  P  P23  1  0.91433300  0.77591400  0.15696100  1
  P  P24  1  0.09014900  0.68006700  0.34122200  1
  P  P25  1  0.77236100  0.31173900  0.15600500  1
  P  P26  1  0.21929800  0.69233600  0.84113800  1
  P  P27  1  0.91327700  0.31381400  0.65653500  1
  P  P28  1  0.08838500  0.21396600  0.83867100  1
  P  P29  1  0.33275800  0.33739100  0.63204100  1
  P  P30  1  0.33739100  0.33275800  0.13204100  1
  P  P31  1  0.21396600  0.08838500  0.33867100  1
  P  P32  1  0.69233600  0.21929800  0.34113800  1
  P  P33  1  0.68006700  0.09014900  0.84122200  1
  O  O34  1  0.20568800  0.99022800  0.41903600  1
  O  O35  1  0.33429800  0.91438900  0.66287100  1
  O  O36  1  0.21196700  0.79950800  0.91862600  1
  O  O37  1  0.33998100  0.74548500  0.17393600  1
  O  O38  1  0.47013400  0.91114900  0.17028200  1
  O  O39  1  0.51696900  0.81620900  0.82603900  1
  O  O40  1  0.62094100  0.91192500  0.66814500  1
  O  O41  1  0.76490100  0.99726900  0.92840900  1
  O  O42  1  0.74678500  0.91999900  0.16438300  1
  O  O43  1  0.51764600  0.66859700  0.33563500  1
  O  O44  1  0.46956800  0.61981900  0.67250900  1
  O  O45  1  0.66966000  0.81561200  0.32767400  1
  O  O46  1  0.66223000  0.67873700  0.97640200  1
  O  O47  1  0.67873700  0.66223000  0.47640200  1
  O  O48  1  0.81561200  0.66966000  0.82767400  1
  O  O49  1  0.61981900  0.46956800  0.17250900  1
  O  O50  1  0.66859700  0.51764600  0.83563500  1
  O  O51  1  0.91999900  0.74678500  0.66438300  1
  O  O52  1  0.00691500  0.78914600  0.24960600  1
  O  O53  1  0.99726900  0.76490100  0.42840900  1
  O  O54  1  0.99060800  0.79057600  0.06700200  1
  O  O55  1  0.91192500  0.62094100  0.16814500  1
  O  O56  1  0.81620900  0.51696900  0.32603900  1
  O  O57  1  0.08180400  0.65741300  0.84702700  1
  O  O58  1  0.91114900  0.47013400  0.67028200  1
  O  O59  1  0.74548500  0.33998100  0.67393600  1
  O  O60  1  0.19473700  0.78397200  0.74095700  1
  O  O61  1  0.23328900  0.76808600  0.56467100  1
  O  O62  1  0.79950800  0.21196700  0.41862600  1
  O  O63  1  0.25768900  0.65786600  0.34524900  1
  O  O64  1  0.10576600  0.51647300  0.32814800  1
  O  O65  1  0.91438900  0.33429800  0.16287100  1
  O  O66  1  0.18447100  0.48722100  0.67308700  1
  O  O67  1  0.09979000  0.36782900  0.83173400  1
  O  O68  1  0.99022800  0.20568800  0.91903600  1
  O  O69  1  0.97972400  0.23555800  0.56188400  1
  O  O70  1  0.01757900  0.19534900  0.73983500  1
  O  O71  1  0.07650100  0.25750700  0.34132900  1
  O  O72  1  0.33151100  0.47762300  0.17691800  1
  O  O73  1  0.37276000  0.53080600  0.83469700  1
  O  O74  1  0.18840400  0.32842900  0.17272300  1
  O  O75  1  0.34339200  0.32714000  0.02539700  1
  O  O76  1  0.32714000  0.34339200  0.52539700  1
  O  O77  1  0.32842900  0.18840400  0.67272300  1
  O  O78  1  0.53080600  0.37276000  0.33469700  1
  O  O79  1  0.47762300  0.33151100  0.67691800  1
  O  O80  1  0.25750700  0.07650100  0.84132900  1
  O  O81  1  0.19534900  0.01757900  0.23983500  1
  O  O82  1  0.23555800  0.97972400  0.06188400  1
  O  O83  1  0.36782900  0.09979000  0.33173400  1
  O  O84  1  0.48722100  0.18447100  0.17308700  1
  O  O85  1  0.51647300  0.10576600  0.82814800  1
  O  O86  1  0.65786600  0.25768900  0.84524900  1
  O  O87  1  0.76808600  0.23328900  0.06467100  1
  O  O88  1  0.78397200  0.19473700  0.24095700  1
  O  O89  1  0.65741300  0.08180400  0.34702700  1
  O  O90  1  0.79057600  0.99060800  0.56700200  1
  O  O91  1  0.78914600  0.00691500  0.74960600  1
