# generated using pymatgen
data_Li9Cr2(H9O7)3
_symmetry_space_group_name_H-M   'P 1'
_cell_length_a   8.39934700
_cell_length_b   10.82613577
_cell_length_c   10.94635397
_cell_angle_alpha   106.24185103
_cell_angle_beta   87.80890760
_cell_angle_gamma   111.34578450
_symmetry_Int_Tables_number   1
_chemical_formula_structural   Li9Cr2(H9O7)3
_chemical_formula_sum   'Li18 Cr4 H54 O42'
_cell_volume   887.84362332
_cell_formula_units_Z   2
loop_
 _symmetry_equiv_pos_site_id
 _symmetry_equiv_pos_as_xyz
  1  'x, y, z'
loop_
 _atom_site_type_symbol
 _atom_site_label
 _atom_site_symmetry_multiplicity
 _atom_site_fract_x
 _atom_site_fract_y
 _atom_site_fract_z
 _atom_site_occupancy
  Li  Li0  1  0.98276200  0.41033400  0.37269500  1
  Li  Li1  1  0.79817100  0.33153900  0.63592600  1
  Li  Li2  1  0.80097300  0.32059100  0.14097900  1
  Li  Li3  1  0.57301000  0.02606900  0.63693200  1
  Li  Li4  1  0.58702200  0.03242600  0.13605700  1
  Li  Li5  1  0.56537200  0.51041600  0.63267300  1
  Li  Li6  1  0.57988300  0.51414700  0.12009500  1
  Li  Li7  1  0.41603400  0.22368600  0.61742800  1
  Li  Li8  1  0.43580100  0.22295600  0.11733200  1
  Li  Li9  1  0.56419900  0.77704400  0.88266800  1
  Li  Li10  1  0.58396600  0.77631400  0.38257200  1
  Li  Li11  1  0.42011700  0.48585300  0.87990500  1
  Li  Li12  1  0.43462800  0.48958400  0.36732700  1
  Li  Li13  1  0.41297800  0.96757400  0.86394300  1
  Li  Li14  1  0.42699000  0.97393100  0.36306800  1
  Li  Li15  1  0.19902700  0.67940900  0.85902100  1
  Li  Li16  1  0.20182900  0.66846100  0.36407400  1
  Li  Li17  1  0.01723800  0.58966600  0.62730500  1
  Cr  Cr18  1  0.58858100  0.27324200  0.87338000  1
  Cr  Cr19  1  0.59918300  0.27787100  0.37823500  1
  Cr  Cr20  1  0.40081700  0.72212900  0.62176500  1
  Cr  Cr21  1  0.41141900  0.72675800  0.12662000  1
  H  H22  1  0.98012400  0.07656000  0.80076300  1
  H  H23  1  0.97838800  0.04929400  0.29155300  1
  H  H24  1  0.87888000  0.02805500  0.96139400  1
  H  H25  1  0.86205400  0.05825000  0.50595600  1
  H  H26  1  0.96115100  0.47309500  0.81528500  1
  H  H27  1  0.84506600  0.20839400  0.80248400  1
  H  H28  1  0.81162400  0.15749400  0.29279700  1
  H  H29  1  0.86924300  0.40490900  0.98984900  1
  H  H30  1  0.88843600  0.58288800  0.97149900  1
  H  H31  1  0.67494600  0.11019900  0.95694300  1
  H  H32  1  0.70555000  0.14334200  0.48228800  1
  H  H33  1  0.93169100  0.72576200  0.40976300  1
  H  H34  1  0.96112500  0.79805800  0.56053800  1
  H  H35  1  0.87257200  0.67789300  0.82528900  1
  H  H36  1  0.87989000  0.60863200  0.25349100  1
  H  H37  1  0.96609700  0.75153600  0.03135900  1
  H  H38  1  0.79727400  0.52560700  0.47740900  1
  H  H39  1  0.84878200  0.76064000  0.73073100  1
  H  H40  1  0.84933500  0.73845700  0.21704400  1
  H  H41  1  0.67921500  0.47802800  0.79455500  1
  H  H42  1  0.69424200  0.46867300  0.27552900  1
  H  H43  1  0.83744200  0.94299000  0.57296900  1
  H  H44  1  0.84642500  0.93813900  0.05754300  1
  H  H45  1  0.68814600  0.71209000  0.55060600  1
  H  H46  1  0.69306900  0.71316500  0.04013900  1
  H  H47  1  0.69206300  0.90102400  0.73218100  1
  H  H48  1  0.71014100  0.88639700  0.21779300  1
  H  H49  1  0.28985900  0.11360300  0.78220700  1
  H  H50  1  0.30793700  0.09897600  0.26781900  1
  H  H51  1  0.30693100  0.28683500  0.95986100  1
  H  H52  1  0.31185400  0.28791000  0.44939400  1
  H  H53  1  0.15357500  0.06186100  0.94245700  1
  H  H54  1  0.16255800  0.05701000  0.42703100  1
  H  H55  1  0.30575800  0.53132700  0.72447100  1
  H  H56  1  0.32078500  0.52197200  0.20544500  1
  H  H57  1  0.15066500  0.26154300  0.78295600  1
  H  H58  1  0.15121800  0.23936000  0.26926900  1
  H  H59  1  0.20272600  0.47439300  0.52259100  1
  H  H60  1  0.03390300  0.24846400  0.96864100  1
  H  H61  1  0.12011000  0.39136800  0.74650900  1
  H  H62  1  0.12742800  0.32210700  0.17471100  1
  H  H63  1  0.03887500  0.20194200  0.43946200  1
  H  H64  1  0.06830900  0.27423800  0.59023700  1
  H  H65  1  0.29445000  0.85665800  0.51771200  1
  H  H66  1  0.32505400  0.88980100  0.04305700  1
  H  H67  1  0.11156400  0.41711200  0.02850100  1
  H  H68  1  0.13075700  0.59509100  0.01015100  1
  H  H69  1  0.18837600  0.84250600  0.70720300  1
  H  H70  1  0.15493400  0.79160600  0.19751600  1
  H  H71  1  0.03884900  0.52690500  0.18471500  1
  H  H72  1  0.13794600  0.94175000  0.49404400  1
  H  H73  1  0.12112000  0.97194500  0.03860600  1
  H  H74  1  0.02161200  0.95070600  0.70844700  1
  H  H75  1  0.01987600  0.92344000  0.19923700  1
  O  O76  1  0.97358900  0.52082600  0.25969800  1
  O  O77  1  0.97930000  0.67272200  0.95939100  1
  O  O78  1  0.74719700  0.20559800  0.75544200  1
  O  O79  1  0.00879800  0.74482600  0.48521700  1
  O  O80  1  0.77825600  0.22509600  0.26897200  1
  O  O81  1  0.77690800  0.43923900  0.98554900  1
  O  O82  1  0.79220000  0.44114400  0.49568800  1
  O  O83  1  0.60154000  0.16062900  0.99464000  1
  O  O84  1  0.92530800  0.86229900  0.13540700  1
  O  O85  1  0.90504900  0.88938500  0.67472200  1
  O  O86  1  0.60036500  0.16228400  0.49511400  1
  O  O87  1  0.80685800  0.66624700  0.74640200  1
  O  O88  1  0.79917900  0.66734900  0.26354300  1
  O  O89  1  0.58265800  0.39189300  0.75856900  1
  O  O90  1  0.58665700  0.38903600  0.25905500  1
  O  O91  1  0.78049600  0.96668300  0.50746400  1
  O  O92  1  0.40175400  0.10935600  0.75808400  1
  O  O93  1  0.42827200  0.11332000  0.25168200  1
  O  O94  1  0.78595100  0.97178900  0.00290800  1
  O  O95  1  0.42628800  0.34097400  0.99072500  1
  O  O96  1  0.57213800  0.65992900  0.51155000  1
  O  O97  1  0.42786200  0.34007100  0.48845000  1
  O  O98  1  0.57371200  0.65902600  0.00927500  1
  O  O99  1  0.21404900  0.02821100  0.99709200  1
  O  O100  1  0.57172800  0.88668000  0.74831800  1
  O  O101  1  0.59824600  0.89064400  0.24191600  1
  O  O102  1  0.21950400  0.03331700  0.49253600  1
  O  O103  1  0.41334300  0.61096400  0.74094500  1
  O  O104  1  0.41734200  0.60810700  0.24143100  1
  O  O105  1  0.20082100  0.33265100  0.73645700  1
  O  O106  1  0.19314200  0.33375300  0.25359800  1
  O  O107  1  0.39963500  0.83771600  0.50488600  1
  O  O108  1  0.09495100  0.11061500  0.32527800  1
  O  O109  1  0.07469200  0.13770100  0.86459300  1
  O  O110  1  0.39846000  0.83937100  0.00536000  1
  O  O111  1  0.20780000  0.55885600  0.50431200  1
  O  O112  1  0.22309200  0.56076100  0.01445100  1
  O  O113  1  0.22174400  0.77490400  0.73102800  1
  O  O114  1  0.99120200  0.25517400  0.51478300  1
  O  O115  1  0.25280300  0.79440200  0.24455800  1
  O  O116  1  0.02070000  0.32727800  0.04060900  1
  O  O117  1  0.02641100  0.47917400  0.74030200  1
