# generated using pymatgen
data_Li2Cr2(SO4)3
_symmetry_space_group_name_H-M   'P 1'
_cell_length_a   8.11811419
_cell_length_b   8.11811419
_cell_length_c   9.27424514
_cell_angle_alpha   65.45999709
_cell_angle_beta   65.45999709
_cell_angle_gamma   64.49653551
_symmetry_Int_Tables_number   1
_chemical_formula_structural   Li2Cr2(SO4)3
_chemical_formula_sum   'Li4 Cr4 S6 O24'
_cell_volume   480.55119805
_cell_formula_units_Z   2
loop_
 _symmetry_equiv_pos_site_id
 _symmetry_equiv_pos_as_xyz
  1  'x, y, z'
loop_
 _atom_site_type_symbol
 _atom_site_label
 _atom_site_symmetry_multiplicity
 _atom_site_fract_x
 _atom_site_fract_y
 _atom_site_fract_z
 _atom_site_occupancy
  Li  Li0  1  0.67269500  0.86326800  0.04988700  1
  Li  Li1  1  0.86326800  0.67269500  0.54988700  1
  Li  Li2  1  0.13673200  0.32730500  0.45011300  1
  Li  Li3  1  0.32730500  0.13673200  0.95011300  1
  Cr  Cr4  1  0.36651800  0.86795300  0.48012500  1
  Cr  Cr5  1  0.86795300  0.36651800  0.98012500  1
  Cr  Cr6  1  0.13204700  0.63348200  0.01987500  1
  Cr  Cr7  1  0.63348200  0.13204700  0.51987500  1
  S  S8  1  0.75514700  0.54532200  0.32417200  1
  S  S9  1  0.54532200  0.75514700  0.82417200  1
  S  S10  1  0.05358000  0.94642000  0.25000000  1
  S  S11  1  0.94642000  0.05358000  0.75000000  1
  S  S12  1  0.45467800  0.24485300  0.17582800  1
  S  S13  1  0.24485300  0.45467800  0.67582800  1
  O  O14  1  0.86545600  0.95769100  0.38484900  1
  O  O15  1  0.95769100  0.86545600  0.88484900  1
  O  O16  1  0.87025100  0.50330500  0.43086800  1
  O  O17  1  0.61056900  0.73961800  0.31492700  1
  O  O18  1  0.87448200  0.55984100  0.14603900  1
  O  O19  1  0.50330500  0.87025100  0.93086800  1
  O  O20  1  0.20467000  0.90988300  0.31628700  1
  O  O21  1  0.66337300  0.40024500  0.37846400  1
  O  O22  1  0.73961800  0.61056900  0.81492700  1
  O  O23  1  0.55984100  0.87448200  0.64603900  1
  O  O24  1  0.90988300  0.20467000  0.81628700  1
  O  O25  1  0.59975500  0.33662700  0.12153600  1
  O  O26  1  0.40024500  0.66337300  0.87846400  1
  O  O27  1  0.09011700  0.79533000  0.18371300  1
  O  O28  1  0.44015900  0.12551800  0.35396100  1
  O  O29  1  0.26038200  0.38943100  0.18507300  1
  O  O30  1  0.33662700  0.59975500  0.62153600  1
  O  O31  1  0.79533000  0.09011700  0.68371300  1
  O  O32  1  0.49669500  0.12974900  0.06913200  1
  O  O33  1  0.12551800  0.44015900  0.85396100  1
  O  O34  1  0.38943100  0.26038200  0.68507300  1
  O  O35  1  0.12974900  0.49669500  0.56913200  1
  O  O36  1  0.04230900  0.13454400  0.11515100  1
  O  O37  1  0.13454400  0.04230900  0.61515100  1
