# generated using pymatgen
data_Li2FeSiO4
_symmetry_space_group_name_H-M   'P 1'
_cell_length_a   5.34299951
_cell_length_b   10.40790080
_cell_length_c   6.31991959
_cell_angle_alpha   90.00158636
_cell_angle_beta   89.99920652
_cell_angle_gamma   78.16216039
_symmetry_Int_Tables_number   1
_chemical_formula_structural   Li2FeSiO4
_chemical_formula_sum   'Li8 Fe4 Si4 O16'
_cell_volume   343.97246014
_cell_formula_units_Z   4
loop_
 _symmetry_equiv_pos_site_id
 _symmetry_equiv_pos_as_xyz
  1  'x, y, z'
loop_
 _atom_site_type_symbol
 _atom_site_label
 _atom_site_symmetry_multiplicity
 _atom_site_fract_x
 _atom_site_fract_y
 _atom_site_fract_z
 _atom_site_occupancy
  Li  Li0  1  0.99985700  0.50005200  0.25012300  1
  Li  Li1  1  0.24988400  0.75004800  0.75008000  1
  Li  Li2  1  0.49990700  0.99999200  0.25006500  1
  Li  Li3  1  0.74976000  0.25002700  0.75011900  1
  Li  Li4  1  0.00001300  0.49993900  0.74998600  1
  Li  Li5  1  0.24967300  0.75006100  0.24992700  1
  Li  Li6  1  0.49995800  0.00001700  0.74990500  1
  Li  Li7  1  0.74981000  0.25007400  0.24997400  1
  Fe  Fe8  1  0.49990600  0.49993700  0.99992900  1
  Fe  Fe9  1  0.74950200  0.74988700  0.50019800  1
  Fe  Fe10  1  0.99997000  0.00000900  0.00009600  1
  Fe  Fe11  1  0.24957100  0.24984400  0.49995200  1
  Si  Si12  1  0.50009000  0.50008000  0.50001700  1
  Si  Si13  1  0.74991500  0.75002500  0.99988500  1
  Si  Si14  1  0.00007000  0.00009600  0.49992600  1
  Si  Si15  1  0.24994900  0.25003600  0.99996700  1
  O  O16  1  0.66747300  0.44428400  0.28672400  1
  O  O17  1  0.91742700  0.69421800  0.78665600  1
  O  O18  1  0.16750600  0.94438700  0.28658900  1
  O  O19  1  0.41739900  0.19430600  0.78664800  1
  O  O20  1  0.66755700  0.44435100  0.71335600  1
  O  O21  1  0.91727500  0.69429500  0.21325400  1
  O  O22  1  0.16751000  0.94429900  0.71326000  1
  O  O23  1  0.41752800  0.19425200  0.21323800  1
  O  O24  1  0.22657900  0.44875000  0.50028700  1
  O  O25  1  0.47636000  0.69863300  0.99988800  1
  O  O26  1  0.72659700  0.94875200  0.49983100  1
  O  O27  1  0.97638800  0.19864000  0.00012600  1
  O  O28  1  0.43906500  0.66269500  0.49999000  1
  O  O29  1  0.68922800  0.91266500  0.99990800  1
  O  O30  1  0.93905200  0.16270300  0.50001500  1
  O  O31  1  0.18922500  0.41265000  0.00008400  1
