# generated using pymatgen
data_LiCoOF2
_symmetry_space_group_name_H-M   'P 1'
_cell_length_a   5.09979900
_cell_length_b   8.89102502
_cell_length_c   9.44460964
_cell_angle_alpha   93.09906978
_cell_angle_beta   90.00000000
_cell_angle_gamma   90.00000000
_symmetry_Int_Tables_number   1
_chemical_formula_structural   LiCoOF2
_chemical_formula_sum   'Li8 Co8 O8 F16'
_cell_volume   427.61536794
_cell_formula_units_Z   8
loop_
 _symmetry_equiv_pos_site_id
 _symmetry_equiv_pos_as_xyz
  1  'x, y, z'
loop_
 _atom_site_type_symbol
 _atom_site_label
 _atom_site_symmetry_multiplicity
 _atom_site_fract_x
 _atom_site_fract_y
 _atom_site_fract_z
 _atom_site_occupancy
  Li  Li0  1  0.18029800  0.16557900  0.99666400  1
  Li  Li1  1  0.16036000  0.82952600  0.79760500  1
  Li  Li2  1  0.33964000  0.32952600  0.29760500  1
  Li  Li3  1  0.31970200  0.66557900  0.49666400  1
  Li  Li4  1  0.67450700  0.35645200  0.99206900  1
  Li  Li5  1  0.66497200  0.66137600  0.79508100  1
  Li  Li6  1  0.83502800  0.16137600  0.29508100  1
  Li  Li7  1  0.82549300  0.85645200  0.49206900  1
  Co  Co8  1  0.19934500  0.46950000  0.80037900  1
  Co  Co9  1  0.22757200  0.13325600  0.58775000  1
  Co  Co10  1  0.27242800  0.63325600  0.08775000  1
  Co  Co11  1  0.30065500  0.96950000  0.30037900  1
  Co  Co12  1  0.65506300  0.01609000  0.80056100  1
  Co  Co13  1  0.65411700  0.33730300  0.56649700  1
  Co  Co14  1  0.84588300  0.83730300  0.06649700  1
  Co  Co15  1  0.84493700  0.51609000  0.30056100  1
  O  O16  1  0.06515100  0.02295000  0.43400900  1
  O  O17  1  0.00500500  0.69311300  0.95372100  1
  O  O18  1  0.15652400  0.82579000  0.17156800  1
  O  O19  1  0.13818800  0.50179400  0.20373800  1
  O  O20  1  0.36181200  0.00179400  0.70373800  1
  O  O21  1  0.34347600  0.32579000  0.67156800  1
  O  O22  1  0.49499500  0.19311300  0.45372100  1
  O  O23  1  0.43484900  0.52295000  0.93400900  1
  F  F24  1  0.01689000  0.33391200  0.92466000  1
  F  F25  1  0.18087900  0.15516000  0.19479300  1
  F  F26  1  0.31912100  0.65516000  0.69479300  1
  F  F27  1  0.48311000  0.83391200  0.42466000  1
  F  F28  1  0.52818000  0.16977900  0.93758100  1
  F  F29  1  0.52854700  0.50003700  0.42733000  1
  F  F30  1  0.54259800  0.84263500  0.93251300  1
  F  F31  1  0.64608900  0.66064700  0.17961700  1
  F  F32  1  0.66920600  0.34173100  0.19441700  1
  F  F33  1  0.66158800  0.98336900  0.19822500  1
  F  F34  1  0.83841200  0.48336900  0.69822500  1
  F  F35  1  0.83079400  0.84173100  0.69441700  1
  F  F36  1  0.85391100  0.16064700  0.67961700  1
  F  F37  1  0.95740200  0.34263500  0.43251300  1
  F  F38  1  0.97145300  0.00003700  0.92733000  1
  F  F39  1  0.97182000  0.66977900  0.43758100  1
