# generated using pymatgen
data_Li4Sn(PO3)6
_symmetry_space_group_name_H-M   'P 1'
_cell_length_a   7.41576803
_cell_length_b   7.41576803
_cell_length_c   14.49811633
_cell_angle_alpha   86.68332565
_cell_angle_beta   86.68332565
_cell_angle_gamma   66.23079869
_symmetry_Int_Tables_number   1
_chemical_formula_structural   Li4Sn(PO3)6
_chemical_formula_sum   'Li8 Sn2 P12 O36'
_cell_volume   727.93089385
_cell_formula_units_Z   2
loop_
 _symmetry_equiv_pos_site_id
 _symmetry_equiv_pos_as_xyz
  1  'x, y, z'
loop_
 _atom_site_type_symbol
 _atom_site_label
 _atom_site_symmetry_multiplicity
 _atom_site_fract_x
 _atom_site_fract_y
 _atom_site_fract_z
 _atom_site_occupancy
  Li  Li0  1  0.96734200  0.67918400  0.93064300  1
  Li  Li1  1  0.67918400  0.96734200  0.43064300  1
  Li  Li2  1  0.76695800  0.57117200  0.55123700  1
  Li  Li3  1  0.57117200  0.76695800  0.05123700  1
  Li  Li4  1  0.42882800  0.23304200  0.94876300  1
  Li  Li5  1  0.23304200  0.42882800  0.44876300  1
  Li  Li6  1  0.32081600  0.03265800  0.56935700  1
  Li  Li7  1  0.03265800  0.32081600  0.06935700  1
  Sn  Sn8  1  0.37120400  0.62879600  0.75000000  1
  Sn  Sn9  1  0.62879600  0.37120400  0.25000000  1
  P  P10  1  0.95848800  0.85631900  0.60832800  1
  P  P11  1  0.85631900  0.95848800  0.10832800  1
  P  P12  1  0.63413400  0.93079400  0.74300900  1
  P  P13  1  0.93079400  0.63413400  0.24300900  1
  P  P14  1  0.76998100  0.38335500  0.89785700  1
  P  P15  1  0.38335500  0.76998100  0.39785700  1
  P  P16  1  0.61664500  0.23001900  0.60214300  1
  P  P17  1  0.23001900  0.61664500  0.10214300  1
  P  P18  1  0.06920600  0.36586600  0.75699100  1
  P  P19  1  0.36586600  0.06920600  0.25699100  1
  P  P20  1  0.14368100  0.04151200  0.89167200  1
  P  P21  1  0.04151200  0.14368100  0.39167200  1
  O  O22  1  0.86726300  0.83324300  0.71044100  1
  O  O23  1  0.89933900  0.75169100  0.53822400  1
  O  O24  1  0.83324300  0.86726300  0.21044100  1
  O  O25  1  0.75169100  0.89933900  0.03822400  1
  O  O26  1  0.62278600  0.91454000  0.84524400  1
  O  O27  1  0.91454000  0.62278600  0.34524400  1
  O  O28  1  0.82121100  0.50323200  0.96415400  1
  O  O29  1  0.52351900  0.84925900  0.68408300  1
  O  O30  1  0.83847600  0.42519000  0.79241100  1
  O  O31  1  0.50323200  0.82121100  0.46415400  1
  O  O32  1  0.84925900  0.52351900  0.18408300  1
  O  O33  1  0.42519000  0.83847600  0.29241100  1
  O  O34  1  0.90823600  0.15124600  0.91309900  1
  O  O35  1  0.18258200  0.82802100  0.87935700  1
  O  O36  1  0.56276900  0.39922900  0.89552800  1
  O  O37  1  0.15124600  0.90823600  0.41309900  1
  O  O38  1  0.60077100  0.43723100  0.60447200  1
  O  O39  1  0.82802100  0.18258200  0.37935700  1
  O  O40  1  0.17197900  0.81741800  0.62064300  1
  O  O41  1  0.39922900  0.56276900  0.39552800  1
  O  O42  1  0.84875400  0.09176400  0.58690100  1
  O  O43  1  0.43723100  0.60077100  0.10447200  1
  O  O44  1  0.81741800  0.17197900  0.12064300  1
  O  O45  1  0.09176400  0.84875400  0.08690100  1
  O  O46  1  0.57481000  0.16152400  0.70758900  1
  O  O47  1  0.15074100  0.47648100  0.81591700  1
  O  O48  1  0.49676800  0.17878900  0.53584600  1
  O  O49  1  0.16152400  0.57481000  0.20758900  1
  O  O50  1  0.47648100  0.15074100  0.31591700  1
  O  O51  1  0.17878900  0.49676800  0.03584600  1
  O  O52  1  0.08546000  0.37721400  0.65475600  1
  O  O53  1  0.37721400  0.08546000  0.15475600  1
  O  O54  1  0.24830900  0.10066100  0.96177600  1
  O  O55  1  0.16675700  0.13273700  0.78955900  1
  O  O56  1  0.10066100  0.24830900  0.46177600  1
  O  O57  1  0.13273700  0.16675700  0.28955900  1
