# generated using pymatgen
data_LiMnPO5
_symmetry_space_group_name_H-M   'P 1'
_cell_length_a   6.70765100
_cell_length_b   6.94216725
_cell_length_c   8.01340654
_cell_angle_alpha   89.79973161
_cell_angle_beta   91.29681152
_cell_angle_gamma   116.31075977
_symmetry_Int_Tables_number   1
_chemical_formula_structural   LiMnPO5
_chemical_formula_sum   'Li4 Mn4 P4 O20'
_cell_volume   334.39772082
_cell_formula_units_Z   4
loop_
 _symmetry_equiv_pos_site_id
 _symmetry_equiv_pos_as_xyz
  1  'x, y, z'
loop_
 _atom_site_type_symbol
 _atom_site_label
 _atom_site_symmetry_multiplicity
 _atom_site_fract_x
 _atom_site_fract_y
 _atom_site_fract_z
 _atom_site_occupancy
  Li  Li0  1  0.28907300  0.79651200  0.43379300  1
  Li  Li1  1  0.22182900  0.27713100  0.06705000  1
  Li  Li2  1  0.77817100  0.72286900  0.93295000  1
  Li  Li3  1  0.71092700  0.20348800  0.56620700  1
  Mn  Mn4  1  0.24639000  0.49671400  0.74791600  1
  Mn  Mn5  1  0.24636200  0.99710700  0.75292100  1
  Mn  Mn6  1  0.75363800  0.00289300  0.24707900  1
  Mn  Mn7  1  0.75361000  0.50328600  0.25208400  1
  P  P8  1  0.23992300  0.75355000  0.08448400  1
  P  P9  1  0.26126200  0.24524600  0.41625800  1
  P  P10  1  0.73873800  0.75475400  0.58374200  1
  P  P11  1  0.76007700  0.24645000  0.91551600  1
  O  O12  1  0.13574100  0.86737200  0.96935700  1
  O  O13  1  0.07924500  0.64004800  0.22841400  1
  O  O14  1  0.23122100  0.74225500  0.66878600  1
  O  O15  1  0.28893500  0.58976300  0.98407800  1
  O  O16  1  0.19794000  0.39537100  0.51966200  1
  O  O17  1  0.44601800  0.92182300  0.18006200  1
  O  O18  1  0.06083100  0.08382000  0.31149000  1
  O  O19  1  0.26741900  0.25580800  0.83217400  1
  O  O20  1  0.64388100  0.88102700  0.47147100  1
  O  O21  1  0.42927700  0.37121000  0.27968100  1
  O  O22  1  0.57072300  0.62879000  0.72031900  1
  O  O23  1  0.35611900  0.11897300  0.52852900  1
  O  O24  1  0.73258100  0.74419200  0.16782600  1
  O  O25  1  0.93916900  0.91618000  0.68851000  1
  O  O26  1  0.55398200  0.07817700  0.81993800  1
  O  O27  1  0.80206000  0.60462900  0.48033800  1
  O  O28  1  0.71106500  0.41023700  0.01592200  1
  O  O29  1  0.76877900  0.25774500  0.33121400  1
  O  O30  1  0.92075500  0.35995200  0.77158600  1
  O  O31  1  0.86425900  0.13262800  0.03064300  1
