# generated using pymatgen
data_Li6V3P8O29
_symmetry_space_group_name_H-M   'P 1'
_cell_length_a   9.83724204
_cell_length_b   9.81250604
_cell_length_c   13.92268631
_cell_angle_alpha   90.06568315
_cell_angle_beta   89.91563983
_cell_angle_gamma   59.89017109
_symmetry_Int_Tables_number   1
_chemical_formula_structural   Li6V3P8O29
_chemical_formula_sum   'Li12 V6 P16 O58'
_cell_volume   1162.58244308
_cell_formula_units_Z   2
loop_
 _symmetry_equiv_pos_site_id
 _symmetry_equiv_pos_as_xyz
  1  'x, y, z'
loop_
 _atom_site_type_symbol
 _atom_site_label
 _atom_site_symmetry_multiplicity
 _atom_site_fract_x
 _atom_site_fract_y
 _atom_site_fract_z
 _atom_site_occupancy
  Li  Li0  1  0.90705400  0.76586900  0.05997100  1
  Li  Li1  1  0.90751400  0.31764700  0.55886800  1
  Li  Li2  1  0.66197000  0.67412800  0.88482800  1
  Li  Li3  1  0.76467700  0.32431700  0.06111200  1
  Li  Li4  1  0.32413400  0.90604800  0.06087900  1
  Li  Li5  1  0.69076500  0.22178900  0.44271100  1
  Li  Li6  1  0.31846200  0.77102200  0.56161100  1
  Li  Li7  1  0.33984300  0.32931900  0.61488700  1
  Li  Li8  1  0.08079000  0.69705000  0.44015100  1
  Li  Li9  1  0.22470400  0.08595400  0.43926000  1
  Li  Li10  1  0.09686600  0.23509600  0.94051300  1
  Li  Li11  1  0.98889300  0.97392500  0.99204000  1
  V  V12  1  0.56555200  0.43352200  0.24879300  1
  V  V13  1  0.43219200  0.56427300  0.75604500  1
  V  V14  1  0.56814400  0.00192000  0.74880500  1
  V  V15  1  0.43912800  0.99849000  0.24940900  1
  V  V16  1  0.99990600  0.56905100  0.24986400  1
  V  V17  1  0.00054800  0.43738800  0.74906700  1
  P  P18  1  0.90939500  0.77745900  0.84217000  1
  P  P19  1  0.76958300  0.91453900  0.34415400  1
  P  P20  1  0.91080200  0.32197200  0.34090000  1
  P  P21  1  0.66764000  0.66688700  0.12597800  1
  P  P22  1  0.66338300  0.66570000  0.62890400  1
  P  P23  1  0.77594700  0.31609100  0.84468500  1
  P  P24  1  0.68086700  0.22995100  0.65889000  1
  P  P25  1  0.31670700  0.91186200  0.84300600  1
  P  P26  1  0.69227300  0.08223000  0.15673900  1
  P  P27  1  0.31976100  0.76756500  0.34291100  1
  P  P28  1  0.22512200  0.68983800  0.15763600  1
  P  P29  1  0.33313400  0.33322300  0.37180400  1
  P  P30  1  0.33202400  0.33072100  0.87275100  1
  P  P31  1  0.09217100  0.68042100  0.65702300  1
  P  P32  1  0.23128300  0.09056800  0.65592700  1
  P  P33  1  0.08757400  0.22901800  0.15729300  1
  O  O34  1  0.00456200  0.75235600  0.56759400  1
  O  O35  1  0.91793300  0.74808700  0.34124000  1
  O  O36  1  0.79452500  0.99573700  0.07253400  1
  O  O37  1  0.74399700  0.91959300  0.83564400  1
  O  O38  1  0.89613400  0.62553900  0.83119000  1
  O  O39  1  0.81206300  0.67821900  0.16339100  1
  O  O40  1  0.89933000  0.48250000  0.32156400  1
  O  O41  1  0.99943000  0.22844900  0.06846400  1
  O  O42  1  0.92284500  0.33510900  0.84072700  1
  O  O43  1  0.65379100  0.81587700  0.67520500  1
  O  O44  1  0.62205200  0.89891900  0.32275100  1
  O  O45  1  0.81864500  0.51866800  0.67109600  1
  O  O46  1  0.66533900  0.66884200  0.01759700  1
  O  O47  1  0.66232000  0.66070400  0.52270500  1
  O  O48  1  0.67839200  0.51132600  0.16403600  1
  O  O49  1  0.48003300  0.89736200  0.83403000  1
  O  O50  1  0.51288600  0.81116200  0.16585900  1
  O  O51  1  0.74672500  0.33785300  0.34216800  1
  O  O52  1  0.78760300  0.21547800  0.75066000  1
  O  O53  1  0.75871800  0.24779300  0.57042700  1
  O  O54  1  0.77962300  0.22944000  0.93399400  1
  O  O55  1  0.62756200  0.48225100  0.83301200  1
  O  O56  1  0.51997300  0.65693900  0.67323900  1
  O  O57  1  0.66096800  0.25502900  0.16164300  1
  O  O58  1  0.47989500  0.61841000  0.32088400  1
  O  O59  1  0.33759400  0.91517000  0.34162900  1
  O  O60  1  0.79300400  0.00086600  0.25201400  1
  O  O61  1  0.75710400  0.00684300  0.43132300  1
  O  O62  1  0.24697200  0.99412000  0.56794800  1
  O  O63  1  0.66449700  0.08349200  0.65949900  1
  O  O64  1  0.51421900  0.37546100  0.67355300  1
  O  O65  1  0.33577000  0.74791900  0.84093300  1
  O  O66  1  0.48616800  0.32835600  0.33392700  1
  O  O67  1  0.37915500  0.53366900  0.16775200  1
  O  O68  1  0.20955900  0.79522400  0.07552000  1
  O  O69  1  0.24816600  0.75182600  0.43467800  1
  O  O70  1  0.20375400  0.78778300  0.25670200  1
  O  O71  1  0.25620300  0.66619400  0.65980700  1
  O  O72  1  0.47431000  0.18335200  0.82530300  1
  O  O73  1  0.53625300  0.08375900  0.16632200  1
  O  O74  1  0.33732600  0.47654400  0.82930700  1
  O  O75  1  0.32643100  0.32741300  0.97875800  1
  O  O76  1  0.33070500  0.33163100  0.47993300  1
  O  O77  1  0.18596200  0.48649700  0.33309800  1
  O  O78  1  0.37231900  0.11649100  0.66961400  1
  O  O79  1  0.32968600  0.18500900  0.33138100  1
  O  O80  1  0.08256300  0.66159300  0.16015500  1
  O  O81  1  0.00384500  0.78523400  0.75009900  1
  O  O82  1  0.99091500  0.78087700  0.93228300  1
  O  O83  1  0.11800700  0.51106800  0.67505800  1
  O  O84  1  0.17948200  0.33492100  0.82989700  1
  O  O85  1  0.09347800  0.38000700  0.17165900  1
  O  O86  1  0.25480000  0.08170900  0.15947900  1
  O  O87  1  0.22477200  0.00468100  0.93065800  1
  O  O88  1  0.21552600  0.00246100  0.74896500  1
  O  O89  1  0.07900300  0.25272600  0.65446800  1
  O  O90  1  0.00228000  0.24524400  0.43069400  1
  O  O91  1  0.99960500  0.20918300  0.25024100  1
