# generated using pymatgen
data_Li8MnO6
_symmetry_space_group_name_H-M   'P 1'
_cell_length_a   5.54010417
_cell_length_b   5.54010417
_cell_length_c   11.03183700
_cell_angle_alpha   90.00000000
_cell_angle_beta   90.00000000
_cell_angle_gamma   120.00000203
_symmetry_Int_Tables_number   1
_chemical_formula_structural   Li8MnO6
_chemical_formula_sum   'Li16 Mn2 O12'
_cell_volume   293.23399739
_cell_formula_units_Z   2
loop_
 _symmetry_equiv_pos_site_id
 _symmetry_equiv_pos_as_xyz
  1  'x, y, z'
loop_
 _atom_site_type_symbol
 _atom_site_label
 _atom_site_symmetry_multiplicity
 _atom_site_fract_x
 _atom_site_fract_y
 _atom_site_fract_z
 _atom_site_occupancy
  Li  Li0  1  0.00000000  0.69171600  0.76647500  1
  Li  Li1  1  0.00000000  0.61617900  0.13135000  1
  Li  Li2  1  0.00000000  0.38382100  0.63135000  1
  Li  Li3  1  0.00000000  0.30828400  0.26647500  1
  Li  Li4  1  0.33333300  0.66666700  0.40335500  1
  Li  Li5  1  0.33333300  0.66666700  0.90335500  1
  Li  Li6  1  0.30828400  0.30828400  0.76647500  1
  Li  Li7  1  0.38382100  0.38382100  0.13135000  1
  Li  Li8  1  0.61617900  0.61617900  0.63135000  1
  Li  Li9  1  0.30828400  0.00000000  0.26647500  1
  Li  Li10  1  0.69171600  0.69171600  0.26647500  1
  Li  Li11  1  0.38382100  0.00000000  0.63135000  1
  Li  Li12  1  0.66666700  0.33333300  0.90335500  1
  Li  Li13  1  0.66666700  0.33333300  0.40335500  1
  Li  Li14  1  0.61617900  0.00000000  0.13135000  1
  Li  Li15  1  0.69171600  0.00000000  0.76647500  1
  Mn  Mn16  1  0.00000000  0.00000000  0.99151500  1
  Mn  Mn17  1  0.00000000  0.00000000  0.49151500  1
  O  O18  1  0.00000000  0.69124600  0.94894900  1
  O  O19  1  0.00000000  0.30875400  0.44894900  1
  O  O20  1  0.33333300  0.66666700  0.21874400  1
  O  O21  1  0.00000000  0.00000000  0.16959700  1
  O  O22  1  0.00000000  0.00000000  0.66959700  1
  O  O23  1  0.33333300  0.66666700  0.71874400  1
  O  O24  1  0.30875400  0.30875400  0.94894900  1
  O  O25  1  0.30875400  0.00000000  0.44894900  1
  O  O26  1  0.69124600  0.69124600  0.44894900  1
  O  O27  1  0.66666700  0.33333300  0.71874400  1
  O  O28  1  0.66666700  0.33333300  0.21874400  1
  O  O29  1  0.69124600  0.00000000  0.94894900  1
