# generated using pymatgen
data_LiVFeP2(HO5)2
_symmetry_space_group_name_H-M   'P 1'
_cell_length_a   14.50610089
_cell_length_b   7.36368620
_cell_length_c   5.21020813
_cell_angle_alpha   74.54616139
_cell_angle_beta   85.85410965
_cell_angle_gamma   91.92338725
_symmetry_Int_Tables_number   1
_chemical_formula_structural   LiVFeP2(HO5)2
_chemical_formula_sum   'Li3 V3 Fe3 P6 H6 O30'
_cell_volume   534.21213845
_cell_formula_units_Z   3
loop_
 _symmetry_equiv_pos_site_id
 _symmetry_equiv_pos_as_xyz
  1  'x, y, z'
loop_
 _atom_site_type_symbol
 _atom_site_label
 _atom_site_symmetry_multiplicity
 _atom_site_fract_x
 _atom_site_fract_y
 _atom_site_fract_z
 _atom_site_occupancy
  Li  Li0  1  0.18741600  0.03670800  0.74131400  1
  Li  Li1  1  0.47850100  0.63046500  0.59243600  1
  Li  Li2  1  0.81287800  0.96448300  0.25937500  1
  V  V3  1  0.16646000  0.66000300  0.33807100  1
  V  V4  1  0.49919300  0.00606800  0.99647400  1
  V  V5  1  0.83368300  0.33841800  0.66257300  1
  Fe  Fe6  1  0.99982700  0.99948000  0.00083300  1
  Fe  Fe7  1  0.33325900  0.33316300  0.66694100  1
  Fe  Fe8  1  0.66641400  0.66249200  0.33406600  1
  P  P9  1  0.04272300  0.26602400  0.40651200  1
  P  P10  1  0.29175000  0.06655500  0.25631600  1
  P  P11  1  0.37448600  0.59994700  0.07776900  1
  P  P12  1  0.62390700  0.39898900  0.92650100  1
  P  P13  1  0.70849600  0.93851800  0.74278900  1
  P  P14  1  0.95735700  0.73278500  0.59469300  1
  H  H15  1  0.09614500  0.74466800  0.90266100  1
  H  H16  1  0.23141300  0.56430800  0.78293000  1
  H  H17  1  0.43532000  0.10239700  0.55117500  1
  H  H18  1  0.56961000  0.92036500  0.43195900  1
  H  H19  1  0.77028900  0.42709500  0.21872000  1
  H  H20  1  0.90383500  0.25515700  0.09911400  1
  O  O21  1  0.05816000  0.13095900  0.23276400  1
  O  O22  1  0.07326100  0.18152800  0.68815900  1
  O  O23  1  0.06220100  0.68608400  0.58709500  1
  O  O24  1  0.10155600  0.45324500  0.27099000  1
  O  O25  1  0.26537100  0.14454200  0.96693500  1
  O  O26  1  0.11052200  0.82574800  0.02053300  1
  O  O27  1  0.23089500  0.50696000  0.63180800  1
  O  O28  1  0.27486200  0.20423900  0.42954800  1
  O  O29  1  0.39567300  0.01530300  0.25808200  1
  O  O30  1  0.22840100  0.88828100  0.40051800  1
  O  O31  1  0.27081000  0.65125300  0.07612600  1
  O  O32  1  0.39183200  0.46293700  0.90362200  1
  O  O33  1  0.43542800  0.15949500  0.70252600  1
  O  O34  1  0.40128600  0.52182000  0.36670300  1
  O  O35  1  0.43818300  0.77843600  0.93366100  1
  O  O36  1  0.56463200  0.21299100  0.06363400  1
  O  O37  1  0.59260800  0.48475000  0.64587900  1
  O  O38  1  0.55555500  0.83933600  0.31367800  1
  O  O39  1  0.60962300  0.53647500  0.09717300  1
  O  O40  1  0.72801200  0.35004500  0.91719800  1
  O  O41  1  0.77147000  0.11581000  0.59371500  1
  O  O42  1  0.60371600  0.98423100  0.74034700  1
  O  O43  1  0.72553200  0.79910900  0.57193700  1
  O  O44  1  0.77257100  0.48786700  0.36606000  1
  O  O45  1  0.88947200  0.17344400  0.98211300  1
  O  O46  1  0.73464400  0.86406300  0.03105400  1
  O  O47  1  0.89843900  0.54642900  0.73003700  1
  O  O48  1  0.93821200  0.31245400  0.41440200  1
  O  O49  1  0.92687900  0.81757600  0.31278200  1
  O  O50  1  0.94203700  0.86876300  0.76720800  1
