# generated using pymatgen
data_Li3Cr3CuO8
_symmetry_space_group_name_H-M   'P 1'
_cell_length_a   5.89891237
_cell_length_b   5.89891237
_cell_length_c   5.89891252
_cell_angle_alpha   59.81110399
_cell_angle_beta   59.81110399
_cell_angle_gamma   59.81110382
_symmetry_Int_Tables_number   1
_chemical_formula_structural   Li3Cr3CuO8
_chemical_formula_sum   'Li3 Cr3 Cu1 O8'
_cell_volume   144.52223630
_cell_formula_units_Z   1
loop_
 _symmetry_equiv_pos_site_id
 _symmetry_equiv_pos_as_xyz
  1  'x, y, z'
loop_
 _atom_site_type_symbol
 _atom_site_label
 _atom_site_symmetry_multiplicity
 _atom_site_fract_x
 _atom_site_fract_y
 _atom_site_fract_z
 _atom_site_occupancy
  Li  Li0  1  0.00000000  0.50000000  0.00000000  1
  Li  Li1  1  0.00000000  0.00000000  0.50000000  1
  Li  Li2  1  0.50000000  0.00000000  0.00000000  1
  Cr  Cr3  1  0.50000000  0.00000000  0.50000000  1
  Cr  Cr4  1  0.50000000  0.50000000  0.00000000  1
  Cr  Cr5  1  0.00000000  0.50000000  0.50000000  1
  Cu  Cu6  1  0.00000000  0.00000000  0.00000000  1
  O  O7  1  0.25792900  0.25792900  0.25792900  1
  O  O8  1  0.76498400  0.25333100  0.76498400  1
  O  O9  1  0.76498400  0.76498400  0.25333100  1
  O  O10  1  0.74207100  0.74207100  0.74207100  1
  O  O11  1  0.25333100  0.76498400  0.76498400  1
  O  O12  1  0.23501600  0.74666900  0.23501600  1
  O  O13  1  0.23501600  0.23501600  0.74666900  1
  O  O14  1  0.74666900  0.23501600  0.23501600  1
