# generated using pymatgen
data_KLi2Sb(PO4)2
_symmetry_space_group_name_H-M   'P 1'
_cell_length_a   10.19354500
_cell_length_b   10.20889493
_cell_length_c   13.51596340
_cell_angle_alpha   111.46445372
_cell_angle_beta   79.93803238
_cell_angle_gamma   119.41126221
_symmetry_Int_Tables_number   1
_chemical_formula_structural   KLi2Sb(PO4)2
_chemical_formula_sum   'K6 Li12 Sb6 P12 O48'
_cell_volume   1140.25861123
_cell_formula_units_Z   6
loop_
 _symmetry_equiv_pos_site_id
 _symmetry_equiv_pos_as_xyz
  1  'x, y, z'
loop_
 _atom_site_type_symbol
 _atom_site_label
 _atom_site_symmetry_multiplicity
 _atom_site_fract_x
 _atom_site_fract_y
 _atom_site_fract_z
 _atom_site_occupancy
  K  K0  1  0.49812700  0.00213400  0.99915400  1
  K  K1  1  0.66718100  0.50209200  0.33541300  1
  K  K2  1  0.00337800  0.48685200  0.98470100  1
  K  K3  1  0.83826200  0.03223200  0.66801500  1
  K  K4  1  0.16582100  0.99810300  0.33334000  1
  K  K5  1  0.30242100  0.49871500  0.66978600  1
  Li  Li6  1  0.68688300  0.61407300  0.59949200  1
  Li  Li7  1  0.64936100  0.38873800  0.07348200  1
  Li  Li8  1  0.48157700  0.88701400  0.74246000  1
  Li  Li9  1  0.01778000  0.61152900  0.25613500  1
  Li  Li10  1  0.84204900  0.10893500  0.92138000  1
  Li  Li11  1  0.81551400  0.88417800  0.40715600  1
  Li  Li12  1  0.18162500  0.11344300  0.59074200  1
  Li  Li13  1  0.82698100  0.62649800  0.91625500  1
  Li  Li14  1  0.14720900  0.88691300  0.07440700  1
  Li  Li15  1  0.51755900  0.11413300  0.25942000  1
  Li  Li16  1  0.35135300  0.61743400  0.92083000  1
  Li  Li17  1  0.32045000  0.38833800  0.40813800  1
  Sb  Sb18  1  0.00508400  0.01524500  0.00293600  1
  Sb  Sb19  1  0.16614400  0.50177600  0.33573100  1
  Sb  Sb20  1  0.48536300  0.50084300  0.00655700  1
  Sb  Sb21  1  0.33219300  0.00043100  0.66567700  1
  Sb  Sb22  1  0.66534300  0.99610300  0.33197700  1
  Sb  Sb23  1  0.84235600  0.48141700  0.66068100  1
  P  P24  1  0.33576200  0.24850100  0.16871500  1
  P  P25  1  0.83145600  0.25536700  0.16523300  1
  P  P26  1  0.50504700  0.74649300  0.50288400  1
  P  P27  1  0.83317200  0.74084300  0.16683500  1
  P  P28  1  0.99751100  0.75235600  0.49907200  1
  P  P29  1  0.66630800  0.24974900  0.83067900  1
  P  P30  1  0.32910500  0.75238500  0.16486700  1
  P  P31  1  0.00417400  0.24726000  0.49397600  1
  P  P32  1  0.16993800  0.24890600  0.83447600  1
  P  P33  1  0.49831800  0.24953900  0.49866500  1
  P  P34  1  0.16522200  0.75759900  0.84051000  1
  P  P35  1  0.66317200  0.75235800  0.83345700  1
  O  O36  1  0.41730500  0.18318600  0.20708400  1
  O  O37  1  0.33720900  0.39748700  0.25900400  1
  O  O38  1  0.18002900  0.91307500  0.93129700  1
  O  O39  1  0.41973900  0.29424100  0.06809400  1
  O  O40  1  0.24828400  0.79436000  0.73785100  1
  O  O41  1  0.33968500  0.61101300  0.47037400  1
  O  O42  1  0.74919100  0.31669300  0.12362800  1
  O  O43  1  0.58744300  0.68115100  0.54019100  1
  O  O44  1  0.50377000  0.89280800  0.59483800  1
  O  O45  1  0.59040800  0.79718700  0.40368600  1
  O  O46  1  0.66869100  0.60412400  0.14285200  1
  O  O47  1  0.49907900  0.11729500  0.81047800  1
  O  O48  1  0.99542900  0.39046700  0.19851100  1
  O  O49  1  0.82609800  0.89334500  0.86748700  1
  O  O50  1  0.91135200  0.69876900  0.59475200  1
  O  O51  1  0.00482200  0.60797400  0.40585300  1
  O  O52  1  0.92446200  0.69102400  0.21007900  1
  O  O53  1  0.91717100  0.81533900  0.45686700  1
  O  O54  1  0.75085400  0.19034100  0.87250800  1
  O  O55  1  0.83478400  0.89451700  0.25245400  1
  O  O56  1  0.67983700  0.40940200  0.91840600  1
  O  O57  1  0.90868800  0.77238700  0.05983100  1
  O  O58  1  0.73665000  0.28188500  0.72438500  1
  O  O59  1  0.84020500  0.10864600  0.46583400  1
  O  O60  1  0.16151700  0.89139100  0.53237600  1
  O  O61  1  0.24413700  0.70375300  0.26317100  1
  O  O62  1  0.08475500  0.20184800  0.93569600  1
  O  O63  1  0.32818700  0.60157600  0.07242800  1
  O  O64  1  0.17449300  0.10150400  0.74547500  1
  O  O65  1  0.24770400  0.81322500  0.12248800  1
  O  O66  1  0.08813500  0.19511100  0.54269200  1
  O  O67  1  0.08631600  0.30908900  0.79459400  1
  O  O68  1  0.00137400  0.40210300  0.57422600  1
  O  O69  1  0.09088800  0.28619800  0.39271900  1
  O  O70  1  0.16961500  0.11420600  0.13827900  1
  O  O71  1  0.99290000  0.63924200  0.81895900  1
  O  O72  1  0.49423600  0.88576300  0.19487500  1
  O  O73  1  0.33374500  0.38689200  0.86975900  1
  O  O74  1  0.40552400  0.20082700  0.59603000  1
  O  O75  1  0.50082000  0.10066000  0.40804600  1
  O  O76  1  0.42025300  0.31238200  0.45449100  1
  O  O77  1  0.24022600  0.68506700  0.87853900  1
  O  O78  1  0.66270000  0.38243200  0.53303600  1
  O  O79  1  0.74302200  0.20252800  0.26197900  1
  O  O80  1  0.57768700  0.70504900  0.93413800  1
  O  O81  1  0.83695200  0.11044100  0.07222800  1
  O  O82  1  0.67134000  0.60685000  0.74772800  1
  O  O83  1  0.57675300  0.81135500  0.79329800  1
