# generated using pymatgen
data_Li5Mn3(BO3)4
_symmetry_space_group_name_H-M   'P 1'
_cell_length_a   9.17518200
_cell_length_b   5.30893300
_cell_length_c   11.00867200
_cell_angle_alpha   62.75293151
_cell_angle_beta   90.00000000
_cell_angle_gamma   90.00000000
_symmetry_Int_Tables_number   1
_chemical_formula_structural   Li5Mn3(BO3)4
_chemical_formula_sum   'Li10 Mn6 B8 O24'
_cell_volume   476.73654299
_cell_formula_units_Z   2
loop_
 _symmetry_equiv_pos_site_id
 _symmetry_equiv_pos_as_xyz
  1  'x, y, z'
loop_
 _atom_site_type_symbol
 _atom_site_label
 _atom_site_symmetry_multiplicity
 _atom_site_fract_x
 _atom_site_fract_y
 _atom_site_fract_z
 _atom_site_occupancy
  Li  Li0  1  0.23125400  0.50282000  0.33904300  1
  Li  Li1  1  0.91860500  0.45381300  0.37348000  1
  Li  Li2  1  0.41726900  0.54163800  0.12924400  1
  Li  Li3  1  0.73377900  0.51140900  0.14995100  1
  Li  Li4  1  0.74452700  0.06564300  0.62219200  1
  Li  Li5  1  0.76874600  0.50282000  0.83904300  1
  Li  Li6  1  0.08139500  0.45381300  0.87348000  1
  Li  Li7  1  0.25547300  0.06564300  0.12219200  1
  Li  Li8  1  0.58273100  0.54163800  0.62924400  1
  Li  Li9  1  0.26622100  0.51140900  0.64995100  1
  Mn  Mn10  1  0.57928100  0.97819500  0.87654600  1
  Mn  Mn11  1  0.24082700  0.93452300  0.88965500  1
  Mn  Mn12  1  0.06946800  0.02519900  0.61827700  1
  Mn  Mn13  1  0.42071900  0.97819500  0.37654600  1
  Mn  Mn14  1  0.75917300  0.93452300  0.38965500  1
  Mn  Mn15  1  0.93053200  0.02519900  0.11827700  1
  B  B16  1  0.57104100  0.45596900  0.37886400  1
  B  B17  1  0.91023200  0.96375100  0.86756200  1
  B  B18  1  0.07328600  0.54404100  0.11952000  1
  B  B19  1  0.41541600  0.03104600  0.63486700  1
  B  B20  1  0.08976800  0.96375100  0.36756200  1
  B  B21  1  0.42895900  0.45596900  0.87886400  1
  B  B22  1  0.58458400  0.03104600  0.13486700  1
  B  B23  1  0.92671400  0.54404100  0.61952000  1
  O  O24  1  0.58118400  0.83272900  0.08424600  1
  O  O25  1  0.91017200  0.32082600  0.58851600  1
  O  O26  1  0.19597300  0.70951500  0.11211100  1
  O  O27  1  0.93753500  0.60715700  0.15417800  1
  O  O28  1  0.54521100  0.12238400  0.66919700  1
  O  O29  1  0.28343400  0.13108700  0.65722400  1
  O  O30  1  0.43663100  0.38565300  0.34531000  1
  O  O31  1  0.69996400  0.32286800  0.37628800  1
  O  O32  1  0.78086200  0.84320200  0.85798400  1
  O  O33  1  0.03800400  0.86360300  0.83348200  1
  O  O34  1  0.08264000  0.17756200  0.40723100  1
  O  O35  1  0.42223000  0.67536400  0.91503000  1
  O  O36  1  0.08982800  0.32082600  0.08851600  1
  O  O37  1  0.41881600  0.83272900  0.58424600  1
  O  O38  1  0.45478900  0.12238400  0.16919700  1
  O  O39  1  0.71656600  0.13108700  0.15722400  1
  O  O40  1  0.80402700  0.70951500  0.61211100  1
  O  O41  1  0.06246500  0.60715700  0.65417800  1
  O  O42  1  0.21913800  0.84320200  0.35798400  1
  O  O43  1  0.96199600  0.86360300  0.33348200  1
  O  O44  1  0.56336900  0.38565300  0.84531000  1
  O  O45  1  0.30003600  0.32286800  0.87628800  1
  O  O46  1  0.57777000  0.67536400  0.41503000  1
  O  O47  1  0.91736000  0.17756200  0.90723100  1
