# generated using pymatgen
data_Li4Cr3GaO8
_symmetry_space_group_name_H-M   'P 1'
_cell_length_a   5.13872600
_cell_length_b   5.92839440
_cell_length_c   10.26889340
_cell_angle_alpha   90.00376858
_cell_angle_beta   99.59056985
_cell_angle_gamma   106.77944173
_symmetry_Int_Tables_number   1
_chemical_formula_structural   Li4Cr3GaO8
_chemical_formula_sum   'Li8 Cr6 Ga2 O16'
_cell_volume   294.94526900
_cell_formula_units_Z   2
loop_
 _symmetry_equiv_pos_site_id
 _symmetry_equiv_pos_as_xyz
  1  'x, y, z'
loop_
 _atom_site_type_symbol
 _atom_site_label
 _atom_site_symmetry_multiplicity
 _atom_site_fract_x
 _atom_site_fract_y
 _atom_site_fract_z
 _atom_site_occupancy
  Li  Li0  1  0.00003000  0.75015200  0.74986300  1
  Li  Li1  1  0.00047000  0.75024200  0.24996500  1
  Li  Li2  1  0.00000000  0.50000000  0.50000000  1
  Li  Li3  1  0.00000000  0.50000000  0.00000000  1
  Li  Li4  1  0.99953000  0.24975800  0.75003500  1
  Li  Li5  1  0.99997000  0.24984800  0.25013700  1
  Li  Li6  1  0.00000000  0.00000000  0.50000000  1
  Li  Li7  1  0.00000000  0.00000000  0.00000000  1
  Cr  Cr8  1  0.49998300  0.62481800  0.37482400  1
  Cr  Cr9  1  0.50001700  0.37518200  0.62517600  1
  Cr  Cr10  1  0.50006000  0.12514300  0.37482900  1
  Cr  Cr11  1  0.50019900  0.12521300  0.87522400  1
  Cr  Cr12  1  0.49994000  0.87485700  0.62517100  1
  Cr  Cr13  1  0.49980100  0.87478700  0.12477600  1
  Ga  Ga14  1  0.49999400  0.62482100  0.87510500  1
  Ga  Ga15  1  0.50000600  0.37517900  0.12489500  1
  O  O16  1  0.27381400  0.56841700  0.68969300  1
  O  O17  1  0.27420800  0.56817900  0.18934300  1
  O  O18  1  0.72487600  0.68147900  0.56038000  1
  O  O19  1  0.72633000  0.68082700  0.06033200  1
  O  O20  1  0.27512400  0.31852100  0.43962000  1
  O  O21  1  0.72618600  0.43158300  0.31030700  1
  O  O22  1  0.27367000  0.31917300  0.93966800  1
  O  O23  1  0.72579200  0.43182100  0.81065700  1
  O  O24  1  0.27535200  0.06879800  0.68977100  1
  O  O25  1  0.72469400  0.18110300  0.56029800  1
  O  O26  1  0.27444800  0.06890100  0.18937100  1
  O  O27  1  0.72559200  0.18157900  0.06066100  1
  O  O28  1  0.27530600  0.81889700  0.43970200  1
  O  O29  1  0.72464800  0.93120200  0.31022900  1
  O  O30  1  0.27440800  0.81842100  0.93933900  1
  O  O31  1  0.72555200  0.93109900  0.81062900  1
