# generated using pymatgen
data_Li2Cr2Si2O7
_symmetry_space_group_name_H-M   'P 1'
_cell_length_a   13.64526700
_cell_length_b   5.62913500
_cell_length_c   9.80934110
_cell_angle_alpha   55.37462796
_cell_angle_beta   90.00000000
_cell_angle_gamma   90.00000000
_symmetry_Int_Tables_number   1
_chemical_formula_structural   Li2Cr2Si2O7
_chemical_formula_sum   'Li8 Cr8 Si8 O28'
_cell_volume   620.01556997
_cell_formula_units_Z   4
loop_
 _symmetry_equiv_pos_site_id
 _symmetry_equiv_pos_as_xyz
  1  'x, y, z'
loop_
 _atom_site_type_symbol
 _atom_site_label
 _atom_site_symmetry_multiplicity
 _atom_site_fract_x
 _atom_site_fract_y
 _atom_site_fract_z
 _atom_site_occupancy
  Li  Li0  1  0.34765500  0.73321700  0.11568800  1
  Li  Li1  1  0.74885700  0.02303600  0.18240600  1
  Li  Li2  1  0.24885700  0.97696400  0.31759400  1
  Li  Li3  1  0.84765500  0.26678300  0.38431200  1
  Li  Li4  1  0.15234500  0.73321700  0.61568800  1
  Li  Li5  1  0.75114300  0.02303600  0.68240600  1
  Li  Li6  1  0.25114300  0.97696400  0.81759400  1
  Li  Li7  1  0.65234500  0.26678300  0.88431200  1
  Cr  Cr8  1  0.08318000  0.55147300  0.09905500  1
  Cr  Cr9  1  0.49140200  0.18040000  0.17513300  1
  Cr  Cr10  1  0.99140200  0.81960000  0.32486700  1
  Cr  Cr11  1  0.58318000  0.44852700  0.40094500  1
  Cr  Cr12  1  0.41682000  0.55147300  0.59905500  1
  Cr  Cr13  1  0.00859800  0.18040000  0.67513300  1
  Cr  Cr14  1  0.50859800  0.81960000  0.82486700  1
  Cr  Cr15  1  0.91682000  0.44852700  0.90094500  1
  Si  Si16  1  0.88471100  0.78523400  0.04420700  1
  Si  Si17  1  0.67819900  0.63673100  0.05267800  1
  Si  Si18  1  0.17819900  0.36326900  0.44732200  1
  Si  Si19  1  0.38471100  0.21476600  0.45579300  1
  Si  Si20  1  0.61528900  0.78523400  0.54420700  1
  Si  Si21  1  0.82180100  0.63673100  0.55267800  1
  Si  Si22  1  0.32180100  0.36326900  0.94732200  1
  Si  Si23  1  0.11528900  0.21476600  0.95579300  1
  O  O24  1  0.79756300  0.57609200  0.04538700  1
  O  O25  1  0.16594900  0.91083600  0.01508000  1
  O  O26  1  0.03048900  0.20622300  0.08166100  1
  O  O27  1  0.62975400  0.33614600  0.09102300  1
  O  O28  1  0.35605300  0.07872500  0.13077700  1
  O  O29  1  0.66199800  0.70983300  0.18950500  1
  O  O30  1  0.93351600  0.59743700  0.22980900  1
  O  O31  1  0.43351600  0.40256300  0.27019100  1
  O  O32  1  0.16199800  0.29016700  0.31049500  1
  O  O33  1  0.85605300  0.92127500  0.36922300  1
  O  O34  1  0.12975400  0.66385400  0.40897700  1
  O  O35  1  0.53048900  0.79377700  0.41833900  1
  O  O36  1  0.66594900  0.08916400  0.48492000  1
  O  O37  1  0.29756300  0.42390800  0.45461300  1
  O  O38  1  0.70243700  0.57609200  0.54538700  1
  O  O39  1  0.33405100  0.91083600  0.51508000  1
  O  O40  1  0.46951100  0.20622300  0.58166100  1
  O  O41  1  0.87024600  0.33614600  0.59102300  1
  O  O42  1  0.14394700  0.07872500  0.63077700  1
  O  O43  1  0.83800200  0.70983300  0.68950500  1
  O  O44  1  0.56648400  0.59743700  0.72980900  1
  O  O45  1  0.06648400  0.40256300  0.77019100  1
  O  O46  1  0.33800200  0.29016700  0.81049500  1
  O  O47  1  0.64394700  0.92127500  0.86922300  1
  O  O48  1  0.37024600  0.66385400  0.90897700  1
  O  O49  1  0.96951100  0.79377700  0.91833900  1
  O  O50  1  0.83405100  0.08916400  0.98492000  1
  O  O51  1  0.20243700  0.42390800  0.95461300  1
