# generated using pymatgen
data_LiVPO4
_symmetry_space_group_name_H-M   'P 1'
_cell_length_a   5.55952800
_cell_length_b   8.47666700
_cell_length_c   18.91249300
_cell_angle_alpha   90.00000000
_cell_angle_beta   90.00000000
_cell_angle_gamma   90.00000000
_symmetry_Int_Tables_number   1
_chemical_formula_structural   LiVPO4
_chemical_formula_sum   'Li12 V12 P12 O48'
_cell_volume   891.27520484
_cell_formula_units_Z   12
loop_
 _symmetry_equiv_pos_site_id
 _symmetry_equiv_pos_as_xyz
  1  'x, y, z'
loop_
 _atom_site_type_symbol
 _atom_site_label
 _atom_site_symmetry_multiplicity
 _atom_site_fract_x
 _atom_site_fract_y
 _atom_site_fract_z
 _atom_site_occupancy
  Li  Li0  1  0.25197400  0.08102000  0.08297400  1
  Li  Li1  1  0.72093900  0.58152900  0.08368900  1
  Li  Li2  1  0.23137700  0.41635900  0.24953700  1
  Li  Li3  1  0.73137700  0.91635900  0.25046300  1
  Li  Li4  1  0.22093900  0.08152900  0.41631100  1
  Li  Li5  1  0.75197400  0.58102000  0.41702600  1
  Li  Li6  1  0.25197400  0.41898000  0.58297400  1
  Li  Li7  1  0.72093900  0.91847100  0.58368900  1
  Li  Li8  1  0.23137700  0.08364100  0.74953700  1
  Li  Li9  1  0.73137700  0.58364100  0.75046300  1
  Li  Li10  1  0.22093900  0.41847100  0.91631100  1
  Li  Li11  1  0.75197400  0.91898000  0.91702600  1
  V  V12  1  0.23590400  0.75028800  0.00036700  1
  V  V13  1  0.73684100  0.24939000  0.16628400  1
  V  V14  1  0.23556800  0.74859000  0.16702700  1
  V  V15  1  0.73556800  0.24859000  0.33297300  1
  V  V16  1  0.23684100  0.74939000  0.33371600  1
  V  V17  1  0.73590400  0.25028800  0.49963300  1
  V  V18  1  0.23590400  0.74971200  0.50036700  1
  V  V19  1  0.73684100  0.25061000  0.66628400  1
  V  V20  1  0.23556800  0.75141000  0.66702700  1
  V  V21  1  0.73556800  0.25141000  0.83297300  1
  V  V22  1  0.23684100  0.75061000  0.83371600  1
  V  V23  1  0.73590400  0.24971200  0.99963300  1
  P  P24  1  0.23420600  0.39608800  0.08282500  1
  P  P25  1  0.73733000  0.89630400  0.08385100  1
  P  P26  1  0.23690200  0.10199000  0.24955000  1
  P  P27  1  0.73690200  0.60199000  0.25045000  1
  P  P28  1  0.23733000  0.39630400  0.41614900  1
  P  P29  1  0.73420600  0.89608800  0.41717500  1
  P  P30  1  0.23420600  0.10391200  0.58282500  1
  P  P31  1  0.73733000  0.60369600  0.58385100  1
  P  P32  1  0.23690200  0.39801000  0.74955000  1
  P  P33  1  0.73690200  0.89801000  0.75045000  1
  P  P34  1  0.23733000  0.10369600  0.91614900  1
  P  P35  1  0.73420600  0.60391200  0.91717500  1
  O  O36  1  0.23249300  0.49768400  0.01566000  1
  O  O37  1  0.73596200  0.99747200  0.01647300  1
  O  O38  1  0.96003900  0.78074600  0.08367900  1
  O  O39  1  0.51037200  0.78301200  0.08386700  1
  O  O40  1  0.46150100  0.28330200  0.08267900  1
  O  O41  1  0.01196800  0.28006500  0.08286800  1
  O  O42  1  0.23524900  0.49659700  0.15035500  1
  O  O43  1  0.73745400  0.99709700  0.15119500  1
  O  O44  1  0.23905300  0.00077400  0.18234300  1
  O  O45  1  0.73524200  0.50144400  0.18289500  1
  O  O46  1  0.96152500  0.71648900  0.25032800  1
  O  O47  1  0.51194500  0.71654600  0.25064300  1
  O  O48  1  0.01194500  0.21654600  0.24935700  1
  O  O49  1  0.46152500  0.21648900  0.24967200  1
  O  O50  1  0.23524200  0.00144400  0.31710500  1
  O  O51  1  0.73905300  0.50077400  0.31765700  1
  O  O52  1  0.23745400  0.49709700  0.34880500  1
  O  O53  1  0.73524900  0.99659700  0.34964500  1
  O  O54  1  0.51196900  0.78006500  0.41713200  1
  O  O55  1  0.96150100  0.78330200  0.41732100  1
  O  O56  1  0.01037200  0.28301200  0.41613300  1
  O  O57  1  0.46003900  0.28074600  0.41632100  1
  O  O58  1  0.23596200  0.49747200  0.48352700  1
  O  O59  1  0.73249300  0.99768400  0.48434000  1
  O  O60  1  0.23249300  0.00231600  0.51566000  1
  O  O61  1  0.73596200  0.50252800  0.51647300  1
  O  O62  1  0.96003900  0.71925400  0.58367900  1
  O  O63  1  0.51037200  0.71698800  0.58386700  1
  O  O64  1  0.46150100  0.21669800  0.58267900  1
  O  O65  1  0.01196800  0.21993500  0.58286800  1
  O  O66  1  0.23524900  0.00340300  0.65035500  1
  O  O67  1  0.73745400  0.50290300  0.65119500  1
  O  O68  1  0.23905300  0.49922600  0.68234300  1
  O  O69  1  0.73524200  0.99855600  0.68289500  1
  O  O70  1  0.96152500  0.78351100  0.75032800  1
  O  O71  1  0.51194500  0.78345400  0.75064300  1
  O  O72  1  0.01194500  0.28345400  0.74935700  1
  O  O73  1  0.46152500  0.28351100  0.74967200  1
  O  O74  1  0.23524200  0.49855600  0.81710500  1
  O  O75  1  0.73905300  0.99922600  0.81765700  1
  O  O76  1  0.23745400  0.00290300  0.84880500  1
  O  O77  1  0.73524900  0.50340300  0.84964500  1
  O  O78  1  0.51196900  0.71993500  0.91713200  1
  O  O79  1  0.96150100  0.71669800  0.91732100  1
  O  O80  1  0.01037200  0.21698800  0.91613300  1
  O  O81  1  0.46003900  0.21925400  0.91632100  1
  O  O82  1  0.23596200  0.00252800  0.98352700  1
  O  O83  1  0.73249300  0.50231600  0.98434000  1
