# generated using pymatgen
data_Li3V3P8O29
_symmetry_space_group_name_H-M   'P 1'
_cell_length_a   9.76303193
_cell_length_b   9.76303193
_cell_length_c   14.37435835
_cell_angle_alpha   89.44345926
_cell_angle_beta   89.44345926
_cell_angle_gamma   59.69055395
_symmetry_Int_Tables_number   1
_chemical_formula_structural   Li3V3P8O29
_chemical_formula_sum   'Li6 V6 P16 O58'
_cell_volume   1182.76540242
_cell_formula_units_Z   2
loop_
 _symmetry_equiv_pos_site_id
 _symmetry_equiv_pos_as_xyz
  1  'x, y, z'
loop_
 _atom_site_type_symbol
 _atom_site_label
 _atom_site_symmetry_multiplicity
 _atom_site_fract_x
 _atom_site_fract_y
 _atom_site_fract_z
 _atom_site_occupancy
  Li  Li0  1  0.09635700  0.22779500  0.94238700  1
  Li  Li1  1  0.22779500  0.09635700  0.44238700  1
  Li  Li2  1  0.32233400  0.76659200  0.55853300  1
  Li  Li3  1  0.76659200  0.32233400  0.05853300  1
  Li  Li4  1  0.01686100  0.92073700  0.00749800  1
  Li  Li5  1  0.92073700  0.01686100  0.50749800  1
  V  V6  1  0.56714600  0.00032200  0.75264100  1
  V  V7  1  0.44216300  0.99773000  0.24238300  1
  V  V8  1  0.00032200  0.56714600  0.25264100  1
  V  V9  1  0.99773000  0.44216300  0.74238300  1
  V  V10  1  0.43510400  0.56320800  0.75439200  1
  V  V11  1  0.56320800  0.43510400  0.25439200  1
  P  P12  1  0.22029200  0.69603000  0.16441000  1
  P  P13  1  0.08537600  0.69995000  0.65650800  1
  P  P14  1  0.69603000  0.22029200  0.66441000  1
  P  P15  1  0.33029800  0.33086900  0.86623000  1
  P  P16  1  0.33086900  0.33029800  0.36623000  1
  P  P17  1  0.69995000  0.08537600  0.15650800  1
  P  P18  1  0.77564300  0.91710200  0.33964300  1
  P  P19  1  0.08846600  0.22967800  0.15742800  1
  P  P20  1  0.91710200  0.77564300  0.83964300  1
  P  P21  1  0.22967800  0.08846600  0.65742800  1
  P  P22  1  0.30436000  0.91598200  0.83811400  1
  P  P23  1  0.65933200  0.67241500  0.63360200  1
  P  P24  1  0.67241500  0.65933200  0.13360200  1
  P  P25  1  0.31483600  0.77855800  0.34264700  1
  P  P26  1  0.91598200  0.30436000  0.33811400  1
  P  P27  1  0.77855800  0.31483600  0.84264700  1
  O  O28  1  0.24198000  0.78239400  0.43454400  1
  O  O29  1  0.26274300  0.65563300  0.66375600  1
  O  O30  1  0.99606500  0.78413200  0.92422900  1
  O  O31  1  0.08501500  0.65626700  0.17249500  1
  O  O32  1  0.38228000  0.54002900  0.17568700  1
  O  O33  1  0.33480300  0.47868900  0.82184500  1
  O  O34  1  0.54002900  0.38228000  0.67568700  1
  O  O35  1  0.78239400  0.24198000  0.93454400  1
  O  O36  1  0.65563300  0.26274300  0.16375600  1
  O  O37  1  0.18533200  0.48033500  0.32240300  1
  O  O38  1  0.08012600  0.54213300  0.66818900  1
  O  O39  1  0.47868900  0.33480300  0.32184500  1
  O  O40  1  0.32630100  0.32922600  0.96926400  1
  O  O41  1  0.32922600  0.32630100  0.46926400  1
  O  O42  1  0.48033500  0.18533200  0.82240300  1
  O  O43  1  0.08971800  0.38444900  0.17396000  1
  O  O44  1  0.18375500  0.33127300  0.82182200  1
  O  O45  1  0.65626700  0.08501500  0.67249500  1
  O  O46  1  0.79866700  0.00295800  0.24947000  1
  O  O47  1  0.78413200  0.99606500  0.42422900  1
  O  O48  1  0.79922900  0.00920000  0.07352000  1
  O  O49  1  0.54213300  0.08012600  0.16818900  1
  O  O50  1  0.33127300  0.18375500  0.32182200  1
  O  O51  1  0.74115800  0.91080100  0.83134300  1
  O  O52  1  0.38444900  0.08971800  0.67396000  1
  O  O53  1  0.08743100  0.26093400  0.66545800  1
  O  O54  1  0.00295800  0.79866700  0.74947000  1
  O  O55  1  0.00920000  0.79922900  0.57352000  1
  O  O56  1  0.00392500  0.19850400  0.41768300  1
  O  O57  1  0.91080100  0.74115800  0.33134300  1
  O  O58  1  0.61608600  0.92094300  0.32323700  1
  O  O59  1  0.26093400  0.08743100  0.16545800  1
  O  O60  1  0.66085200  0.81529500  0.68094300  1
  O  O61  1  0.45970100  0.92104900  0.82991900  1
  O  O62  1  0.19850400  0.00392500  0.91768300  1
  O  O63  1  0.22918900  0.00948600  0.56828000  1
  O  O64  1  0.20813900  0.99165600  0.74160300  1
  O  O65  1  0.34442000  0.92048400  0.33293600  1
  O  O66  1  0.81529500  0.66085200  0.18094300  1
  O  O67  1  0.92094300  0.61608600  0.82323700  1
  O  O68  1  0.52262600  0.81076700  0.17791800  1
  O  O69  1  0.67463100  0.65612400  0.03065000  1
  O  O70  1  0.65612400  0.67463100  0.53065000  1
  O  O71  1  0.50933600  0.67211200  0.67463200  1
  O  O72  1  0.92104900  0.45970100  0.32991900  1
  O  O73  1  0.81076700  0.52262600  0.67791800  1
  O  O74  1  0.34328500  0.74060900  0.83308700  1
  O  O75  1  0.20061300  0.79634000  0.25860600  1
  O  O76  1  0.20086400  0.79437100  0.08137700  1
  O  O77  1  0.47351900  0.61960600  0.32484800  1
  O  O78  1  0.67211200  0.50933600  0.17463200  1
  O  O79  1  0.61960600  0.47351900  0.82484800  1
  O  O80  1  0.92048400  0.34442000  0.83293600  1
  O  O81  1  0.00948600  0.22918900  0.06828000  1
  O  O82  1  0.99165600  0.20813900  0.24160300  1
  O  O83  1  0.74060900  0.34328500  0.33308700  1
  O  O84  1  0.79437100  0.20086400  0.58137700  1
  O  O85  1  0.79634000  0.20061300  0.75860600  1
