# generated using pymatgen
data_Li3Mn4(BO3)4
_symmetry_space_group_name_H-M   'P 1'
_cell_length_a   5.30397600
_cell_length_b   10.30321582
_cell_length_c   13.96921583
_cell_angle_alpha   89.54444513
_cell_angle_beta   79.13485886
_cell_angle_gamma   88.00536428
_symmetry_Int_Tables_number   1
_chemical_formula_structural   Li3Mn4(BO3)4
_chemical_formula_sum   'Li9 Mn12 B12 O36'
_cell_volume   749.24998424
_cell_formula_units_Z   3
loop_
 _symmetry_equiv_pos_site_id
 _symmetry_equiv_pos_as_xyz
  1  'x, y, z'
loop_
 _atom_site_type_symbol
 _atom_site_label
 _atom_site_symmetry_multiplicity
 _atom_site_fract_x
 _atom_site_fract_y
 _atom_site_fract_z
 _atom_site_occupancy
  Li  Li0  1  0.14146600  0.83803600  0.00799800  1
  Li  Li1  1  0.17767200  0.09688300  0.33670900  1
  Li  Li2  1  0.16480200  0.32868400  0.98487600  1
  Li  Li3  1  0.50287900  0.32920400  0.32441800  1
  Li  Li4  1  0.48012600  0.84021400  0.34283000  1
  Li  Li5  1  0.51208000  0.59966500  0.66453100  1
  Li  Li6  1  0.84386500  0.33061600  0.65289600  1
  Li  Li7  1  0.81351700  0.84462900  0.67579100  1
  Li  Li8  1  0.83595300  0.60047200  0.00089900  1
  Mn  Mn9  1  0.03640200  0.86586600  0.22933200  1
  Mn  Mn10  1  0.27361900  0.11759300  0.10953300  1
  Mn  Mn11  1  0.06404800  0.61751200  0.55728400  1
  Mn  Mn12  1  0.28604100  0.36635600  0.76587100  1
  Mn  Mn13  1  0.60878200  0.36361700  0.10405600  1
  Mn  Mn14  1  0.37863600  0.87217200  0.55732000  1
  Mn  Mn15  1  0.62678300  0.12147100  0.45096600  1
  Mn  Mn16  1  0.71589300  0.61340700  0.22911400  1
  Mn  Mn17  1  0.39691500  0.61750000  0.88625400  1
  Mn  Mn18  1  0.95376700  0.37641100  0.43688600  1
  Mn  Mn19  1  0.70464400  0.87405100  0.89555000  1
  Mn  Mn20  1  0.95001300  0.12045600  0.78286600  1
  B  B21  1  0.05306100  0.35428100  0.21750600  1
  B  B22  1  0.06895200  0.11990400  0.55410700  1
  B  B23  1  0.27120400  0.62590400  0.11181400  1
  B  B24  1  0.40700800  0.37806000  0.55089200  1
  B  B25  1  0.26996000  0.87746100  0.77990900  1
  B  B26  1  0.59770200  0.87838200  0.11662000  1
  B  B27  1  0.38922600  0.12395800  0.88253300  1
  B  B28  1  0.71542500  0.12138200  0.22271800  1
  B  B29  1  0.61188300  0.63660400  0.45133300  1
  B  B30  1  0.72591800  0.36796500  0.88505800  1
  B  B31  1  0.94644600  0.87877200  0.45031600  1
  B  B32  1  0.94499400  0.62843500  0.77975000  1
  O  O33  1  0.18420500  0.63804800  0.02437700  1
  O  O34  1  0.10882200  0.66670200  0.19675800  1
  O  O35  1  0.19914100  0.31137800  0.12470400  1
  O  O36  1  0.01271700  0.83888200  0.53883300  1
  O  O37  1  0.16427300  0.34997300  0.29727800  1
  O  O38  1  0.12598200  0.89698600  0.36755700  1
  O  O39  1  0.14563200  0.40978900  0.55733600  1
  O  O40  1  0.01555500  0.92677100  0.77749600  1
  O  O41  1  0.34050800  0.92597400  0.11036400  1
  O  O42  1  0.31224300  0.05699000  0.54857300  1
  O  O43  1  0.19588700  0.57912700  0.77389400  1
  O  O44  1  0.52070300  0.57590700  0.11244900  1
  O  O45  1  0.30633600  0.15943000  0.79650600  1
  O  O46  1  0.54862400  0.13078300  0.31070900  1
  O  O47  1  0.63305100  0.15407600  0.13661800  1
  O  O48  1  0.23028700  0.13893000  0.97098400  1
  O  O49  1  0.52604700  0.65570500  0.36725500  1
  O  O50  1  0.45189100  0.68195400  0.54200400  1
  O  O51  1  0.54865700  0.32890400  0.46355500  1
  O  O52  1  0.32721700  0.83888100  0.86920900  1
  O  O53  1  0.64980700  0.84655900  0.20738400  1
  O  O54  1  0.51947400  0.39904900  0.63073400  1
  O  O55  1  0.44417700  0.86329800  0.69525800  1
  O  O56  1  0.77385200  0.85951400  0.03344200  1
  O  O57  1  0.46975200  0.40287000  0.88574200  1
  O  O58  1  0.80025700  0.39951000  0.22162200  1
  O  O59  1  0.68650300  0.90543500  0.44861600  1
  O  O60  1  0.63914000  0.07591400  0.87581000  1
  O  O61  1  0.97463100  0.08337400  0.22127200  1
  O  O62  1  0.83979200  0.57463800  0.45865800  1
  O  O63  1  0.91415300  0.14527700  0.64057100  1
  O  O64  1  0.00245100  0.15924100  0.46576800  1
  O  O65  1  0.84358800  0.64593600  0.69662400  1
  O  O66  1  0.79398500  0.66312200  0.87003000  1
  O  O67  1  0.87608600  0.31524800  0.79736000  1
  O  O68  1  0.83448300  0.38892100  0.96483300  1
