# generated using pymatgen
data_Li2V5B3O13
_symmetry_space_group_name_H-M   'P 1'
_cell_length_a   3.23444800
_cell_length_b   9.61664900
_cell_length_c   15.12135374
_cell_angle_alpha   73.53362095
_cell_angle_beta   90.00000000
_cell_angle_gamma   90.00000000
_symmetry_Int_Tables_number   1
_chemical_formula_structural   Li2V5B3O13
_chemical_formula_sum   'Li4 V10 B6 O26'
_cell_volume   451.05238363
_cell_formula_units_Z   2
loop_
 _symmetry_equiv_pos_site_id
 _symmetry_equiv_pos_as_xyz
  1  'x, y, z'
loop_
 _atom_site_type_symbol
 _atom_site_label
 _atom_site_symmetry_multiplicity
 _atom_site_fract_x
 _atom_site_fract_y
 _atom_site_fract_z
 _atom_site_occupancy
  Li  Li0  1  0.75000000  0.72702600  0.76044600  1
  Li  Li1  1  0.25000000  0.61654100  0.94591100  1
  Li  Li2  1  0.75000000  0.38345900  0.05408900  1
  Li  Li3  1  0.25000000  0.27297400  0.23955400  1
  V  V4  1  0.75000000  0.85865600  0.00316200  1
  V  V5  1  0.75000000  0.95927900  0.36588900  1
  V  V6  1  0.25000000  0.81104500  0.20390800  1
  V  V7  1  0.25000000  0.64208200  0.43572400  1
  V  V8  1  0.25000000  0.52182300  0.68744900  1
  V  V9  1  0.75000000  0.47817700  0.31255100  1
  V  V10  1  0.75000000  0.35791800  0.56427600  1
  V  V11  1  0.75000000  0.18895500  0.79609200  1
  V  V12  1  0.25000000  0.04072100  0.63411100  1
  V  V13  1  0.25000000  0.14134400  0.99683800  1
  B  B14  1  0.25000000  0.91259500  0.81857900  1
  B  B15  1  0.75000000  0.79425800  0.57373300  1
  B  B16  1  0.25000000  0.40826200  0.88323100  1
  B  B17  1  0.75000000  0.59173800  0.11676900  1
  B  B18  1  0.25000000  0.20574200  0.42626700  1
  B  B19  1  0.75000000  0.08740500  0.18142100  1
  O  O20  1  0.25000000  0.83410900  0.91007200  1
  O  O21  1  0.75000000  0.93060100  0.58609500  1
  O  O22  1  0.25000000  0.85086100  0.74788100  1
  O  O23  1  0.75000000  0.93663800  0.21204900  1
  O  O24  1  0.25000000  0.84237800  0.34444000  1
  O  O25  1  0.75000000  0.77290100  0.48629200  1
  O  O26  1  0.75000000  0.66985500  0.64977900  1
  O  O27  1  0.25000000  0.92539600  0.06438100  1
  O  O28  1  0.25000000  0.54446800  0.82201300  1
  O  O29  1  0.25000000  0.37971000  0.97750700  1
  O  O30  1  0.75000000  0.71824100  0.14458800  1
  O  O31  1  0.25000000  0.61217300  0.29407400  1
  O  O32  1  0.25000000  0.48923600  0.56555100  1
  O  O33  1  0.75000000  0.51076400  0.43444900  1
  O  O34  1  0.75000000  0.38782700  0.70592600  1
  O  O35  1  0.25000000  0.28175900  0.85541200  1
  O  O36  1  0.75000000  0.62029000  0.02249300  1
  O  O37  1  0.75000000  0.45553200  0.17798700  1
  O  O38  1  0.75000000  0.07460400  0.93561900  1
  O  O39  1  0.25000000  0.33014500  0.35022100  1
  O  O40  1  0.25000000  0.22709900  0.51370800  1
  O  O41  1  0.75000000  0.15762200  0.65556000  1
  O  O42  1  0.25000000  0.06336200  0.78795100  1
  O  O43  1  0.75000000  0.14913900  0.25211900  1
  O  O44  1  0.25000000  0.06939900  0.41390500  1
  O  O45  1  0.75000000  0.16589100  0.08992800  1
