# generated using pymatgen
data_Li5V3P8O29
_symmetry_space_group_name_H-M   'P 1'
_cell_length_a   9.80184369
_cell_length_b   9.80184369
_cell_length_c   13.92665984
_cell_angle_alpha   89.93528302
_cell_angle_beta   89.93528302
_cell_angle_gamma   59.97798580
_symmetry_Int_Tables_number   1
_chemical_formula_structural   Li5V3P8O29
_chemical_formula_sum   'Li10 V6 P16 O58'
_cell_volume   1158.50094793
_cell_formula_units_Z   2
loop_
 _symmetry_equiv_pos_site_id
 _symmetry_equiv_pos_as_xyz
  1  'x, y, z'
loop_
 _atom_site_type_symbol
 _atom_site_label
 _atom_site_symmetry_multiplicity
 _atom_site_fract_x
 _atom_site_fract_y
 _atom_site_fract_z
 _atom_site_occupancy
  Li  Li0  1  0.90701700  0.32183400  0.93903700  1
  Li  Li1  1  0.90507800  0.77205600  0.43977400  1
  Li  Li2  1  0.77205600  0.90507800  0.93977400  1
  Li  Li3  1  0.67996300  0.09472600  0.55828300  1
  Li  Li4  1  0.67450400  0.23004800  0.06092300  1
  Li  Li5  1  0.32183400  0.90701700  0.43903700  1
  Li  Li6  1  0.22819500  0.09029700  0.05928200  1
  Li  Li7  1  0.09029700  0.22819500  0.55928200  1
  Li  Li8  1  0.23004800  0.67450400  0.56092300  1
  Li  Li9  1  0.09472600  0.67996300  0.05828300  1
  V  V10  1  0.00103700  0.56591300  0.25076300  1
  V  V11  1  0.57010700  0.43316700  0.25397100  1
  V  V12  1  0.56591300  0.00103700  0.75076300  1
  V  V13  1  0.43046900  0.00034600  0.24822400  1
  V  V14  1  0.43316700  0.57010700  0.75397100  1
  V  V15  1  0.00034600  0.43046900  0.74822400  1
  P  P16  1  0.91155000  0.31952300  0.15880300  1
  P  P17  1  0.76662400  0.31797500  0.65650400  1
  P  P18  1  0.91197900  0.76960200  0.65719200  1
  P  P19  1  0.66560000  0.66842300  0.37328700  1
  P  P20  1  0.66842300  0.66560000  0.87328700  1
  P  P21  1  0.76960200  0.91197900  0.15719200  1
  P  P22  1  0.67895900  0.08797800  0.34116600  1
  P  P23  1  0.31797500  0.76662400  0.15650400  1
  P  P24  1  0.68358300  0.22964700  0.84297500  1
  P  P25  1  0.31952300  0.91155000  0.65880300  1
  P  P26  1  0.23062900  0.08733100  0.84307500  1
  P  P27  1  0.33427700  0.33484800  0.12717000  1
  P  P28  1  0.33484800  0.33427700  0.62717000  1
  P  P29  1  0.08733100  0.23062900  0.34307500  1
  P  P30  1  0.22964700  0.68358300  0.34297500  1
  P  P31  1  0.08797800  0.67895900  0.84116600  1
  O  O32  1  0.00572400  0.23881000  0.43430400  1
  O  O33  1  0.91384600  0.33764100  0.65769400  1
  O  O34  1  0.79220400  0.21141200  0.75284400  1
  O  O35  1  0.75644100  0.24622200  0.93382700  1
  O  O36  1  0.89870000  0.47998100  0.17555000  1
  O  O37  1  0.74555100  0.33520600  0.16073200  1
  O  O38  1  0.81268900  0.51296800  0.83290900  1
  O  O39  1  0.90198000  0.61866000  0.67628800  1
  O  O40  1  0.00203400  0.75852900  0.93076000  1
  O  O41  1  0.91763500  0.74581400  0.15931500  1
  O  O42  1  0.66760200  0.51724300  0.32589300  1
  O  O43  1  0.81359000  0.67240400  0.33321700  1
  O  O44  1  0.61596800  0.47851500  0.67786600  1
  O  O45  1  0.66500600  0.66386400  0.47981500  1
  O  O46  1  0.66386400  0.66500600  0.97981500  1
  O  O47  1  0.47851500  0.61596800  0.17786600  1
  O  O48  1  0.67240400  0.81359000  0.83321700  1
  O  O49  1  0.51724300  0.66760200  0.82589300  1
  O  O50  1  0.74581400  0.91763500  0.65931500  1
  O  O51  1  0.79056900  0.99864800  0.24998200  1
  O  O52  1  0.75798000  0.00081700  0.06807500  1
  O  O53  1  0.75852900  0.00203400  0.43076000  1
  O  O54  1  0.61866000  0.90198000  0.17628800  1
  O  O55  1  0.51296800  0.81268900  0.33290900  1
  O  O56  1  0.33520600  0.74555100  0.66073200  1
  O  O57  1  0.66579700  0.08257500  0.84327200  1
  O  O58  1  0.47998100  0.89870000  0.67555000  1
  O  O59  1  0.75558000  0.23552100  0.57094100  1
  O  O60  1  0.24622200  0.75644100  0.43382700  1
  O  O61  1  0.52017400  0.09780300  0.32437200  1
  O  O62  1  0.33764100  0.91384600  0.15769400  1
  O  O63  1  0.21141200  0.79220400  0.25284400  1
  O  O64  1  0.65963200  0.25491700  0.33562200  1
  O  O65  1  0.48718400  0.18449500  0.66979900  1
  O  O66  1  0.37735200  0.10195000  0.82348700  1
  O  O67  1  0.23881000  0.00572400  0.93430400  1
  O  O68  1  0.23937300  0.99828200  0.56825900  1
  O  O69  1  0.20865000  0.99943100  0.75042200  1
  O  O70  1  0.25476600  0.08146300  0.33883000  1
  O  O71  1  0.48836000  0.32875800  0.16974700  1
  O  O72  1  0.52145400  0.38115900  0.82382400  1
  O  O73  1  0.32623500  0.18756200  0.16733800  1
  O  O74  1  0.33686800  0.33269800  0.52082700  1
  O  O75  1  0.33269800  0.33686800  0.02082700  1
  O  O76  1  0.38115900  0.52145400  0.32382400  1
  O  O77  1  0.18756200  0.32623500  0.66733800  1
  O  O78  1  0.32875800  0.48836000  0.66974700  1
  O  O79  1  0.08146300  0.25476600  0.83883000  1
  O  O80  1  0.99943100  0.20865000  0.25042200  1
  O  O81  1  0.99828200  0.23937300  0.06825900  1
  O  O82  1  0.10195000  0.37735200  0.32348700  1
  O  O83  1  0.18449500  0.48718400  0.16979900  1
  O  O84  1  0.25491700  0.65963200  0.83562200  1
  O  O85  1  0.09780300  0.52017400  0.82437200  1
  O  O86  1  0.23552100  0.75558000  0.07094100  1
  O  O87  1  0.08257500  0.66579700  0.34327200  1
  O  O88  1  0.00081700  0.75798000  0.56807500  1
  O  O89  1  0.99864800  0.79056900  0.74998200  1
