# generated using pymatgen
data_Li4Ni3Sn2Sb3O16
_symmetry_space_group_name_H-M   'P 1'
_cell_length_a   6.16826153
_cell_length_b   6.16827786
_cell_length_c   19.82269411
_cell_angle_alpha   90.28966909
_cell_angle_beta   90.29286757
_cell_angle_gamma   60.35734685
_symmetry_Int_Tables_number   1
_chemical_formula_structural   Li4Ni3Sn2Sb3O16
_chemical_formula_sum   'Li8 Ni6 Sn4 Sb6 O32'
_cell_volume   655.48854869
_cell_formula_units_Z   2
loop_
 _symmetry_equiv_pos_site_id
 _symmetry_equiv_pos_as_xyz
  1  'x, y, z'
loop_
 _atom_site_type_symbol
 _atom_site_label
 _atom_site_symmetry_multiplicity
 _atom_site_fract_x
 _atom_site_fract_y
 _atom_site_fract_z
 _atom_site_occupancy
  Li  Li0  1  0.66259100  0.66261600  0.44172600  1
  Li  Li1  1  0.66259800  0.66261700  0.94174500  1
  Li  Li2  1  0.98579800  0.98581600  0.49161300  1
  Li  Li3  1  0.98579600  0.98581500  0.99165200  1
  Li  Li4  1  0.99136600  0.99130000  0.25129200  1
  Li  Li5  1  0.99137300  0.99132300  0.75129800  1
  Li  Li6  1  0.32545700  0.32550700  0.20450100  1
  Li  Li7  1  0.32543300  0.32548500  0.70450800  1
  Ni  Ni8  1  0.83066000  0.83068900  0.60771400  1
  Ni  Ni9  1  0.83061800  0.83070200  0.10777100  1
  Ni  Ni10  1  0.17287700  0.66201500  0.35622400  1
  Ni  Ni11  1  0.17280900  0.66202400  0.85621900  1
  Ni  Ni12  1  0.66197400  0.17288600  0.35621700  1
  Ni  Ni13  1  0.66199800  0.17281700  0.85623100  1
  Sn  Sn14  1  0.67745300  0.67746100  0.25176800  1
  Sn  Sn15  1  0.67746700  0.67744700  0.75172500  1
  Sn  Sn16  1  0.34640700  0.34629800  0.48832200  1
  Sn  Sn17  1  0.34632000  0.34631000  0.98831400  1
  Sb  Sb18  1  0.17156100  0.17159100  0.35723000  1
  Sb  Sb19  1  0.17153400  0.17155500  0.85720800  1
  Sb  Sb20  1  0.33814300  0.83198200  0.10781700  1
  Sb  Sb21  1  0.33809300  0.83199200  0.60782300  1
  Sb  Sb22  1  0.83197400  0.33815500  0.10782400  1
  Sb  Sb23  1  0.83199500  0.33812600  0.60781900  1
  O  O24  1  0.51452700  0.51486900  0.16930600  1
  O  O25  1  0.51457900  0.51478100  0.66925900  1
  O  O26  1  0.66318300  0.66339400  0.05263300  1
  O  O27  1  0.66293400  0.66348200  0.55262200  1
  O  O28  1  0.00176000  0.00169600  0.15761600  1
  O  O29  1  0.00187800  0.00168000  0.65758900  1
  O  O30  1  0.00744100  0.00749300  0.40159500  1
  O  O31  1  0.00749400  0.00747100  0.90167200  1
  O  O32  1  0.16346800  0.16337100  0.05148800  1
  O  O33  1  0.16346800  0.16325700  0.55152100  1
  O  O34  1  0.84098300  0.84099900  0.29908000  1
  O  O35  1  0.84097300  0.84099000  0.79908300  1
  O  O36  1  0.32625600  0.32625100  0.30298000  1
  O  O37  1  0.32626900  0.32626100  0.80298100  1
  O  O38  1  0.48579600  0.48577100  0.41967200  1
  O  O39  1  0.48571100  0.48588600  0.91964000  1
  O  O40  1  0.32481700  0.84969400  0.29727600  1
  O  O41  1  0.32479200  0.84969800  0.79727500  1
  O  O42  1  0.84970700  0.32481000  0.29727300  1
  O  O43  1  0.84971600  0.32476800  0.79727700  1
  O  O44  1  0.51254600  0.95974300  0.17005400  1
  O  O45  1  0.51240900  0.95979900  0.67002300  1
  O  O46  1  0.95978100  0.51256200  0.17007800  1
  O  O47  1  0.95974400  0.51251000  0.67004300  1
  O  O48  1  0.03303400  0.47275200  0.42122100  1
  O  O49  1  0.03295300  0.47276400  0.92118600  1
  O  O50  1  0.47280300  0.03300700  0.42118600  1
  O  O51  1  0.47275100  0.03302000  0.92116200  1
  O  O52  1  0.16698800  0.68063600  0.05011600  1
  O  O53  1  0.16707900  0.68073900  0.55015300  1
  O  O54  1  0.68059500  0.16691100  0.05010300  1
  O  O55  1  0.68066600  0.16700900  0.55011500  1
