# generated using pymatgen
data_Li2VCrP2(HO5)2
_symmetry_space_group_name_H-M   'P 1'
_cell_length_a   5.16801600
_cell_length_b   7.38183919
_cell_length_c   10.65397045
_cell_angle_alpha   104.48853916
_cell_angle_beta   97.04327022
_cell_angle_gamma   108.95245425
_symmetry_Int_Tables_number   1
_chemical_formula_structural   Li2VCrP2(HO5)2
_chemical_formula_sum   'Li4 V2 Cr2 P4 H4 O20'
_cell_volume   362.84252420
_cell_formula_units_Z   2
loop_
 _symmetry_equiv_pos_site_id
 _symmetry_equiv_pos_as_xyz
  1  'x, y, z'
loop_
 _atom_site_type_symbol
 _atom_site_label
 _atom_site_symmetry_multiplicity
 _atom_site_fract_x
 _atom_site_fract_y
 _atom_site_fract_z
 _atom_site_occupancy
  Li  Li0  1  0.54821000  0.62331600  0.80094400  1
  Li  Li1  1  0.95134100  0.87451900  0.69798600  1
  Li  Li2  1  0.04865900  0.12548100  0.30201400  1
  Li  Li3  1  0.45179000  0.37668400  0.19905600  1
  V  V4  1  0.00000000  0.00000000  0.00000000  1
  V  V5  1  0.50000000  0.00000000  0.50000000  1
  Cr  Cr6  1  0.00000000  0.50000000  0.00000000  1
  Cr  Cr7  1  0.50000000  0.50000000  0.50000000  1
  P  P8  1  0.49782200  0.05288600  0.81970400  1
  P  P9  1  0.00444200  0.44899200  0.68027000  1
  P  P10  1  0.99555800  0.55100800  0.31973000  1
  P  P11  1  0.50217800  0.94711400  0.18029600  1
  H  H12  1  0.33093400  0.31229000  0.97070800  1
  H  H13  1  0.17036900  0.19267400  0.52976100  1
  H  H14  1  0.82963100  0.80732600  0.47023900  1
  H  H15  1  0.66906600  0.68771000  0.02929200  1
  O  O16  1  0.81540700  0.69875200  0.97653700  1
  O  O17  1  0.62550000  0.27954000  0.89820500  1
  O  O18  1  0.13415400  0.48857700  0.82826200  1
  O  O19  1  0.24460900  0.94631800  0.87316200  1
  O  O20  1  0.71738700  0.95012100  0.82998100  1
  O  O21  1  0.78349300  0.55010200  0.66953300  1
  O  O22  1  0.25725500  0.55466300  0.62583600  1
  O  O23  1  0.36859700  0.01567000  0.67207300  1
  O  O24  1  0.87638000  0.22154900  0.60229500  1
  O  O25  1  0.31178700  0.20249900  0.47447500  1
  O  O26  1  0.68821300  0.79750100  0.52552500  1
  O  O27  1  0.12362000  0.77845100  0.39770500  1
  O  O28  1  0.63140300  0.98433000  0.32792700  1
  O  O29  1  0.74274500  0.44533700  0.37416400  1
  O  O30  1  0.21650700  0.44989800  0.33046700  1
  O  O31  1  0.28261300  0.04987900  0.17001900  1
  O  O32  1  0.75539100  0.05368200  0.12683800  1
  O  O33  1  0.86584600  0.51142300  0.17173800  1
  O  O34  1  0.37450000  0.72046000  0.10179500  1
  O  O35  1  0.18459300  0.30124800  0.02346300  1
