# generated using pymatgen
data_Na5LiNi2P2(CO7)2
_symmetry_space_group_name_H-M   'P 1'
_cell_length_a   5.16975586
_cell_length_b   10.99168346
_cell_length_c   11.06045338
_cell_angle_alpha   106.18145520
_cell_angle_beta   88.88925627
_cell_angle_gamma   91.21199956
_symmetry_Int_Tables_number   1
_chemical_formula_structural   Na5LiNi2P2(CO7)2
_chemical_formula_sum   'Na10 Li2 Ni4 P4 C4 O28'
_cell_volume   603.40933024
_cell_formula_units_Z   2
loop_
 _symmetry_equiv_pos_site_id
 _symmetry_equiv_pos_as_xyz
  1  'x, y, z'
loop_
 _atom_site_type_symbol
 _atom_site_label
 _atom_site_symmetry_multiplicity
 _atom_site_fract_x
 _atom_site_fract_y
 _atom_site_fract_z
 _atom_site_occupancy
  Na  Na0  1  0.76838600  0.07885200  0.16100100  1
  Na  Na1  1  0.76831700  0.57882900  0.66098900  1
  Na  Na2  1  0.25540000  0.11152500  0.38017700  1
  Na  Na3  1  0.25539900  0.61154500  0.88016100  1
  Na  Na4  1  0.74730500  0.88914400  0.61997500  1
  Na  Na5  1  0.74736100  0.38910000  0.12001600  1
  Na  Na6  1  0.74657100  0.13083600  0.86340300  1
  Na  Na7  1  0.74649400  0.63087300  0.36344100  1
  Na  Na8  1  0.22463000  0.91825500  0.83565200  1
  Na  Na9  1  0.22462000  0.41828200  0.33567600  1
  Li  Li10  1  0.22984800  0.86418000  0.15220500  1
  Li  Li11  1  0.22990300  0.36412700  0.65221300  1
  Ni  Ni12  1  0.78536200  0.70504900  0.05102400  1
  Ni  Ni13  1  0.22036900  0.29933900  0.94882800  1
  Ni  Ni14  1  0.78524000  0.20527200  0.55102500  1
  Ni  Ni15  1  0.22041500  0.79909300  0.44888800  1
  P  P16  1  0.71790100  0.91669200  0.33040800  1
  P  P17  1  0.71797400  0.41669700  0.83031400  1
  P  P18  1  0.29346400  0.08808700  0.66704900  1
  P  P19  1  0.29341800  0.58806200  0.16709300  1
  C  C20  1  0.71090100  0.34438100  0.40863900  1
  C  C21  1  0.71106200  0.84428100  0.90863600  1
  C  C22  1  0.27876000  0.65020400  0.59145500  1
  C  C23  1  0.27893300  0.15025100  0.09142900  1
  O  O24  1  0.29669700  0.07093600  0.15781000  1
  O  O25  1  0.29665200  0.57098500  0.65791400  1
  O  O26  1  0.94074100  0.31177100  0.43333600  1
  O  O27  1  0.94098300  0.81174700  0.93332100  1
  O  O28  1  0.51285800  0.30390200  0.46205400  1
  O  O29  1  0.51297900  0.80378600  0.96201500  1
  O  O30  1  0.82465500  0.87622700  0.19247500  1
  O  O31  1  0.82483100  0.37626700  0.69251000  1
  O  O32  1  0.77499100  0.06152900  0.37937800  1
  O  O33  1  0.77513700  0.56151800  0.87935200  1
  O  O34  1  0.15988300  0.17059300  0.59442600  1
  O  O35  1  0.15987700  0.67057100  0.09442800  1
  O  O36  1  0.41734400  0.89246800  0.33201500  1
  O  O37  1  0.41742300  0.39258900  0.83198200  1
  O  O38  1  0.59286100  0.10337700  0.65422500  1
  O  O39  1  0.59279000  0.60324600  0.15414500  1
  O  O40  1  0.84884300  0.84194800  0.41103400  1
  O  O41  1  0.84881100  0.34197100  0.91102900  1
  O  O42  1  0.21749300  0.94504200  0.61720000  1
  O  O43  1  0.21740800  0.44498100  0.11715000  1
  O  O44  1  0.21353500  0.12683200  0.80933800  1
  O  O45  1  0.21352900  0.62676700  0.30925400  1
  O  O46  1  0.48373100  0.69798300  0.54991100  1
  O  O47  1  0.48393200  0.19801000  0.04993800  1
  O  O48  1  0.05421100  0.68618800  0.56300400  1
  O  O49  1  0.05442500  0.18615300  0.06299400  1
  O  O50  1  0.68273600  0.91480800  0.83406200  1
  O  O51  1  0.68261200  0.41485600  0.33400700  1
