# generated using pymatgen
data_Li4Mn3Fe2Sn3O16
_symmetry_space_group_name_H-M   'P 1'
_cell_length_a   6.10379600
_cell_length_b   6.12578634
_cell_length_c   9.64168826
_cell_angle_alpha   89.35081570
_cell_angle_beta   88.99574845
_cell_angle_gamma   60.36350908
_symmetry_Int_Tables_number   1
_chemical_formula_structural   Li4Mn3Fe2Sn3O16
_chemical_formula_sum   'Li4 Mn3 Fe2 Sn3 O16'
_cell_volume   313.29682666
_cell_formula_units_Z   1
loop_
 _symmetry_equiv_pos_site_id
 _symmetry_equiv_pos_as_xyz
  1  'x, y, z'
loop_
 _atom_site_type_symbol
 _atom_site_label
 _atom_site_symmetry_multiplicity
 _atom_site_fract_x
 _atom_site_fract_y
 _atom_site_fract_z
 _atom_site_occupancy
  Li  Li0  1  0.32540600  0.33231200  0.11419800  1
  Li  Li1  1  0.01822800  0.01326000  0.00686700  1
  Li  Li2  1  0.01115400  0.01004900  0.49857200  1
  Li  Li3  1  0.66118200  0.66650200  0.60440100  1
  Mn  Mn4  1  0.16840100  0.16953900  0.77975700  1
  Mn  Mn5  1  0.34194200  0.83045400  0.28619700  1
  Mn  Mn6  1  0.82511700  0.34047100  0.28324500  1
  Fe  Fe7  1  0.33418100  0.32663000  0.50397900  1
  Fe  Fe8  1  0.65640000  0.66229900  0.00996200  1
  Sn  Sn9  1  0.16865100  0.65841400  0.78761100  1
  Sn  Sn10  1  0.65881500  0.16842200  0.78867000  1
  Sn  Sn11  1  0.83304100  0.82809400  0.28664600  1
  O  O12  1  0.17147900  0.67494200  0.40161900  1
  O  O13  1  0.48264400  0.47799100  0.65350800  1
  O  O14  1  0.33693600  0.34017500  0.90900500  1
  O  O15  1  0.99172900  0.98975200  0.68144500  1
  O  O16  1  0.02478400  0.98756900  0.19078900  1
  O  O17  1  0.67969700  0.16973300  0.39858400  1
  O  O18  1  0.03909600  0.47058200  0.65764600  1
  O  O19  1  0.47118900  0.03939200  0.65986100  1
  O  O20  1  0.83573600  0.83753400  0.91262300  1
  O  O21  1  0.18237800  0.15253000  0.39539900  1
  O  O22  1  0.51008000  0.95788000  0.16076100  1
  O  O23  1  0.95335800  0.50896900  0.16145300  1
  O  O24  1  0.64341600  0.68052600  0.39810300  1
  O  O25  1  0.32805600  0.84361400  0.89714300  1
  O  O26  1  0.50324700  0.53587800  0.16444800  1
  O  O27  1  0.84335700  0.32678700  0.89967000  1
