# generated using pymatgen
data_LiMnF5
_symmetry_space_group_name_H-M   'P 1'
_cell_length_a   10.58514858
_cell_length_b   10.58514858
_cell_length_c   10.58514858
_cell_angle_alpha   95.79667882
_cell_angle_beta   95.79667882
_cell_angle_gamma   142.93979944
_symmetry_Int_Tables_number   1
_chemical_formula_structural   LiMnF5
_chemical_formula_sum   'Li8 Mn8 F40'
_cell_volume   677.70230565
_cell_formula_units_Z   8
loop_
 _symmetry_equiv_pos_site_id
 _symmetry_equiv_pos_as_xyz
  1  'x, y, z'
loop_
 _atom_site_type_symbol
 _atom_site_label
 _atom_site_symmetry_multiplicity
 _atom_site_fract_x
 _atom_site_fract_y
 _atom_site_fract_z
 _atom_site_occupancy
  Li  Li0  1  0.55279800  0.58589200  0.79443100  1
  Li  Li1  1  0.45853900  0.99163300  0.29443100  1
  Li  Li2  1  0.24163300  0.44720200  0.03309300  1
  Li  Li3  1  0.83589200  0.54146100  0.53309300  1
  Li  Li4  1  0.41410800  0.20853900  0.96690700  1
  Li  Li5  1  0.00836700  0.30279800  0.46690700  1
  Li  Li6  1  0.69720200  0.16410800  0.70556900  1
  Li  Li7  1  0.79146100  0.75836700  0.20556900  1
  Mn  Mn8  1  0.49668300  0.69891800  0.39586100  1
  Mn  Mn9  1  0.35082200  0.24668300  0.29776400  1
  Mn  Mn10  1  0.94891800  0.05305800  0.70223600  1
  Mn  Mn11  1  0.30305800  0.10082200  0.60413900  1
  Mn  Mn12  1  0.94694200  0.64917800  0.89586100  1
  Mn  Mn13  1  0.30108200  0.69694200  0.79776400  1
  Mn  Mn14  1  0.89917800  0.50331700  0.20223600  1
  Mn  Mn15  1  0.75331700  0.05108200  0.10413900  1
  F  F16  1  0.71385600  0.79901300  0.33884100  1
  F  F17  1  0.34606100  0.41604800  0.37391600  1
  F  F18  1  0.66604800  0.79213200  0.56998600  1
  F  F19  1  0.04901400  0.21017300  0.58515800  1
  F  F20  1  0.62501500  0.46385600  0.41484200  1
  F  F21  1  0.22214600  0.09606100  0.43001400  1
  F  F22  1  0.35795000  0.08629400  0.24575200  1
  F  F23  1  0.40945800  0.63780200  0.74575200  1
  F  F24  1  0.04213200  0.97214600  0.62608400  1
  F  F25  1  0.12477900  0.81907400  0.53523000  1
  F  F26  1  0.96615600  0.16045200  0.03523000  1
  F  F27  1  0.80130100  0.37354300  0.33568200  1
  F  F28  1  0.21213900  0.28438100  0.83568200  1
  F  F29  1  0.46017300  0.37501500  0.66115900  1
  F  F30  1  0.18092600  0.71615600  0.30570400  1
  F  F31  1  0.83954800  0.87477900  0.80570400  1
  F  F32  1  0.62354300  0.78786100  0.07224200  1
  F  F33  1  0.53438100  0.19869900  0.57224200  1
  F  F34  1  0.88780200  0.64205000  0.72834400  1
  F  F35  1  0.33629400  0.59054200  0.22834400  1
  F  F36  1  0.36219800  0.10795000  0.77165600  1
  F  F37  1  0.91370600  0.15945800  0.27165600  1
  F  F38  1  0.62645700  0.96213900  0.42775800  1
  F  F39  1  0.71561900  0.55130100  0.92775800  1
  F  F40  1  0.41045200  0.87522100  0.69429600  1
  F  F41  1  0.06907400  0.03384400  0.19429600  1
  F  F42  1  0.78982700  0.37498500  0.83884100  1
  F  F43  1  0.03786100  0.46561900  0.66431800  1
  F  F44  1  0.44869900  0.37645700  0.16431800  1
  F  F45  1  0.28384400  0.58954800  0.46477000  1
  F  F46  1  0.12522100  0.93092600  0.96477000  1
  F  F47  1  0.20786800  0.77785400  0.87391600  1
  F  F48  1  0.84054200  0.11219800  0.75424800  1
  F  F49  1  0.89205000  0.66370600  0.25424800  1
  F  F50  1  0.02785400  0.65393900  0.06998600  1
  F  F51  1  0.62498500  0.28614400  0.08515800  1
  F  F52  1  0.20098600  0.53982700  0.91484200  1
  F  F53  1  0.58395200  0.95786800  0.93001400  1
  F  F54  1  0.90393900  0.33395200  0.12608400  1
  F  F55  1  0.53614400  0.95098600  0.16115900  1
