# generated using pymatgen
data_LiCoPO4
_symmetry_space_group_name_H-M   'P 1'
_cell_length_a   4.95528700
_cell_length_b   8.22106200
_cell_length_c   8.90406400
_cell_angle_alpha   90.00000000
_cell_angle_beta   90.00000000
_cell_angle_gamma   90.00000000
_symmetry_Int_Tables_number   1
_chemical_formula_structural   LiCoPO4
_chemical_formula_sum   'Li4 Co4 P4 O16'
_cell_volume   362.73128083
_cell_formula_units_Z   4
loop_
 _symmetry_equiv_pos_site_id
 _symmetry_equiv_pos_as_xyz
  1  'x, y, z'
loop_
 _atom_site_type_symbol
 _atom_site_label
 _atom_site_symmetry_multiplicity
 _atom_site_fract_x
 _atom_site_fract_y
 _atom_site_fract_z
 _atom_site_occupancy
  Li  Li0  1  0.92033900  0.05562300  0.60749900  1
  Li  Li1  1  0.42033900  0.44437700  0.10749900  1
  Li  Li2  1  0.92033900  0.55562300  0.89250100  1
  Li  Li3  1  0.42033900  0.94437700  0.39250100  1
  Co  Co4  1  0.03027400  0.14779700  0.02654900  1
  Co  Co5  1  0.53027400  0.35220300  0.52654900  1
  Co  Co6  1  0.03027400  0.64779700  0.47345100  1
  Co  Co7  1  0.53027400  0.85220300  0.97345100  1
  P  P8  1  0.56326100  0.23629300  0.86046900  1
  P  P9  1  0.06326100  0.26370700  0.36046900  1
  P  P10  1  0.56326100  0.73629300  0.63953100  1
  P  P11  1  0.06326100  0.76370700  0.13953100  1
  O  O12  1  0.67308100  0.07940700  0.94422800  1
  O  O13  1  0.18508000  0.12049100  0.44884300  1
  O  O14  1  0.25224200  0.24034100  0.86121700  1
  O  O15  1  0.66772300  0.22531200  0.69612700  1
  O  O16  1  0.16772300  0.27468800  0.19612700  1
  O  O17  1  0.75224200  0.25965900  0.36121700  1
  O  O18  1  0.68508000  0.37950900  0.94884300  1
  O  O19  1  0.17308100  0.42059300  0.44422800  1
  O  O20  1  0.67308100  0.57940700  0.55577200  1
  O  O21  1  0.18508000  0.62049100  0.05115700  1
  O  O22  1  0.25224200  0.74034100  0.63878300  1
  O  O23  1  0.66772300  0.72531200  0.80387300  1
  O  O24  1  0.16772300  0.77468800  0.30387300  1
  O  O25  1  0.75224200  0.75965900  0.13878300  1
  O  O26  1  0.68508000  0.87950900  0.55115700  1
  O  O27  1  0.17308100  0.92059300  0.05577200  1
