# generated using pymatgen
data_Li4Nb3Cr5O16
_symmetry_space_group_name_H-M   'P 1'
_cell_length_a   6.02065236
_cell_length_b   6.02065236
_cell_length_c   9.76293187
_cell_angle_alpha   89.69057354
_cell_angle_beta   89.69057354
_cell_angle_gamma   59.49778447
_symmetry_Int_Tables_number   1
_chemical_formula_structural   Li4Nb3Cr5O16
_chemical_formula_sum   'Li4 Nb3 Cr5 O16'
_cell_volume   304.90844627
_cell_formula_units_Z   1
loop_
 _symmetry_equiv_pos_site_id
 _symmetry_equiv_pos_as_xyz
  1  'x, y, z'
loop_
 _atom_site_type_symbol
 _atom_site_label
 _atom_site_symmetry_multiplicity
 _atom_site_fract_x
 _atom_site_fract_y
 _atom_site_fract_z
 _atom_site_occupancy
  Li  Li0  1  0.66740300  0.66740300  0.89701100  1
  Li  Li1  1  0.01111800  0.01111800  0.99543100  1
  Li  Li2  1  0.00537600  0.00537600  0.49490600  1
  Li  Li3  1  0.33400800  0.33400800  0.38645500  1
  Nb  Nb4  1  0.83175900  0.83175900  0.21154200  1
  Nb  Nb5  1  0.64451100  0.18731200  0.71129400  1
  Nb  Nb6  1  0.18731200  0.64451100  0.71129400  1
  Cr  Cr7  1  0.83174400  0.33983900  0.21451400  1
  Cr  Cr8  1  0.66618300  0.66618300  0.48071700  1
  Cr  Cr9  1  0.33983900  0.83174400  0.21451400  1
  Cr  Cr10  1  0.16686900  0.16686900  0.71396900  1
  Cr  Cr11  1  0.32871700  0.32871700  0.98963400  1
  O  O12  1  0.82949600  0.32925100  0.60133800  1
  O  O13  1  0.52112900  0.52112900  0.33842200  1
  O  O14  1  0.66988900  0.66988900  0.10320200  1
  O  O15  1  0.00016600  0.00016600  0.31210200  1
  O  O16  1  0.00360200  0.00360200  0.81297400  1
  O  O17  1  0.32925100  0.82949600  0.60133800  1
  O  O18  1  0.96033100  0.52184900  0.34012500  1
  O  O19  1  0.52184900  0.96033100  0.34012500  1
  O  O20  1  0.16286100  0.16286100  0.10171600  1
  O  O21  1  0.83299900  0.83299900  0.59931800  1
  O  O22  1  0.48013400  0.04189400  0.84069900  1
  O  O23  1  0.04189400  0.48013400  0.84069900  1
  O  O24  1  0.32009400  0.32009400  0.58849000  1
  O  O25  1  0.66925100  0.15923100  0.10352600  1
  O  O26  1  0.48334900  0.48334900  0.85897500  1
  O  O27  1  0.15923100  0.66925100  0.10352600  1
