# generated using pymatgen
data_Li2Ti2Mn5O12
_symmetry_space_group_name_H-M   'P 1'
_cell_length_a   9.11311500
_cell_length_b   5.09141000
_cell_length_c   10.36222361
_cell_angle_alpha   78.26406995
_cell_angle_beta   90.00000000
_cell_angle_gamma   90.00000000
_symmetry_Int_Tables_number   1
_chemical_formula_structural   Li2Ti2Mn5O12
_chemical_formula_sum   'Li4 Ti4 Mn10 O24'
_cell_volume   470.74196368
_cell_formula_units_Z   2
loop_
 _symmetry_equiv_pos_site_id
 _symmetry_equiv_pos_as_xyz
  1  'x, y, z'
loop_
 _atom_site_type_symbol
 _atom_site_label
 _atom_site_symmetry_multiplicity
 _atom_site_fract_x
 _atom_site_fract_y
 _atom_site_fract_z
 _atom_site_occupancy
  Li  Li0  1  0.91649700  0.49551100  0.26615600  1
  Li  Li1  1  0.57594400  0.74539000  0.49582200  1
  Li  Li2  1  0.41649700  0.50448900  0.73384400  1
  Li  Li3  1  0.07594400  0.25461000  0.50417800  1
  Ti  Ti4  1  0.75001700  0.23801800  0.50799300  1
  Ti  Ti5  1  0.74921200  0.75805900  0.99321200  1
  Ti  Ti6  1  0.24921200  0.24194100  0.00678800  1
  Ti  Ti7  1  0.25001700  0.76198200  0.49200700  1
  Mn  Mn8  1  0.91676800  0.24790600  0.00981100  1
  Mn  Mn9  1  0.92512800  0.75506100  0.49556200  1
  Mn  Mn10  1  0.72380000  0.99497300  0.26400900  1
  Mn  Mn11  1  0.58081300  0.24536500  0.99749700  1
  Mn  Mn12  1  0.75500100  0.50606200  0.73868500  1
  Mn  Mn13  1  0.42512800  0.24493900  0.50443800  1
  Mn  Mn14  1  0.41676800  0.75209400  0.99018900  1
  Mn  Mn15  1  0.22380000  0.00502700  0.73599100  1
  Mn  Mn16  1  0.25500100  0.49393800  0.26131500  1
  Mn  Mn17  1  0.08081300  0.75463500  0.00250300  1
  O  O18  1  0.89715000  0.11904000  0.38913500  1
  O  O19  1  0.88925500  0.87902900  0.11100400  1
  O  O20  1  0.77498800  0.87783500  0.60517400  1
  O  O21  1  0.73724000  0.11651800  0.89281200  1
  O  O22  1  0.91411400  0.61586100  0.90428300  1
  O  O23  1  0.90293900  0.40101600  0.60406900  1
  O  O24  1  0.59009900  0.13565000  0.40325900  1
  O  O25  1  0.77471500  0.62491800  0.38952000  1
  O  O26  1  0.58038900  0.87766800  0.09493100  1
  O  O27  1  0.76371700  0.37642600  0.11304300  1
  O  O28  1  0.60297500  0.59879500  0.88756300  1
  O  O29  1  0.58855400  0.36783200  0.60793000  1
  O  O30  1  0.38925500  0.12097100  0.88899600  1
  O  O31  1  0.39715000  0.88096000  0.61086500  1
  O  O32  1  0.27498800  0.12216500  0.39482600  1
  O  O33  1  0.40293900  0.59898400  0.39593100  1
  O  O34  1  0.23724000  0.88348200  0.10718800  1
  O  O35  1  0.41411400  0.38413900  0.09571700  1
  O  O36  1  0.08038900  0.12233200  0.90506900  1
  O  O37  1  0.27471500  0.37508200  0.61048000  1
  O  O38  1  0.09009900  0.86435000  0.59674100  1
  O  O39  1  0.26371700  0.62357400  0.88695700  1
  O  O40  1  0.08855400  0.63216800  0.39207000  1
  O  O41  1  0.10297500  0.40120500  0.11243700  1
