# generated using pymatgen
data_Li3MnV(PO4)3
_symmetry_space_group_name_H-M   'P 1'
_cell_length_a   12.03685681
_cell_length_b   10.44740651
_cell_length_c   10.31825607
_cell_angle_alpha   70.84901705
_cell_angle_beta   55.07645324
_cell_angle_gamma   54.07452971
_symmetry_Int_Tables_number   1
_chemical_formula_structural   Li3MnV(PO4)3
_chemical_formula_sum   'Li12 Mn4 V4 P12 O48'
_cell_volume   861.45954458
_cell_formula_units_Z   4
loop_
 _symmetry_equiv_pos_site_id
 _symmetry_equiv_pos_as_xyz
  1  'x, y, z'
loop_
 _atom_site_type_symbol
 _atom_site_label
 _atom_site_symmetry_multiplicity
 _atom_site_fract_x
 _atom_site_fract_y
 _atom_site_fract_z
 _atom_site_occupancy
  Li  Li0  1  0.00479100  0.36848200  0.87292000  1
  Li  Li1  1  0.37708000  0.49619200  0.24520900  1
  Li  Li2  1  0.50000000  0.50000000  0.50000000  1
  Li  Li3  1  0.36848200  0.00479100  0.75380800  1
  Li  Li4  1  0.25000000  0.25000000  0.25000000  1
  Li  Li5  1  0.49619200  0.37708000  0.88151800  1
  Li  Li6  1  0.75380800  0.87292000  0.36848200  1
  Li  Li7  1  0.00000000  0.00000000  0.00000000  1
  Li  Li8  1  0.88151800  0.24520900  0.49619200  1
  Li  Li9  1  0.75000000  0.75000000  0.75000000  1
  Li  Li10  1  0.87292000  0.75380800  0.00479100  1
  Li  Li11  1  0.24520900  0.88151800  0.37708000  1
  Mn  Mn12  1  0.12500000  0.62500000  0.12500000  1
  Mn  Mn13  1  0.12500000  0.12500000  0.12500000  1
  Mn  Mn14  1  0.62500000  0.12500000  0.12500000  1
  Mn  Mn15  1  0.12500000  0.12500000  0.62500000  1
  V  V16  1  0.12500000  0.62500000  0.62500000  1
  V  V17  1  0.62500000  0.62500000  0.12500000  1
  V  V18  1  0.62500000  0.62500000  0.62500000  1
  V  V19  1  0.62500000  0.12500000  0.62500000  1
  P  P20  1  0.99913200  0.50086800  0.50086800  1
  P  P21  1  0.87250000  0.50192300  0.25200200  1
  P  P22  1  0.37357600  0.25200200  0.50192300  1
  P  P23  1  0.25200200  0.37357600  0.87250000  1
  P  P24  1  0.74807700  0.37750000  0.87642400  1
  P  P25  1  0.74913200  0.25086800  0.25086800  1
  P  P26  1  0.50086800  0.99913200  0.99913200  1
  P  P27  1  0.99799800  0.87642400  0.37750000  1
  P  P28  1  0.50192300  0.87250000  0.37357600  1
  P  P29  1  0.87642400  0.99799800  0.74807700  1
  P  P30  1  0.37750000  0.74807700  0.99799800  1
  P  P31  1  0.25086800  0.74913200  0.74913200  1
  O  O32  1  0.73964200  0.51638000  0.92014300  1
  O  O33  1  0.12650900  0.50950000  0.33279000  1
  O  O34  1  0.34063100  0.61857000  0.03147700  1
  O  O35  1  0.00664000  0.53877000  0.63159000  1
  O  O36  1  0.82728000  0.53335900  0.12252900  1
  O  O37  1  0.12252900  0.51683200  0.82728000  1
  O  O38  1  0.32985700  0.42616600  0.51035800  1
  O  O39  1  0.24067700  0.21852300  0.63143000  1
  O  O40  1  0.41436000  0.24472700  0.33172500  1
  O  O41  1  0.61857000  0.34063100  0.00932300  1
  O  O42  1  0.00918800  0.33172500  0.24472700  1
  O  O43  1  0.42700000  0.61841000  0.71123000  1
  O  O44  1  0.61841000  0.42700000  0.24336000  1
  O  O45  1  0.24472700  0.41436000  0.00918800  1
  O  O46  1  0.21852300  0.24067700  0.90936900  1
  O  O47  1  0.42616600  0.32985700  0.73362000  1
  O  O48  1  0.03120200  0.33279000  0.50950000  1
  O  O49  1  0.73362000  0.51035800  0.42616600  1
  O  O50  1  0.51683200  0.12252900  0.53335900  1
  O  O51  1  0.91827500  0.24081200  0.83564000  1
  O  O52  1  0.74050000  0.12349100  0.21879800  1
  O  O53  1  0.71123000  0.24336000  0.42700000  1
  O  O54  1  0.33279000  0.03120200  0.12650900  1
  O  O55  1  0.71664100  0.42272000  0.73316800  1
  O  O56  1  0.53335900  0.82728000  0.51683200  1
  O  O57  1  0.91721000  0.21879800  0.12349100  1
  O  O58  1  0.53877000  0.00664000  0.82300000  1
  O  O59  1  0.50950000  0.12650900  0.03120200  1
  O  O60  1  0.33172500  0.00918800  0.41436000  1
  O  O61  1  0.73316800  0.12747100  0.71664100  1
  O  O62  1  0.51638000  0.73964200  0.82383400  1
  O  O63  1  0.21879800  0.91721000  0.74050000  1
  O  O64  1  0.82383400  0.92014300  0.51638000  1
  O  O65  1  0.03147700  0.00932300  0.34063100  1
  O  O66  1  0.00527300  0.83564000  0.24081200  1
  O  O67  1  0.63159000  0.82300000  0.00664000  1
  O  O68  1  0.82300000  0.63159000  0.53877000  1
  O  O69  1  0.24081200  0.91827500  0.00527300  1
  O  O70  1  0.63143000  0.90936900  0.24067700  1
  O  O71  1  0.83564000  0.00527300  0.91827500  1
  O  O72  1  0.00932300  0.03147700  0.61857000  1
  O  O73  1  0.92014300  0.82383400  0.73964200  1
  O  O74  1  0.12747100  0.73316800  0.42272000  1
  O  O75  1  0.42272000  0.71664100  0.12747100  1
  O  O76  1  0.24336000  0.71123000  0.61841000  1
  O  O77  1  0.90936900  0.63143000  0.21852300  1
  O  O78  1  0.12349100  0.74050000  0.91721000  1
  O  O79  1  0.51035800  0.73362000  0.32985700  1
