# generated using pymatgen
data_LiMn2(BO3)2
_symmetry_space_group_name_H-M   'P 1'
_cell_length_a   5.29183300
_cell_length_b   11.56228211
_cell_length_c   13.76401668
_cell_angle_alpha   113.48598438
_cell_angle_beta   91.35034978
_cell_angle_gamma   101.21787637
_symmetry_Int_Tables_number   1
_chemical_formula_structural   LiMn2(BO3)2
_chemical_formula_sum   'Li6 Mn12 B12 O36'
_cell_volume   752.83811670
_cell_formula_units_Z   6
loop_
 _symmetry_equiv_pos_site_id
 _symmetry_equiv_pos_as_xyz
  1  'x, y, z'
loop_
 _atom_site_type_symbol
 _atom_site_label
 _atom_site_symmetry_multiplicity
 _atom_site_fract_x
 _atom_site_fract_y
 _atom_site_fract_z
 _atom_site_occupancy
  Li  Li0  1  0.11840600  0.94002400  0.03500400  1
  Li  Li1  1  0.04921700  0.43579000  0.77628200  1
  Li  Li2  1  0.26283500  0.77864600  0.61614400  1
  Li  Li3  1  0.28895900  0.27262700  0.85693000  1
  Li  Li4  1  0.41489400  0.10431800  0.44010500  1
  Li  Li5  1  0.58161600  0.45366700  0.27958200  1
  Mn  Mn6  1  0.00719600  0.70261800  0.82518500  1
  Mn  Mn7  1  0.06624000  0.82194300  0.43592900  1
  Mn  Mn8  1  0.32902000  0.98098000  0.85411400  1
  Mn  Mn9  1  0.28114100  0.86616900  0.23526500  1
  Mn  Mn10  1  0.34117600  0.35824500  0.47301300  1
  Mn  Mn11  1  0.38104500  0.46781800  0.08986400  1
  Mn  Mn12  1  0.59741700  0.53125000  0.89506100  1
  Mn  Mn13  1  0.67810700  0.62932600  0.49843800  1
  Mn  Mn14  1  0.73568700  0.13089000  0.76584000  1
  Mn  Mn15  1  0.68530700  0.02930500  0.15459900  1
  Mn  Mn16  1  0.96200400  0.21006700  0.57933900  1
  Mn  Mn17  1  0.99416500  0.30408400  0.17234900  1
  B  B18  1  0.10899800  0.53092800  0.39614800  1
  B  B19  1  0.15491000  0.64079600  0.01204800  1
  B  B20  1  0.18433300  0.03789400  0.66445800  1
  B  B21  1  0.23844600  0.12707000  0.25503400  1
  B  B22  1  0.56853900  0.80923100  0.93111200  1
  B  B23  1  0.50382900  0.69529400  0.31927200  1
  B  B24  1  0.48557700  0.30389700  0.67805800  1
  B  B25  1  0.42415700  0.20397500  0.07944300  1
  B  B26  1  0.76264700  0.84556200  0.72757800  1
  B  B27  1  0.83335400  0.98955400  0.35607900  1
  B  B28  1  0.83708400  0.35523600  0.98411200  1
  B  B29  1  0.89336100  0.46735000  0.59587200  1
  O  O30  1  0.00669500  0.82273900  0.75631700  1
  O  O31  1  0.07363600  0.95524500  0.36150900  1
  O  O32  1  0.01470100  0.59224100  0.90838600  1
  O  O33  1  0.06267700  0.64577300  0.47474700  1
  O  O34  1  0.00315300  0.54122700  0.69677400  1
  O  O35  1  0.10356700  0.73886500  0.09527600  1
  O  O36  1  0.22466900  0.92728800  0.59000900  1
  O  O37  1  0.31853100  0.83348500  0.91894000  1
  O  O38  1  0.03970800  0.16624600  0.21663300  1
  O  O39  1  0.31949500  0.76559800  0.31696000  1
  O  O40  1  0.35186900  0.50115100  0.40693900  1
  O  O41  1  0.25861200  0.11125600  0.99894700  1
  O  O42  1  0.34944400  0.57461100  0.01484500  1
  O  O43  1  0.37066200  0.37542600  0.76359800  1
  O  O44  1  0.35354900  0.24363400  0.57500100  1
  O  O45  1  0.32722000  0.09961400  0.76596500  1
  O  O46  1  0.61023500  0.75951100  0.63725600  1
  O  O47  1  0.37218100  0.32908300  0.14238900  1
  O  O48  1  0.69425300  0.95863400  0.79286500  1
  O  O49  1  0.27583600  0.00386200  0.18334900  1
  O  O50  1  0.67898500  0.93602500  0.25832400  1
  O  O51  1  0.38100000  0.19468200  0.34940200  1
  O  O52  1  0.62182600  0.69451600  0.85855100  1
  O  O53  1  0.53308800  0.58971700  0.23459700  1
  O  O54  1  0.65836100  0.73612900  0.41716200  1
  O  O55  1  0.59533800  0.38421900  0.97108600  1
  O  O56  1  0.74700400  0.89790900  0.01087000  1
  O  O57  1  0.69307900  0.49355600  0.54588900  1
  O  O58  1  0.73389400  0.28680400  0.69387700  1
  O  O59  1  0.65181800  0.18631400  0.11631300  1
  O  O60  1  0.75351600  0.07206600  0.44504300  1
  O  O61  1  0.92996200  0.44907400  0.31372800  1
  O  O62  1  0.94649500  0.28538300  0.89849500  1
  O  O63  1  0.97369700  0.35271900  0.53468100  1
  O  O64  1  0.96900700  0.40726500  0.08765700  1
  O  O65  1  0.98568900  0.09615400  0.64907500  1
