# generated using pymatgen
data_LiVF4
_symmetry_space_group_name_H-M   'P 1'
_cell_length_a   7.04726800
_cell_length_b   8.36618380
_cell_length_c   9.83268249
_cell_angle_alpha   96.34921266
_cell_angle_beta   106.54324084
_cell_angle_gamma   102.24980796
_symmetry_Int_Tables_number   1
_chemical_formula_structural   LiVF4
_chemical_formula_sum   'Li6 V6 F24'
_cell_volume   533.94742250
_cell_formula_units_Z   6
loop_
 _symmetry_equiv_pos_site_id
 _symmetry_equiv_pos_as_xyz
  1  'x, y, z'
loop_
 _atom_site_type_symbol
 _atom_site_label
 _atom_site_symmetry_multiplicity
 _atom_site_fract_x
 _atom_site_fract_y
 _atom_site_fract_z
 _atom_site_occupancy
  Li  Li0  1  0.01338800  0.00582200  0.26284700  1
  Li  Li1  1  0.18543100  0.59567100  0.35596200  1
  Li  Li2  1  0.48312300  0.68612500  0.85722400  1
  Li  Li3  1  0.51687700  0.31387500  0.14277600  1
  Li  Li4  1  0.81456900  0.40432900  0.64403800  1
  Li  Li5  1  0.98661200  0.99417800  0.73715300  1
  V  V6  1  0.02707100  0.69722700  0.99136800  1
  V  V7  1  0.23999700  0.29840900  0.58112800  1
  V  V8  1  0.46918600  0.88036100  0.21221900  1
  V  V9  1  0.53081400  0.11963900  0.78778100  1
  V  V10  1  0.76000300  0.70159100  0.41887200  1
  V  V11  1  0.97292900  0.30277300  0.00863200  1
  F  F12  1  0.05059400  0.84340000  0.86165200  1
  F  F13  1  0.03874100  0.71046300  0.43377600  1
  F  F14  1  0.04212800  0.53145300  0.13467000  1
  F  F15  1  0.16208000  0.87207600  0.17059800  1
  F  F16  1  0.24907800  0.13983300  0.74113900  1
  F  F17  1  0.34830000  0.48883900  0.73652900  1
  F  F18  1  0.48488100  0.89451100  0.78928800  1
  F  F19  1  0.18060100  0.09736200  0.44483400  1
  F  F20  1  0.26237900  0.42692400  0.43538600  1
  F  F21  1  0.44793800  0.74279300  0.35243200  1
  F  F22  1  0.34843500  0.72946100  0.02845400  1
  F  F23  1  0.24738200  0.30466300  0.02894600  1
  F  F24  1  0.75261800  0.69533700  0.97105400  1
  F  F25  1  0.65156500  0.27053900  0.97154600  1
  F  F26  1  0.55206200  0.25720700  0.64756800  1
  F  F27  1  0.73762100  0.57307600  0.56461400  1
  F  F28  1  0.81939900  0.90263800  0.55516600  1
  F  F29  1  0.51511900  0.10548900  0.21071200  1
  F  F30  1  0.65170000  0.51116100  0.26347100  1
  F  F31  1  0.75092200  0.86016700  0.25886100  1
  F  F32  1  0.83792000  0.12792400  0.82940200  1
  F  F33  1  0.95787200  0.46854700  0.86533000  1
  F  F34  1  0.96125900  0.28953700  0.56622400  1
  F  F35  1  0.94940600  0.15660000  0.13834800  1
