# generated using pymatgen
data_Li2VP2O7
_symmetry_space_group_name_H-M   'P 1'
_cell_length_a   6.64091100
_cell_length_b   9.31818399
_cell_length_c   10.42528923
_cell_angle_alpha   113.49660615
_cell_angle_beta   88.44155976
_cell_angle_gamma   106.38309451
_symmetry_Int_Tables_number   1
_chemical_formula_structural   Li2VP2O7
_chemical_formula_sum   'Li8 V4 P8 O28'
_cell_volume   564.94459866
_cell_formula_units_Z   4
loop_
 _symmetry_equiv_pos_site_id
 _symmetry_equiv_pos_as_xyz
  1  'x, y, z'
loop_
 _atom_site_type_symbol
 _atom_site_label
 _atom_site_symmetry_multiplicity
 _atom_site_fract_x
 _atom_site_fract_y
 _atom_site_fract_z
 _atom_site_occupancy
  Li  Li0  1  0.05004500  0.21157500  0.51933100  1
  Li  Li1  1  0.64384800  0.07608900  0.62107200  1
  Li  Li2  1  0.59919400  0.50917000  0.97304500  1
  Li  Li3  1  0.16309000  0.10838300  0.12671300  1
  Li  Li4  1  0.16741500  0.48663900  0.03153300  1
  Li  Li5  1  0.86518400  0.89240200  0.89150600  1
  Li  Li6  1  0.34691400  0.92292300  0.37864200  1
  Li  Li7  1  0.93160000  0.82907800  0.50010500  1
  V  V8  1  0.36474600  0.50169400  0.73995100  1
  V  V9  1  0.72354700  0.09820200  0.22560800  1
  V  V10  1  0.28240900  0.89261600  0.77171500  1
  V  V11  1  0.62555500  0.48988700  0.25172800  1
  P  P12  1  0.07672800  0.17941100  0.79712300  1
  P  P13  1  0.69818600  0.18920500  0.94543900  1
  P  P14  1  0.55702200  0.28913200  0.46151600  1
  P  P15  1  0.12126100  0.44646000  0.29745900  1
  P  P16  1  0.86865000  0.54082900  0.69858000  1
  P  P17  1  0.43795300  0.70651600  0.53284000  1
  P  P18  1  0.30925900  0.80246900  0.05277400  1
  P  P19  1  0.92736800  0.80764300  0.19640000  1
  O  O20  1  0.10059700  0.05792700  0.85573200  1
  O  O21  1  0.56844400  0.08489500  0.80350900  1
  O  O22  1  0.27913500  0.31756500  0.82098300  1
  O  O23  1  0.96159900  0.09196100  0.64724600  1
  O  O24  1  0.02839600  0.44816200  0.68959100  1
  O  O25  1  0.92831300  0.27956500  0.90561900  1
  O  O26  1  0.63079000  0.14236100  0.45689000  1
  O  O27  1  0.03731200  0.26863500  0.28369800  1
  O  O28  1  0.35905300  0.30134300  0.53663900  1
  O  O29  1  0.38060900  0.65420600  0.96059900  1
  O  O30  1  0.53837000  0.27516200  0.30922600  1
  O  O31  1  0.69522300  0.52063800  0.79598300  1
  O  O32  1  0.74103700  0.08287700  0.01557100  1
  O  O33  1  0.24847000  0.54247600  0.45411300  1
  O  O34  1  0.74390000  0.45575200  0.54028500  1
  O  O35  1  0.26921200  0.90858600  0.98219000  1
  O  O36  1  0.28792900  0.46270600  0.19377200  1
  O  O37  1  0.45778800  0.71377000  0.68284000  1
  O  O38  1  0.62039000  0.33193500  0.03730700  1
  O  O39  1  0.63371600  0.69477900  0.45509200  1
  O  O40  1  0.96554100  0.72141000  0.72425500  1
  O  O41  1  0.36733800  0.85649900  0.54339500  1
  O  O42  1  0.08211900  0.70939100  0.09231900  1
  O  O43  1  0.95523300  0.52818800  0.29544200  1
  O  O44  1  0.03735400  0.89256600  0.34657000  1
  O  O45  1  0.72031900  0.67402000  0.17086700  1
  O  O46  1  0.43995200  0.90632100  0.19424700  1
  O  O47  1  0.91073700  0.93179600  0.13769700  1
