# generated using pymatgen
data_LiMnPO4
_symmetry_space_group_name_H-M   'P 1'
_cell_length_a   5.63696400
_cell_length_b   6.40736600
_cell_length_c   8.47439400
_cell_angle_alpha   90.00016161
_cell_angle_beta   90.00017937
_cell_angle_gamma   89.99998089
_symmetry_Int_Tables_number   1
_chemical_formula_structural   LiMnPO4
_chemical_formula_sum   'Li4 Mn4 P4 O16'
_cell_volume   306.07893770
_cell_formula_units_Z   4
loop_
 _symmetry_equiv_pos_site_id
 _symmetry_equiv_pos_as_xyz
  1  'x, y, z'
loop_
 _atom_site_type_symbol
 _atom_site_label
 _atom_site_symmetry_multiplicity
 _atom_site_fract_x
 _atom_site_fract_y
 _atom_site_fract_z
 _atom_site_occupancy
  Li  Li0  1  0.00000000  0.00000000  0.50000100  1
  Li  Li1  1  0.49999900  0.00000000  0.00000100  1
  Li  Li2  1  0.00000000  0.50000000  0.50000100  1
  Li  Li3  1  0.49999900  0.50000000  0.00000100  1
  Mn  Mn4  1  0.50002900  0.24999000  0.68161700  1
  Mn  Mn5  1  0.50000600  0.75000600  0.31838200  1
  Mn  Mn6  1  0.00001500  0.25000100  0.18181200  1
  Mn  Mn7  1  0.99996600  0.75000300  0.81816600  1
  P  P8  1  0.00000100  0.75000000  0.14884600  1
  P  P9  1  0.49999700  0.74999700  0.64889400  1
  P  P10  1  0.00000000  0.25000100  0.85115500  1
  P  P11  1  0.49999900  0.25000200  0.35110800  1
  O  O12  1  0.27792200  0.25000000  0.46199400  1
  O  O13  1  0.77792800  0.24999900  0.96200900  1
  O  O14  1  0.27792000  0.75000000  0.53800900  1
  O  O15  1  0.77792800  0.74999900  0.03799200  1
  O  O16  1  0.72207900  0.25000000  0.46199300  1
  O  O17  1  0.22207100  0.25000000  0.96200900  1
  O  O18  1  0.72207800  0.75000000  0.53801000  1
  O  O19  1  0.22207000  0.74999900  0.03799100  1
  O  O20  1  0.99999800  0.55573200  0.25774700  1
  O  O21  1  0.50000200  0.55571600  0.75773800  1
  O  O22  1  0.99999800  0.94426800  0.25774700  1
  O  O23  1  0.50000000  0.94427900  0.75773900  1
  O  O24  1  0.99999600  0.05573400  0.74225500  1
  O  O25  1  0.50000000  0.05572100  0.24226300  1
  O  O26  1  0.99999900  0.44426700  0.74225500  1
  O  O27  1  0.50000000  0.44428300  0.24226500  1
