# generated using pymatgen
data_Li4Ti4Mn4NiO18
_symmetry_space_group_name_H-M   'P 1'
_cell_length_a   2.93693600
_cell_length_b   9.12608500
_cell_length_c   25.30168400
_cell_angle_alpha   90.00000000
_cell_angle_beta   90.00000000
_cell_angle_gamma   90.00000000
_symmetry_Int_Tables_number   1
_chemical_formula_structural   Li4Ti4Mn4NiO18
_chemical_formula_sum   'Li8 Ti8 Mn8 Ni2 O36'
_cell_volume   678.15414345
_cell_formula_units_Z   2
loop_
 _symmetry_equiv_pos_site_id
 _symmetry_equiv_pos_as_xyz
  1  'x, y, z'
loop_
 _atom_site_type_symbol
 _atom_site_label
 _atom_site_symmetry_multiplicity
 _atom_site_fract_x
 _atom_site_fract_y
 _atom_site_fract_z
 _atom_site_occupancy
  Li  Li0  1  0.50000000  0.70275800  0.00077500  1
  Li  Li1  1  0.50000000  0.70676800  0.19744400  1
  Li  Li2  1  0.50000000  0.79323200  0.69744400  1
  Li  Li3  1  0.50000000  0.79724200  0.50077500  1
  Li  Li4  1  0.50000000  0.20275800  0.49922500  1
  Li  Li5  1  0.50000000  0.20676800  0.30255600  1
  Li  Li6  1  0.50000000  0.29323200  0.80255600  1
  Li  Li7  1  0.50000000  0.29724200  0.99922500  1
  Ti  Ti8  1  0.50000000  0.50947400  0.10427800  1
  Ti  Ti9  1  0.00000000  0.64154300  0.80484200  1
  Ti  Ti10  1  0.00000000  0.85845700  0.30484200  1
  Ti  Ti11  1  0.50000000  0.99052600  0.60427800  1
  Ti  Ti12  1  0.50000000  0.00947400  0.39572200  1
  Ti  Ti13  1  0.00000000  0.14154300  0.69515800  1
  Ti  Ti14  1  0.00000000  0.35845700  0.19515800  1
  Ti  Ti15  1  0.50000000  0.49052600  0.89572200  1
  Mn  Mn16  1  0.50000000  0.51987200  0.31564700  1
  Mn  Mn17  1  0.00000000  0.63755500  0.58614100  1
  Mn  Mn18  1  0.00000000  0.86244500  0.08614100  1
  Mn  Mn19  1  0.50000000  0.98012800  0.81564700  1
  Mn  Mn20  1  0.50000000  0.01987200  0.18435300  1
  Mn  Mn21  1  0.00000000  0.13755500  0.91385900  1
  Mn  Mn22  1  0.00000000  0.36244500  0.41385900  1
  Mn  Mn23  1  0.50000000  0.48012800  0.68435300  1
  Ni  Ni24  1  0.50000000  0.50000000  0.50000000  1
  Ni  Ni25  1  0.50000000  0.00000000  0.00000000  1
  O  O26  1  0.50000000  0.49830300  0.41700900  1
  O  O27  1  0.50000000  0.50169700  0.58299100  1
  O  O28  1  0.00000000  0.53238400  0.94012000  1
  O  O29  1  0.00000000  0.55599600  0.16284100  1
  O  O30  1  0.00000000  0.61181300  0.66303100  1
  O  O31  1  0.50000000  0.61132800  0.75667800  1
  O  O32  1  0.00000000  0.65730200  0.51173200  1
  O  O33  1  0.00000000  0.64399800  0.29114800  1
  O  O34  1  0.50000000  0.67469800  0.85728200  1
  O  O35  1  0.50000000  0.72033900  0.08977800  1
  O  O36  1  0.50000000  0.77966100  0.58977800  1
  O  O37  1  0.50000000  0.82530200  0.35728200  1
  O  O38  1  0.00000000  0.85600200  0.79114800  1
  O  O39  1  0.00000000  0.84269800  0.01173200  1
  O  O40  1  0.50000000  0.88867200  0.25667800  1
  O  O41  1  0.00000000  0.88818700  0.16303100  1
  O  O42  1  0.00000000  0.94400400  0.66284100  1
  O  O43  1  0.00000000  0.96761600  0.44012000  1
  O  O44  1  0.50000000  0.99830300  0.08299100  1
  O  O45  1  0.50000000  0.00169700  0.91700900  1
  O  O46  1  0.00000000  0.03238400  0.55988000  1
  O  O47  1  0.00000000  0.05599600  0.33715900  1
  O  O48  1  0.00000000  0.11181300  0.83696900  1
  O  O49  1  0.50000000  0.11132800  0.74332200  1
  O  O50  1  0.00000000  0.15730200  0.98826800  1
  O  O51  1  0.00000000  0.14399800  0.20885200  1
  O  O52  1  0.50000000  0.17469800  0.64271800  1
  O  O53  1  0.50000000  0.22033900  0.41022200  1
  O  O54  1  0.50000000  0.27966100  0.91022200  1
  O  O55  1  0.50000000  0.32530200  0.14271800  1
  O  O56  1  0.00000000  0.35600200  0.70885200  1
  O  O57  1  0.00000000  0.34269800  0.48826800  1
  O  O58  1  0.50000000  0.38867200  0.24332200  1
  O  O59  1  0.00000000  0.38818700  0.33696900  1
  O  O60  1  0.00000000  0.44400400  0.83715900  1
  O  O61  1  0.00000000  0.46761600  0.05988000  1
