# generated using pymatgen
data_Li24Mn11CrO36
_symmetry_space_group_name_H-M   'P 1'
_cell_length_a   8.66211450
_cell_length_b   8.66211450
_cell_length_c   9.72499424
_cell_angle_alpha   81.69483688
_cell_angle_beta   81.69483688
_cell_angle_gamma   59.87892820
_symmetry_Int_Tables_number   1
_chemical_formula_structural   Li24Mn11CrO36
_chemical_formula_sum   'Li24 Mn11 Cr1 O36'
_cell_volume   622.32573224
_cell_formula_units_Z   1
loop_
 _symmetry_equiv_pos_site_id
 _symmetry_equiv_pos_as_xyz
  1  'x, y, z'
loop_
 _atom_site_type_symbol
 _atom_site_label
 _atom_site_symmetry_multiplicity
 _atom_site_fract_x
 _atom_site_fract_y
 _atom_site_fract_z
 _atom_site_occupancy
  Li  Li0  1  0.83556000  0.00381800  0.25061300  1
  Li  Li1  1  0.75131600  0.24868400  0.00000000  1
  Li  Li2  1  0.66940800  0.16256200  0.74882000  1
  Li  Li3  1  0.58512100  0.08287100  0.49877200  1
  Li  Li4  1  0.51048400  0.32444900  0.24923600  1
  Li  Li5  1  0.49731900  0.00405400  0.25029800  1
  Li  Li6  1  0.33955400  0.16492300  0.75050200  1
  Li  Li7  1  0.32773800  0.50282600  0.75378000  1
  Li  Li8  1  0.25143200  0.74856800  0.50000000  1
  Li  Li9  1  0.16236200  0.34292400  0.24985900  1
  Li  Li10  1  0.17196300  0.66529200  0.25116800  1
  Li  Li11  1  0.08506100  0.58526900  0.99865600  1
  Li  Li12  1  0.00891800  0.83143900  0.74815900  1
  Li  Li13  1  0.99594600  0.50268100  0.74970200  1
  Li  Li14  1  0.99618200  0.16444000  0.74938700  1
  Li  Li15  1  0.91712900  0.41487900  0.50122800  1
  Li  Li16  1  0.83507700  0.66044600  0.24949800  1
  Li  Li17  1  0.83743800  0.33059200  0.25118000  1
  Li  Li18  1  0.67555100  0.48951600  0.75076400  1
  Li  Li19  1  0.65707600  0.83763800  0.75014100  1
  Li  Li20  1  0.49717400  0.67226200  0.24622000  1
  Li  Li21  1  0.41473100  0.91493900  0.00134400  1
  Li  Li22  1  0.33470800  0.82803700  0.74883200  1
  Li  Li23  1  0.16856100  0.99108200  0.25184100  1
  Mn  Mn24  1  0.91860500  0.08139500  0.50000000  1
  Mn  Mn25  1  0.41810500  0.58189500  0.00000000  1
  Mn  Mn26  1  0.41819900  0.25057600  0.00045000  1
  Mn  Mn27  1  0.25004400  0.41589300  0.50218500  1
  Mn  Mn28  1  0.25036200  0.08394400  0.50093500  1
  Mn  Mn29  1  0.08373400  0.91626600  0.00000000  1
  Mn  Mn30  1  0.08479900  0.25075900  0.00124300  1
  Mn  Mn31  1  0.91605600  0.74963800  0.49906500  1
  Mn  Mn32  1  0.74924100  0.91520100  0.99875700  1
  Mn  Mn33  1  0.74942400  0.58180100  0.99955000  1
  Mn  Mn34  1  0.58410700  0.74995600  0.49781500  1
  Cr  Cr35  1  0.58104300  0.41895700  0.50000000  1
  O  O36  1  0.88385000  0.02372700  0.88780200  1
  O  O37  1  0.71859000  0.21355000  0.38608700  1
  O  O38  1  0.62024100  0.11815000  0.11387800  1
  O  O39  1  0.55028000  0.04767400  0.88643200  1
  O  O40  1  0.52650200  0.38135500  0.88848100  1
  O  O41  1  0.45014200  0.30930300  0.61434000  1
  O  O42  1  0.31136200  0.45214900  0.11307700  1
  O  O43  1  0.38360100  0.52103400  0.38859100  1
  O  O44  1  0.28664700  0.14369700  0.11276700  1
  O  O45  1  0.35858800  0.21459400  0.38910100  1
  O  O46  1  0.21792200  0.71540300  0.88638500  1
  O  O47  1  0.21560800  0.35923000  0.88905000  1
  O  O48  1  0.19205900  0.04948400  0.88861600  1
  O  O49  1  0.14160800  0.28603300  0.61330800  1
  O  O50  1  0.11934200  0.61921600  0.61528700  1
  O  O51  1  0.97627300  0.11615000  0.11219800  1
  O  O52  1  0.04942800  0.54797900  0.38719600  1
  O  O53  1  0.04926400  0.19000700  0.38855000  1
  O  O54  1  0.95051600  0.80794100  0.11138400  1
  O  O55  1  0.95232600  0.44972000  0.11356800  1
  O  O56  1  0.02846800  0.87873400  0.38915300  1
  O  O57  1  0.88185000  0.37975900  0.88612200  1
  O  O58  1  0.85630300  0.71335300  0.88723300  1
  O  O59  1  0.80999300  0.95073600  0.61145000  1
  O  O60  1  0.78540600  0.64141200  0.61089900  1
  O  O61  1  0.78645000  0.28141000  0.61391300  1
  O  O62  1  0.64077000  0.78439200  0.11095000  1
  O  O63  1  0.71396700  0.85839200  0.38669200  1
  O  O64  1  0.61864500  0.47349800  0.11151900  1
  O  O65  1  0.69069700  0.54985800  0.38566000  1
  O  O66  1  0.54785100  0.68863800  0.88692300  1
  O  O67  1  0.47896600  0.61639900  0.61140900  1
  O  O68  1  0.45202100  0.95057200  0.61280400  1
  O  O69  1  0.38078400  0.88065800  0.38471300  1
  O  O70  1  0.28459700  0.78207800  0.11361500  1
  O  O71  1  0.12126600  0.97153200  0.61084700  1
