# generated using pymatgen
data_Li2Mn2(PO4)3
_symmetry_space_group_name_H-M   'P 1'
_cell_length_a   8.36619634
_cell_length_b   8.39546485
_cell_length_c   9.03076598
_cell_angle_alpha   88.11472533
_cell_angle_beta   60.02146959
_cell_angle_gamma   118.19579948
_symmetry_Int_Tables_number   1
_chemical_formula_structural   Li2Mn2(PO4)3
_chemical_formula_sum   'Li4 Mn4 P6 O24'
_cell_volume   453.19008899
_cell_formula_units_Z   2
loop_
 _symmetry_equiv_pos_site_id
 _symmetry_equiv_pos_as_xyz
  1  'x, y, z'
loop_
 _atom_site_type_symbol
 _atom_site_label
 _atom_site_symmetry_multiplicity
 _atom_site_fract_x
 _atom_site_fract_y
 _atom_site_fract_z
 _atom_site_occupancy
  Li  Li0  1  0.46531743  0.22833560  0.13962492  1
  Li  Li1  1  0.35443797  0.35523144  0.45269179  1
  Li  Li2  1  0.64556203  0.64476856  0.54730821  1
  Li  Li3  1  0.53468257  0.77166440  0.86037508  1
  Mn  Mn4  1  0.20230387  0.85396056  0.44479354  1
  Mn  Mn5  1  0.20902471  0.35263471  0.92453096  1
  Mn  Mn6  1  0.79097529  0.64736529  0.07546904  1
  Mn  Mn7  1  0.79769613  0.14603944  0.55520646  1
  P  P8  1  0.28620680  0.54012530  0.25269153  1
  P  P9  1  0.28723971  0.75890270  0.75011436  1
  P  P10  1  0.00729366  0.04312282  0.73792313  1
  P  P11  1  0.99270634  0.95687718  0.26207687  1
  P  P12  1  0.71276029  0.24109730  0.24988564  1
  P  P13  1  0.71379320  0.45987470  0.74730847  1
  O  O14  1  0.18833315  0.98295986  0.26699592  1
  O  O15  1  0.21178577  0.67415515  0.31694273  1
  O  O16  1  0.32515321  0.54209723  0.06841111  1
  O  O17  1  0.10664385  0.11950549  0.09187421  1
  O  O18  1  0.12055652  0.32677788  0.39461676  1
  O  O19  1  0.25041294  0.75272493  0.59992381  1
  O  O20  1  0.07756682  0.69078133  0.94127957  1
  O  O21  1  0.49794660  0.59957111  0.24598383  1
  O  O22  1  0.47267595  0.95649889  0.72745042  1
  O  O23  1  0.15093237  0.24700318  0.72942402  1
  O  O24  1  0.36493556  0.62138334  0.75068867  1
  O  O25  1  0.18318124  0.04147638  0.55567865  1
  O  O26  1  0.81681876  0.95852362  0.44432135  1
  O  O27  1  0.63506444  0.37861666  0.24931133  1
  O  O28  1  0.84906763  0.75299682  0.27057598  1
  O  O29  1  0.52732405  0.04350111  0.27254958  1
  O  O30  1  0.50205340  0.40042889  0.75401617  1
  O  O31  1  0.92243318  0.30921867  0.05872043  1
  O  O32  1  0.74958706  0.24727507  0.40007619  1
  O  O33  1  0.87944348  0.67322212  0.60538324  1
  O  O34  1  0.89335615  0.88049451  0.90812579  1
  O  O35  1  0.67484679  0.45790277  0.93158889  1
  O  O36  1  0.78821423  0.32584485  0.68305727  1
  O  O37  1  0.81166685  0.01704014  0.73300408  1
