# generated using pymatgen
data_Li4Nb2V3Ni3O16
_symmetry_space_group_name_H-M   'P 1'
_cell_length_a   5.94215591
_cell_length_b   5.96657078
_cell_length_c   9.71042258
_cell_angle_alpha   90.06491104
_cell_angle_beta   90.36710327
_cell_angle_gamma   120.16939142
_symmetry_Int_Tables_number   1
_chemical_formula_structural   Li4Nb2V3Ni3O16
_chemical_formula_sum   'Li4 Nb2 V3 Ni3 O16'
_cell_volume   297.63181377
_cell_formula_units_Z   1
loop_
 _symmetry_equiv_pos_site_id
 _symmetry_equiv_pos_as_xyz
  1  'x, y, z'
loop_
 _atom_site_type_symbol
 _atom_site_label
 _atom_site_symmetry_multiplicity
 _atom_site_fract_x
 _atom_site_fract_y
 _atom_site_fract_z
 _atom_site_occupancy
  Li  Li0  1  0.32322600  0.66142000  0.89840900  1
  Li  Li1  1  0.00432000  0.00028700  0.98791700  1
  Li  Li2  1  0.00636100  0.00223300  0.49455400  1
  Li  Li3  1  0.66459700  0.33416300  0.40372700  1
  Nb  Nb4  1  0.33065400  0.66404800  0.50152800  1
  Nb  Nb5  1  0.69581800  0.34815200  0.98740200  1
  V  V6  1  0.18834500  0.84301500  0.22029300  1
  V  V7  1  0.18586300  0.34691100  0.21879000  1
  V  V8  1  0.34986800  0.17400300  0.72636200  1
  Ni  Ni9  1  0.66366900  0.83190900  0.20758300  1
  Ni  Ni10  1  0.82534900  0.65933700  0.71173100  1
  Ni  Ni11  1  0.82513900  0.16552300  0.71173100  1
  O  O12  1  0.17389600  0.83291300  0.59163000  1
  O  O13  1  0.03883300  0.52019900  0.33534200  1
  O  O14  1  0.30526600  0.65296800  0.10498500  1
  O  O15  1  0.01119300  0.00672600  0.30499100  1
  O  O16  1  0.01954400  0.00963000  0.79909000  1
  O  O17  1  0.17337100  0.33967000  0.59186000  1
  O  O18  1  0.46588400  0.96413700  0.33775700  1
  O  O19  1  0.46423600  0.50231200  0.33799700  1
  O  O20  1  0.33034700  0.16495900  0.10293200  1
  O  O21  1  0.66611400  0.83255100  0.58380100  1
  O  O22  1  0.50342400  0.46872800  0.85025600  1
  O  O23  1  0.50330000  0.03357800  0.84982000  1
  O  O24  1  0.63156600  0.31582500  0.60825000  1
  O  O25  1  0.84519300  0.66975300  0.09601500  1
  O  O26  1  0.95764700  0.47888500  0.84768100  1
  O  O27  1  0.84697700  0.17646600  0.09540600  1
