# generated using pymatgen
data_Li2Ni(CO3)2
_symmetry_space_group_name_H-M   'P 1'
_cell_length_a   9.55417600
_cell_length_b   7.47275500
_cell_length_c   9.13106333
_cell_angle_alpha   57.85488689
_cell_angle_beta   90.00000000
_cell_angle_gamma   90.00000000
_symmetry_Int_Tables_number   1
_chemical_formula_structural   Li2Ni(CO3)2
_chemical_formula_sum   'Li8 Ni4 C8 O24'
_cell_volume   551.98409357
_cell_formula_units_Z   4
loop_
 _symmetry_equiv_pos_site_id
 _symmetry_equiv_pos_as_xyz
  1  'x, y, z'
loop_
 _atom_site_type_symbol
 _atom_site_label
 _atom_site_symmetry_multiplicity
 _atom_site_fract_x
 _atom_site_fract_y
 _atom_site_fract_z
 _atom_site_occupancy
  Li  Li0  1  0.60626000  0.61894900  0.85435900  1
  Li  Li1  1  0.70719600  0.07440400  0.29575300  1
  Li  Li2  1  0.10626000  0.38105100  0.64564100  1
  Li  Li3  1  0.20719600  0.92559600  0.20424700  1
  Li  Li4  1  0.79280400  0.07440400  0.79575300  1
  Li  Li5  1  0.89374000  0.61894900  0.35435900  1
  Li  Li6  1  0.29280400  0.92559600  0.70424700  1
  Li  Li7  1  0.39374000  0.38105100  0.14564100  1
  Ni  Ni8  1  0.13229600  0.50442200  0.93951200  1
  Ni  Ni9  1  0.63229600  0.49557800  0.56048800  1
  Ni  Ni10  1  0.36770400  0.50442200  0.43951200  1
  Ni  Ni11  1  0.86770400  0.49557800  0.06048800  1
  C  C12  1  0.88371100  0.53585000  0.72447100  1
  C  C13  1  0.38371100  0.46415000  0.77552900  1
  C  C14  1  0.98843400  0.08063400  0.16232500  1
  C  C15  1  0.48843400  0.91936600  0.33767500  1
  C  C16  1  0.51156600  0.08063400  0.66232500  1
  C  C17  1  0.01156600  0.91936600  0.83767500  1
  C  C18  1  0.61628900  0.53585000  0.22447100  1
  C  C19  1  0.11628900  0.46415000  0.27552900  1
  O  O20  1  0.33464900  0.47318200  0.90501400  1
  O  O21  1  0.01785800  0.54080100  0.73766800  1
  O  O22  1  0.79891300  0.53643500  0.83333300  1
  O  O23  1  0.29891300  0.46356500  0.66666700  1
  O  O24  1  0.51785800  0.45919900  0.76233200  1
  O  O25  1  0.83464900  0.52681800  0.59498600  1
  O  O26  1  0.49911100  0.12059100  0.25107800  1
  O  O27  1  0.87383700  0.17453900  0.16294900  1
  O  O28  1  0.09844500  0.18809400  0.07455300  1
  O  O29  1  0.59844500  0.81190600  0.42544700  1
  O  O30  1  0.37383700  0.82546100  0.33705100  1
  O  O31  1  0.99911100  0.87940900  0.24892200  1
  O  O32  1  0.00088900  0.12059100  0.75107800  1
  O  O33  1  0.62616300  0.17453900  0.66294900  1
  O  O34  1  0.40155500  0.18809400  0.57455300  1
  O  O35  1  0.90155500  0.81190600  0.92544700  1
  O  O36  1  0.12616300  0.82546100  0.83705100  1
  O  O37  1  0.50088900  0.87940900  0.74892200  1
  O  O38  1  0.16535100  0.47318200  0.40501400  1
  O  O39  1  0.48214200  0.54080100  0.23766800  1
  O  O40  1  0.70108700  0.53643500  0.33333300  1
  O  O41  1  0.20108700  0.46356500  0.16666700  1
  O  O42  1  0.98214200  0.45919900  0.26233200  1
  O  O43  1  0.66535100  0.52681800  0.09498600  1
