# generated using pymatgen
data_LiFe(SiO3)2
_symmetry_space_group_name_H-M   'P 1'
_cell_length_a   5.20714800
_cell_length_b   9.55555700
_cell_length_c   18.52391200
_cell_angle_alpha   90.00000000
_cell_angle_beta   90.00000000
_cell_angle_gamma   90.00000000
_symmetry_Int_Tables_number   1
_chemical_formula_structural   LiFe(SiO3)2
_chemical_formula_sum   'Li8 Fe8 Si16 O48'
_cell_volume   921.69798530
_cell_formula_units_Z   8
loop_
 _symmetry_equiv_pos_site_id
 _symmetry_equiv_pos_as_xyz
  1  'x, y, z'
loop_
 _atom_site_type_symbol
 _atom_site_label
 _atom_site_symmetry_multiplicity
 _atom_site_fract_x
 _atom_site_fract_y
 _atom_site_fract_z
 _atom_site_occupancy
  Li  Li0  1  0.61831300  0.63745700  0.12377200  1
  Li  Li1  1  0.11831300  0.86254300  0.12377200  1
  Li  Li2  1  0.11831300  0.36254300  0.37622800  1
  Li  Li3  1  0.61831300  0.13745700  0.37622800  1
  Li  Li4  1  0.38168700  0.86254300  0.62377200  1
  Li  Li5  1  0.88168700  0.63745700  0.62377200  1
  Li  Li6  1  0.38168700  0.36254300  0.87622800  1
  Li  Li7  1  0.88168700  0.13745700  0.87622800  1
  Fe  Fe8  1  0.62074100  0.97572900  0.12445200  1
  Fe  Fe9  1  0.12074100  0.52427100  0.12445200  1
  Fe  Fe10  1  0.12074100  0.02427100  0.37554800  1
  Fe  Fe11  1  0.62074100  0.47572900  0.37554800  1
  Fe  Fe12  1  0.37925900  0.52427100  0.62445200  1
  Fe  Fe13  1  0.87925900  0.97572900  0.62445200  1
  Fe  Fe14  1  0.37925900  0.02427100  0.87554800  1
  Fe  Fe15  1  0.87925900  0.47572900  0.87554800  1
  Si  Si16  1  0.71860500  0.33232800  0.02813900  1
  Si  Si17  1  0.21860500  0.16767200  0.02813900  1
  Si  Si18  1  0.41988900  0.33860200  0.22652200  1
  Si  Si19  1  0.91988900  0.16139800  0.22652200  1
  Si  Si20  1  0.41988900  0.83860200  0.27347800  1
  Si  Si21  1  0.91988900  0.66139800  0.27347800  1
  Si  Si22  1  0.71860500  0.83232800  0.47186100  1
  Si  Si23  1  0.21860500  0.66767200  0.47186100  1
  Si  Si24  1  0.78139500  0.33232800  0.52813900  1
  Si  Si25  1  0.28139500  0.16767200  0.52813900  1
  Si  Si26  1  0.08011100  0.33860200  0.72652200  1
  Si  Si27  1  0.58011100  0.16139800  0.72652200  1
  Si  Si28  1  0.08011100  0.83860200  0.77347800  1
  Si  Si29  1  0.58011100  0.66139800  0.77347800  1
  Si  Si30  1  0.78139500  0.83232800  0.97186100  1
  Si  Si31  1  0.28139500  0.66767200  0.97186100  1
  O  O32  1  0.41337300  0.30026300  0.04986500  1
  O  O33  1  0.91337300  0.19973700  0.04986500  1
  O  O34  1  0.78656200  0.84866400  0.06011900  1
  O  O35  1  0.28656200  0.65133600  0.06011900  1
  O  O36  1  0.82537000  0.46770700  0.07192100  1
  O  O37  1  0.32537000  0.03229300  0.07192100  1
  O  O38  1  0.43326100  0.84877800  0.18554000  1
  O  O39  1  0.93326100  0.65122200  0.18554000  1
  O  O40  1  0.91275100  0.01078700  0.18478400  1
  O  O41  1  0.41275100  0.48921300  0.18478400  1
  O  O42  1  0.15260200  0.26344900  0.19889400  1
  O  O43  1  0.65260200  0.23655100  0.19889400  1
  O  O44  1  0.15260200  0.76344900  0.30110600  1
  O  O45  1  0.65260200  0.73655100  0.30110600  1
  O  O46  1  0.91275100  0.51078700  0.31521600  1
  O  O47  1  0.41275100  0.98921300  0.31521600  1
  O  O48  1  0.43326100  0.34877800  0.31446000  1
  O  O49  1  0.93326100  0.15122200  0.31446000  1
  O  O50  1  0.82537000  0.96770700  0.42807900  1
  O  O51  1  0.32537000  0.53229300  0.42807900  1
  O  O52  1  0.78656200  0.34866400  0.43988100  1
  O  O53  1  0.28656200  0.15133600  0.43988100  1
  O  O54  1  0.41337300  0.80026300  0.45013500  1
  O  O55  1  0.91337300  0.69973700  0.45013500  1
  O  O56  1  0.08662700  0.30026300  0.54986500  1
  O  O57  1  0.58662700  0.19973700  0.54986500  1
  O  O58  1  0.71343800  0.84866400  0.56011900  1
  O  O59  1  0.21343800  0.65133600  0.56011900  1
  O  O60  1  0.67463000  0.46770700  0.57192100  1
  O  O61  1  0.17463000  0.03229300  0.57192100  1
  O  O62  1  0.06673900  0.84877800  0.68554000  1
  O  O63  1  0.56673900  0.65122200  0.68554000  1
  O  O64  1  0.58724900  0.01078700  0.68478400  1
  O  O65  1  0.08724900  0.48921300  0.68478400  1
  O  O66  1  0.34739800  0.26344900  0.69889400  1
  O  O67  1  0.84739800  0.23655100  0.69889400  1
  O  O68  1  0.34739800  0.76344900  0.80110600  1
  O  O69  1  0.84739800  0.73655100  0.80110600  1
  O  O70  1  0.58724900  0.51078700  0.81521600  1
  O  O71  1  0.08724900  0.98921300  0.81521600  1
  O  O72  1  0.06673900  0.34877800  0.81446000  1
  O  O73  1  0.56673900  0.15122200  0.81446000  1
  O  O74  1  0.67463000  0.96770700  0.92807900  1
  O  O75  1  0.17463000  0.53229300  0.92807900  1
  O  O76  1  0.71343800  0.34866400  0.93988100  1
  O  O77  1  0.21343800  0.15133600  0.93988100  1
  O  O78  1  0.08662700  0.80026300  0.95013500  1
  O  O79  1  0.58662700  0.69973700  0.95013500  1
