# generated using pymatgen
data_Li2Mn3P4(HO4)4
_symmetry_space_group_name_H-M   'P 1'
_cell_length_a   8.24856100
_cell_length_b   8.90395900
_cell_length_c   9.22606749
_cell_angle_alpha   80.54644879
_cell_angle_beta   90.00000000
_cell_angle_gamma   90.00000000
_symmetry_Int_Tables_number   1
_chemical_formula_structural   Li2Mn3P4(HO4)4
_chemical_formula_sum   'Li4 Mn6 P8 H8 O32'
_cell_volume   668.40460456
_cell_formula_units_Z   2
loop_
 _symmetry_equiv_pos_site_id
 _symmetry_equiv_pos_as_xyz
  1  'x, y, z'
loop_
 _atom_site_type_symbol
 _atom_site_label
 _atom_site_symmetry_multiplicity
 _atom_site_fract_x
 _atom_site_fract_y
 _atom_site_fract_z
 _atom_site_occupancy
  Li  Li0  1  0.33040800  0.01648500  0.02797700  1
  Li  Li1  1  0.16959200  0.01648500  0.52797700  1
  Li  Li2  1  0.83040800  0.98351500  0.47202300  1
  Li  Li3  1  0.66959200  0.98351500  0.97202300  1
  Mn  Mn4  1  0.50000000  0.50000000  0.00000000  1
  Mn  Mn5  1  0.13907900  0.65112600  0.00527800  1
  Mn  Mn6  1  0.63907900  0.34887400  0.49472200  1
  Mn  Mn7  1  0.00000000  0.50000000  0.50000000  1
  Mn  Mn8  1  0.36092100  0.65112600  0.50527800  1
  Mn  Mn9  1  0.86092100  0.34887400  0.99472200  1
  P  P10  1  0.56552000  0.17509000  0.22714500  1
  P  P11  1  0.80330900  0.61742600  0.20447600  1
  P  P12  1  0.30330900  0.38257400  0.29552400  1
  P  P13  1  0.06552000  0.82491000  0.27285500  1
  P  P14  1  0.93448000  0.17509000  0.72714500  1
  P  P15  1  0.69669100  0.61742600  0.70447600  1
  P  P16  1  0.19669100  0.38257400  0.79552400  1
  P  P17  1  0.43448000  0.82491000  0.77285500  1
  H  H18  1  0.99989300  0.11070400  0.21720100  1
  H  H19  1  0.04096000  0.27614600  0.23402100  1
  H  H20  1  0.54096000  0.72385400  0.26597900  1
  H  H21  1  0.49989300  0.88929600  0.28279900  1
  H  H22  1  0.50010700  0.11070400  0.71720100  1
  H  H23  1  0.45904000  0.27614600  0.73402100  1
  H  H24  1  0.95904000  0.72385400  0.76597900  1
  H  H25  1  0.00010700  0.88929600  0.78279900  1
  O  O26  1  0.63379600  0.31394100  0.12335100  1
  O  O27  1  0.00276400  0.21449300  0.15902400  1
  O  O28  1  0.92602800  0.54799800  0.11025100  1
  O  O29  1  0.53941300  0.04020500  0.14469900  1
  O  O30  1  0.29080500  0.48034000  0.14215900  1
  O  O31  1  0.64049200  0.65808900  0.13000700  1
  O  O32  1  0.16186900  0.86073400  0.12886600  1
  O  O33  1  0.38033200  0.21761200  0.27116100  1
  O  O34  1  0.88033200  0.78238800  0.22883900  1
  O  O35  1  0.66186900  0.13926600  0.37113400  1
  O  O36  1  0.14049200  0.34191100  0.36999300  1
  O  O37  1  0.79080500  0.51966000  0.35784100  1
  O  O38  1  0.03941300  0.95979500  0.35530100  1
  O  O39  1  0.42602800  0.45200200  0.38974900  1
  O  O40  1  0.50276400  0.78550700  0.34097600  1
  O  O41  1  0.13379600  0.68605900  0.37664900  1
  O  O42  1  0.86620400  0.31394100  0.62335100  1
  O  O43  1  0.49723600  0.21449300  0.65902400  1
  O  O44  1  0.57397200  0.54799800  0.61025100  1
  O  O45  1  0.96058700  0.04020500  0.64469900  1
  O  O46  1  0.20919500  0.48034000  0.64215900  1
  O  O47  1  0.85950800  0.65808900  0.63000700  1
  O  O48  1  0.33813100  0.86073400  0.62886600  1
  O  O49  1  0.11966800  0.21761200  0.77116100  1
  O  O50  1  0.61966800  0.78238800  0.72883900  1
  O  O51  1  0.83813100  0.13926600  0.87113400  1
  O  O52  1  0.35950800  0.34191100  0.86999300  1
  O  O53  1  0.70919500  0.51966000  0.85784100  1
  O  O54  1  0.46058700  0.95979500  0.85530100  1
  O  O55  1  0.07397200  0.45200200  0.88974900  1
  O  O56  1  0.99723600  0.78550700  0.84097600  1
  O  O57  1  0.36620400  0.68605900  0.87664900  1
