# generated using pymatgen
data_Li5V6O5F19
_symmetry_space_group_name_H-M   'P 1'
_cell_length_a   5.16148600
_cell_length_b   5.39761153
_cell_length_c   16.50387817
_cell_angle_alpha   99.37362012
_cell_angle_beta   89.95743403
_cell_angle_gamma   90.88269545
_symmetry_Int_Tables_number   1
_chemical_formula_structural   Li5V6O5F19
_chemical_formula_sum   'Li5 V6 O5 F19'
_cell_volume   453.59897365
_cell_formula_units_Z   1
loop_
 _symmetry_equiv_pos_site_id
 _symmetry_equiv_pos_as_xyz
  1  'x, y, z'
loop_
 _atom_site_type_symbol
 _atom_site_label
 _atom_site_symmetry_multiplicity
 _atom_site_fract_x
 _atom_site_fract_y
 _atom_site_fract_z
 _atom_site_occupancy
  Li  Li0  1  0.45307700  0.17044100  0.55379100  1
  Li  Li1  1  0.56069800  0.18015700  0.12587300  1
  Li  Li2  1  0.82141000  0.69928800  0.84321400  1
  Li  Li3  1  0.04289300  0.65985400  0.54614000  1
  Li  Li4  1  0.96792000  0.66242300  0.11771200  1
  V  V5  1  0.97379000  0.30143800  0.66907300  1
  V  V6  1  0.49392000  0.16487400  0.33683800  1
  V  V7  1  0.02821200  0.03651000  0.99711400  1
  V  V8  1  0.52736900  0.51674700  0.98760300  1
  V  V9  1  0.51888300  0.79754500  0.66819900  1
  V  V10  1  0.01547500  0.69127400  0.33633900  1
  O  O11  1  0.79182100  0.03164400  0.64033300  1
  O  O12  1  0.69304700  0.52825600  0.63871900  1
  O  O13  1  0.79126100  0.69650900  0.97300600  1
  O  O14  1  0.20583700  0.30363900  0.02748100  1
  O  O15  1  0.21335400  0.95464700  0.35423100  1
  F  F16  1  0.70279700  0.18782400  0.96659400  1
  F  F17  1  0.30141000  0.13962700  0.68826900  1
  F  F18  1  0.58583200  0.21059800  0.44485500  1
  F  F19  1  0.87873100  0.01069400  0.10601400  1
  F  F20  1  0.41539400  0.13225800  0.22739300  1
  F  F21  1  0.38028800  0.46658500  0.88669100  1
  F  F22  1  0.11640500  0.31783300  0.55913600  1
  F  F23  1  0.89946300  0.38782700  0.77995800  1
  F  F24  1  0.79021300  0.37441400  0.31436200  1
  F  F25  1  0.28935100  0.46232700  0.35955900  1
  F  F26  1  0.18410400  0.64127000  0.68896800  1
  F  F27  1  0.62910100  0.50586300  0.10447000  1
  F  F28  1  0.09145200  0.93649900  0.88646100  1
  F  F29  1  0.90281400  0.70621900  0.44588300  1
  F  F30  1  0.08152800  0.61480400  0.22203500  1
  F  F31  1  0.59613600  0.86473100  0.77951800  1
  F  F32  1  0.37731500  0.81929600  0.55891500  1
  F  F33  1  0.70544400  0.87032000  0.31136500  1
  F  F34  1  0.29676800  0.80776000  0.03137300  1
