# generated using pymatgen
data_Li3Ni5OF11
_symmetry_space_group_name_H-M   'P 1'
_cell_length_a   5.10352109
_cell_length_b   5.49247080
_cell_length_c   9.14332809
_cell_angle_alpha   85.70039535
_cell_angle_beta   72.80018998
_cell_angle_gamma   116.93064424
_symmetry_Int_Tables_number   1
_chemical_formula_structural   Li3Ni5OF11
_chemical_formula_sum   'Li3 Ni5 O1 F11'
_cell_volume   211.61541213
_cell_formula_units_Z   1
loop_
 _symmetry_equiv_pos_site_id
 _symmetry_equiv_pos_as_xyz
  1  'x, y, z'
loop_
 _atom_site_type_symbol
 _atom_site_label
 _atom_site_symmetry_multiplicity
 _atom_site_fract_x
 _atom_site_fract_y
 _atom_site_fract_z
 _atom_site_occupancy
  Li  Li0  1  0.01949962  0.53303797  0.50051617  1
  Li  Li1  1  0.50367559  0.26519665  0.25858393  1
  Li  Li2  1  0.52800567  0.79325293  0.76742048  1
  Ni  Ni3  1  0.30884386  0.74776683  0.14908478  1
  Ni  Ni4  1  0.98278461  0.99182673  0.99669715  1
  Ni  Ni5  1  0.31333263  0.27636412  0.64771005  1
  Ni  Ni6  1  0.81001251  0.01438826  0.40715445  1
  Ni  Ni7  1  0.77826960  0.51048683  0.90349726  1
  O  O8  1  0.60267280  0.75569115  0.95716831  1
  F  F9  1  0.08754725  0.84235616  0.34883389  1
  F  F10  1  0.20397007  0.39938792  0.29916498  1
  F  F11  1  0.21575727  0.91675349  0.78943742  1
  F  F12  1  0.38715079  0.14792463  0.04344764  1
  F  F13  1  0.40958306  0.65783083  0.53901181  1
  F  F14  1  0.08145282  0.35009011  0.85183003  1
  F  F15  1  0.90385480  0.58924987  0.10470412  1
  F  F16  1  0.58547473  0.24170373  0.45223225  1
  F  F17  1  0.71041013  0.00398389  0.20679526  1
  F  F18  1  0.70437157  0.49224318  0.69894694  1
  F  F19  1  0.91308963  0.09486573  0.60264208  1
