# generated using pymatgen
data_Li2Fe2Co3O10
_symmetry_space_group_name_H-M   'P 1'
_cell_length_a   2.91258300
_cell_length_b   5.20589500
_cell_length_c   23.83384490
_cell_angle_alpha   85.34715141
_cell_angle_beta   90.00000000
_cell_angle_gamma   90.00000000
_symmetry_Int_Tables_number   1
_chemical_formula_structural   Li2Fe2Co3O10
_chemical_formula_sum   'Li4 Fe4 Co6 O20'
_cell_volume   360.19214211
_cell_formula_units_Z   2
loop_
 _symmetry_equiv_pos_site_id
 _symmetry_equiv_pos_as_xyz
  1  'x, y, z'
loop_
 _atom_site_type_symbol
 _atom_site_label
 _atom_site_symmetry_multiplicity
 _atom_site_fract_x
 _atom_site_fract_y
 _atom_site_fract_z
 _atom_site_occupancy
  Li  Li0  1  0.50000000  0.59942600  0.70257300  1
  Li  Li1  1  0.00000000  0.60097000  0.19889900  1
  Li  Li2  1  0.50000000  0.19723500  0.89893600  1
  Li  Li3  1  0.00000000  0.19784300  0.40143500  1
  Fe  Fe4  1  0.00000000  0.88718300  0.30110300  1
  Fe  Fe5  1  0.00000000  0.51090900  0.50380900  1
  Fe  Fe6  1  0.00000000  0.30165700  0.09547700  1
  Fe  Fe7  1  0.50000000  0.10135800  0.19862700  1
  Co  Co8  1  0.50000000  0.90269500  0.79881900  1
  Co  Co9  1  0.00000000  0.70574100  0.89794600  1
  Co  Co10  1  0.50000000  0.50826400  0.99667200  1
  Co  Co11  1  0.50000000  0.69795900  0.40244900  1
  Co  Co12  1  0.50000000  0.29295000  0.60333900  1
  Co  Co13  1  0.00000000  0.09543000  0.70122200  1
  O  O14  1  0.50000000  0.99405200  0.65698100  1
  O  O15  1  0.50000000  0.80727500  0.94505900  1
  O  O16  1  0.00000000  0.78735000  0.74694500  1
  O  O17  1  0.00000000  0.97960200  0.15250600  1
  O  O18  1  0.00000000  0.81954300  0.44555800  1
  O  O19  1  0.50000000  0.60119500  0.84937100  1
  O  O20  1  0.50000000  0.77562500  0.24979600  1
  O  O21  1  0.50000000  0.58948900  0.55640500  1
  O  O22  1  0.00000000  0.39259200  0.94884800  1
  O  O23  1  0.00000000  0.57764300  0.35943800  1
  O  O24  1  0.00000000  0.39924400  0.65224800  1
  O  O25  1  0.00000000  0.61796800  0.03823700  1
  O  O26  1  0.50000000  0.39291200  0.45098300  1
  O  O27  1  0.50000000  0.20194100  0.74604900  1
  O  O28  1  0.50000000  0.42351200  0.14623100  1
  O  O29  1  0.00000000  0.18579700  0.56134100  1
  O  O30  1  0.00000000  0.01973000  0.85014500  1
  O  O31  1  0.00000000  0.22038800  0.24475600  1
  O  O32  1  0.50000000  0.21211800  0.04401600  1
  O  O33  1  0.50000000  0.00286200  0.35407700  1
