# generated using pymatgen
data_Li4Mn3Co5O16
_symmetry_space_group_name_H-M   'P 1'
_cell_length_a   5.69420937
_cell_length_b   5.69420937
_cell_length_c   9.23104555
_cell_angle_alpha   89.84100357
_cell_angle_beta   89.84100357
_cell_angle_gamma   60.34031004
_symmetry_Int_Tables_number   1
_chemical_formula_structural   Li4Mn3Co5O16
_chemical_formula_sum   'Li4 Mn3 Co5 O16'
_cell_volume   260.09094870
_cell_formula_units_Z   1
loop_
 _symmetry_equiv_pos_site_id
 _symmetry_equiv_pos_as_xyz
  1  'x, y, z'
loop_
 _atom_site_type_symbol
 _atom_site_label
 _atom_site_symmetry_multiplicity
 _atom_site_fract_x
 _atom_site_fract_y
 _atom_site_fract_z
 _atom_site_occupancy
  Li  Li0  1  0.66966700  0.66966700  0.89774200  1
  Li  Li1  1  0.00617800  0.00617800  0.99922000  1
  Li  Li2  1  0.00872700  0.00872700  0.49520300  1
  Li  Li3  1  0.33232000  0.33232000  0.39462700  1
  Mn  Mn4  1  0.83028800  0.83028800  0.21328700  1
  Mn  Mn5  1  0.66306900  0.17343600  0.71356400  1
  Mn  Mn6  1  0.17343600  0.66306900  0.71356400  1
  Co  Co7  1  0.83122000  0.33874900  0.20957500  1
  Co  Co8  1  0.66541200  0.66541200  0.48104600  1
  Co  Co9  1  0.33874900  0.83122000  0.20957500  1
  Co  Co10  1  0.17355800  0.17355800  0.71417500  1
  Co  Co11  1  0.33451500  0.33451500  0.98370200  1
  O  O12  1  0.83428100  0.33396400  0.59998000  1
  O  O13  1  0.52096300  0.52096300  0.33638500  1
  O  O14  1  0.66637300  0.66637300  0.10654900  1
  O  O15  1  0.00089200  0.00089200  0.30744000  1
  O  O16  1  0.00350500  0.00350500  0.81076300  1
  O  O17  1  0.33396400  0.83428100  0.59998000  1
  O  O18  1  0.95632100  0.51859300  0.33964700  1
  O  O19  1  0.51859300  0.95632100  0.33964700  1
  O  O20  1  0.16738600  0.16738600  0.10562500  1
  O  O21  1  0.83804400  0.83804400  0.59921800  1
  O  O22  1  0.47913100  0.04500700  0.84270300  1
  O  O23  1  0.04500700  0.47913100  0.84270300  1
  O  O24  1  0.33752000  0.33752000  0.60608000  1
  O  O25  1  0.66908400  0.17167300  0.10127600  1
  O  O26  1  0.48241300  0.48241300  0.84251400  1
  O  O27  1  0.17167300  0.66908400  0.10127600  1
