# generated using pymatgen
data_Li3MnV(PO4)3
_symmetry_space_group_name_H-M   'P 1'
_cell_length_a   8.33622100
_cell_length_b   8.40901993
_cell_length_c   9.24979319
_cell_angle_alpha   63.82069853
_cell_angle_beta   63.88795841
_cell_angle_gamma   60.57839228
_symmetry_Int_Tables_number   1
_chemical_formula_structural   Li3MnV(PO4)3
_chemical_formula_sum   'Li6 Mn2 V2 P6 O24'
_cell_volume   485.70213402
_cell_formula_units_Z   2
loop_
 _symmetry_equiv_pos_site_id
 _symmetry_equiv_pos_as_xyz
  1  'x, y, z'
loop_
 _atom_site_type_symbol
 _atom_site_label
 _atom_site_symmetry_multiplicity
 _atom_site_fract_x
 _atom_site_fract_y
 _atom_site_fract_z
 _atom_site_occupancy
  Li  Li0  1  0.07031900  0.31857700  0.86580500  1
  Li  Li1  1  0.29564000  0.74379000  0.91375200  1
  Li  Li2  1  0.45824000  0.73202800  0.59910300  1
  Li  Li3  1  0.54176000  0.26797200  0.40089700  1
  Li  Li4  1  0.70436000  0.25621000  0.08624800  1
  Li  Li5  1  0.92968100  0.68142300  0.13419500  1
  Mn  Mn6  1  0.86401500  0.85584200  0.43426800  1
  Mn  Mn7  1  0.13598500  0.14415800  0.56573200  1
  V  V8  1  0.34634600  0.33434400  0.96297500  1
  V  V9  1  0.65365400  0.66565600  0.03702500  1
  P  P10  1  0.73328100  0.46702900  0.75394700  1
  P  P11  1  0.05187700  0.73030700  0.75914300  1
  P  P12  1  0.45765400  0.04316800  0.75791800  1
  P  P13  1  0.54234600  0.95683200  0.24208200  1
  P  P14  1  0.94812300  0.26969300  0.24085700  1
  P  P15  1  0.26671900  0.53297100  0.24605300  1
  O  O16  1  0.78089300  0.48365300  0.89699000  1
  O  O17  1  0.86863000  0.26907300  0.74029700  1
  O  O18  1  0.51391800  0.48880200  0.82427200  1
  O  O19  1  0.17196100  0.51013800  0.82101700  1
  O  O20  1  0.86022200  0.77120500  0.90608700  1
  O  O21  1  0.49327800  0.83491600  0.88119500  1
  O  O22  1  0.73766500  0.63415100  0.59468900  1
  O  O23  1  0.16845500  0.83727800  0.74509100  1
  O  O24  1  0.01889400  0.77503300  0.59669100  1
  O  O25  1  0.47592300  0.16531400  0.83515500  1
  O  O26  1  0.24979200  0.12634500  0.75354200  1
  O  O27  1  0.60137800  0.04443100  0.58462600  1
  O  O28  1  0.39862200  0.95556900  0.41537400  1
  O  O29  1  0.75020800  0.87365500  0.24645800  1
  O  O30  1  0.52407700  0.83468600  0.16484500  1
  O  O31  1  0.98110600  0.22496700  0.40330900  1
  O  O32  1  0.83154500  0.16272200  0.25490900  1
  O  O33  1  0.26233500  0.36584900  0.40531100  1
  O  O34  1  0.50672200  0.16508400  0.11880500  1
  O  O35  1  0.13977800  0.22879500  0.09391300  1
  O  O36  1  0.82803900  0.48986200  0.17898300  1
  O  O37  1  0.48608200  0.51119800  0.17572800  1
  O  O38  1  0.13137000  0.73092700  0.25970300  1
  O  O39  1  0.21910700  0.51634700  0.10301000  1
