# generated using pymatgen
data_LiMnPO4
_symmetry_space_group_name_H-M   'P 1'
_cell_length_a   5.10743600
_cell_length_b   11.53089576
_cell_length_c   6.08161640
_cell_angle_alpha   90.04130526
_cell_angle_beta   89.99877151
_cell_angle_gamma   89.99512489
_symmetry_Int_Tables_number   1
_chemical_formula_structural   LiMnPO4
_chemical_formula_sum   'Li4 Mn4 P4 O16'
_cell_volume   358.16643843
_cell_formula_units_Z   4
loop_
 _symmetry_equiv_pos_site_id
 _symmetry_equiv_pos_as_xyz
  1  'x, y, z'
loop_
 _atom_site_type_symbol
 _atom_site_label
 _atom_site_symmetry_multiplicity
 _atom_site_fract_x
 _atom_site_fract_y
 _atom_site_fract_z
 _atom_site_occupancy
  Li  Li0  1  0.99359600  0.06209800  0.21554400  1
  Li  Li1  1  0.49401800  0.43798700  0.71557200  1
  Li  Li2  1  0.99395400  0.56207600  0.28444900  1
  Li  Li3  1  0.49365400  0.93789100  0.78432700  1
  Mn  Mn4  1  0.98969900  0.33095600  0.96880000  1
  Mn  Mn5  1  0.48909400  0.66892000  0.03180600  1
  Mn  Mn6  1  0.48912300  0.16899600  0.46907600  1
  Mn  Mn7  1  0.98892300  0.83100400  0.53054200  1
  P  P8  1  0.99680700  0.08551900  0.73477800  1
  P  P9  1  0.49708900  0.41440400  0.23481300  1
  P  P10  1  0.99708000  0.58553400  0.76524200  1
  P  P11  1  0.49674200  0.91451800  0.26511200  1
  O  O12  1  0.38253100  0.03909200  0.24268100  1
  O  O13  1  0.88295300  0.46094000  0.74275700  1
  O  O14  1  0.38286100  0.53897200  0.25741600  1
  O  O15  1  0.88256900  0.96097000  0.75722000  1
  O  O16  1  0.29990400  0.08092400  0.72024800  1
  O  O17  1  0.80020100  0.41905200  0.22029700  1
  O  O18  1  0.30019400  0.58101400  0.77984900  1
  O  O19  1  0.79979600  0.91910200  0.27963300  1
  O  O20  1  0.91629900  0.15607300  0.94316800  1
  O  O21  1  0.41644600  0.34398400  0.44316300  1
  O  O22  1  0.91648400  0.65600600  0.55689800  1
  O  O23  1  0.41626100  0.84394500  0.05674900  1
  O  O24  1  0.89165400  0.14533500  0.52144100  1
  O  O25  1  0.39209700  0.35463800  0.02129700  1
  O  O26  1  0.89189300  0.64537200  0.97870500  1
  O  O27  1  0.39162900  0.85467700  0.47841400  1
