# generated using pymatgen
data_Li4Ti4V5O18
_symmetry_space_group_name_H-M   'P 1'
_cell_length_a   2.97339300
_cell_length_b   9.14852900
_cell_length_c   25.37718500
_cell_angle_alpha   90.00000000
_cell_angle_beta   90.00000000
_cell_angle_gamma   90.00000000
_symmetry_Int_Tables_number   1
_chemical_formula_structural   Li4Ti4V5O18
_chemical_formula_sum   'Li8 Ti8 V10 O36'
_cell_volume   690.31455350
_cell_formula_units_Z   2
loop_
 _symmetry_equiv_pos_site_id
 _symmetry_equiv_pos_as_xyz
  1  'x, y, z'
loop_
 _atom_site_type_symbol
 _atom_site_label
 _atom_site_symmetry_multiplicity
 _atom_site_fract_x
 _atom_site_fract_y
 _atom_site_fract_z
 _atom_site_occupancy
  Li  Li0  1  0.00000000  0.69241900  0.99033500  1
  Li  Li1  1  0.00000000  0.68212200  0.20127600  1
  Li  Li2  1  0.00000000  0.81787800  0.70127600  1
  Li  Li3  1  0.00000000  0.80758100  0.49033500  1
  Li  Li4  1  0.00000000  0.19241900  0.50966500  1
  Li  Li5  1  0.00000000  0.18212200  0.29872400  1
  Li  Li6  1  0.00000000  0.31787800  0.79872400  1
  Li  Li7  1  0.00000000  0.30758100  0.00966500  1
  Ti  Ti8  1  0.00000000  0.50293500  0.10212700  1
  Ti  Ti9  1  0.50000000  0.64748300  0.80516700  1
  Ti  Ti10  1  0.50000000  0.85251700  0.30516700  1
  Ti  Ti11  1  0.00000000  0.99706500  0.60212700  1
  Ti  Ti12  1  0.00000000  0.00293500  0.39787300  1
  Ti  Ti13  1  0.50000000  0.14748300  0.69483300  1
  Ti  Ti14  1  0.50000000  0.35251700  0.19483300  1
  Ti  Ti15  1  0.00000000  0.49706500  0.89787300  1
  V  V16  1  0.00000000  0.50000000  0.50000000  1
  V  V17  1  0.00000000  0.51763600  0.30976600  1
  V  V18  1  0.50000000  0.64619500  0.58538400  1
  V  V19  1  0.50000000  0.85380500  0.08538400  1
  V  V20  1  0.00000000  0.98236400  0.80976600  1
  V  V21  1  0.00000000  0.00000000  0.00000000  1
  V  V22  1  0.00000000  0.01763600  0.19023400  1
  V  V23  1  0.50000000  0.14619500  0.91461600  1
  V  V24  1  0.50000000  0.35380500  0.41461600  1
  V  V25  1  0.00000000  0.48236400  0.69023400  1
  O  O26  1  0.00000000  0.49991800  0.42521500  1
  O  O27  1  0.00000000  0.50008200  0.57478500  1
  O  O28  1  0.50000000  0.55806900  0.94044400  1
  O  O29  1  0.50000000  0.54990800  0.15864900  1
  O  O30  1  0.50000000  0.60389700  0.66249400  1
  O  O31  1  0.00000000  0.59480600  0.75767200  1
  O  O32  1  0.50000000  0.64839900  0.50403400  1
  O  O33  1  0.50000000  0.65071900  0.28222100  1
  O  O34  1  0.00000000  0.68572500  0.85389400  1
  O  O35  1  0.00000000  0.70142800  0.08274700  1
  O  O36  1  0.00000000  0.79857200  0.58274700  1
  O  O37  1  0.00000000  0.81427500  0.35389400  1
  O  O38  1  0.50000000  0.84928100  0.78222100  1
  O  O39  1  0.50000000  0.85160100  0.00403400  1
  O  O40  1  0.00000000  0.90519400  0.25767200  1
  O  O41  1  0.50000000  0.89610300  0.16249400  1
  O  O42  1  0.50000000  0.95009200  0.65864900  1
  O  O43  1  0.50000000  0.94193100  0.44044400  1
  O  O44  1  0.00000000  0.99991800  0.07478500  1
  O  O45  1  0.00000000  0.00008200  0.92521500  1
  O  O46  1  0.50000000  0.05806900  0.55955600  1
  O  O47  1  0.50000000  0.04990800  0.34135100  1
  O  O48  1  0.50000000  0.10389700  0.83750600  1
  O  O49  1  0.00000000  0.09480600  0.74232800  1
  O  O50  1  0.50000000  0.14839900  0.99596600  1
  O  O51  1  0.50000000  0.15071900  0.21777900  1
  O  O52  1  0.00000000  0.18572500  0.64610600  1
  O  O53  1  0.00000000  0.20142800  0.41725300  1
  O  O54  1  0.00000000  0.29857200  0.91725300  1
  O  O55  1  0.00000000  0.31427500  0.14610600  1
  O  O56  1  0.50000000  0.34928100  0.71777900  1
  O  O57  1  0.50000000  0.35160100  0.49596600  1
  O  O58  1  0.00000000  0.40519400  0.24232800  1
  O  O59  1  0.50000000  0.39610300  0.33750600  1
  O  O60  1  0.50000000  0.45009200  0.84135100  1
  O  O61  1  0.50000000  0.44193100  0.05955600  1
