# generated using pymatgen
data_LiCuF4
_symmetry_space_group_name_H-M   'P 1'
_cell_length_a   6.80210200
_cell_length_b   7.95225402
_cell_length_c   9.89197819
_cell_angle_alpha   98.98120022
_cell_angle_beta   105.80889554
_cell_angle_gamma   101.32981355
_symmetry_Int_Tables_number   1
_chemical_formula_structural   LiCuF4
_chemical_formula_sum   'Li6 Cu6 F24'
_cell_volume   492.18571237
_cell_formula_units_Z   6
loop_
 _symmetry_equiv_pos_site_id
 _symmetry_equiv_pos_as_xyz
  1  'x, y, z'
loop_
 _atom_site_type_symbol
 _atom_site_label
 _atom_site_symmetry_multiplicity
 _atom_site_fract_x
 _atom_site_fract_y
 _atom_site_fract_z
 _atom_site_occupancy
  Li  Li0  1  0.49953500  0.81256700  0.10604700  1
  Li  Li1  1  0.99521700  0.52570100  0.26162900  1
  Li  Li2  1  0.15478600  0.07585300  0.34315100  1
  Li  Li3  1  0.84521400  0.92414700  0.65684900  1
  Li  Li4  1  0.00478300  0.47429900  0.73837100  1
  Li  Li5  1  0.50046500  0.18743300  0.89395300  1
  Cu  Cu6  1  0.05152500  0.19610500  0.00245600  1
  Cu  Cu7  1  0.46565000  0.40190000  0.24250100  1
  Cu  Cu8  1  0.74266100  0.19775900  0.41632800  1
  Cu  Cu9  1  0.25733900  0.80224100  0.58367200  1
  Cu  Cu10  1  0.53435000  0.59810000  0.75749900  1
  Cu  Cu11  1  0.94847500  0.80389500  0.99754400  1
  F  F12  1  0.78521200  0.21648900  0.00711100  1
  F  F13  1  0.94425100  0.66361000  0.12932200  1
  F  F14  1  0.34204200  0.20006200  0.02911600  1
  F  F15  1  0.52865000  0.59376800  0.17966300  1
  F  F16  1  0.73434600  0.37761200  0.28078300  1
  F  F17  1  0.18071900  0.39067100  0.18458600  1
  F  F18  1  0.04897300  0.02513100  0.13666200  1
  F  F19  1  0.65121600  0.00445500  0.26080200  1
  F  F20  1  0.42902500  0.23312600  0.34785900  1
  F  F21  1  0.27685900  0.93447000  0.44877900  1
  F  F22  1  0.97488400  0.78175800  0.56596500  1
  F  F23  1  0.19739500  0.59853700  0.44043800  1
  F  F24  1  0.80260500  0.40146300  0.55956200  1
  F  F25  1  0.02511600  0.21824200  0.43403500  1
  F  F26  1  0.72314100  0.06553000  0.55122100  1
  F  F27  1  0.57097500  0.76687400  0.65214100  1
  F  F28  1  0.34878400  0.99554500  0.73919800  1
  F  F29  1  0.95102700  0.97486900  0.86333800  1
  F  F30  1  0.81928100  0.60932900  0.81541400  1
  F  F31  1  0.26565400  0.62238800  0.71921700  1
  F  F32  1  0.47135000  0.40623200  0.82033700  1
  F  F33  1  0.65795800  0.79993800  0.97088400  1
  F  F34  1  0.05574900  0.33639000  0.87067800  1
  F  F35  1  0.21478800  0.78351100  0.99288900  1
