# generated using pymatgen
data_Li2Fe2(Si2O5)3
_symmetry_space_group_name_H-M   'P 1'
_cell_length_a   11.51126893
_cell_length_b   11.51126893
_cell_length_c   10.27003900
_cell_angle_alpha   90.00000000
_cell_angle_beta   90.00000000
_cell_angle_gamma   100.46605102
_symmetry_Int_Tables_number   1
_chemical_formula_structural   Li2Fe2(Si2O5)3
_chemical_formula_sum   'Li8 Fe8 Si24 O60'
_cell_volume   1338.23452428
_cell_formula_units_Z   4
loop_
 _symmetry_equiv_pos_site_id
 _symmetry_equiv_pos_as_xyz
  1  'x, y, z'
loop_
 _atom_site_type_symbol
 _atom_site_label
 _atom_site_symmetry_multiplicity
 _atom_site_fract_x
 _atom_site_fract_y
 _atom_site_fract_z
 _atom_site_occupancy
  Li  Li0  1  0.99199700  0.50800300  0.25000000  1
  Li  Li1  1  0.50800300  0.99199700  0.75000000  1
  Li  Li2  1  0.39453700  0.60546300  0.74599500  1
  Li  Li3  1  0.89453700  0.10546300  0.75400500  1
  Li  Li4  1  0.10546300  0.89453700  0.24599500  1
  Li  Li5  1  0.60546300  0.39453700  0.25400500  1
  Li  Li6  1  0.49199700  0.00800300  0.25000000  1
  Li  Li7  1  0.00800300  0.49199700  0.75000000  1
  Fe  Fe8  1  0.24723500  0.24723500  0.00000000  1
  Fe  Fe9  1  0.33731100  0.16268900  0.25000000  1
  Fe  Fe10  1  0.16268900  0.33731100  0.75000000  1
  Fe  Fe11  1  0.25276500  0.25276500  0.50000000  1
  Fe  Fe12  1  0.74723500  0.74723500  0.50000000  1
  Fe  Fe13  1  0.66268900  0.83731100  0.75000000  1
  Fe  Fe14  1  0.83731100  0.66268900  0.25000000  1
  Fe  Fe15  1  0.75276500  0.75276500  0.00000000  1
  Si  Si16  1  0.03314700  0.18085400  0.18910100  1
  Si  Si17  1  0.18085400  0.03314700  0.81089900  1
  Si  Si18  1  0.58260600  0.19996100  0.45523300  1
  Si  Si19  1  0.69996100  0.08260600  0.95523300  1
  Si  Si20  1  0.19996100  0.58260600  0.54476700  1
  Si  Si21  1  0.08260600  0.69996100  0.04476700  1
  Si  Si22  1  0.46685300  0.31914600  0.68910100  1
  Si  Si23  1  0.31914600  0.46685300  0.31089900  1
  Si  Si24  1  0.26195200  0.52540100  0.01351900  1
  Si  Si25  1  0.02540100  0.76195200  0.51351900  1
  Si  Si26  1  0.76195200  0.02540100  0.48648100  1
  Si  Si27  1  0.52540100  0.26195200  0.98648100  1
  Si  Si28  1  0.23804800  0.97459900  0.51351900  1
  Si  Si29  1  0.47459900  0.73804800  0.01351900  1
  Si  Si30  1  0.97459900  0.23804800  0.48648100  1
  Si  Si31  1  0.73804800  0.47459900  0.98648100  1
  Si  Si32  1  0.53314700  0.68085400  0.31089900  1
  Si  Si33  1  0.68085400  0.53314700  0.68910100  1
  Si  Si34  1  0.80003900  0.41739400  0.45523300  1
  Si  Si35  1  0.41739400  0.80003900  0.54476700  1
  Si  Si36  1  0.30003900  0.91739400  0.04476700  1
  Si  Si37  1  0.91739400  0.30003900  0.95523300  1
  Si  Si38  1  0.81914600  0.96685300  0.18910100  1
  Si  Si39  1  0.96685300  0.81914600  0.81089900  1
  O  O40  1  0.23613500  0.00789600  0.66862300  1
  O  O41  1  0.00789600  0.23613500  0.33137700  1
  O  O42  1  0.16727600  0.16710800  0.16136500  1
  O  O43  1  0.16710800  0.16727600  0.83863500  1
  O  O44  1  0.25006900  0.09070600  0.42555800  1
  O  O45  1  0.09070600  0.25006900  0.57444200  1
  O  O46  1  0.40929400  0.24993100  0.07444200  1
  O  O47  1  0.24993100  0.40929400  0.92555800  1
  O  O48  1  0.33272400  0.33289200  0.66136500  1
  O  O49  1  0.33289200  0.33272400  0.33863500  1
  O  O50  1  0.50831500  0.16050700  0.32639500  1
  O  O51  1  0.00831500  0.66050700  0.17360500  1
  O  O52  1  0.66050700  0.00831500  0.82639500  1
  O  O53  1  0.16050700  0.50831500  0.67360500  1
  O  O54  1  0.72717000  0.00526200  0.08208200  1
  O  O55  1  0.50526200  0.22717000  0.58208200  1
  O  O56  1  0.22717000  0.50526200  0.41791800  1
  O  O57  1  0.00526200  0.72717000  0.91791800  1
  O  O58  1  0.59802300  0.15369800  0.00850600  1
  O  O59  1  0.65369800  0.09802300  0.50850600  1
  O  O60  1  0.09802300  0.65369800  0.49149400  1
  O  O61  1  0.15369800  0.59802300  0.99149400  1
  O  O62  1  0.26386500  0.49210400  0.16862300  1
  O  O63  1  0.49210400  0.26386500  0.83137700  1
  O  O64  1  0.04806600  0.95193400  0.82213700  1
  O  O65  1  0.38528200  0.61471800  0.96565500  1
  O  O66  1  0.82452900  0.17547100  0.91700800  1
  O  O67  1  0.67547100  0.32452900  0.41700800  1
  O  O68  1  0.95193400  0.04806600  0.17786300  1
  O  O69  1  0.54806600  0.45193400  0.67786300  1
  O  O70  1  0.88528200  0.11471800  0.53434500  1
  O  O71  1  0.61471800  0.38528200  0.03434500  1
  O  O72  1  0.17547100  0.82452900  0.08299200  1
  O  O73  1  0.45193400  0.54806600  0.32213700  1
  O  O74  1  0.11471800  0.88528200  0.46565500  1
  O  O75  1  0.32452900  0.67547100  0.58299200  1
  O  O76  1  0.50789600  0.73613500  0.16862300  1
  O  O77  1  0.73613500  0.50789600  0.83137700  1
  O  O78  1  0.84630200  0.40197700  0.00850600  1
  O  O79  1  0.40197700  0.84630200  0.99149400  1
  O  O80  1  0.34630200  0.90197700  0.49149400  1
  O  O81  1  0.90197700  0.34630200  0.50850600  1
  O  O82  1  0.27283000  0.99473800  0.91791800  1
  O  O83  1  0.99473800  0.27283000  0.08208200  1
  O  O84  1  0.49473800  0.77283000  0.41791800  1
  O  O85  1  0.77283000  0.49473800  0.58208200  1
  O  O86  1  0.49168500  0.83949300  0.67360500  1
  O  O87  1  0.83949300  0.49168500  0.32639500  1
  O  O88  1  0.99168500  0.33949300  0.82639500  1
  O  O89  1  0.33949300  0.99168500  0.17360500  1
  O  O90  1  0.66727600  0.66710800  0.33863500  1
  O  O91  1  0.66710800  0.66727600  0.66136500  1
  O  O92  1  0.75006900  0.59070600  0.07444200  1
  O  O93  1  0.59070600  0.75006900  0.92555800  1
  O  O94  1  0.90929400  0.74993100  0.42555800  1
  O  O95  1  0.74993100  0.90929400  0.57444200  1
  O  O96  1  0.83289200  0.83272400  0.16136500  1
  O  O97  1  0.83272400  0.83289200  0.83863500  1
  O  O98  1  0.76386500  0.99210400  0.33137700  1
  O  O99  1  0.99210400  0.76386500  0.66862300  1
