# generated using pymatgen
data_Li3MnV(PO4)3
_symmetry_space_group_name_H-M   'P 1'
_cell_length_a   8.55761200
_cell_length_b   8.75531980
_cell_length_c   12.12097897
_cell_angle_alpha   89.83003169
_cell_angle_beta   88.38979796
_cell_angle_gamma   89.73197189
_symmetry_Int_Tables_number   1
_chemical_formula_structural   Li3MnV(PO4)3
_chemical_formula_sum   'Li12 Mn4 V4 P12 O48'
_cell_volume   907.78767057
_cell_formula_units_Z   4
loop_
 _symmetry_equiv_pos_site_id
 _symmetry_equiv_pos_as_xyz
  1  'x, y, z'
loop_
 _atom_site_type_symbol
 _atom_site_label
 _atom_site_symmetry_multiplicity
 _atom_site_fract_x
 _atom_site_fract_y
 _atom_site_fract_z
 _atom_site_occupancy
  Li  Li0  1  0.06521100  0.51270200  0.65442200  1
  Li  Li1  1  0.08007200  0.08604000  0.30881100  1
  Li  Li2  1  0.17900400  0.78011000  0.82214400  1
  Li  Li3  1  0.32006800  0.27972200  0.67732400  1
  Li  Li4  1  0.41960600  0.58709700  0.19039800  1
  Li  Li5  1  0.43430100  0.01230400  0.84576900  1
  Li  Li6  1  0.56455200  0.98580600  0.15342200  1
  Li  Li7  1  0.58039800  0.41510300  0.80897300  1
  Li  Li8  1  0.68007000  0.71933300  0.32205200  1
  Li  Li9  1  0.81936300  0.21989300  0.17676200  1
  Li  Li10  1  0.92098100  0.91428400  0.69106100  1
  Li  Li11  1  0.93441500  0.48652200  0.34600500  1
  Mn  Mn12  1  0.25439800  0.96396700  0.60919800  1
  Mn  Mn13  1  0.74685700  0.47004100  0.60537600  1
  Mn  Mn14  1  0.75343600  0.53665100  0.10917500  1
  Mn  Mn15  1  0.75229700  0.97138200  0.89380500  1
  V  V16  1  0.24354700  0.02638600  0.10478600  1
  V  V17  1  0.24475900  0.46493900  0.89150600  1
  V  V18  1  0.25487600  0.52551500  0.39351000  1
  V  V19  1  0.74440200  0.03450500  0.39028100  1
  P  P20  1  0.04089200  0.24697000  0.50957200  1
  P  P21  1  0.11515500  0.38205500  0.15287000  1
  P  P22  1  0.11573200  0.11154700  0.85319800  1
  P  P23  1  0.38537500  0.88309600  0.34922400  1
  P  P24  1  0.38545500  0.61085800  0.64553800  1
  P  P25  1  0.45645200  0.74788100  0.98984500  1
  P  P26  1  0.54145100  0.24919600  0.01001800  1
  P  P27  1  0.61668400  0.39029100  0.35009300  1
  P  P28  1  0.61589600  0.12010800  0.65046800  1
  P  P29  1  0.88506300  0.89029500  0.14861100  1
  P  P30  1  0.88465800  0.61828100  0.85250000  1
  P  P31  1  0.95632900  0.74899900  0.48995600  1
  O  O32  1  0.05284000  0.89268000  0.10343000  1
  O  O33  1  0.04468300  0.86749000  0.55596100  1
  O  O34  1  0.05607900  0.66490800  0.40048800  1
  O  O35  1  0.05736700  0.57871900  0.81355700  1
  O  O36  1  0.10055800  0.35946500  0.41796300  1
  O  O37  1  0.12747000  0.20502700  0.16886600  1
  O  O38  1  0.14045600  0.42127900  0.03071600  1
  O  O39  1  0.12995000  0.99437500  0.75331200  1
  O  O40  1  0.17465600  0.27015500  0.81281100  1
  O  O41  1  0.18736600  0.17572300  0.56448200  1
  O  O42  1  0.23080300  0.47113300  0.22346000  1
  O  O43  1  0.23611800  0.04943800  0.93728700  1
  O  O44  1  0.26440700  0.55016400  0.56266500  1
  O  O45  1  0.27090400  0.97170000  0.27657700  1
  O  O46  1  0.31116600  0.67671200  0.93454400  1
  O  O47  1  0.32618900  0.77044600  0.68723800  1
  O  O48  1  0.36150700  0.91982900  0.47204300  1
  O  O49  1  0.37195000  0.49493200  0.74553900  1
  O  O50  1  0.37633200  0.70615400  0.33110000  1
  O  O51  1  0.39843100  0.85976500  0.08157300  1
  O  O52  1  0.44329900  0.16401800  0.09908700  1
  O  O53  1  0.44509300  0.08475600  0.69101600  1
  O  O54  1  0.44859100  0.39479100  0.39593000  1
  O  O55  1  0.44993200  0.36918700  0.94432600  1
  O  O56  1  0.54648900  0.62680200  0.05402900  1
  O  O57  1  0.55382800  0.61201000  0.60088300  1
  O  O58  1  0.55842700  0.92157900  0.31201900  1
  O  O59  1  0.55169700  0.83145000  0.89787800  1
  O  O60  1  0.59969500  0.13688200  0.91590200  1
  O  O61  1  0.62368600  0.29961200  0.66576100  1
  O  O62  1  0.62681000  0.50680300  0.24897500  1
  O  O63  1  0.63793300  0.08185200  0.52821200  1
  O  O64  1  0.66890300  0.22951100  0.31081200  1
  O  O65  1  0.68529700  0.31963500  0.06488200  1
  O  O66  1  0.73352900  0.03081500  0.71965300  1
  O  O67  1  0.73676400  0.45132600  0.43202800  1
  O  O68  1  0.76335600  0.95152800  0.06634700  1
  O  O69  1  0.77004600  0.53020500  0.78207500  1
  O  O70  1  0.81281700  0.82059000  0.43293200  1
  O  O71  1  0.83112500  0.73057100  0.19038200  1
  O  O72  1  0.87449500  0.00727300  0.24789700  1
  O  O73  1  0.86534600  0.58270900  0.97610500  1
  O  O74  1  0.87910700  0.79719100  0.83400100  1
  O  O75  1  0.89624100  0.63519200  0.58213300  1
  O  O76  1  0.94284000  0.41743000  0.19137600  1
  O  O77  1  0.94589700  0.33242400  0.60133300  1
  O  O78  1  0.94960000  0.12815200  0.44547400  1
  O  O79  1  0.94817000  0.11373700  0.89826700  1
