# generated using pymatgen
data_LiMnP2H5O9
_symmetry_space_group_name_H-M   'P 1'
_cell_length_a   7.68039400
_cell_length_b   7.69960075
_cell_length_c   7.81734288
_cell_angle_alpha   115.25660965
_cell_angle_beta   84.04310979
_cell_angle_gamma   107.58905954
_symmetry_Int_Tables_number   1
_chemical_formula_structural   LiMnP2H5O9
_chemical_formula_sum   'Li2 Mn2 P4 H10 O18'
_cell_volume   398.37804504
_cell_formula_units_Z   2
loop_
 _symmetry_equiv_pos_site_id
 _symmetry_equiv_pos_as_xyz
  1  'x, y, z'
loop_
 _atom_site_type_symbol
 _atom_site_label
 _atom_site_symmetry_multiplicity
 _atom_site_fract_x
 _atom_site_fract_y
 _atom_site_fract_z
 _atom_site_occupancy
  Li  Li0  1  0.84931900  0.78060900  0.77199700  1
  Li  Li1  1  0.15068100  0.21939100  0.22800300  1
  Mn  Mn2  1  0.73885300  0.22528500  0.96058900  1
  Mn  Mn3  1  0.26114700  0.77471500  0.03941100  1
  P  P4  1  0.91328400  0.68293400  0.26952400  1
  P  P5  1  0.63444700  0.04080300  0.25717300  1
  P  P6  1  0.36555300  0.95919700  0.74282700  1
  P  P7  1  0.08671600  0.31706600  0.73047600  1
  H  H8  1  0.86174300  0.29513700  0.57217500  1
  H  H9  1  0.79780000  0.92600100  0.45463800  1
  H  H10  1  0.56587700  0.34406800  0.72175800  1
  H  H11  1  0.53818500  0.30237400  0.45150100  1
  H  H12  1  0.46828000  0.49452700  0.73046800  1
  H  H13  1  0.53172000  0.50547300  0.26953200  1
  H  H14  1  0.46181500  0.69762600  0.54849900  1
  H  H15  1  0.43412300  0.65593200  0.27824200  1
  H  H16  1  0.20220000  0.07399900  0.54536200  1
  H  H17  1  0.13825700  0.70486300  0.42782500  1
  O  O18  1  0.97714800  0.18112200  0.82436500  1
  O  O19  1  0.95728600  0.41129000  0.67135800  1
  O  O20  1  0.74683400  0.08952400  0.43229100  1
  O  O21  1  0.75743100  0.04785600  0.08918700  1
  O  O22  1  0.75732600  0.51220600  0.14518000  1
  O  O23  1  0.83515900  0.81033200  0.46347600  1
  O  O24  1  0.51253600  0.16307200  0.80420600  1
  O  O25  1  0.57869300  0.45155300  0.67718700  1
  O  O26  1  0.52945300  0.20826500  0.31062900  1
  O  O27  1  0.47054700  0.79173500  0.68937100  1
  O  O28  1  0.42130700  0.54844700  0.32281300  1
  O  O29  1  0.48746400  0.83692800  0.19579400  1
  O  O30  1  0.16484100  0.18966800  0.53652400  1
  O  O31  1  0.24267400  0.48779400  0.85482000  1
  O  O32  1  0.24256900  0.95214400  0.91081300  1
  O  O33  1  0.25316600  0.91047600  0.56770900  1
  O  O34  1  0.04271400  0.58871000  0.32864200  1
  O  O35  1  0.02285200  0.81887800  0.17563500  1
