# generated using pymatgen
data_Li2MnSnO4
_symmetry_space_group_name_H-M   'P 1'
_cell_length_a   6.18422776
_cell_length_b   10.43728586
_cell_length_c   6.18422620
_cell_angle_alpha   97.58075956
_cell_angle_beta   118.87501855
_cell_angle_gamma   82.41908322
_symmetry_Int_Tables_number   1
_chemical_formula_structural   Li2MnSnO4
_chemical_formula_sum   'Li8 Mn4 Sn4 O16'
_cell_volume   345.41686993
_cell_formula_units_Z   4
loop_
 _symmetry_equiv_pos_site_id
 _symmetry_equiv_pos_as_xyz
  1  'x, y, z'
loop_
 _atom_site_type_symbol
 _atom_site_label
 _atom_site_symmetry_multiplicity
 _atom_site_fract_x
 _atom_site_fract_y
 _atom_site_fract_z
 _atom_site_occupancy
  Li  Li0  1  0.24999900  0.50000500  0.74999700  1
  Li  Li1  1  0.75000300  0.50000500  0.25000200  1
  Li  Li2  1  0.49999700  0.99999800  0.49999800  1
  Li  Li3  1  0.00000200  0.99999800  0.00000400  1
  Li  Li4  1  0.37499800  0.75000100  0.12500300  1
  Li  Li5  1  0.87500200  0.75000100  0.62499800  1
  Li  Li6  1  0.62500000  0.25000100  0.87500000  1
  Li  Li7  1  0.12500000  0.25000100  0.37500000  1
  Mn  Mn8  1  0.99997400  0.99999000  0.50000700  1
  Mn  Mn9  1  0.24999900  0.49999200  0.24995900  1
  Mn  Mn10  1  0.50002100  0.99998600  0.00002000  1
  Mn  Mn11  1  0.75000500  0.50001000  0.74999500  1
  Sn  Sn12  1  0.87500500  0.75000000  0.12500700  1
  Sn  Sn13  1  0.37499700  0.75000100  0.62499600  1
  Sn  Sn14  1  0.12500400  0.24999900  0.87500800  1
  Sn  Sn15  1  0.62500600  0.24999900  0.37500300  1
  O  O16  1  0.79926200  0.13154100  0.20075900  1
  O  O17  1  0.29924100  0.13154100  0.70073900  1
  O  O18  1  0.04925900  0.63153900  0.95076500  1
  O  O19  1  0.54923600  0.63153700  0.45073800  1
  O  O20  1  0.20073700  0.86846300  0.79923800  1
  O  O21  1  0.70076200  0.86846400  0.29926100  1
  O  O22  1  0.45073800  0.36846000  0.54924300  1
  O  O23  1  0.95075500  0.36845900  0.04926000  1
  O  O24  1  0.68721500  0.86647600  0.81278700  1
  O  O25  1  0.18720800  0.86648300  0.31278900  1
  O  O26  1  0.93721100  0.36647500  0.56278800  1
  O  O27  1  0.43720900  0.36647800  0.06279200  1
  O  O28  1  0.31278800  0.13352700  0.18721300  1
  O  O29  1  0.81279200  0.13352400  0.68721100  1
  O  O30  1  0.56278700  0.63352700  0.93721300  1
  O  O31  1  0.06278900  0.63351800  0.43720900  1
