# generated using pymatgen
data_Li4Cr3FeO8
_symmetry_space_group_name_H-M   'P 1'
_cell_length_a   5.12262700
_cell_length_b   7.78268994
_cell_length_c   7.78321675
_cell_angle_alpha   81.64059216
_cell_angle_beta   83.70961260
_cell_angle_gamma   71.01635790
_symmetry_Int_Tables_number   1
_chemical_formula_structural   Li4Cr3FeO8
_chemical_formula_sum   'Li8 Cr6 Fe2 O16'
_cell_volume   289.66181329
_cell_formula_units_Z   2
loop_
 _symmetry_equiv_pos_site_id
 _symmetry_equiv_pos_as_xyz
  1  'x, y, z'
loop_
 _atom_site_type_symbol
 _atom_site_label
 _atom_site_symmetry_multiplicity
 _atom_site_fract_x
 _atom_site_fract_y
 _atom_site_fract_z
 _atom_site_occupancy
  Li  Li0  1  0.49643500  0.56426200  0.81241700  1
  Li  Li1  1  0.49775800  0.31354400  0.56319200  1
  Li  Li2  1  0.50356500  0.43573800  0.18758300  1
  Li  Li3  1  0.50188800  0.93642800  0.68873500  1
  Li  Li4  1  0.49811200  0.06357200  0.31126500  1
  Li  Li5  1  0.50245800  0.18627100  0.93957200  1
  Li  Li6  1  0.50224200  0.68645600  0.43680800  1
  Li  Li7  1  0.49754200  0.81372900  0.06042800  1
  Cr  Cr8  1  0.99964200  0.24767900  0.75258200  1
  Cr  Cr9  1  0.00002300  0.37393800  0.37401100  1
  Cr  Cr10  1  0.00000000  0.50000000  0.00000000  1
  Cr  Cr11  1  0.00000000  0.00000000  0.50000000  1
  Cr  Cr12  1  0.99997700  0.62606200  0.62598900  1
  Cr  Cr13  1  0.00035800  0.75232100  0.24741800  1
  Fe  Fe14  1  0.99989500  0.12393100  0.12394900  1
  Fe  Fe15  1  0.00010500  0.87606900  0.87605100  1
  O  O16  1  0.22659200  0.41078800  0.78258700  1
  O  O17  1  0.77401100  0.46308200  0.59351800  1
  O  O18  1  0.22598900  0.53691800  0.40648200  1
  O  O19  1  0.77590200  0.08547500  0.72057700  1
  O  O20  1  0.22655300  0.16107200  0.53271400  1
  O  O21  1  0.22338100  0.28263500  0.15593900  1
  O  O22  1  0.77584000  0.21191500  0.33855000  1
  O  O23  1  0.22416000  0.78808500  0.66145000  1
  O  O24  1  0.22409800  0.91452500  0.27942300  1
  O  O25  1  0.77542700  0.33577700  0.97057800  1
  O  O26  1  0.77344700  0.83892800  0.46728600  1
  O  O27  1  0.22154300  0.03372900  0.91112100  1
  O  O28  1  0.77845700  0.96627100  0.08887900  1
  O  O29  1  0.22457300  0.66422300  0.02942200  1
  O  O30  1  0.77340800  0.58921200  0.21741300  1
  O  O31  1  0.77661900  0.71736500  0.84406100  1
