# generated using pymatgen
data_Li8Mn7Fe(BO3)8
_symmetry_space_group_name_H-M   'P 1'
_cell_length_a   6.05659700
_cell_length_b   9.16355564
_cell_length_c   9.76193756
_cell_angle_alpha   81.97226614
_cell_angle_beta   78.32829496
_cell_angle_gamma   76.37660118
_symmetry_Int_Tables_number   1
_chemical_formula_structural   Li8Mn7Fe(BO3)8
_chemical_formula_sum   'Li8 Mn7 Fe1 B8 O24'
_cell_volume   513.24171087
_cell_formula_units_Z   1
loop_
 _symmetry_equiv_pos_site_id
 _symmetry_equiv_pos_as_xyz
  1  'x, y, z'
loop_
 _atom_site_type_symbol
 _atom_site_label
 _atom_site_symmetry_multiplicity
 _atom_site_fract_x
 _atom_site_fract_y
 _atom_site_fract_z
 _atom_site_occupancy
  Li  Li0  1  0.20282200  0.68435100  0.12336500  1
  Li  Li1  1  0.29657500  0.31640100  0.37534300  1
  Li  Li2  1  0.04678000  0.81408000  0.62681100  1
  Li  Li3  1  0.45283200  0.18446300  0.87404200  1
  Li  Li4  1  0.54662600  0.81520700  0.12620000  1
  Li  Li5  1  0.95352100  0.18466400  0.37355700  1
  Li  Li6  1  0.70427600  0.68399300  0.62521500  1
  Li  Li7  1  0.79539600  0.31551800  0.87622100  1
  Mn  Mn8  1  0.12372300  0.37587700  0.10484300  1
  Mn  Mn9  1  0.12298800  0.12600600  0.64244200  1
  Mn  Mn10  1  0.62180200  0.12656500  0.14366800  1
  Mn  Mn11  1  0.37359500  0.62630600  0.39261100  1
  Mn  Mn12  1  0.62634300  0.37395100  0.60725900  1
  Mn  Mn13  1  0.37613800  0.87274300  0.85635200  1
  Mn  Mn14  1  0.87705400  0.87358500  0.35708000  1
  Fe  Fe15  1  0.87056800  0.62957200  0.89357000  1
  B  B16  1  0.14842800  0.03713700  0.11411600  1
  B  B17  1  0.10123400  0.46263100  0.63765600  1
  B  B18  1  0.60241400  0.46468000  0.13393300  1
  B  B19  1  0.35171900  0.96320800  0.38586300  1
  B  B20  1  0.64853500  0.03643100  0.61444900  1
  B  B21  1  0.39738000  0.53745200  0.86386100  1
  B  B22  1  0.89878000  0.53654500  0.36426600  1
  B  B23  1  0.85376500  0.96127900  0.88616500  1
  O  O24  1  0.26340300  0.15299600  0.05932900  1
  O  O25  1  0.01494900  0.65193800  0.30913300  1
  O  O26  1  0.27220300  0.10629300  0.43008200  1
  O  O27  1  0.02106900  0.60415600  0.68507900  1
  O  O28  1  0.22968800  0.89430400  0.06892600  1
  O  O29  1  0.29454800  0.43630300  0.53001100  1
  O  O30  1  0.04679200  0.93502000  0.77884300  1
  O  O31  1  0.48863900  0.34863400  0.19009300  1
  O  O32  1  0.23545200  0.84794100  0.44150500  1
  O  O33  1  0.45420800  0.06405100  0.72098100  1
  O  O34  1  0.20170000  0.56647400  0.96906100  1
  O  O35  1  0.52145500  0.60709400  0.18009000  1
  O  O36  1  0.47798300  0.39392400  0.81999900  1
  O  O37  1  0.79509300  0.43878400  0.02619000  1
  O  O38  1  0.54607700  0.93478600  0.27953500  1
  O  O39  1  0.76381200  0.15197600  0.55897400  1
  O  O40  1  0.51526800  0.65187200  0.80865500  1
  O  O41  1  0.95374000  0.06447400  0.22032200  1
  O  O42  1  0.70440700  0.56473200  0.47073100  1
  O  O43  1  0.76996400  0.10391600  0.93112400  1
  O  O44  1  0.97861300  0.39405400  0.31880300  1
  O  O45  1  0.72898500  0.89334800  0.56979300  1
  O  O46  1  0.98569900  0.34670700  0.69146100  1
  O  O47  1  0.74296100  0.84357900  0.94239300  1
