# generated using pymatgen
data_Li2V(FeO3)2
_symmetry_space_group_name_H-M   'P 1'
_cell_length_a   7.72970617
_cell_length_b   7.72970617
_cell_length_c   5.95101072
_cell_angle_alpha   77.09716685
_cell_angle_beta   77.09716685
_cell_angle_gamma   69.20217384
_symmetry_Int_Tables_number   1
_chemical_formula_structural   Li2V(FeO3)2
_chemical_formula_sum   'Li6 V3 Fe6 O18'
_cell_volume   319.92959957
_cell_formula_units_Z   3
loop_
 _symmetry_equiv_pos_site_id
 _symmetry_equiv_pos_as_xyz
  1  'x, y, z'
loop_
 _atom_site_type_symbol
 _atom_site_label
 _atom_site_symmetry_multiplicity
 _atom_site_fract_x
 _atom_site_fract_y
 _atom_site_fract_z
 _atom_site_occupancy
  Li  Li0  1  0.16568800  0.49519600  0.82776200  1
  Li  Li1  1  0.49519600  0.16568800  0.82776200  1
  Li  Li2  1  0.83431200  0.50480400  0.17223800  1
  Li  Li3  1  0.50480400  0.83431200  0.17223800  1
  Li  Li4  1  0.82981300  0.17018700  0.50000000  1
  Li  Li5  1  0.17018700  0.82981300  0.50000000  1
  V  V6  1  0.83668400  0.16331600  0.00000000  1
  V  V7  1  0.50000000  0.50000000  0.00000000  1
  V  V8  1  0.16331600  0.83668400  0.00000000  1
  Fe  Fe9  1  0.16822900  0.49829000  0.33634600  1
  Fe  Fe10  1  0.83286300  0.83286300  0.34193300  1
  Fe  Fe11  1  0.49829000  0.16822900  0.33634600  1
  Fe  Fe12  1  0.83177100  0.50171000  0.66365400  1
  Fe  Fe13  1  0.50171000  0.83177100  0.66365400  1
  Fe  Fe14  1  0.16713700  0.16713700  0.65806700  1
  O  O15  1  0.99242500  0.99242500  0.23658300  1
  O  O16  1  0.99665900  0.65423800  0.56141500  1
  O  O17  1  0.65423800  0.99665900  0.56141500  1
  O  O18  1  0.00757500  0.00757500  0.76341700  1
  O  O19  1  0.01239300  0.67242400  0.10943200  1
  O  O20  1  0.67242400  0.01239300  0.10943200  1
  O  O21  1  0.00334100  0.34576200  0.43858500  1
  O  O22  1  0.67697200  0.67697200  0.43874700  1
  O  O23  1  0.34576200  0.00334100  0.43858500  1
  O  O24  1  0.98760700  0.32757600  0.89056800  1
  O  O25  1  0.65373700  0.65373700  0.91174800  1
  O  O26  1  0.32757600  0.98760700  0.89056800  1
  O  O27  1  0.66718100  0.32313700  0.22735100  1
  O  O28  1  0.32313700  0.66718100  0.22735100  1
  O  O29  1  0.32302800  0.32302800  0.56125300  1
  O  O30  1  0.67686300  0.33281900  0.77264900  1
  O  O31  1  0.33281900  0.67686300  0.77264900  1
  O  O32  1  0.34626300  0.34626300  0.08825200  1
