# generated using pymatgen
data_LiVF3
_symmetry_space_group_name_H-M   'P 1'
_cell_length_a   5.00538800
_cell_length_b   8.82867800
_cell_length_c   10.67567400
_cell_angle_alpha   90.00000000
_cell_angle_beta   90.00000000
_cell_angle_gamma   90.00000000
_symmetry_Int_Tables_number   1
_chemical_formula_structural   LiVF3
_chemical_formula_sum   'Li8 V8 F24'
_cell_volume   471.76827115
_cell_formula_units_Z   8
loop_
 _symmetry_equiv_pos_site_id
 _symmetry_equiv_pos_as_xyz
  1  'x, y, z'
loop_
 _atom_site_type_symbol
 _atom_site_label
 _atom_site_symmetry_multiplicity
 _atom_site_fract_x
 _atom_site_fract_y
 _atom_site_fract_z
 _atom_site_occupancy
  Li  Li0  1  0.99626200  0.78567500  0.60104200  1
  Li  Li1  1  0.50373800  0.78567500  0.10104200  1
  Li  Li2  1  0.99626200  0.71432500  0.10104200  1
  Li  Li3  1  0.50373800  0.71432500  0.60104200  1
  Li  Li4  1  0.00373800  0.28567500  0.89895800  1
  Li  Li5  1  0.49626200  0.28567500  0.39895800  1
  Li  Li6  1  0.49626200  0.21432500  0.89895800  1
  Li  Li7  1  0.00373800  0.21432500  0.39895800  1
  V  V8  1  0.99314100  0.91370800  0.86363100  1
  V  V9  1  0.50685900  0.91370800  0.36363100  1
  V  V10  1  0.99314100  0.58629200  0.36363100  1
  V  V11  1  0.50685900  0.58629200  0.86363100  1
  V  V12  1  0.00685900  0.41370800  0.63636900  1
  V  V13  1  0.49314100  0.41370800  0.13636900  1
  V  V14  1  0.00685900  0.08629200  0.13636900  1
  V  V15  1  0.49314100  0.08629200  0.63636900  1
  F  F16  1  0.22355000  0.91473600  0.69696000  1
  F  F17  1  0.27645000  0.91473600  0.19696000  1
  F  F18  1  0.80239700  0.90484700  0.04253800  1
  F  F19  1  0.69760300  0.90484700  0.54253800  1
  F  F20  1  0.75000000  0.75000000  0.77200600  1
  F  F21  1  0.75000000  0.75000000  0.27200600  1
  F  F22  1  0.25000000  0.75000000  0.95490700  1
  F  F23  1  0.25000000  0.75000000  0.45490700  1
  F  F24  1  0.69760300  0.59515300  0.04253800  1
  F  F25  1  0.80239700  0.59515300  0.54253800  1
  F  F26  1  0.22355000  0.58526400  0.19696000  1
  F  F27  1  0.27645000  0.58526400  0.69696000  1
  F  F28  1  0.77645000  0.41473600  0.80304000  1
  F  F29  1  0.72355000  0.41473600  0.30304000  1
  F  F30  1  0.19760300  0.40484700  0.45746200  1
  F  F31  1  0.30239700  0.40484700  0.95746200  1
  F  F32  1  0.75000000  0.25000000  0.54509300  1
  F  F33  1  0.75000000  0.25000000  0.04509300  1
  F  F34  1  0.25000000  0.25000000  0.72799400  1
  F  F35  1  0.25000000  0.25000000  0.22799400  1
  F  F36  1  0.30239700  0.09515300  0.45746200  1
  F  F37  1  0.19760300  0.09515300  0.95746200  1
  F  F38  1  0.77645000  0.08526400  0.30304000  1
  F  F39  1  0.72355000  0.08526400  0.80304000  1
