# generated using pymatgen
data_NaLi5Ti3Cr3(PO4)9
_symmetry_space_group_name_H-M   'P 1'
_cell_length_a   8.46409900
_cell_length_b   8.91388665
_cell_length_c   20.90153354
_cell_angle_alpha   92.54135452
_cell_angle_beta   89.97141726
_cell_angle_gamma   118.25947999
_symmetry_Int_Tables_number   1
_chemical_formula_structural   NaLi5Ti3Cr3(PO4)9
_chemical_formula_sum   'Na2 Li10 Ti6 Cr6 P18 O72'
_cell_volume   1387.28037509
_cell_formula_units_Z   2
loop_
 _symmetry_equiv_pos_site_id
 _symmetry_equiv_pos_as_xyz
  1  'x, y, z'
loop_
 _atom_site_type_symbol
 _atom_site_label
 _atom_site_symmetry_multiplicity
 _atom_site_fract_x
 _atom_site_fract_y
 _atom_site_fract_z
 _atom_site_occupancy
  Na  Na0  1  0.99965100  0.99866000  0.49868600  1
  Na  Na1  1  0.33831100  0.67044300  0.16634400  1
  Li  Li2  1  0.15183100  0.62761100  0.77482800  1
  Li  Li3  1  0.55903000  0.54290500  0.69174800  1
  Li  Li4  1  0.75784100  0.76840100  0.91686100  1
  Li  Li5  1  0.48655400  0.30312000  0.43929700  1
  Li  Li6  1  0.89962300  0.21657500  0.36105300  1
  Li  Li7  1  0.09840700  0.44098200  0.58091800  1
  Li  Li8  1  0.85645900  0.37805600  0.22375400  1
  Li  Li9  1  0.81598300  0.96490600  0.10665800  1
  Li  Li10  1  0.23232000  0.88768800  0.02487200  1
  Li  Li11  1  0.42515100  0.10004700  0.24781900  1
  Ti  Ti12  1  0.18755800  0.37202100  0.95362300  1
  Ti  Ti13  1  0.47591000  0.95330700  0.88146500  1
  Ti  Ti14  1  0.51823700  0.03859200  0.62053200  1
  Ti  Ti15  1  0.80480900  0.61191200  0.54713800  1
  Ti  Ti16  1  0.86517000  0.72789200  0.78440000  1
  Ti  Ti17  1  0.14713300  0.27552900  0.21564000  1
  Cr  Cr18  1  0.85740100  0.71308300  0.28700900  1
  Cr  Cr19  1  0.14078000  0.28235600  0.71481400  1
  Cr  Cr20  1  0.20116700  0.39997800  0.45022200  1
  Cr  Cr21  1  0.47336700  0.94682100  0.38119900  1
  Cr  Cr22  1  0.53261400  0.06510200  0.11627500  1
  Cr  Cr23  1  0.80797300  0.61634600  0.04774300  1
  P  P24  1  0.90711200  0.09798300  0.84552300  1
  P  P25  1  0.28619000  0.00146000  0.74934200  1
  P  P26  1  0.47498900  0.23944900  0.98909300  1
  P  P27  1  0.85604500  0.42520800  0.67714900  1
  P  P28  1  0.05153300  0.66594000  0.91800700  1
  P  P29  1  0.23993400  0.76311000  0.51234200  1
  P  P30  1  0.42406500  0.57104600  0.82250700  1
  P  P31  1  0.62189200  0.66522800  0.41417500  1
  P  P32  1  0.80897700  0.90716200  0.65439800  1
  P  P33  1  0.18753800  0.08945600  0.34640400  1
  P  P34  1  0.38180500  0.33086400  0.58385600  1
  P  P35  1  0.57875000  0.43397500  0.17995600  1
  P  P36  1  0.75920500  0.23479400  0.48917800  1
  P  P37  1  0.95218900  0.33319500  0.08265100  1
  P  P38  1  0.13936200  0.57029100  0.32108700  1
  P  P39  1  0.52080600  0.75871600  0.01097600  1
  P  P40  1  0.71212800  0.99705600  0.25023400  1
  P  P41  1  0.09251700  0.90051400  0.15580600  1
  O  O42  1  0.38514400  0.72553300  0.82721700  1
  O  O43  1  0.57225600  0.84424100  0.94532400  1
  O  O44  1  0.98576300  0.17770100  0.91220300  1
  O  O45  1  0.23754000  0.82764700  0.92922900  1
  O  O46  1  0.70419400  0.04717800  0.84315900  1
  O  O47  1  0.00354500  0.21675100  0.79344700  1
  O  O48  1  0.40303300  0.96659000  0.70110800  1
  O  O49  1  0.36829400  0.02287100  0.81777600  1
  O  O50  1  0.53238700  0.14223700  0.93791900  1
  O  O51  1  0.70994300  0.24049500  0.66754900  1
  O  O52  1  0.03281200  0.44271400  0.70573700  1
  O  O53  1  0.06338600  0.50614500  0.93386300  1
  O  O54  1  0.27059000  0.15696900  0.73407800  1
  O  O55  1  0.30059300  0.23366300  0.96428400  1
  O  O56  1  0.72538800  0.39351200  0.49401200  1
  O  O57  1  0.62289300  0.42008400  0.99867700  1
  O  O58  1  0.90737600  0.51051700  0.61118700  1
  O  O59  1  0.78697700  0.52178300  0.72417000  1
  O  O60  1  0.98155900  0.64530500  0.84693300  1
  O  O61  1  0.92060800  0.69753600  0.96123800  1
  O  O62  1  0.31949400  0.84883100  0.57857800  1
  O  O63  1  0.56938700  0.49344200  0.59386900  1
  O  O64  1  0.03904000  0.72559600  0.51045700  1
  O  O65  1  0.32497500  0.44718700  0.87440300  1
  O  O66  1  0.33427500  0.88104300  0.45938700  1
  O  O67  1  0.62950700  0.62886600  0.82928400  1
  O  O68  1  0.10050400  0.83302900  0.74709100  1
  O  O69  1  0.36107300  0.49016000  0.75403000  1
  O  O70  1  0.74358900  0.63269000  0.36900500  1
  O  O71  1  0.71056300  0.69534400  0.48383000  1
  O  O72  1  0.86800300  0.81611600  0.60147300  1
  O  O73  1  0.76400300  0.80163000  0.71605700  1
  O  O74  1  0.04949100  0.90531000  0.33720000  1
  O  O75  1  0.91859600  0.92627700  0.83966400  1
  O  O76  1  0.36927800  0.11257500  0.37235800  1
  O  O77  1  0.39576600  0.17335500  0.60211400  1
  O  O78  1  0.60561500  0.82344500  0.40128500  1
  O  O79  1  0.63177900  0.89821300  0.63225000  1
  O  O80  1  0.05773800  0.05998100  0.16206800  1
  O  O81  1  0.95528200  0.08868700  0.66410600  1
  O  O82  1  0.23398700  0.17722600  0.27969600  1
  O  O83  1  0.11301400  0.17882000  0.39405500  1
  O  O84  1  0.30693600  0.29774300  0.51375900  1
  O  O85  1  0.25490200  0.36571500  0.62819600  1
  O  O86  1  0.65224000  0.50968500  0.24644400  1
  O  O87  1  0.89469000  0.17051100  0.25784700  1
  O  O88  1  0.37387600  0.38491700  0.17614800  1
  O  O89  1  0.65374500  0.11111700  0.54053600  1
  O  O90  1  0.67027000  0.55195400  0.12678800  1
  O  O91  1  0.96015700  0.28132700  0.49823700  1
  O  O92  1  0.44102000  0.49656800  0.41347700  1
  O  O93  1  0.69499900  0.15629300  0.42050000  1
  O  O94  1  0.07855600  0.30599600  0.03653400  1
  O  O95  1  0.03486100  0.36684200  0.15323900  1
  O  O96  1  0.20148000  0.47801400  0.26783900  1
  O  O97  1  0.08785700  0.46486100  0.38175100  1
  O  O98  1  0.37799900  0.57201600  0.00100400  1
  O  O99  1  0.24777900  0.59305900  0.51067500  1
  O  O100  1  0.69872700  0.77611600  0.03900800  1
  O  O101  1  0.73077400  0.84555600  0.26885600  1
  O  O102  1  0.93646600  0.49003900  0.06804500  1
  O  O103  1  0.96330500  0.55362100  0.29329300  1
  O  O104  1  0.28596000  0.75234400  0.33016400  1
  O  O105  1  0.44424000  0.84411400  0.05977800  1
  O  O106  1  0.63602800  0.96270500  0.17982900  1
  O  O107  1  0.58383100  0.03203600  0.29412800  1
  O  O108  1  0.99059200  0.77316400  0.20511600  1
  O  O109  1  0.29610800  0.95341800  0.16494900  1
  O  O110  1  0.77489100  0.16212100  0.07975000  1
  O  O111  1  0.03063700  0.82706500  0.08635500  1
  O  O112  1  0.41901400  0.13441400  0.05018900  1
  O  O113  1  0.59883500  0.26625900  0.17728800  1
