# generated using pymatgen
data_LiCoPO4
_symmetry_space_group_name_H-M   'P 1'
_cell_length_a   4.80570100
_cell_length_b   9.26354294
_cell_length_c   7.57396849
_cell_angle_alpha   74.60986536
_cell_angle_beta   89.99986813
_cell_angle_gamma   89.99991986
_symmetry_Int_Tables_number   1
_chemical_formula_structural   LiCoPO4
_chemical_formula_sum   'Li4 Co4 P4 O16'
_cell_volume   325.08577237
_cell_formula_units_Z   4
loop_
 _symmetry_equiv_pos_site_id
 _symmetry_equiv_pos_as_xyz
  1  'x, y, z'
loop_
 _atom_site_type_symbol
 _atom_site_label
 _atom_site_symmetry_multiplicity
 _atom_site_fract_x
 _atom_site_fract_y
 _atom_site_fract_z
 _atom_site_occupancy
  Li  Li0  1  0.90665800  0.00000200  0.50000300  1
  Li  Li1  1  0.40668100  0.50000000  0.49999600  1
  Li  Li2  1  0.96776900  0.00000300  0.99999200  1
  Li  Li3  1  0.46789000  0.49999700  0.00000200  1
  Co  Co4  1  0.46580900  0.83519700  0.80443100  1
  Co  Co5  1  0.46581200  0.16479700  0.19557800  1
  Co  Co6  1  0.96647700  0.33505400  0.80468100  1
  Co  Co7  1  0.96649000  0.66495200  0.19531300  1
  P  P8  1  0.01806100  0.33218300  0.23492900  1
  P  P9  1  0.51868300  0.83222500  0.23453500  1
  P  P10  1  0.51866100  0.16777700  0.76546800  1
  P  P11  1  0.01807100  0.66781300  0.76507200  1
  O  O12  1  0.61288100  0.32467800  0.64917000  1
  O  O13  1  0.11304500  0.82445100  0.64859100  1
  O  O14  1  0.11304400  0.17554900  0.35141100  1
  O  O15  1  0.61287600  0.67531800  0.35082400  1
  O  O16  1  0.11936400  0.45950900  0.31695500  1
  O  O17  1  0.61969700  0.95942900  0.31682400  1
  O  O18  1  0.61968300  0.04056700  0.68318700  1
  O  O19  1  0.11936200  0.54049000  0.68303200  1
  O  O20  1  0.17080600  0.34347200  0.04600200  1
  O  O21  1  0.67116300  0.84366900  0.04551600  1
  O  O22  1  0.67113000  0.15633300  0.95449000  1
  O  O23  1  0.17081900  0.65653100  0.95400200  1
  O  O24  1  0.70042000  0.34771500  0.20034500  1
  O  O25  1  0.20095600  0.84805700  0.19984400  1
  O  O26  1  0.20092700  0.15195100  0.80014700  1
  O  O27  1  0.70042200  0.65228100  0.79965900  1
