# generated using pymatgen
data_Li8MnNi7(PO4)12
_symmetry_space_group_name_H-M   'P 1'
_cell_length_a   8.69402900
_cell_length_b   8.84826223
_cell_length_c   12.31644241
_cell_angle_alpha   89.84955409
_cell_angle_beta   89.92007440
_cell_angle_gamma   89.95932819
_symmetry_Int_Tables_number   1
_chemical_formula_structural   Li8MnNi7(PO4)12
_chemical_formula_sum   'Li8 Mn1 Ni7 P12 O48'
_cell_volume   947.46313734
_cell_formula_units_Z   1
loop_
 _symmetry_equiv_pos_site_id
 _symmetry_equiv_pos_as_xyz
  1  'x, y, z'
loop_
 _atom_site_type_symbol
 _atom_site_label
 _atom_site_symmetry_multiplicity
 _atom_site_fract_x
 _atom_site_fract_y
 _atom_site_fract_z
 _atom_site_occupancy
  Li  Li0  1  0.78278800  0.72112000  0.81274200  1
  Li  Li1  1  0.78296200  0.77638200  0.18953500  1
  Li  Li2  1  0.71523200  0.22388400  0.68515100  1
  Li  Li3  1  0.71993600  0.27675700  0.31373500  1
  Li  Li4  1  0.28080900  0.72292200  0.68541000  1
  Li  Li5  1  0.28698900  0.78362600  0.31479600  1
  Li  Li6  1  0.21921700  0.22350400  0.81350600  1
  Li  Li7  1  0.21685900  0.27867400  0.18323000  1
  Mn  Mn8  1  0.24688800  0.46214600  0.38881600  1
  Ni  Ni9  1  0.74682100  0.96171700  0.38648200  1
  Ni  Ni10  1  0.74810700  0.53818000  0.61422000  1
  Ni  Ni11  1  0.75376600  0.03748500  0.88353300  1
  Ni  Ni12  1  0.75396000  0.46277000  0.11581600  1
  Ni  Ni13  1  0.24759800  0.53835700  0.88555000  1
  Ni  Ni14  1  0.24609500  0.96205700  0.11353000  1
  Ni  Ni15  1  0.25182000  0.03885300  0.61652100  1
  P  P16  1  0.96540100  0.25139200  0.49943000  1
  P  P17  1  0.53703100  0.74980000  0.00203600  1
  P  P18  1  0.46293900  0.25078100  0.99925600  1
  P  P19  1  0.04213400  0.74554700  0.49965700  1
  P  P20  1  0.89435100  0.39105400  0.85164200  1
  P  P21  1  0.89463900  0.10861100  0.14745000  1
  P  P22  1  0.60164700  0.60516200  0.35354900  1
  P  P23  1  0.60518300  0.89031000  0.64769800  1
  P  P24  1  0.39463000  0.11351700  0.35517300  1
  P  P25  1  0.39261000  0.39162400  0.64251700  1
  P  P26  1  0.10687400  0.60719100  0.15399000  1
  P  P27  1  0.10526800  0.89126100  0.85168700  1
  O  O28  1  0.94779800  0.63841600  0.56975700  1
  O  O29  1  0.94333200  0.84672500  0.42672800  1
  O  O30  1  0.92704100  0.89267700  0.84295200  1
  O  O31  1  0.92997600  0.60709100  0.15938300  1
  O  O32  1  0.85737100  0.16719100  0.42006400  1
  O  O33  1  0.85236400  0.33438900  0.57682300  1
  O  O34  1  0.84910400  0.43897700  0.96716200  1
  O  O35  1  0.84881100  0.06244800  0.03180700  1
  O  O36  1  0.83667400  0.23444400  0.81958900  1
  O  O37  1  0.83550800  0.26500000  0.17879900  1
  O  O38  1  0.83152600  0.51273500  0.77292100  1
  O  O39  1  0.83039700  0.98574900  0.22574600  1
  O  O40  1  0.66610400  0.01274800  0.72615000  1
  O  O41  1  0.66533800  0.48556900  0.27433200  1
  O  O42  1  0.64989500  0.76520900  0.32010000  1
  O  O43  1  0.66427600  0.73417700  0.67941500  1
  O  O44  1  0.65322300  0.55997400  0.46640200  1
  O  O45  1  0.65103800  0.93930400  0.53285000  1
  O  O46  1  0.64935600  0.83160200  0.92222800  1
  O  O47  1  0.65292000  0.66829800  0.07898100  1
  O  O48  1  0.57144000  0.11526900  0.34497300  1
  O  O49  1  0.56979300  0.39383900  0.65137400  1
  O  O50  1  0.55937900  0.14400700  0.93013200  1
  O  O51  1  0.55960100  0.35582100  0.06906500  1
  O  O52  1  0.44103900  0.64027900  0.93445400  1
  O  O53  1  0.44185700  0.85890700  0.07015400  1
  O  O54  1  0.42099400  0.59967700  0.34389500  1
  O  O55  1  0.42759300  0.89317700  0.65711100  1
  O  O56  1  0.35033000  0.33409700  0.92143900  1
  O  O57  1  0.35002200  0.16712100  0.07751200  1
  O  O58  1  0.34681700  0.06399100  0.46934000  1
  O  O59  1  0.34619300  0.43480100  0.52500100  1
  O  O60  1  0.33450300  0.23563000  0.67684700  1
  O  O61  1  0.33241500  0.27397700  0.32451600  1
  O  O62  1  0.32870800  0.51420200  0.71975400  1
  O  O63  1  0.32840600  0.99712300  0.27491800  1
  O  O64  1  0.16643700  0.01479900  0.77300500  1
  O  O65  1  0.17253900  0.48490800  0.23582300  1
  O  O66  1  0.16502300  0.73430500  0.82067500  1
  O  O67  1  0.16888600  0.76364900  0.18234000  1
  O  O68  1  0.15695600  0.55320300  0.04085200  1
  O  O69  1  0.14973500  0.93873000  0.96665300  1
  O  O70  1  0.15338600  0.65835800  0.41979700  1
  O  O71  1  0.14984800  0.83211100  0.57635900  1
  O  O72  1  0.07251800  0.10803900  0.15509000  1
  O  O73  1  0.07260600  0.39383300  0.84426700  1
  O  O74  1  0.06042800  0.14523200  0.56860800  1
  O  O75  1  0.05794100  0.36350600  0.42719900  1
