# generated using pymatgen
data_Li2FeF4
_symmetry_space_group_name_H-M   'P 1'
_cell_length_a   5.67682900
_cell_length_b   8.40922800
_cell_length_c   9.01008282
_cell_angle_alpha   74.33024064
_cell_angle_beta   90.00000000
_cell_angle_gamma   90.00000000
_symmetry_Int_Tables_number   1
_chemical_formula_structural   Li2FeF4
_chemical_formula_sum   'Li8 Fe4 F16'
_cell_volume   414.13538268
_cell_formula_units_Z   4
loop_
 _symmetry_equiv_pos_site_id
 _symmetry_equiv_pos_as_xyz
  1  'x, y, z'
loop_
 _atom_site_type_symbol
 _atom_site_label
 _atom_site_symmetry_multiplicity
 _atom_site_fract_x
 _atom_site_fract_y
 _atom_site_fract_z
 _atom_site_occupancy
  Li  Li0  1  0.10587900  0.87096000  0.96132100  1
  Li  Li1  1  0.39412100  0.87096000  0.46132100  1
  Li  Li2  1  0.09589500  0.62398000  0.72103500  1
  Li  Li3  1  0.40410500  0.62398000  0.22103500  1
  Li  Li4  1  0.59589500  0.37602000  0.77896500  1
  Li  Li5  1  0.90410500  0.37602000  0.27896500  1
  Li  Li6  1  0.60587900  0.12904000  0.53867900  1
  Li  Li7  1  0.89412100  0.12904000  0.03867900  1
  Fe  Fe8  1  0.59747900  0.74078800  0.84227100  1
  Fe  Fe9  1  0.90252100  0.74078800  0.34227100  1
  Fe  Fe10  1  0.09747900  0.25921200  0.65772900  1
  Fe  Fe11  1  0.40252100  0.25921200  0.15772900  1
  F  F12  1  0.52639200  0.90730400  0.64399900  1
  F  F13  1  0.40285500  0.76567100  0.01551100  1
  F  F14  1  0.94298900  0.73723600  0.85318500  1
  F  F15  1  0.97360800  0.90730400  0.14399900  1
  F  F16  1  0.09714500  0.76567100  0.51551100  1
  F  F17  1  0.40927600  0.56112500  0.78763900  1
  F  F18  1  0.55701100  0.73723600  0.35318500  1
  F  F19  1  0.09072400  0.56112500  0.28763900  1
  F  F20  1  0.90927600  0.43887500  0.71236100  1
  F  F21  1  0.44298900  0.26276400  0.64681500  1
  F  F22  1  0.59072400  0.43887500  0.21236100  1
  F  F23  1  0.90285500  0.23432900  0.48448900  1
  F  F24  1  0.02639200  0.09269600  0.85600100  1
  F  F25  1  0.05701100  0.26276400  0.14681500  1
  F  F26  1  0.59714500  0.23432900  0.98448900  1
  F  F27  1  0.47360800  0.09269600  0.35600100  1
