# generated using pymatgen
data_Li3V3P8O29
_symmetry_space_group_name_H-M   'P 1'
_cell_length_a   9.71801900
_cell_length_b   9.74342408
_cell_length_c   14.32598174
_cell_angle_alpha   90.64382099
_cell_angle_beta   90.11108427
_cell_angle_gamma   119.88240254
_symmetry_Int_Tables_number   1
_chemical_formula_structural   Li3V3P8O29
_chemical_formula_sum   'Li6 V6 P16 O58'
_cell_volume   1176.01797575
_cell_formula_units_Z   2
loop_
 _symmetry_equiv_pos_site_id
 _symmetry_equiv_pos_as_xyz
  1  'x, y, z'
loop_
 _atom_site_type_symbol
 _atom_site_label
 _atom_site_symmetry_multiplicity
 _atom_site_fract_x
 _atom_site_fract_y
 _atom_site_fract_z
 _atom_site_occupancy
  Li  Li0  1  0.67792200  0.77070100  0.04812500  1
  Li  Li1  1  0.09163200  0.32255900  0.05756200  1
  Li  Li2  1  0.76952400  0.67575200  0.44832800  1
  Li  Li3  1  0.23322600  0.33103600  0.56255900  1
  Li  Li4  1  0.03137800  0.97758000  0.99325200  1
  Li  Li5  1  0.99619700  0.00047000  0.51482800  1
  V  V6  1  0.56281300  0.56503000  0.24880000  1
  V  V7  1  0.43559400  0.43226600  0.75334700  1
  V  V8  1  0.00335800  0.56684200  0.75048200  1
  V  V9  1  0.99487900  0.43754800  0.24999000  1
  V  V10  1  0.43631400  0.99747700  0.25232700  1
  V  V11  1  0.56050100  0.00036900  0.74498400  1
  P  P12  1  0.22159500  0.91931600  0.83896700  1
  P  P13  1  0.08414900  0.78152200  0.33818700  1
  P  P14  1  0.69942000  0.91874700  0.34540200  1
  P  P15  1  0.33313100  0.66501800  0.13288200  1
  P  P16  1  0.33116000  0.66079900  0.63221200  1
  P  P17  1  0.68773700  0.78171500  0.83762000  1
  P  P18  1  0.77657300  0.68618000  0.66012900  1
  P  P19  1  0.08638100  0.31125900  0.84498100  1
  P  P20  1  0.91469100  0.69478400  0.15429400  1
  P  P21  1  0.22493000  0.31747200  0.34348400  1
  P  P22  1  0.30569500  0.21647800  0.16520100  1
  P  P23  1  0.66545800  0.33660900  0.36571800  1
  P  P24  1  0.67078900  0.33407200  0.86601500  1
  P  P25  1  0.29740800  0.08185900  0.65555500  1
  P  P26  1  0.91385600  0.21705300  0.66382600  1
  P  P27  1  0.77691100  0.08148900  0.16134800  1
  O  O28  1  0.19523100  0.00899300  0.57219700  1
  O  O29  1  0.25935600  0.91472500  0.33380300  1
  O  O30  1  0.98673100  0.78695800  0.06935800  1
  O  O31  1  0.08826300  0.74212800  0.82981600  1
  O  O32  1  0.38324200  0.92622600  0.82625300  1
  O  O33  1  0.33315900  0.81016900  0.18112600  1
  O  O34  1  0.54186200  0.92299800  0.33104100  1
  O  O35  1  0.78323600  0.99072300  0.07902500  1
  O  O36  1  0.65187100  0.91851900  0.82882000  1
  O  O37  1  0.18541000  0.66144200  0.67928100  1
  O  O38  1  0.08129100  0.61981000  0.32432900  1
  O  O39  1  0.47682200  0.81040800  0.67747300  1
  O  O40  1  0.34862000  0.66676200  0.02971600  1
  O  O41  1  0.32672900  0.65385400  0.52866500  1
  O  O42  1  0.48639400  0.66988500  0.17739500  1
  O  O43  1  0.08608300  0.46777000  0.83039700  1
  O  O44  1  0.18401600  0.51346000  0.16987300  1
  O  O45  1  0.65900800  0.74135100  0.33446600  1
  O  O46  1  0.79765400  0.79924700  0.74904400  1
  O  O47  1  0.78953700  0.76919700  0.57081800  1
  O  O48  1  0.77127100  0.79144400  0.92697700  1
  O  O49  1  0.53070000  0.62098100  0.82430400  1
  O  O50  1  0.33072600  0.51077900  0.67255100  1
  O  O51  1  0.73752200  0.65456600  0.16342600  1
  O  O52  1  0.38216700  0.47430400  0.32457400  1
  O  O53  1  0.08485200  0.34855100  0.32553200  1
  O  O54  1  0.00201800  0.80155800  0.24560700  1
  O  O55  1  0.99494200  0.78844200  0.42043100  1
  O  O56  1  0.00479200  0.19767600  0.58574800  1
  O  O57  1  0.91526000  0.65147300  0.66927800  1
  O  O58  1  0.61766200  0.53163200  0.67371600  1
  O  O59  1  0.25943700  0.34422700  0.82920800  1
  O  O60  1  0.66989700  0.48822800  0.32342500  1
  O  O61  1  0.46351300  0.37849200  0.17577000  1
  O  O62  1  0.20438900  0.20727700  0.08474000  1
  O  O63  1  0.21735700  0.24849700  0.43625400  1
  O  O64  1  0.21031100  0.19715300  0.26174800  1
  O  O65  1  0.34474700  0.26110700  0.66345000  1
  O  O66  1  0.81676400  0.47836700  0.82040700  1
  O  O67  1  0.91966100  0.53869300  0.16909600  1
  O  O68  1  0.52197900  0.33806700  0.82166200  1
  O  O69  1  0.66906700  0.33551400  0.96912600  1
  O  O70  1  0.67522100  0.34964600  0.46882700  1
  O  O71  1  0.51932000  0.18859100  0.32199300  1
  O  O72  1  0.92384300  0.37977100  0.67137100  1
  O  O73  1  0.81252300  0.33575600  0.31747400  1
  O  O74  1  0.34454800  0.08111000  0.16841500  1
  O  O75  1  0.19734700  0.00269000  0.74858100  1
  O  O76  1  0.20302600  0.99580100  0.92371600  1
  O  O77  1  0.45233700  0.07285900  0.66619000  1
  O  O78  1  0.66345800  0.18645700  0.81675800  1
  O  O79  1  0.61674000  0.07876500  0.17546300  1
  O  O80  1  0.91412500  0.25717600  0.16114900  1
  O  O81  1  0.02509700  0.23342500  0.93619800  1
  O  O82  1  0.98504600  0.19282200  0.76138800  1
  O  O83  1  0.73712200  0.08428300  0.66437800  1
  O  O84  1  0.79492100  0.98994700  0.43099700  1
  O  O85  1  0.80388000  0.00617200  0.25456100  1
