# generated using pymatgen
data_Li4Ti3Co5O16
_symmetry_space_group_name_H-M   'P 1'
_cell_length_a   5.72685104
_cell_length_b   5.72685104
_cell_length_c   9.31004518
_cell_angle_alpha   89.68678152
_cell_angle_beta   89.68678152
_cell_angle_gamma   60.89370060
_symmetry_Int_Tables_number   1
_chemical_formula_structural   Li4Ti3Co5O16
_chemical_formula_sum   'Li4 Ti3 Co5 O16'
_cell_volume   266.77583365
_cell_formula_units_Z   1
loop_
 _symmetry_equiv_pos_site_id
 _symmetry_equiv_pos_as_xyz
  1  'x, y, z'
loop_
 _atom_site_type_symbol
 _atom_site_label
 _atom_site_symmetry_multiplicity
 _atom_site_fract_x
 _atom_site_fract_y
 _atom_site_fract_z
 _atom_site_occupancy
  Li  Li0  1  0.67110000  0.67110000  0.88842700  1
  Li  Li1  1  0.98798500  0.98798500  0.99468900  1
  Li  Li2  1  0.99391400  0.99391400  0.49911000  1
  Li  Li3  1  0.33716800  0.33716800  0.39571500  1
  Ti  Ti4  1  0.83290800  0.33913800  0.21201100  1
  Ti  Ti5  1  0.33913800  0.83290800  0.21201100  1
  Ti  Ti6  1  0.17048300  0.17048300  0.71270100  1
  Co  Co7  1  0.66717400  0.66717400  0.48477700  1
  Co  Co8  1  0.82659600  0.82659600  0.21407100  1
  Co  Co9  1  0.33631900  0.33631900  0.97914300  1
  Co  Co10  1  0.66187000  0.16697100  0.70893100  1
  Co  Co11  1  0.16697100  0.66187000  0.70893100  1
  O  O12  1  0.82865400  0.33588200  0.60283300  1
  O  O13  1  0.52418900  0.52418900  0.34526800  1
  O  O14  1  0.66530300  0.66530300  0.09775700  1
  O  O15  1  0.99534100  0.99534100  0.31069200  1
  O  O16  1  0.99420100  0.99420100  0.80723900  1
  O  O17  1  0.33588200  0.82865400  0.60283300  1
  O  O18  1  0.95826800  0.52654000  0.34679900  1
  O  O19  1  0.52654000  0.95826800  0.34679900  1
  O  O20  1  0.17081100  0.17081100  0.10081500  1
  O  O21  1  0.83328900  0.83328900  0.60832900  1
  O  O22  1  0.48466000  0.04492300  0.84319500  1
  O  O23  1  0.04492300  0.48466000  0.84319500  1
  O  O24  1  0.33741500  0.33741500  0.60199600  1
  O  O25  1  0.66490800  0.17159300  0.10250500  1
  O  O26  1  0.47951900  0.47951900  0.83314400  1
  O  O27  1  0.17159300  0.66490800  0.10250500  1
