# generated using pymatgen
data_Li2Cr3P5O18
_symmetry_space_group_name_H-M   'P 1'
_cell_length_a   13.06209581
_cell_length_b   13.06209581
_cell_length_c   12.50728625
_cell_angle_alpha   88.14477762
_cell_angle_beta   88.14477762
_cell_angle_gamma   21.13368835
_symmetry_Int_Tables_number   1
_chemical_formula_structural   Li2Cr3P5O18
_chemical_formula_sum   'Li4 Cr6 P10 O36'
_cell_volume   768.97641311
_cell_formula_units_Z   2
loop_
 _symmetry_equiv_pos_site_id
 _symmetry_equiv_pos_as_xyz
  1  'x, y, z'
loop_
 _atom_site_type_symbol
 _atom_site_label
 _atom_site_symmetry_multiplicity
 _atom_site_fract_x
 _atom_site_fract_y
 _atom_site_fract_z
 _atom_site_occupancy
  Li  Li0  1  0.49137700  0.19317200  0.86961400  1
  Li  Li1  1  0.19317200  0.49137700  0.36961400  1
  Li  Li2  1  0.80682800  0.50862300  0.63038600  1
  Li  Li3  1  0.50862300  0.80682800  0.13038600  1
  Cr  Cr4  1  0.84681100  0.75656400  0.62001000  1
  Cr  Cr5  1  0.75656400  0.84681100  0.12001000  1
  Cr  Cr6  1  0.24343600  0.15318900  0.87999000  1
  Cr  Cr7  1  0.15318900  0.24343600  0.37999000  1
  Cr  Cr8  1  0.50000000  0.50000000  0.50000000  1
  Cr  Cr9  1  0.50000000  0.50000000  0.00000000  1
  P  P10  1  0.93190800  0.92926600  0.59107900  1
  P  P11  1  0.92926600  0.93190800  0.09107900  1
  P  P12  1  0.83582000  0.71379700  0.87204900  1
  P  P13  1  0.71379700  0.83582000  0.37204900  1
  P  P14  1  0.28620300  0.16418000  0.62795100  1
  P  P15  1  0.16418000  0.28620300  0.12795100  1
  P  P16  1  0.07073400  0.06809200  0.90892100  1
  P  P17  1  0.06809200  0.07073400  0.40892100  1
  P  P18  1  0.26701600  0.73298400  0.75000000  1
  P  P19  1  0.73298400  0.26701600  0.25000000  1
  O  O20  1  0.40225900  0.55027900  0.84439200  1
  O  O21  1  0.78225300  0.12772900  0.00030800  1
  O  O22  1  0.55027900  0.40225900  0.34439200  1
  O  O23  1  0.01223100  0.90373700  0.70526200  1
  O  O24  1  0.12772900  0.78225300  0.50030800  1
  O  O25  1  0.90373700  0.01223100  0.20526200  1
  O  O26  1  0.62614400  0.24426400  0.56670400  1
  O  O27  1  0.24426400  0.62614400  0.06670400  1
  O  O28  1  0.97127400  0.77890900  0.61886200  1
  O  O29  1  0.77890900  0.97127400  0.11886200  1
  O  O30  1  0.75177900  0.86409300  0.96303200  1
  O  O31  1  0.75856600  0.85431100  0.77304500  1
  O  O32  1  0.86409300  0.75177900  0.46303200  1
  O  O33  1  0.85431100  0.75856600  0.27304500  1
  O  O34  1  0.23053900  0.33354200  0.62473700  1
  O  O35  1  0.15705500  0.38755700  0.87722800  1
  O  O36  1  0.33354200  0.23053900  0.12473700  1
  O  O37  1  0.38755700  0.15705500  0.37722800  1
  O  O38  1  0.61244300  0.84294500  0.62277200  1
  O  O39  1  0.66645800  0.76946100  0.87526300  1
  O  O40  1  0.84294500  0.61244300  0.12277200  1
  O  O41  1  0.76946100  0.66645800  0.37526300  1
  O  O42  1  0.14568900  0.24143400  0.72695500  1
  O  O43  1  0.13590700  0.24822100  0.53696800  1
  O  O44  1  0.24143400  0.14568900  0.22695500  1
  O  O45  1  0.24822100  0.13590700  0.03696800  1
  O  O46  1  0.22109100  0.02872600  0.88113800  1
  O  O47  1  0.02872600  0.22109100  0.38113800  1
  O  O48  1  0.75573600  0.37385600  0.93329600  1
  O  O49  1  0.37385600  0.75573600  0.43329600  1
  O  O50  1  0.09626300  0.98776900  0.79473800  1
  O  O51  1  0.87227100  0.21774700  0.49969200  1
  O  O52  1  0.98776900  0.09626300  0.29473800  1
  O  O53  1  0.44972100  0.59774100  0.65560800  1
  O  O54  1  0.21774700  0.87227100  0.99969200  1
  O  O55  1  0.59774100  0.44972100  0.15560800  1
