# generated using pymatgen
data_Li3V4(PO4)6
_symmetry_space_group_name_H-M   'P 1'
_cell_length_a   8.42668700
_cell_length_b   8.72000734
_cell_length_c   11.95872549
_cell_angle_alpha   90.20115822
_cell_angle_beta   90.64404651
_cell_angle_gamma   90.15360137
_symmetry_Int_Tables_number   1
_chemical_formula_structural   Li3V4(PO4)6
_chemical_formula_sum   'Li6 V8 P12 O48'
_cell_volume   878.67220399
_cell_formula_units_Z   2
loop_
 _symmetry_equiv_pos_site_id
 _symmetry_equiv_pos_as_xyz
  1  'x, y, z'
loop_
 _atom_site_type_symbol
 _atom_site_label
 _atom_site_symmetry_multiplicity
 _atom_site_fract_x
 _atom_site_fract_y
 _atom_site_fract_z
 _atom_site_occupancy
  Li  Li0  1  0.80980300  0.21419900  0.82049700  1
  Li  Li1  1  0.68313700  0.71255400  0.68018300  1
  Li  Li2  1  0.57001300  0.40792400  0.19552100  1
  Li  Li3  1  0.18491500  0.78662400  0.17996100  1
  Li  Li4  1  0.08344900  0.08770600  0.69041300  1
  Li  Li5  1  0.07631300  0.50434200  0.34376700  1
  V  V6  1  0.74749800  0.97438600  0.11139200  1
  V  V7  1  0.75100100  0.53366400  0.89002100  1
  V  V8  1  0.74479500  0.47495700  0.39429100  1
  V  V9  1  0.74200400  0.03246300  0.60611300  1
  V  V10  1  0.25235300  0.96978600  0.38727000  1
  V  V11  1  0.24518200  0.52745200  0.61498900  1
  V  V12  1  0.24629400  0.46501400  0.11215600  1
  V  V13  1  0.25736600  0.02610200  0.89176800  1
  P  P14  1  0.96885200  0.75159200  0.50775300  1
  P  P15  1  0.88359200  0.61847800  0.14920700  1
  P  P16  1  0.88519600  0.89280000  0.85445400  1
  P  P17  1  0.60860700  0.11448300  0.34563500  1
  P  P18  1  0.61328100  0.39115300  0.64741100  1
  P  P19  1  0.53725600  0.24983600  0.99121000  1
  P  P20  1  0.46390100  0.75132000  0.00763600  1
  P  P21  1  0.38596100  0.61290400  0.35863400  1
  P  P22  1  0.39124400  0.88110700  0.64719000  1
  P  P23  1  0.11294600  0.10962700  0.14527700  1
  P  P24  1  0.10844100  0.38227600  0.84854500  1
  P  P25  1  0.03859800  0.24776800  0.49181700  1
  O  O26  1  0.93516000  0.09914300  0.10857800  1
  O  O27  1  0.94161500  0.12995700  0.55964200  1
  O  O28  1  0.94562500  0.33304200  0.40098100  1
  O  O29  1  0.93013800  0.41475800  0.82243700  1
  O  O30  1  0.91186600  0.63750900  0.41790600  1
  O  O31  1  0.87171200  0.79363100  0.15666100  1
  O  O32  1  0.85815000  0.56922400  0.02321500  1
  O  O33  1  0.86597200  0.00655700  0.75190700  1
  O  O34  1  0.83043100  0.73104300  0.81699500  1
  O  O35  1  0.82181100  0.82389600  0.56670100  1
  O  O36  1  0.76539400  0.52817300  0.22049400  1
  O  O37  1  0.77766200  0.95527400  0.94666400  1
  O  O38  1  0.72201500  0.02152900  0.27286300  1
  O  O39  1  0.72401000  0.44946000  0.55606900  1
  O  O40  1  0.68027300  0.32333300  0.92935300  1
  O  O41  1  0.66362500  0.22730000  0.68297300  1
  O  O42  1  0.65080500  0.07583700  0.47277600  1
  O  O43  1  0.62452000  0.28940700  0.33239100  1
  O  O44  1  0.63973600  0.50435000  0.74840500  1
  O  O45  1  0.60677300  0.14186600  0.08091700  1
  O  O46  1  0.56874700  0.83698400  0.09615400  1
  O  O47  1  0.56908700  0.91729700  0.67540400  1
  O  O48  1  0.55697700  0.61963000  0.39964500  1
  O  O49  1  0.56293900  0.62975500  0.94757300  1
  O  O50  1  0.45043600  0.37237900  0.05802400  1
  O  O51  1  0.43658300  0.39907600  0.61174100  1
  O  O52  1  0.43606000  0.06704600  0.32394700  1
  O  O53  1  0.43063200  0.16972800  0.90174600  1
  O  O54  1  0.39723100  0.86051800  0.91668400  1
  O  O55  1  0.37246300  0.50647600  0.25461900  1
  O  O56  1  0.37772900  0.70594900  0.66136700  1
  O  O57  1  0.36082700  0.92933400  0.52601000  1
  O  O58  1  0.32073000  0.77383600  0.32206100  1
  O  O59  1  0.32070800  0.67998000  0.06790900  1
  O  O60  1  0.26704200  0.55083200  0.44684700  1
  O  O61  1  0.27883600  0.97411700  0.72432500  1
  O  O62  1  0.22084400  0.05218600  0.04891800  1
  O  O63  1  0.21714500  0.47583100  0.77096300  1
  O  O64  1  0.17817900  0.16149900  0.43686500  1
  O  O65  1  0.15675400  0.27339800  0.17902600  1
  O  O66  1  0.13781300  0.99328800  0.24163300  1
  O  O67  1  0.14434800  0.42340600  0.96947000  1
  O  O68  1  0.12611800  0.20425300  0.82991600  1
  O  O69  1  0.11020500  0.35365300  0.58324600  1
  O  O70  1  0.05699100  0.58152800  0.18560100  1
  O  O71  1  0.06949800  0.66806700  0.60030600  1
  O  O72  1  0.06480300  0.87595900  0.44963800  1
  O  O73  1  0.06274900  0.89785200  0.88792200  1
