# generated using pymatgen
data_LiTi2(PO4)3
_symmetry_space_group_name_H-M   'P 1'
_cell_length_a   8.64861000
_cell_length_b   8.70920500
_cell_length_c   12.00716300
_cell_angle_alpha   90.00000000
_cell_angle_beta   90.00000000
_cell_angle_gamma   90.00000000
_symmetry_Int_Tables_number   1
_chemical_formula_structural   LiTi2(PO4)3
_chemical_formula_sum   'Li4 Ti8 P12 O48'
_cell_volume   904.40974465
_cell_formula_units_Z   4
loop_
 _symmetry_equiv_pos_site_id
 _symmetry_equiv_pos_as_xyz
  1  'x, y, z'
loop_
 _atom_site_type_symbol
 _atom_site_label
 _atom_site_symmetry_multiplicity
 _atom_site_fract_x
 _atom_site_fract_y
 _atom_site_fract_z
 _atom_site_occupancy
  Li  Li0  1  0.53407900  0.27120200  0.81710600  1
  Li  Li1  1  0.46592100  0.72879800  0.31710600  1
  Li  Li2  1  0.03407900  0.22879800  0.31710600  1
  Li  Li3  1  0.96592100  0.77120200  0.81710600  1
  Ti  Ti4  1  0.50511000  0.04838600  0.37944600  1
  Ti  Ti5  1  0.49846900  0.47169600  0.61620800  1
  Ti  Ti6  1  0.50153100  0.52830400  0.11620800  1
  Ti  Ti7  1  0.49489000  0.95161400  0.87944600  1
  Ti  Ti8  1  0.99846900  0.02830400  0.11620800  1
  Ti  Ti9  1  0.00511000  0.45161400  0.87944600  1
  Ti  Ti10  1  0.99489000  0.54838600  0.37944600  1
  Ti  Ti11  1  0.00153100  0.97169600  0.61620800  1
  P  P12  1  0.71208800  0.75348700  0.50168600  1
  P  P13  1  0.64687600  0.60466300  0.85556100  1
  P  P14  1  0.64132600  0.89430800  0.14421400  1
  P  P15  1  0.35312400  0.39533700  0.35556100  1
  P  P16  1  0.35867400  0.10569200  0.64421400  1
  P  P17  1  0.28791200  0.24651300  0.00168600  1
  P  P18  1  0.21208800  0.74651300  0.00168600  1
  P  P19  1  0.14687600  0.89533700  0.35556100  1
  P  P20  1  0.14132600  0.60569200  0.64421400  1
  P  P21  1  0.85312400  0.10466300  0.85556100  1
  P  P22  1  0.85867400  0.39430800  0.14421400  1
  P  P23  1  0.78791200  0.25348700  0.50168600  1
  O  O24  1  0.68687200  0.35396600  0.57569700  1
  O  O25  1  0.68773600  0.15018600  0.42439000  1
  O  O26  1  0.68124300  0.40890300  0.15421800  1
  O  O27  1  0.67586200  0.09839100  0.84443300  1
  O  O28  1  0.58854600  0.93161300  0.02505000  1
  O  O29  1  0.59327300  0.56452700  0.97446400  1
  O  O30  1  0.58952400  0.72941900  0.17615800  1
  O  O31  1  0.59640800  0.77004400  0.82666400  1
  O  O32  1  0.60306900  0.84450300  0.42386300  1
  O  O33  1  0.60954300  0.65066300  0.57656400  1
  O  O34  1  0.56750000  0.00789800  0.22784700  1
  O  O35  1  0.57183100  0.48473600  0.77703800  1
  O  O36  1  0.42816900  0.51526400  0.27703800  1
  O  O37  1  0.43250000  0.99210200  0.72784700  1
  O  O38  1  0.39045700  0.34933700  0.07656400  1
  O  O39  1  0.39693100  0.15549700  0.92386300  1
  O  O40  1  0.41047600  0.27058100  0.67615800  1
  O  O41  1  0.40359200  0.22995600  0.32666400  1
  O  O42  1  0.40672700  0.43547300  0.47446400  1
  O  O43  1  0.41145400  0.06838700  0.52505000  1
  O  O44  1  0.31875700  0.59109700  0.65421800  1
  O  O45  1  0.32413800  0.90160900  0.34443300  1
  O  O46  1  0.31312800  0.64603400  0.07569700  1
  O  O47  1  0.31226400  0.84981400  0.92439000  1
  O  O48  1  0.18773600  0.34981400  0.92439000  1
  O  O49  1  0.18687200  0.14603400  0.07569700  1
  O  O50  1  0.17586200  0.40160900  0.34443300  1
  O  O51  1  0.18124300  0.09109700  0.65421800  1
  O  O52  1  0.09327300  0.93547300  0.47446400  1
  O  O53  1  0.08854600  0.56838700  0.52505000  1
  O  O54  1  0.09640800  0.72995600  0.32666400  1
  O  O55  1  0.08952400  0.77058100  0.67615800  1
  O  O56  1  0.10954300  0.84933700  0.07656400  1
  O  O57  1  0.10306900  0.65549700  0.92386300  1
  O  O58  1  0.07183100  0.01526400  0.27703800  1
  O  O59  1  0.06750000  0.49210200  0.72784700  1
  O  O60  1  0.93250000  0.50789800  0.22784700  1
  O  O61  1  0.92816900  0.98473600  0.77703800  1
  O  O62  1  0.89693100  0.34450300  0.42386300  1
  O  O63  1  0.89045700  0.15066300  0.57656400  1
  O  O64  1  0.91047600  0.22941900  0.17615800  1
  O  O65  1  0.90359200  0.27004400  0.82666400  1
  O  O66  1  0.91145400  0.43161300  0.02505000  1
  O  O67  1  0.90672700  0.06452700  0.97446400  1
  O  O68  1  0.82413800  0.59839100  0.84443300  1
  O  O69  1  0.81875700  0.90890300  0.15421800  1
  O  O70  1  0.81226400  0.65018600  0.42439000  1
  O  O71  1  0.81312800  0.85396600  0.57569700  1
