# generated using pymatgen
data_LiMn3O6
_symmetry_space_group_name_H-M   'P 1'
_cell_length_a   5.95297608
_cell_length_b   5.92704005
_cell_length_c   13.15331897
_cell_angle_alpha   102.89562598
_cell_angle_beta   103.22735776
_cell_angle_gamma   88.34825956
_symmetry_Int_Tables_number   1
_chemical_formula_structural   LiMn3O6
_chemical_formula_sum   'Li4 Mn12 O24'
_cell_volume   440.26717530
_cell_formula_units_Z   4
loop_
 _symmetry_equiv_pos_site_id
 _symmetry_equiv_pos_as_xyz
  1  'x, y, z'
loop_
 _atom_site_type_symbol
 _atom_site_label
 _atom_site_symmetry_multiplicity
 _atom_site_fract_x
 _atom_site_fract_y
 _atom_site_fract_z
 _atom_site_occupancy
  Li  Li0  1  0.87017559  0.61466431  0.24555798  1
  Li  Li1  1  0.46702123  0.71486363  0.41959325  1
  Li  Li2  1  0.11995538  0.37490590  0.75101528  1
  Li  Li3  1  0.21205817  0.96909032  0.91899362  1
  Mn  Mn4  1  0.99557877  0.49381923  0.00034199  1
  Mn  Mn5  1  0.49710550  0.49398883  0.99677601  1
  Mn  Mn6  1  0.33964445  0.83803152  0.16351638  1
  Mn  Mn7  1  0.34418784  0.33729139  0.16784652  1
  Mn  Mn8  1  0.66600530  0.16156409  0.33064389  1
  Mn  Mn9  1  0.16058149  0.16188254  0.32860456  1
  Mn  Mn10  1  0.99607139  0.49436166  0.50176606  1
  Mn  Mn11  1  0.99024479  0.99563832  0.49727105  1
  Mn  Mn12  1  0.33424854  0.84377151  0.66807910  1
  Mn  Mn13  1  0.83614910  0.84517834  0.67175507  1
  Mn  Mn14  1  0.65958243  0.16849884  0.83431947  1
  Mn  Mn15  1  0.66505761  0.66641622  0.83412154  1
  O  O16  1  0.27404341  0.74065971  0.01058804  1
  O  O17  1  0.25771625  0.28759526  0.01118490  1
  O  O18  1  0.55329487  0.57581804  0.15450374  1
  O  O19  1  0.12231400  0.58931847  0.16174888  1
  O  O20  1  0.55989986  0.08359878  0.17522421  1
  O  O21  1  0.13465879  0.09712248  0.17138959  1
  O  O22  1  0.43631577  0.39648942  0.32032841  1
  O  O23  1  0.41421917  0.94119601  0.32181348  1
  O  O24  1  0.90489367  0.36808436  0.32670790  1
  O  O25  1  0.89568773  0.92415753  0.34428193  1
  O  O26  1  0.19620791  0.23099645  0.48686789  1
  O  O27  1  0.76654763  0.23639042  0.48496878  1
  O  O28  1  0.22569659  0.75724851  0.51105430  1
  O  O29  1  0.78449521  0.75715253  0.51455596  1
  O  O30  1  0.07225364  0.05679393  0.65519194  1
  O  O31  1  0.09138316  0.63378097  0.67334686  1
  O  O32  1  0.59440908  0.63611326  0.67901027  1
  O  O33  1  0.58431385  0.06085037  0.67640655  1
  O  O34  1  0.88949820  0.93157745  0.82526854  1
  O  O35  1  0.43100048  0.92908139  0.82218384  1
  O  O36  1  0.43305397  0.40875283  0.84316173  1
  O  O37  1  0.88677774  0.40059151  0.84030774  1
  O  O38  1  0.71394168  0.25450095  0.98570651  1
  O  O39  1  0.73607479  0.69764873  0.98812523  1
