# generated using pymatgen
data_NaLi3Fe4(SiO3)8
_symmetry_space_group_name_H-M   'P 1'
_cell_length_a   5.36610100
_cell_length_b   6.60034292
_cell_length_c   25.56865966
_cell_angle_alpha   86.84573200
_cell_angle_beta   87.05604590
_cell_angle_gamma   75.34244924
_symmetry_Int_Tables_number   1
_chemical_formula_structural   NaLi3Fe4(SiO3)8
_chemical_formula_sum   'Na2 Li6 Fe8 Si16 O48'
_cell_volume   874.13694928
_cell_formula_units_Z   2
loop_
 _symmetry_equiv_pos_site_id
 _symmetry_equiv_pos_as_xyz
  1  'x, y, z'
loop_
 _atom_site_type_symbol
 _atom_site_label
 _atom_site_symmetry_multiplicity
 _atom_site_fract_x
 _atom_site_fract_y
 _atom_site_fract_z
 _atom_site_occupancy
  Na  Na0  1  0.82400000  0.70940300  0.57182400  1
  Na  Na1  1  0.07200600  0.70878000  0.82304500  1
  Li  Li2  1  0.30929500  0.74969900  0.06402500  1
  Li  Li3  1  0.93605200  0.25041900  0.18775100  1
  Li  Li4  1  0.18943700  0.25212200  0.43678900  1
  Li  Li5  1  0.56170500  0.74933900  0.31304400  1
  Li  Li6  1  0.43804200  0.25207800  0.68651600  1
  Li  Li7  1  0.68410100  0.25072800  0.93754100  1
  Fe  Fe8  1  0.47369200  0.10294900  0.22454900  1
  Fe  Fe9  1  0.77090600  0.89812800  0.02678200  1
  Fe  Fe10  1  0.02487500  0.89777500  0.27526300  1
  Fe  Fe11  1  0.72904500  0.10175700  0.47325600  1
  Fe  Fe12  1  0.27977200  0.89795700  0.52405200  1
  Fe  Fe13  1  0.97475200  0.10198900  0.72422900  1
  Fe  Fe14  1  0.21920500  0.10332400  0.97543200  1
  Fe  Fe15  1  0.52568300  0.89857700  0.77559300  1
  Si  Si16  1  0.32692900  0.20764900  0.09681800  1
  Si  Si17  1  0.78228700  0.38603900  0.05201100  1
  Si  Si18  1  0.03463900  0.38654100  0.30096400  1
  Si  Si19  1  0.46501900  0.61504400  0.19822600  1
  Si  Si20  1  0.57905000  0.20869200  0.34561700  1
  Si  Si21  1  0.91993100  0.79357300  0.15395300  1
  Si  Si22  1  0.17096300  0.79397100  0.40245900  1
  Si  Si23  1  0.30235500  0.38239200  0.55035800  1
  Si  Si24  1  0.71437300  0.61642000  0.44653700  1
  Si  Si25  1  0.84406500  0.20589500  0.59519500  1
  Si  Si26  1  0.09188100  0.20510500  0.84639500  1
  Si  Si27  1  0.40603700  0.79695900  0.65389200  1
  Si  Si28  1  0.55012600  0.38212400  0.80142300  1
  Si  Si29  1  0.95304700  0.61692700  0.69832800  1
  Si  Si30  1  0.20404000  0.61580500  0.94982100  1
  Si  Si31  1  0.65523700  0.79702500  0.90532400  1
  O  O32  1  0.39690700  0.03105100  0.05102200  1
  O  O33  1  0.85352200  0.20294600  0.00779300  1
  O  O34  1  0.03356400  0.35450200  0.08840400  1
  O  O35  1  0.32354200  0.11322800  0.15642800  1
  O  O36  1  0.53347000  0.35374200  0.08862200  1
  O  O37  1  0.69443800  0.62524100  0.02850100  1
  O  O38  1  0.10749200  0.20228400  0.25711800  1
  O  O39  1  0.21480400  0.64750600  0.16121900  1
  O  O40  1  0.64960300  0.03170100  0.29983100  1
  O  O41  1  0.55237200  0.37551600  0.22142500  1
  O  O42  1  0.71413600  0.64682700  0.16140100  1
  O  O43  1  0.92262000  0.88885200  0.09417400  1
  O  O44  1  0.28572200  0.35576100  0.33732600  1
  O  O45  1  0.57486600  0.11567400  0.40533700  1
  O  O46  1  0.39203100  0.79877400  0.24209600  1
  O  O47  1  0.78527300  0.35501100  0.33747400  1
  O  O48  1  0.94731800  0.62544100  0.27723200  1
  O  O49  1  0.84875100  0.96979900  0.19961500  1
  O  O50  1  0.36605500  0.19804900  0.50705400  1
  O  O51  1  0.17300000  0.89058300  0.34287500  1
  O  O52  1  0.46567400  0.64699200  0.40919800  1
  O  O53  1  0.90833700  0.03722600  0.54804900  1
  O  O54  1  0.80332500  0.37776200  0.47044300  1
  O  O55  1  0.96458500  0.64789300  0.40995400  1
  O  O56  1  0.05214600  0.35319700  0.58803900  1
  O  O57  1  0.22392100  0.61828400  0.52504700  1
  O  O58  1  0.10183100  0.96968200  0.44836500  1
  O  O59  1  0.55103900  0.35666800  0.58737500  1
  O  O60  1  0.83375800  0.11218700  0.65498500  1
  O  O61  1  0.64057100  0.80326300  0.48944400  1
  O  O62  1  0.15551300  0.03657500  0.79930000  1
  O  O63  1  0.04476400  0.37882900  0.72210900  1
  O  O64  1  0.20060900  0.64933100  0.66089600  1
  O  O65  1  0.61209300  0.19886600  0.75776800  1
  O  O66  1  0.40106600  0.89687500  0.59484500  1
  O  O67  1  0.70080300  0.64685700  0.66162300  1
  O  O68  1  0.08201300  0.10993400  0.90605800  1
  O  O69  1  0.30033700  0.35207200  0.83921400  1
  O  O70  1  0.47124000  0.61837300  0.77642100  1
  O  O71  1  0.34629900  0.97063100  0.70013900  1
  O  O72  1  0.79892300  0.35577300  0.83848800  1
  O  O73  1  0.88457400  0.80460300  0.74085900  1
  O  O74  1  0.29361000  0.37679100  0.97286500  1
  O  O75  1  0.45114200  0.64812200  0.91233100  1
  O  O76  1  0.64992500  0.89638600  0.84618800  1
  O  O77  1  0.95073000  0.64823200  0.91326100  1
  O  O78  1  0.13594500  0.80010700  0.99335500  1
  O  O79  1  0.59319100  0.97081100  0.95142300  1
