# generated using pymatgen
data_Li2Mn3(BO3)3
_symmetry_space_group_name_H-M   'P 1'
_cell_length_a   5.22815400
_cell_length_b   6.14799023
_cell_length_c   11.99016150
_cell_angle_alpha   84.17619139
_cell_angle_beta   78.74787800
_cell_angle_gamma   86.59313817
_symmetry_Int_Tables_number   1
_chemical_formula_structural   Li2Mn3(BO3)3
_chemical_formula_sum   'Li4 Mn6 B6 O18'
_cell_volume   375.72621429
_cell_formula_units_Z   2
loop_
 _symmetry_equiv_pos_site_id
 _symmetry_equiv_pos_as_xyz
  1  'x, y, z'
loop_
 _atom_site_type_symbol
 _atom_site_label
 _atom_site_symmetry_multiplicity
 _atom_site_fract_x
 _atom_site_fract_y
 _atom_site_fract_z
 _atom_site_occupancy
  Li  Li0  1  0.04152400  0.41174400  0.09895800  1
  Li  Li1  1  0.37155500  0.76584100  0.42369600  1
  Li  Li2  1  0.96277800  0.59166600  0.89791900  1
  Li  Li3  1  0.69326500  0.10098800  0.75646100  1
  Mn  Mn4  1  0.59747900  0.24986700  0.99979600  1
  Mn  Mn5  1  0.94703900  0.57651800  0.32509100  1
  Mn  Mn6  1  0.26945000  0.91231900  0.66120300  1
  Mn  Mn7  1  0.74269300  0.08815800  0.33469700  1
  Mn  Mn8  1  0.06734200  0.42309500  0.66475200  1
  Mn  Mn9  1  0.39667100  0.76910100  0.00890500  1
  B  B10  1  0.84002900  0.83652600  0.11511000  1
  B  B11  1  0.48412900  0.47783600  0.22436000  1
  B  B12  1  0.82059400  0.80663900  0.55408200  1
  B  B13  1  0.17999400  0.18624800  0.44514100  1
  B  B14  1  0.51559800  0.53812100  0.78174000  1
  B  B15  1  0.15765600  0.14893000  0.88417600  1
  O  O16  1  0.61390100  0.94211300  0.09436000  1
  O  O17  1  0.99878100  0.72110100  0.03380300  1
  O  O18  1  0.39696400  0.44946900  0.12536200  1
  O  O19  1  0.90323400  0.84490200  0.22374700  1
  O  O20  1  0.33174900  0.57737400  0.31289600  1
  O  O21  1  0.74296600  0.40799500  0.23285300  1
  O  O22  1  0.07867400  0.73855300  0.56509200  1
  O  O23  1  0.74364500  0.77762500  0.45235400  1
  O  O24  1  0.66135000  0.90601300  0.64129400  1
  O  O25  1  0.34243700  0.07363600  0.36792900  1
  O  O26  1  0.21427000  0.18179600  0.55907700  1
  O  O27  1  0.95064200  0.29644800  0.41946400  1
  O  O28  1  0.26317000  0.62683500  0.76269000  1
  O  O29  1  0.66316900  0.41476900  0.70386500  1
  O  O30  1  0.06732000  0.10880600  0.78580100  1
  O  O31  1  0.58847700  0.56714500  0.88451700  1
  O  O32  1  0.00828500  0.27379200  0.96413300  1
  O  O33  1  0.40738300  0.07268200  0.89635100  1
