# generated using pymatgen
data_LiMnVP2(HO5)2
_symmetry_space_group_name_H-M   'P 1'
_cell_length_a   5.24430400
_cell_length_b   7.35176103
_cell_length_c   10.12545201
_cell_angle_alpha   103.31881179
_cell_angle_beta   99.32007668
_cell_angle_gamma   103.92782744
_symmetry_Int_Tables_number   1
_chemical_formula_structural   LiMnVP2(HO5)2
_chemical_formula_sum   'Li2 Mn2 V2 P4 H4 O20'
_cell_volume   358.81628576
_cell_formula_units_Z   2
loop_
 _symmetry_equiv_pos_site_id
 _symmetry_equiv_pos_as_xyz
  1  'x, y, z'
loop_
 _atom_site_type_symbol
 _atom_site_label
 _atom_site_symmetry_multiplicity
 _atom_site_fract_x
 _atom_site_fract_y
 _atom_site_fract_z
 _atom_site_occupancy
  Li  Li0  1  0.35390200  0.12923300  0.27866900  1
  Li  Li1  1  0.64609800  0.87076700  0.72133100  1
  Mn  Mn2  1  0.00000000  0.00000000  0.00000000  1
  Mn  Mn3  1  0.50000000  0.50000000  0.50000000  1
  V  V4  1  0.74829000  0.74345000  0.24986900  1
  V  V5  1  0.25171000  0.25655000  0.75013100  1
  P  P6  1  0.61757900  0.28758200  0.06242300  1
  P  P7  1  0.88790200  0.20456900  0.43660300  1
  P  P8  1  0.11209800  0.79543100  0.56339700  1
  P  P9  1  0.38242100  0.71241800  0.93757700  1
  H  H10  1  0.15036200  0.79493800  0.14151700  1
  H  H11  1  0.32892500  0.67903300  0.34695300  1
  H  H12  1  0.67107500  0.32096700  0.65304700  1
  H  H13  1  0.84963800  0.20506200  0.85848300  1
  O  O14  1  0.80149500  0.15914500  0.08875100  1
  O  O15  1  0.35953000  0.22293600  0.11150500  1
  O  O16  1  0.43645500  0.72004700  0.09544600  1
  O  O17  1  0.77693600  0.50358300  0.14987500  1
  O  O18  1  0.15402600  0.25994600  0.39359300  1
  O  O19  1  0.03236400  0.88061100  0.16314100  1
  O  O20  1  0.70742500  0.33607700  0.40859600  1
  O  O21  1  0.48142500  0.62063400  0.34460000  1
  O  O22  1  0.28906200  0.00510000  0.65416900  1
  O  O23  1  0.06545000  0.78454000  0.40433400  1
  O  O24  1  0.93455000  0.21546000  0.59566600  1
  O  O25  1  0.71093800  0.99490000  0.34583100  1
  O  O26  1  0.51857500  0.37936600  0.65540000  1
  O  O27  1  0.29257500  0.66392300  0.59140400  1
  O  O28  1  0.96763600  0.11938900  0.83685900  1
  O  O29  1  0.84597400  0.74005400  0.60640700  1
  O  O30  1  0.22306400  0.49641700  0.85012500  1
  O  O31  1  0.56354500  0.27995300  0.90455400  1
  O  O32  1  0.64047000  0.77706400  0.88849500  1
  O  O33  1  0.19850500  0.84085500  0.91124900  1
