# generated using pymatgen
data_Li2Mn2Si4O11
_symmetry_space_group_name_H-M   'P 1'
_cell_length_a   7.07635100
_cell_length_b   7.69949514
_cell_length_c   9.76717303
_cell_angle_alpha   97.82287832
_cell_angle_beta   101.82890288
_cell_angle_gamma   111.23231636
_symmetry_Int_Tables_number   1
_chemical_formula_structural   Li2Mn2Si4O11
_chemical_formula_sum   'Li4 Mn4 Si8 O22'
_cell_volume   472.42045008
_cell_formula_units_Z   2
loop_
 _symmetry_equiv_pos_site_id
 _symmetry_equiv_pos_as_xyz
  1  'x, y, z'
loop_
 _atom_site_type_symbol
 _atom_site_label
 _atom_site_symmetry_multiplicity
 _atom_site_fract_x
 _atom_site_fract_y
 _atom_site_fract_z
 _atom_site_occupancy
  Li  Li0  1  0.09391100  0.40929500  0.55900400  1
  Li  Li1  1  0.61508000  0.38975300  0.55406000  1
  Li  Li2  1  0.38492000  0.61024700  0.44594000  1
  Li  Li3  1  0.90608900  0.59070500  0.44099600  1
  Mn  Mn4  1  0.33202200  0.21272000  0.75931200  1
  Mn  Mn5  1  0.89074000  0.34137200  0.78632100  1
  Mn  Mn6  1  0.10926000  0.65862800  0.21367900  1
  Mn  Mn7  1  0.66797800  0.78728000  0.24068800  1
  Si  Si8  1  0.75169100  0.62933500  0.94736400  1
  Si  Si9  1  0.04592400  0.76919600  0.76073000  1
  Si  Si10  1  0.47644300  0.77999600  0.76293400  1
  Si  Si11  1  0.21659000  0.02922800  0.40085100  1
  Si  Si12  1  0.78341000  0.97077200  0.59914900  1
  Si  Si13  1  0.52355700  0.22000400  0.23706600  1
  Si  Si14  1  0.95407600  0.23080400  0.23927000  1
  Si  Si15  1  0.24830900  0.37066500  0.05263600  1
  O  O16  1  0.18885800  0.35176900  0.87943200  1
  O  O17  1  0.59870500  0.74492300  0.91367900  1
  O  O18  1  0.65695600  0.40849100  0.85128300  1
  O  O19  1  0.97854600  0.74675400  0.91145300  1
  O  O20  1  0.30622200  0.86736100  0.80514800  1
  O  O21  1  0.64255700  0.96468200  0.71821500  1
  O  O22  1  0.34543900  0.18735900  0.54964700  1
  O  O23  1  0.38035300  0.59162900  0.63738000  1
  O  O24  1  0.87572900  0.19122500  0.58899000  1
  O  O25  1  0.99170400  0.93500700  0.69080000  1
  O  O26  1  0.93431400  0.56208600  0.65013200  1
  O  O27  1  0.06568600  0.43791400  0.34986800  1
  O  O28  1  0.00829600  0.06499300  0.30920000  1
  O  O29  1  0.12427100  0.80877500  0.41101000  1
  O  O30  1  0.61964700  0.40837100  0.36262000  1
  O  O31  1  0.65456100  0.81264100  0.45035300  1
  O  O32  1  0.35744300  0.03531800  0.28178500  1
  O  O33  1  0.69377800  0.13263900  0.19485200  1
  O  O34  1  0.02145400  0.25324600  0.08854700  1
  O  O35  1  0.34304400  0.59150900  0.14871700  1
  O  O36  1  0.40129500  0.25507700  0.08632100  1
  O  O37  1  0.81114200  0.64823100  0.12056800  1
