# generated using pymatgen
data_Li2CrSi3O8
_symmetry_space_group_name_H-M   'P 1'
_cell_length_a   6.63961816
_cell_length_b   8.13304500
_cell_length_c   7.01104922
_cell_angle_alpha   89.99876098
_cell_angle_beta   110.57200208
_cell_angle_gamma   90.00315783
_symmetry_Int_Tables_number   1
_chemical_formula_structural   Li2CrSi3O8
_chemical_formula_sum   'Li4 Cr2 Si6 O16'
_cell_volume   354.45611740
_cell_formula_units_Z   2
loop_
 _symmetry_equiv_pos_site_id
 _symmetry_equiv_pos_as_xyz
  1  'x, y, z'
loop_
 _atom_site_type_symbol
 _atom_site_label
 _atom_site_symmetry_multiplicity
 _atom_site_fract_x
 _atom_site_fract_y
 _atom_site_fract_z
 _atom_site_occupancy
  Li  Li0  1  0.80372400  0.33315200  0.24154300  1
  Li  Li1  1  0.19641700  0.83312700  0.75848700  1
  Li  Li2  1  0.60731600  0.81220500  0.57141000  1
  Li  Li3  1  0.39262300  0.31221500  0.42848400  1
  Cr  Cr4  1  0.98378800  0.49337600  0.64012000  1
  Cr  Cr5  1  0.01613600  0.99345200  0.36004800  1
  Si  Si6  1  0.40598000  0.53782200  0.05898000  1
  Si  Si7  1  0.59405900  0.03784300  0.94102100  1
  Si  Si8  1  0.22869700  0.17413100  0.04445800  1
  Si  Si9  1  0.77130000  0.67415700  0.95551300  1
  Si  Si10  1  0.19299700  0.65485000  0.34252100  1
  Si  Si11  1  0.80696000  0.15485600  0.65744400  1
  O  O12  1  0.99821000  0.72239000  0.13435200  1
  O  O13  1  0.00178800  0.22232000  0.86563000  1
  O  O14  1  0.34123200  0.04143000  0.93228000  1
  O  O15  1  0.65879900  0.54141800  0.06771400  1
  O  O16  1  0.37673400  0.34168300  0.09723000  1
  O  O17  1  0.62323500  0.84169200  0.90274200  1
  O  O18  1  0.76316200  0.10907400  0.14655100  1
  O  O19  1  0.23693100  0.60911000  0.85352300  1
  O  O20  1  0.40620600  0.63179100  0.26919300  1
  O  O21  1  0.59377200  0.13185200  0.73078100  1
  O  O22  1  0.22444000  0.11614000  0.26015000  1
  O  O23  1  0.77553600  0.61616200  0.73984700  1
  O  O24  1  0.13489800  0.47759500  0.41997300  1
  O  O25  1  0.86508100  0.97759800  0.58003600  1
  O  O26  1  0.24333200  0.80943700  0.49974200  1
  O  O27  1  0.75664600  0.30942500  0.50022900  1
