# generated using pymatgen
data_Li3V4(OF3)3
_symmetry_space_group_name_H-M   'P 1'
_cell_length_a   5.22852800
_cell_length_b   5.52710580
_cell_length_c   17.28596906
_cell_angle_alpha   87.52335496
_cell_angle_beta   98.25199942
_cell_angle_gamma   117.99787498
_symmetry_Int_Tables_number   1
_chemical_formula_structural   Li3V4(OF3)3
_chemical_formula_sum   'Li6 V8 O6 F18'
_cell_volume   436.34333631
_cell_formula_units_Z   2
loop_
 _symmetry_equiv_pos_site_id
 _symmetry_equiv_pos_as_xyz
  1  'x, y, z'
loop_
 _atom_site_type_symbol
 _atom_site_label
 _atom_site_symmetry_multiplicity
 _atom_site_fract_x
 _atom_site_fract_y
 _atom_site_fract_z
 _atom_site_occupancy
  Li  Li0  1  0.34240800  0.60033600  0.05893100  1
  Li  Li1  1  0.56602400  0.69594100  0.42484900  1
  Li  Li2  1  0.79948500  0.84064500  0.79634800  1
  Li  Li3  1  0.84121500  0.35843300  0.31203400  1
  Li  Li4  1  0.66488600  0.38033100  0.94467100  1
  Li  Li5  1  0.28753900  0.05140300  0.55132600  1
  V  V6  1  0.49591100  0.73171500  0.24345300  1
  V  V7  1  0.74204000  0.84927500  0.62844100  1
  V  V8  1  0.27451800  0.66357000  0.86857900  1
  V  V9  1  0.00235200  0.49096900  0.49285800  1
  V  V10  1  0.71772700  0.37619900  0.12493400  1
  V  V11  1  0.50360100  0.25060100  0.74735200  1
  V  V12  1  0.03196800  0.02844900  0.00364300  1
  V  V13  1  0.21406300  0.09758200  0.38040500  1
  O  O14  1  0.55612500  0.59058700  0.15677000  1
  O  O15  1  0.55309400  0.56522100  0.69209200  1
  O  O16  1  0.07778500  0.34374600  0.40617700  1
  O  O17  1  0.50990000  0.95229100  0.81275200  1
  O  O18  1  0.98246100  0.79002400  0.43869300  1
  O  O19  1  0.43452300  0.24888900  0.03013200  1
  F  F20  1  0.91641900  0.97665500  0.28198800  1
  F  F21  1  0.45053400  0.72548800  0.52718800  1
  F  F22  1  0.44035100  0.90417800  0.34286200  1
  F  F23  1  0.93535000  0.17137700  0.08985700  1
  F  F24  1  0.57221600  0.79366900  0.97127900  1
  F  F25  1  0.04242100  0.51209100  0.22078300  1
  F  F26  1  0.00547100  0.18196400  0.56542800  1
  F  F27  1  0.01163000  0.68608900  0.05772100  1
  F  F28  1  0.01708100  0.35390500  0.94209100  1
  F  F29  1  0.48874100  0.05529800  0.18985800  1
  F  F30  1  0.94306400  0.46355800  0.78650200  1
  F  F31  1  0.97162100  0.68401800  0.59070900  1
  F  F32  1  0.54800100  0.07733200  0.64893400  1
  F  F33  1  0.04093900  0.85416700  0.90343900  1
  F  F34  1  0.54758800  0.26327700  0.47529000  1
  F  F35  1  0.51244100  0.43400500  0.31766400  1
  F  F36  1  0.47179100  0.43394400  0.84830200  1
  F  F37  1  0.06422300  0.04071800  0.72317600  1
