# generated using pymatgen
data_LiVSiO4
_symmetry_space_group_name_H-M   'P 1'
_cell_length_a   5.41473211
_cell_length_b   9.37670919
_cell_length_c   12.46377900
_cell_angle_alpha   89.99988980
_cell_angle_beta   89.99962105
_cell_angle_gamma   89.97718500
_symmetry_Int_Tables_number   1
_chemical_formula_structural   LiVSiO4
_chemical_formula_sum   'Li6 V6 Si6 O24'
_cell_volume   632.81552749
_cell_formula_units_Z   6
loop_
 _symmetry_equiv_pos_site_id
 _symmetry_equiv_pos_as_xyz
  1  'x, y, z'
loop_
 _atom_site_type_symbol
 _atom_site_label
 _atom_site_symmetry_multiplicity
 _atom_site_fract_x
 _atom_site_fract_y
 _atom_site_fract_z
 _atom_site_occupancy
  Li  Li0  1  0.99999800  0.00000000  0.99992900  1
  Li  Li1  1  0.50000000  0.50000000  0.99996100  1
  Li  Li2  1  0.99999900  0.00000000  0.33333200  1
  Li  Li3  1  0.49999900  0.50000000  0.33332100  1
  Li  Li4  1  0.99999900  0.00000000  0.66668000  1
  Li  Li5  1  0.50000000  0.50000100  0.66666300  1
  V  V6  1  0.25001100  0.24999600  0.16679600  1
  V  V7  1  0.74999600  0.75000100  0.16679700  1
  V  V8  1  0.99999500  0.50000100  0.49987600  1
  V  V9  1  0.74989600  0.25004600  0.83327900  1
  V  V10  1  0.25010100  0.74995400  0.83327800  1
  V  V11  1  0.49999100  0.00000400  0.49981500  1
  Si  Si12  1  0.75001500  0.24999500  0.33336800  1
  Si  Si13  1  0.24998500  0.75000400  0.33336900  1
  Si  Si14  1  0.24985700  0.24994500  0.66663200  1
  Si  Si15  1  0.75013700  0.75006500  0.66663200  1
  Si  Si16  1  0.50000400  0.99999900  0.99996300  1
  Si  Si17  1  0.00000200  0.49999900  0.99996900  1
  O  O18  1  0.78909800  0.39432000  0.40611100  1
  O  O19  1  0.28911300  0.89437500  0.40610200  1
  O  O20  1  0.80309600  0.40831600  0.92721100  1
  O  O21  1  0.30310000  0.90834400  0.92720900  1
  O  O22  1  0.98624600  0.19700200  0.26081800  1
  O  O23  1  0.48613700  0.69703700  0.26078700  1
  O  O24  1  0.01384800  0.19693900  0.73927200  1
  O  O25  1  0.51401000  0.69709800  0.73924700  1
  O  O26  1  0.19688400  0.40820800  0.07265800  1
  O  O27  1  0.69688000  0.90821100  0.07264600  1
  O  O28  1  0.21062100  0.39435500  0.59404600  1
  O  O29  1  0.71070500  0.89447300  0.59405800  1
  O  O30  1  0.28930600  0.10552400  0.59406300  1
  O  O31  1  0.78938900  0.60563400  0.59405700  1
  O  O32  1  0.30312000  0.09178500  0.07264500  1
  O  O33  1  0.80311500  0.59179000  0.07265700  1
  O  O34  1  0.48598300  0.30290600  0.73924500  1
  O  O35  1  0.98615000  0.80306400  0.73927200  1
  O  O36  1  0.51386300  0.30296200  0.26078700  1
  O  O37  1  0.01375700  0.80299800  0.26081900  1
  O  O38  1  0.69689900  0.09165900  0.92720700  1
  O  O39  1  0.19690400  0.59168400  0.92721100  1
  O  O40  1  0.71088800  0.10562600  0.40610100  1
  O  O41  1  0.21090200  0.60568000  0.40611000  1
