# generated using pymatgen
data_Li7Fe3Ni(PO4)6
_symmetry_space_group_name_H-M   'P 1'
_cell_length_a   8.66528190
_cell_length_b   8.66528190
_cell_length_c   8.66528166
_cell_angle_alpha   61.15372303
_cell_angle_beta   61.15372303
_cell_angle_gamma   61.15372428
_symmetry_Int_Tables_number   1
_chemical_formula_structural   Li7Fe3Ni(PO4)6
_chemical_formula_sum   'Li7 Fe3 Ni1 P6 O24'
_cell_volume   472.02351640
_cell_formula_units_Z   1
loop_
 _symmetry_equiv_pos_site_id
 _symmetry_equiv_pos_as_xyz
  1  'x, y, z'
loop_
 _atom_site_type_symbol
 _atom_site_label
 _atom_site_symmetry_multiplicity
 _atom_site_fract_x
 _atom_site_fract_y
 _atom_site_fract_z
 _atom_site_occupancy
  Li  Li0  1  0.56161200  0.29888200  0.75757200  1
  Li  Li1  1  0.29888200  0.75757200  0.56161200  1
  Li  Li2  1  0.15466300  0.33917700  0.79577300  1
  Li  Li3  1  0.75757200  0.56161200  0.29888200  1
  Li  Li4  1  0.79577300  0.15466300  0.33917700  1
  Li  Li5  1  0.33917700  0.79577300  0.15466300  1
  Li  Li6  1  0.00981100  0.00981100  0.00981100  1
  Fe  Fe7  1  0.64628000  0.64628000  0.64628000  1
  Fe  Fe8  1  0.86053300  0.86053300  0.86053300  1
  Fe  Fe9  1  0.35485500  0.35485500  0.35485500  1
  Ni  Ni10  1  0.14860200  0.14860200  0.14860200  1
  P  P11  1  0.25291900  0.54413900  0.95300100  1
  P  P12  1  0.95300100  0.25291900  0.54413900  1
  P  P13  1  0.54413900  0.95300100  0.25291900  1
  P  P14  1  0.45295500  0.04064400  0.75350400  1
  P  P15  1  0.04064400  0.75350400  0.45295500  1
  P  P16  1  0.75350400  0.45295500  0.04064400  1
  O  O17  1  0.08736000  0.72884700  0.94347600  1
  O  O18  1  0.41081400  0.57254300  0.75897400  1
  O  O19  1  0.21529200  0.37972900  0.96801000  1
  O  O20  1  0.11067200  0.31765800  0.49792900  1
  O  O21  1  0.94347600  0.08736000  0.72884700  1
  O  O22  1  0.75897400  0.41081400  0.57254300  1
  O  O23  1  0.49792900  0.11067200  0.31765800  1
  O  O24  1  0.57254300  0.75897400  0.41081400  1
  O  O25  1  0.61959200  0.02749700  0.78934900  1
  O  O26  1  0.27797500  0.03027000  0.93167800  1
  O  O27  1  0.31765800  0.49792900  0.11067200  1
  O  O28  1  0.02749700  0.78934900  0.61959200  1
  O  O29  1  0.96801000  0.21529200  0.37972900  1
  O  O30  1  0.68597300  0.50323200  0.88498900  1
  O  O31  1  0.72884700  0.94347600  0.08736000  1
  O  O32  1  0.37972900  0.96801000  0.21529200  1
  O  O33  1  0.39853900  0.24032900  0.61256300  1
  O  O34  1  0.50323200  0.88498900  0.68597300  1
  O  O35  1  0.24032900  0.61256300  0.39853900  1
  O  O36  1  0.88498900  0.68597300  0.50323200  1
  O  O37  1  0.03027000  0.93167800  0.27797500  1
  O  O38  1  0.78934900  0.61959200  0.02749700  1
  O  O39  1  0.61256300  0.39853900  0.24032900  1
  O  O40  1  0.93167800  0.27797500  0.03027000  1
