# generated using pymatgen
data_Li3V(BO3)2
_symmetry_space_group_name_H-M   'P 1'
_cell_length_a   5.06273304
_cell_length_b   8.09038042
_cell_length_c   13.33418598
_cell_angle_alpha   107.21017436
_cell_angle_beta   89.36732167
_cell_angle_gamma   91.83307553
_symmetry_Int_Tables_number   1
_chemical_formula_structural   Li3V(BO3)2
_chemical_formula_sum   'Li12 V4 B8 O24'
_cell_volume   521.43916073
_cell_formula_units_Z   4
loop_
 _symmetry_equiv_pos_site_id
 _symmetry_equiv_pos_as_xyz
  1  'x, y, z'
loop_
 _atom_site_type_symbol
 _atom_site_label
 _atom_site_symmetry_multiplicity
 _atom_site_fract_x
 _atom_site_fract_y
 _atom_site_fract_z
 _atom_site_occupancy
  Li  Li0  1  0.84132600  0.24337000  0.12670300  1
  Li  Li1  1  0.84132000  0.74324600  0.62669800  1
  Li  Li2  1  0.15861700  0.25673700  0.37328200  1
  Li  Li3  1  0.15871700  0.75665000  0.87330300  1
  Li  Li4  1  0.66389200  0.62521700  0.19986600  1
  Li  Li5  1  0.66385000  0.12511100  0.69976200  1
  Li  Li6  1  0.33617200  0.87490500  0.30025100  1
  Li  Li7  1  0.33612900  0.37478600  0.80013300  1
  Li  Li8  1  0.85142700  0.96120300  0.23522200  1
  Li  Li9  1  0.85141000  0.46103600  0.73511000  1
  Li  Li10  1  0.14859300  0.53896000  0.26488900  1
  Li  Li11  1  0.14861500  0.03879000  0.76476100  1
  V  V12  1  0.63604900  0.30889700  0.52627300  1
  V  V13  1  0.36384800  0.69107800  0.47376500  1
  V  V14  1  0.63637100  0.80898700  0.02623600  1
  V  V15  1  0.36368500  0.19104600  0.97377400  1
  B  B16  1  0.15887700  0.69076200  0.09257600  1
  B  B17  1  0.15874300  0.19061200  0.59244000  1
  B  B18  1  0.84121300  0.80936200  0.40754100  1
  B  B19  1  0.84116200  0.30924800  0.90742600  1
  B  B20  1  0.66636500  0.41106000  0.33440600  1
  B  B21  1  0.66630100  0.91103300  0.83436600  1
  B  B22  1  0.33373900  0.08897800  0.16562600  1
  B  B23  1  0.33359000  0.58893400  0.66561200  1
  O  O24  1  0.71697400  0.78738400  0.49774400  1
  O  O25  1  0.71696500  0.28726000  0.99763100  1
  O  O26  1  0.28308300  0.71276500  0.00237600  1
  O  O27  1  0.28294600  0.21253800  0.50221900  1
  O  O28  1  0.20983000  0.17604000  0.10372600  1
  O  O29  1  0.20973000  0.67601000  0.60371900  1
  O  O30  1  0.79018900  0.32399200  0.39631300  1
  O  O31  1  0.79021400  0.82398300  0.89627100  1
  O  O32  1  0.88636500  0.71707400  0.10323500  1
  O  O33  1  0.88625700  0.21704500  0.60316000  1
  O  O34  1  0.11371700  0.78293700  0.39684200  1
  O  O35  1  0.11367200  0.28293200  0.89675900  1
  O  O36  1  0.29923500  0.65519700  0.16943200  1
  O  O37  1  0.29919500  0.15510700  0.66929700  1
  O  O38  1  0.70083600  0.84492100  0.33068700  1
  O  O39  1  0.70078500  0.34480000  0.83057000  1
  O  O40  1  0.78939200  0.43963400  0.25031500  1
  O  O41  1  0.78928300  0.93955400  0.75024800  1
  O  O42  1  0.21074000  0.06043900  0.24973500  1
  O  O43  1  0.21059400  0.56036300  0.74970300  1
  O  O44  1  0.59527900  0.03309900  0.13559900  1
  O  O45  1  0.59513900  0.53308300  0.63558900  1
  O  O46  1  0.40480100  0.46691500  0.36441400  1
  O  O47  1  0.40476500  0.96692000  0.86439300  1
