# generated using pymatgen
data_Li3V3P8O29
_symmetry_space_group_name_H-M   'P 1'
_cell_length_a   9.74742900
_cell_length_b   9.75773199
_cell_length_c   14.25629811
_cell_angle_alpha   89.62550357
_cell_angle_beta   89.52556201
_cell_angle_gamma   60.17172994
_symmetry_Int_Tables_number   1
_chemical_formula_structural   Li3V3P8O29
_chemical_formula_sum   'Li6 V6 P16 O58'
_cell_volume   1176.27461113
_cell_formula_units_Z   2
loop_
 _symmetry_equiv_pos_site_id
 _symmetry_equiv_pos_as_xyz
  1  'x, y, z'
loop_
 _atom_site_type_symbol
 _atom_site_label
 _atom_site_symmetry_multiplicity
 _atom_site_fract_x
 _atom_site_fract_y
 _atom_site_fract_z
 _atom_site_occupancy
  Li  Li0  1  0.32346200  0.90665300  0.04786100  1
  Li  Li1  1  0.90857000  0.77033400  0.05151300  1
  Li  Li2  1  0.21625700  0.08223500  0.44947000  1
  Li  Li3  1  0.77276500  0.91480000  0.56697100  1
  Li  Li4  1  0.08707000  0.69208800  0.45310000  1
  Li  Li5  1  0.97284100  0.04730700  0.98638800  1
  V  V6  1  0.43831900  0.99686200  0.24972800  1
  V  V7  1  0.56241700  0.00850800  0.75465000  1
  V  V8  1  0.99935000  0.43014600  0.75199400  1
  V  V9  1  0.00135300  0.55904100  0.24572600  1
  V  V10  1  0.56709500  0.43532500  0.24921000  1
  V  V11  1  0.43765700  0.56115400  0.74846300  1
  P  P12  1  0.77539700  0.30414200  0.84014600  1
  P  P13  1  0.91239100  0.31226900  0.33976700  1
  P  P14  1  0.31318800  0.77025400  0.34271200  1
  P  P15  1  0.66570800  0.66882700  0.13153900  1
  P  P16  1  0.66980000  0.67048300  0.63231900  1
  P  P17  1  0.31342300  0.90799600  0.83838200  1
  P  P18  1  0.22800000  0.08947500  0.66047300  1
  P  P19  1  0.91251700  0.77456600  0.84168000  1
  P  P20  1  0.08586300  0.21842100  0.15617500  1
  P  P21  1  0.77318300  0.90611600  0.34467300  1
  P  P22  1  0.69418800  0.08576700  0.16433800  1
  P  P23  1  0.33198700  0.33276200  0.36568400  1
  P  P24  1  0.32860800  0.33715900  0.86931900  1
  P  P25  1  0.69119200  0.22657900  0.65491100  1
  P  P26  1  0.09154900  0.68106000  0.66298600  1
  P  P27  1  0.22666700  0.69179600  0.15847000  1
  O  O28  1  0.76945300  0.22692400  0.56665500  1
  O  O29  1  0.74121100  0.34304300  0.33279600  1
  O  O30  1  0.01077000  0.20378900  0.07062700  1
  O  O31  1  0.91105000  0.34511300  0.83138600  1
  O  O32  1  0.61519200  0.45948100  0.83007200  1
  O  O33  1  0.67079500  0.51970100  0.17632000  1
  O  O34  1  0.47400200  0.61784900  0.32280400  1
  O  O35  1  0.21864000  0.78847100  0.07584300  1
  O  O36  1  0.34829600  0.73617600  0.83018300  1
  O  O37  1  0.81987100  0.52754400  0.67942800  1
  O  O38  1  0.90497200  0.47465400  0.31726800  1
  O  O39  1  0.52888600  0.65832400  0.67874400  1
  O  O40  1  0.65764800  0.68207600  0.02798600  1
  O  O41  1  0.67489700  0.66789300  0.52831500  1
  O  O42  1  0.51127500  0.81533200  0.17519700  1
  O  O43  1  0.91560700  0.61632700  0.83107800  1
  O  O44  1  0.81475700  0.67514000  0.17033400  1
  O  O45  1  0.33826600  0.91640300  0.33886700  1
  O  O46  1  0.20606400  0.99765200  0.74902500  1
  O  O47  1  0.23658000  0.00888000  0.57136600  1
  O  O48  1  0.22821600  0.98330500  0.92744200  1
  O  O49  1  0.47057900  0.91123800  0.82581100  1
  O  O50  1  0.66415400  0.82346100  0.67153400  1
  O  O51  1  0.26132400  0.08132000  0.16514200  1
  O  O52  1  0.62062500  0.89843700  0.31955500  1
  O  O53  1  0.92114800  0.73867500  0.33343000  1
  O  O54  1  0.00030600  0.20264400  0.24946400  1
  O  O55  1  0.00276300  0.23747600  0.42521800  1
  O  O56  1  0.00197100  0.76203100  0.57555100  1
  O  O57  1  0.08392000  0.25868700  0.66857200  1
  O  O58  1  0.38026600  0.09746800  0.68071600  1
  O  O59  1  0.74018400  0.91396700  0.82992200  1
  O  O60  1  0.33541000  0.18044200  0.32465600  1
  O  O61  1  0.53456100  0.08410500  0.17597200  1
  O  O62  1  0.79172000  0.99398200  0.08306700  1
  O  O63  1  0.76250600  0.97621400  0.43756300  1
  O  O64  1  0.78819400  0.01004300  0.26143400  1
  O  O65  1  0.65863800  0.08431600  0.66368200  1
  O  O66  1  0.18407100  0.33207700  0.82551000  1
  O  O67  1  0.08387400  0.37960800  0.17079600  1
  O  O68  1  0.48084600  0.18670900  0.82537200  1
  O  O69  1  0.33196200  0.33199900  0.97304600  1
  O  O70  1  0.32129200  0.33923500  0.46907700  1
  O  O71  1  0.47582400  0.33804800  0.32021500  1
  O  O72  1  0.09659800  0.52278700  0.67945800  1
  O  O73  1  0.18170400  0.47958000  0.31975600  1
  O  O74  1  0.65701400  0.25898500  0.16733200  1
  O  O75  1  0.79696300  0.20248300  0.74700300  1
  O  O76  1  0.79439400  0.20826300  0.92465700  1
  O  O77  1  0.53073400  0.38048500  0.67629000  1
  O  O78  1  0.33080400  0.48167000  0.82267400  1
  O  O79  1  0.38505300  0.53454700  0.17223100  1
  O  O80  1  0.08620600  0.65717400  0.16072000  1
  O  O81  1  0.98165100  0.79324900  0.93039700  1
  O  O82  1  0.00300500  0.79376200  0.75155100  1
  O  O83  1  0.26086400  0.65530000  0.66493300  1
  O  O84  1  0.23115500  0.76345500  0.42864900  1
  O  O85  1  0.20426500  0.79247100  0.25255300  1
