# generated using pymatgen
data_LiMn(SiO3)2
_symmetry_space_group_name_H-M   'P 1'
_cell_length_a   5.43510464
_cell_length_b   7.08277423
_cell_length_c   13.38512583
_cell_angle_alpha   93.68101231
_cell_angle_beta   92.84905688
_cell_angle_gamma   109.60743657
_symmetry_Int_Tables_number   1
_chemical_formula_structural   LiMn(SiO3)2
_chemical_formula_sum   'Li4 Mn4 Si8 O24'
_cell_volume   482.99564845
_cell_formula_units_Z   4
loop_
 _symmetry_equiv_pos_site_id
 _symmetry_equiv_pos_as_xyz
  1  'x, y, z'
loop_
 _atom_site_type_symbol
 _atom_site_label
 _atom_site_symmetry_multiplicity
 _atom_site_fract_x
 _atom_site_fract_y
 _atom_site_fract_z
 _atom_site_occupancy
  Li  Li0  1  0.82835800  0.15607000  0.07827700  1
  Li  Li1  1  0.32852900  0.15596200  0.57822300  1
  Li  Li2  1  0.67153200  0.84402700  0.42177900  1
  Li  Li3  1  0.17161600  0.84401600  0.92173400  1
  Mn  Mn4  1  0.63868300  0.77763300  0.88888800  1
  Mn  Mn5  1  0.86148700  0.22257100  0.61110600  1
  Mn  Mn6  1  0.13855100  0.77754700  0.38907600  1
  Mn  Mn7  1  0.36120400  0.22211400  0.11086500  1
  Si  Si8  1  0.10762300  0.19591400  0.31017000  1
  Si  Si9  1  0.60773300  0.19614200  0.81022200  1
  Si  Si10  1  0.69932000  0.37952700  0.40231700  1
  Si  Si11  1  0.19935000  0.37975900  0.90230000  1
  Si  Si12  1  0.80057600  0.62030300  0.09766500  1
  Si  Si13  1  0.30072000  0.62039900  0.59772100  1
  Si  Si14  1  0.39224800  0.80389100  0.18982300  1
  Si  Si15  1  0.89241100  0.80405800  0.68979500  1
  O  O16  1  0.01545000  0.00028200  0.37487000  1
  O  O17  1  0.51576100  0.00053600  0.87494700  1
  O  O18  1  0.64077500  0.24884100  0.49961700  1
  O  O19  1  0.14045800  0.24900900  0.99956400  1
  O  O20  1  0.85937300  0.75103700  0.00037800  1
  O  O21  1  0.35939900  0.75114000  0.50045400  1
  O  O22  1  0.48438300  0.99952700  0.12511100  1
  O  O23  1  0.98446900  0.99963900  0.62506200  1
  O  O24  1  0.42464400  0.32377700  0.33077000  1
  O  O25  1  0.92477000  0.32411400  0.83068500  1
  O  O26  1  0.93255300  0.33955300  0.33820800  1
  O  O27  1  0.43260500  0.33972200  0.83822800  1
  O  O28  1  0.56744600  0.66038000  0.16178600  1
  O  O29  1  0.06736300  0.66032700  0.66177100  1
  O  O30  1  0.07522800  0.67596900  0.16924600  1
  O  O31  1  0.57534100  0.67622200  0.66932700  1
  O  O32  1  0.06759700  0.13967700  0.18847100  1
  O  O33  1  0.56768600  0.13981200  0.68853100  1
  O  O34  1  0.80881100  0.62322500  0.43085600  1
  O  O35  1  0.30898700  0.62344700  0.93080700  1
  O  O36  1  0.69091400  0.37660300  0.06912700  1
  O  O37  1  0.19126900  0.37671000  0.56921400  1
  O  O38  1  0.43225500  0.86014900  0.31151900  1
  O  O39  1  0.93252200  0.86037100  0.81148800  1
