# generated using pymatgen
data_LiMn4(PO4)3
_symmetry_space_group_name_H-M   'P 1'
_cell_length_a   8.56627800
_cell_length_b   10.15987700
_cell_length_c   13.57957400
_cell_angle_alpha   90.00000000
_cell_angle_beta   90.00000000
_cell_angle_gamma   90.00000000
_symmetry_Int_Tables_number   1
_chemical_formula_structural   LiMn4(PO4)3
_chemical_formula_sum   'Li4 Mn16 P12 O48'
_cell_volume   1181.86197687
_cell_formula_units_Z   4
loop_
 _symmetry_equiv_pos_site_id
 _symmetry_equiv_pos_as_xyz
  1  'x, y, z'
loop_
 _atom_site_type_symbol
 _atom_site_label
 _atom_site_symmetry_multiplicity
 _atom_site_fract_x
 _atom_site_fract_y
 _atom_site_fract_z
 _atom_site_occupancy
  Li  Li0  1  0.75000000  0.29565500  0.25000000  1
  Li  Li1  1  0.75000000  0.79565500  0.25000000  1
  Li  Li2  1  0.25000000  0.70434500  0.75000000  1
  Li  Li3  1  0.25000000  0.20434500  0.75000000  1
  Mn  Mn4  1  0.09501800  0.81004300  0.04488200  1
  Mn  Mn5  1  0.40498200  0.31004300  0.04488200  1
  Mn  Mn6  1  0.41826300  0.00376500  0.14784200  1
  Mn  Mn7  1  0.08173700  0.50376500  0.14784200  1
  Mn  Mn8  1  0.41826300  0.50376500  0.35215800  1
  Mn  Mn9  1  0.08173700  0.00376500  0.35215800  1
  Mn  Mn10  1  0.09501800  0.31004300  0.45511800  1
  Mn  Mn11  1  0.40498200  0.81004300  0.45511800  1
  Mn  Mn12  1  0.59501800  0.18995700  0.54488200  1
  Mn  Mn13  1  0.90498200  0.68995700  0.54488200  1
  Mn  Mn14  1  0.58173700  0.49623500  0.64784200  1
  Mn  Mn15  1  0.91826300  0.99623500  0.64784200  1
  Mn  Mn16  1  0.58173700  0.99623500  0.85215800  1
  Mn  Mn17  1  0.91826300  0.49623500  0.85215800  1
  Mn  Mn18  1  0.59501800  0.68995700  0.95511800  1
  Mn  Mn19  1  0.90498200  0.18995700  0.95511800  1
  P  P20  1  0.75249100  0.92827600  0.07495900  1
  P  P21  1  0.74750900  0.42827600  0.07495900  1
  P  P22  1  0.25000000  0.74968300  0.25000000  1
  P  P23  1  0.25000000  0.24968300  0.25000000  1
  P  P24  1  0.74750900  0.92827600  0.42504100  1
  P  P25  1  0.75249100  0.42827600  0.42504100  1
  P  P26  1  0.24750900  0.57172400  0.57495900  1
  P  P27  1  0.25249100  0.07172400  0.57495900  1
  P  P28  1  0.75000000  0.75031700  0.75000000  1
  P  P29  1  0.75000000  0.25031700  0.75000000  1
  P  P30  1  0.24750900  0.07172400  0.92504100  1
  P  P31  1  0.25249100  0.57172400  0.92504100  1
  O  O32  1  0.15164000  0.60822000  0.01927600  1
  O  O33  1  0.34836000  0.10822000  0.01927600  1
  O  O34  1  0.66491600  0.56003900  0.05851400  1
  O  O35  1  0.83508400  0.06003900  0.05851400  1
  O  O36  1  0.86987200  0.81581600  0.09707000  1
  O  O37  1  0.63012800  0.31581600  0.09707000  1
  O  O38  1  0.63842500  0.93053900  0.16368100  1
  O  O39  1  0.86157500  0.43053900  0.16368100  1
  O  O40  1  0.26408000  0.84385600  0.15800900  1
  O  O41  1  0.23592000  0.34385600  0.15800900  1
  O  O42  1  0.10223300  0.66583600  0.23809900  1
  O  O43  1  0.39776700  0.16583600  0.23809900  1
  O  O44  1  0.10223300  0.16583600  0.26190100  1
  O  O45  1  0.39776700  0.66583600  0.26190100  1
  O  O46  1  0.26408000  0.34385600  0.34199100  1
  O  O47  1  0.23592000  0.84385600  0.34199100  1
  O  O48  1  0.86157500  0.93053900  0.33631900  1
  O  O49  1  0.63842500  0.43053900  0.33631900  1
  O  O50  1  0.86987200  0.31581600  0.40293000  1
  O  O51  1  0.63012800  0.81581600  0.40293000  1
  O  O52  1  0.83508400  0.56003900  0.44148600  1
  O  O53  1  0.66491600  0.06003900  0.44148600  1
  O  O54  1  0.34836000  0.60822000  0.48072400  1
  O  O55  1  0.15164000  0.10822000  0.48072400  1
  O  O56  1  0.65164000  0.39178000  0.51927600  1
  O  O57  1  0.84836000  0.89178000  0.51927600  1
  O  O58  1  0.16491600  0.43996100  0.55851400  1
  O  O59  1  0.33508400  0.93996100  0.55851400  1
  O  O60  1  0.13012800  0.68418400  0.59707000  1
  O  O61  1  0.36987200  0.18418400  0.59707000  1
  O  O62  1  0.13842500  0.06946100  0.66368100  1
  O  O63  1  0.36157500  0.56946100  0.66368100  1
  O  O64  1  0.73592000  0.65614400  0.65800900  1
  O  O65  1  0.76408000  0.15614400  0.65800900  1
  O  O66  1  0.60223300  0.33416400  0.73809900  1
  O  O67  1  0.89776700  0.83416400  0.73809900  1
  O  O68  1  0.60223300  0.83416400  0.76190100  1
  O  O69  1  0.89776700  0.33416400  0.76190100  1
  O  O70  1  0.73592000  0.15614400  0.84199100  1
  O  O71  1  0.76408000  0.65614400  0.84199100  1
  O  O72  1  0.13842500  0.56946100  0.83631900  1
  O  O73  1  0.36157500  0.06946100  0.83631900  1
  O  O74  1  0.13012800  0.18418400  0.90293000  1
  O  O75  1  0.36987200  0.68418400  0.90293000  1
  O  O76  1  0.16491600  0.93996100  0.94148600  1
  O  O77  1  0.33508400  0.43996100  0.94148600  1
  O  O78  1  0.65164000  0.89178000  0.98072400  1
  O  O79  1  0.84836000  0.39178000  0.98072400  1
