# generated using pymatgen
data_LiSb(PO3)4
_symmetry_space_group_name_H-M   'P 1'
_cell_length_a   8.81690200
_cell_length_b   7.24605800
_cell_length_c   16.82995378
_cell_angle_alpha   65.05630134
_cell_angle_beta   90.00000000
_cell_angle_gamma   90.00000000
_symmetry_Int_Tables_number   1
_chemical_formula_structural   LiSb(PO3)4
_chemical_formula_sum   'Li4 Sb4 P16 O48'
_cell_volume   974.93396151
_cell_formula_units_Z   4
loop_
 _symmetry_equiv_pos_site_id
 _symmetry_equiv_pos_as_xyz
  1  'x, y, z'
loop_
 _atom_site_type_symbol
 _atom_site_label
 _atom_site_symmetry_multiplicity
 _atom_site_fract_x
 _atom_site_fract_y
 _atom_site_fract_z
 _atom_site_occupancy
  Li  Li0  1  0.59877000  0.34837900  0.63637700  1
  Li  Li1  1  0.90123000  0.34837900  0.13637700  1
  Li  Li2  1  0.09877000  0.65162100  0.86362300  1
  Li  Li3  1  0.40123000  0.65162100  0.36362300  1
  Sb  Sb4  1  0.66354400  0.80440800  0.10336500  1
  Sb  Sb5  1  0.16354400  0.19559200  0.39663500  1
  Sb  Sb6  1  0.83645600  0.80440800  0.60336500  1
  Sb  Sb7  1  0.33645600  0.19559200  0.89663500  1
  P  P8  1  0.25274000  0.34368000  0.56935100  1
  P  P9  1  0.03570000  0.65491300  0.21318100  1
  P  P10  1  0.25961400  0.76560400  0.06347800  1
  P  P11  1  0.03507000  0.03979200  0.70310100  1
  P  P12  1  0.75961400  0.23439600  0.43652200  1
  P  P13  1  0.53570000  0.34508700  0.28681900  1
  P  P14  1  0.53507000  0.96020800  0.79689900  1
  P  P15  1  0.24726000  0.34368000  0.06935100  1
  P  P16  1  0.75274000  0.65632000  0.93064900  1
  P  P17  1  0.46493000  0.03979200  0.20310100  1
  P  P18  1  0.46430000  0.65491300  0.71318100  1
  P  P19  1  0.24038600  0.76560400  0.56347800  1
  P  P20  1  0.96493000  0.96020800  0.29689900  1
  P  P21  1  0.74038600  0.23439600  0.93652200  1
  P  P22  1  0.96430000  0.34508700  0.78681900  1
  P  P23  1  0.74726000  0.65632000  0.43064900  1
  O  O24  1  0.41283700  0.86645200  0.06155700  1
  O  O25  1  0.17277900  0.76026300  0.14840600  1
  O  O26  1  0.01575300  0.17030800  0.76011200  1
  O  O27  1  0.23482800  0.40366900  0.47176000  1
  O  O28  1  0.09620100  0.47513900  0.29292700  1
  O  O29  1  0.79845000  0.46634600  0.40983200  1
  O  O30  1  0.39953600  0.26380300  0.61286400  1
  O  O31  1  0.40755200  0.39119800  0.33480000  1
  O  O32  1  0.10897800  0.20218400  0.61386000  1
  O  O33  1  0.63436700  0.13465900  0.74760800  1
  O  O34  1  0.90755200  0.60880200  0.16520000  1
  O  O35  1  0.88067700  0.99667400  0.67285800  1
  O  O36  1  0.66783200  0.13275400  0.51809800  1
  O  O37  1  0.29845000  0.53365400  0.09016800  1
  O  O38  1  0.59620100  0.52486100  0.20707300  1
  O  O39  1  0.73482800  0.59633100  0.02824000  1
  O  O40  1  0.16783200  0.86724600  0.98190200  1
  O  O41  1  0.38067700  0.00332600  0.82714200  1
  O  O42  1  0.67277900  0.23973700  0.35159400  1
  O  O43  1  0.13436700  0.86534100  0.75239200  1
  O  O44  1  0.91283700  0.13354800  0.43844300  1
  O  O45  1  0.60897800  0.79781600  0.88614000  1
  O  O46  1  0.48424700  0.17030800  0.26011200  1
  O  O47  1  0.89953600  0.73619700  0.88713600  1
  O  O48  1  0.10046400  0.26380300  0.11286400  1
  O  O49  1  0.51575300  0.82969200  0.73988800  1
  O  O50  1  0.39102200  0.20218400  0.11386000  1
  O  O51  1  0.08716300  0.86645200  0.56155700  1
  O  O52  1  0.86563300  0.13465900  0.24760800  1
  O  O53  1  0.32722100  0.76026300  0.64840600  1
  O  O54  1  0.61932300  0.99667400  0.17285800  1
  O  O55  1  0.83216800  0.13275400  0.01809800  1
  O  O56  1  0.26517200  0.40366900  0.97176000  1
  O  O57  1  0.40379900  0.47513900  0.79292700  1
  O  O58  1  0.70155000  0.46634600  0.90983200  1
  O  O59  1  0.33216800  0.86724600  0.48190200  1
  O  O60  1  0.11932300  0.00332600  0.32714200  1
  O  O61  1  0.09244800  0.39119800  0.83480000  1
  O  O62  1  0.36563300  0.86534100  0.25239200  1
  O  O63  1  0.89102200  0.79781600  0.38614000  1
  O  O64  1  0.59244800  0.60880200  0.66520000  1
  O  O65  1  0.60046400  0.73619700  0.38713600  1
  O  O66  1  0.20155000  0.53365400  0.59016800  1
  O  O67  1  0.90379900  0.52486100  0.70707300  1
  O  O68  1  0.76517200  0.59633100  0.52824000  1
  O  O69  1  0.98424700  0.82969200  0.23988800  1
  O  O70  1  0.82722100  0.23973700  0.85159400  1
  O  O71  1  0.58716300  0.13354800  0.93844300  1
