# generated using pymatgen
data_Li2TiFe3O8
_symmetry_space_group_name_H-M   'P 1'
_cell_length_a   8.41236500
_cell_length_b   8.43053200
_cell_length_c   8.44696484
_cell_angle_alpha   90.01310004
_cell_angle_beta   90.03546832
_cell_angle_gamma   90.06239614
_symmetry_Int_Tables_number   1
_chemical_formula_structural   Li2TiFe3O8
_chemical_formula_sum   'Li8 Ti4 Fe12 O32'
_cell_volume   599.06427768
_cell_formula_units_Z   4
loop_
 _symmetry_equiv_pos_site_id
 _symmetry_equiv_pos_as_xyz
  1  'x, y, z'
loop_
 _atom_site_type_symbol
 _atom_site_label
 _atom_site_symmetry_multiplicity
 _atom_site_fract_x
 _atom_site_fract_y
 _atom_site_fract_z
 _atom_site_occupancy
  Li  Li0  1  0.99642300  0.99765100  0.00251700  1
  Li  Li1  1  0.25549500  0.74810900  0.75032500  1
  Li  Li2  1  0.75375500  0.75028800  0.24953800  1
  Li  Li3  1  0.49738500  0.50109700  0.99840900  1
  Li  Li4  1  0.00321500  0.49996500  0.49890900  1
  Li  Li5  1  0.74682500  0.24850100  0.74860500  1
  Li  Li6  1  0.24584100  0.25154700  0.25044100  1
  Li  Li7  1  0.50191000  0.00241900  0.50288900  1
  Ti  Ti8  1  0.37788300  0.87775200  0.13055900  1
  Ti  Ti9  1  0.87474900  0.62306900  0.87247000  1
  Ti  Ti10  1  0.62763500  0.37803600  0.37433400  1
  Ti  Ti11  1  0.12270200  0.12179400  0.63092400  1
  Fe  Fe12  1  0.62388500  0.87287100  0.87683500  1
  Fe  Fe13  1  0.86838700  0.87756500  0.62395700  1
  Fe  Fe14  1  0.11974300  0.87376800  0.37325300  1
  Fe  Fe15  1  0.62046000  0.62399000  0.62788200  1
  Fe  Fe16  1  0.37008300  0.62046100  0.37391000  1
  Fe  Fe17  1  0.12547700  0.62766100  0.12244400  1
  Fe  Fe18  1  0.37426500  0.37255000  0.62242300  1
  Fe  Fe19  1  0.12851000  0.37956200  0.87245500  1
  Fe  Fe20  1  0.87870400  0.37581900  0.12736200  1
  Fe  Fe21  1  0.38022500  0.12603900  0.87299000  1
  Fe  Fe22  1  0.63102200  0.12299100  0.12389600  1
  Fe  Fe23  1  0.87529200  0.12643200  0.37699800  1
  O  O24  1  0.39692400  0.88240500  0.88669500  1
  O  O25  1  0.61068600  0.87870600  0.10825900  1
  O  O26  1  0.88105800  0.89561800  0.38608900  1
  O  O27  1  0.85106200  0.86544400  0.86834200  1
  O  O28  1  0.11798900  0.89274500  0.61436200  1
  O  O29  1  0.63021500  0.86354000  0.64706000  1
  O  O30  1  0.36716700  0.86464200  0.35772100  1
  O  O31  1  0.14006900  0.85610800  0.12873100  1
  O  O32  1  0.63944700  0.64138400  0.87019100  1
  O  O33  1  0.86678500  0.63522300  0.64299400  1
  O  O34  1  0.13172300  0.63570000  0.35265100  1
  O  O35  1  0.61729800  0.60630600  0.38391200  1
  O  O36  1  0.35630400  0.63793000  0.13188300  1
  O  O37  1  0.38111400  0.60072700  0.61429900  1
  O  O38  1  0.11004800  0.62264800  0.89096500  1
  O  O39  1  0.89516500  0.61745100  0.11267800  1
  O  O40  1  0.60585800  0.38239400  0.61272900  1
  O  O41  1  0.38988200  0.37676700  0.39313200  1
  O  O42  1  0.11907300  0.40002500  0.11362000  1
  O  O43  1  0.14311300  0.36196000  0.63144600  1
  O  O44  1  0.88212900  0.39386800  0.88375700  1
  O  O45  1  0.36815900  0.36540800  0.85099800  1
  O  O46  1  0.63318700  0.36450200  0.14355400  1
  O  O47  1  0.86086900  0.35836800  0.37103500  1
  O  O48  1  0.35992800  0.14362500  0.62860100  1
  O  O49  1  0.13325600  0.13539400  0.85825400  1
  O  O50  1  0.86993200  0.13701800  0.14686700  1
  O  O51  1  0.38321000  0.10750000  0.11487400  1
  O  O52  1  0.64848800  0.13439000  0.36826700  1
  O  O53  1  0.61832700  0.10382200  0.88648700  1
  O  O54  1  0.89005400  0.12097200  0.60929800  1
  O  O55  1  0.10175300  0.11746900  0.38578700  1
