# generated using pymatgen
data_Li2Mn(PO4)2
_symmetry_space_group_name_H-M   'P 1'
_cell_length_a   8.95602700
_cell_length_b   9.08316300
_cell_length_c   13.43648200
_cell_angle_alpha   90.00000000
_cell_angle_beta   90.00000000
_cell_angle_gamma   90.00000000
_symmetry_Int_Tables_number   1
_chemical_formula_structural   Li2Mn(PO4)2
_chemical_formula_sum   'Li16 Mn8 P16 O64'
_cell_volume   1093.04508734
_cell_formula_units_Z   8
loop_
 _symmetry_equiv_pos_site_id
 _symmetry_equiv_pos_as_xyz
  1  'x, y, z'
loop_
 _atom_site_type_symbol
 _atom_site_label
 _atom_site_symmetry_multiplicity
 _atom_site_fract_x
 _atom_site_fract_y
 _atom_site_fract_z
 _atom_site_occupancy
  Li  Li0  1  0.78436300  0.95865700  0.37299700  1
  Li  Li1  1  0.71563700  0.95865700  0.87299700  1
  Li  Li2  1  0.04563300  0.77365900  0.37342300  1
  Li  Li3  1  0.45436700  0.77365900  0.87342300  1
  Li  Li4  1  0.95436700  0.72634100  0.87342300  1
  Li  Li5  1  0.54563300  0.72634100  0.37342300  1
  Li  Li6  1  0.28436300  0.54134300  0.37299700  1
  Li  Li7  1  0.21563700  0.54134300  0.87299700  1
  Li  Li8  1  0.78436300  0.45865700  0.12700300  1
  Li  Li9  1  0.71563700  0.45865700  0.62700300  1
  Li  Li10  1  0.45436700  0.27365900  0.62657700  1
  Li  Li11  1  0.04563300  0.27365900  0.12657700  1
  Li  Li12  1  0.95436700  0.22634100  0.62657700  1
  Li  Li13  1  0.54563300  0.22634100  0.12657700  1
  Li  Li14  1  0.21563700  0.04134300  0.62700300  1
  Li  Li15  1  0.28436300  0.04134300  0.12700300  1
  Mn  Mn16  1  0.89544600  0.86034700  0.12386500  1
  Mn  Mn17  1  0.60455400  0.86034700  0.62386500  1
  Mn  Mn18  1  0.10455400  0.63965300  0.62386500  1
  Mn  Mn19  1  0.39544600  0.63965300  0.12386500  1
  Mn  Mn20  1  0.89544600  0.36034700  0.37613500  1
  Mn  Mn21  1  0.60455400  0.36034700  0.87613500  1
  Mn  Mn22  1  0.39544600  0.13965300  0.37613500  1
  Mn  Mn23  1  0.10455400  0.13965300  0.87613500  1
  P  P24  1  0.93451700  0.92651300  0.71956500  1
  P  P25  1  0.56548300  0.92651300  0.21956500  1
  P  P26  1  0.18640800  0.84008200  0.98965500  1
  P  P27  1  0.31359200  0.84008200  0.48965500  1
  P  P28  1  0.81359200  0.65991800  0.48965500  1
  P  P29  1  0.68640800  0.65991800  0.98965500  1
  P  P30  1  0.43451700  0.57348700  0.71956500  1
  P  P31  1  0.06548300  0.57348700  0.21956500  1
  P  P32  1  0.56548300  0.42651300  0.28043500  1
  P  P33  1  0.93451700  0.42651300  0.78043500  1
  P  P34  1  0.31359200  0.34008200  0.01034500  1
  P  P35  1  0.18640800  0.34008200  0.51034500  1
  P  P36  1  0.81359200  0.15991800  0.01034500  1
  P  P37  1  0.68640800  0.15991800  0.51034500  1
  P  P38  1  0.43451700  0.07348700  0.78043500  1
  P  P39  1  0.06548300  0.07348700  0.28043500  1
  O  O40  1  0.29802000  0.00967000  0.47424600  1
  O  O41  1  0.20198000  0.00967000  0.97424600  1
  O  O42  1  0.99936700  0.97624500  0.35895400  1
  O  O43  1  0.50063300  0.97624500  0.85895400  1
  O  O44  1  0.53178300  0.97889000  0.33053000  1
  O  O45  1  0.96821700  0.97889000  0.83053000  1
  O  O46  1  0.74105200  0.92162800  0.22056500  1
  O  O47  1  0.75894800  0.92162800  0.72056500  1
  O  O48  1  0.27642600  0.81045500  0.08719700  1
  O  O49  1  0.22357400  0.81045500  0.58719700  1
  O  O50  1  0.02091400  0.79830200  0.01337500  1
  O  O51  1  0.47908600  0.79830200  0.51337500  1
  O  O52  1  0.99679700  0.76528600  0.71864800  1
  O  O53  1  0.50320300  0.76528600  0.21864800  1
  O  O54  1  0.26492200  0.75282300  0.40000900  1
  O  O55  1  0.23507800  0.75282300  0.90000900  1
  O  O56  1  0.76492200  0.74717700  0.40000900  1
  O  O57  1  0.73507800  0.74717700  0.90000900  1
  O  O58  1  0.00320300  0.73471400  0.21864800  1
  O  O59  1  0.49679700  0.73471400  0.71864800  1
  O  O60  1  0.97908600  0.70169800  0.51337500  1
  O  O61  1  0.52091400  0.70169800  0.01337500  1
  O  O62  1  0.77642600  0.68954500  0.08719700  1
  O  O63  1  0.72357400  0.68954500  0.58719700  1
  O  O64  1  0.25894800  0.57837200  0.72056500  1
  O  O65  1  0.24105200  0.57837200  0.22056500  1
  O  O66  1  0.46821700  0.52111000  0.83053000  1
  O  O67  1  0.03178300  0.52111000  0.33053000  1
  O  O68  1  0.49936700  0.52375500  0.35895400  1
  O  O69  1  0.00063300  0.52375500  0.85895400  1
  O  O70  1  0.79802000  0.49033000  0.47424600  1
  O  O71  1  0.70198000  0.49033000  0.97424600  1
  O  O72  1  0.29802000  0.50967000  0.02575400  1
  O  O73  1  0.20198000  0.50967000  0.52575400  1
  O  O74  1  0.50063300  0.47624500  0.64104600  1
  O  O75  1  0.99936700  0.47624500  0.14104600  1
  O  O76  1  0.53178300  0.47889000  0.16947000  1
  O  O77  1  0.96821700  0.47889000  0.66947000  1
  O  O78  1  0.75894800  0.42162800  0.77943500  1
  O  O79  1  0.74105200  0.42162800  0.27943500  1
  O  O80  1  0.27642600  0.31045500  0.41280300  1
  O  O81  1  0.22357400  0.31045500  0.91280300  1
  O  O82  1  0.47908600  0.29830200  0.98662500  1
  O  O83  1  0.02091400  0.29830200  0.48662500  1
  O  O84  1  0.99679700  0.26528600  0.78135200  1
  O  O85  1  0.50320300  0.26528600  0.28135200  1
  O  O86  1  0.26492200  0.25282300  0.09999100  1
  O  O87  1  0.23507800  0.25282300  0.59999100  1
  O  O88  1  0.76492200  0.24717700  0.09999100  1
  O  O89  1  0.73507800  0.24717700  0.59999100  1
  O  O90  1  0.49679700  0.23471400  0.78135200  1
  O  O91  1  0.00320300  0.23471400  0.28135200  1
  O  O92  1  0.97908600  0.20169800  0.98662500  1
  O  O93  1  0.52091400  0.20169800  0.48662500  1
  O  O94  1  0.77642600  0.18954500  0.41280300  1
  O  O95  1  0.72357400  0.18954500  0.91280300  1
  O  O96  1  0.25894800  0.07837200  0.77943500  1
  O  O97  1  0.24105200  0.07837200  0.27943500  1
  O  O98  1  0.46821700  0.02111000  0.66947000  1
  O  O99  1  0.03178300  0.02111000  0.16947000  1
  O  O100  1  0.00063300  0.02375500  0.64104600  1
  O  O101  1  0.49936700  0.02375500  0.14104600  1
  O  O102  1  0.79802000  0.99033000  0.02575400  1
  O  O103  1  0.70198000  0.99033000  0.52575400  1
