# generated using pymatgen
data_Li4Co3Sn3(SbO8)2
_symmetry_space_group_name_H-M   'P 1'
_cell_length_a   6.18750109
_cell_length_b   6.18750109
_cell_length_c   9.86566328
_cell_angle_alpha   89.51784324
_cell_angle_beta   89.51784324
_cell_angle_gamma   59.89606372
_symmetry_Int_Tables_number   1
_chemical_formula_structural   Li4Co3Sn3(SbO8)2
_chemical_formula_sum   'Li4 Co3 Sn3 Sb2 O16'
_cell_volume   326.74670046
_cell_formula_units_Z   1
loop_
 _symmetry_equiv_pos_site_id
 _symmetry_equiv_pos_as_xyz
  1  'x, y, z'
loop_
 _atom_site_type_symbol
 _atom_site_label
 _atom_site_symmetry_multiplicity
 _atom_site_fract_x
 _atom_site_fract_y
 _atom_site_fract_z
 _atom_site_occupancy
  Li  Li0  1  0.66671800  0.66671800  0.10282200  1
  Li  Li1  1  0.98268500  0.98268500  0.02156300  1
  Li  Li2  1  0.99025700  0.99025700  0.50168800  1
  Li  Li3  1  0.33136000  0.33136000  0.58894800  1
  Co  Co4  1  0.82944300  0.82944300  0.78634700  1
  Co  Co5  1  0.17604600  0.65859300  0.28799200  1
  Co  Co6  1  0.65859300  0.17604600  0.28799200  1
  Sn  Sn7  1  0.33954100  0.83210300  0.78659300  1
  Sn  Sn8  1  0.83210300  0.33954100  0.78659300  1
  Sn  Sn9  1  0.17142900  0.17142900  0.28720700  1
  Sb  Sb10  1  0.67354000  0.67354000  0.50690100  1
  Sb  Sb11  1  0.34216700  0.34216700  0.02131600  1
  O  O12  1  0.34191600  0.83355400  0.41189800  1
  O  O13  1  0.51846700  0.51846700  0.65315500  1
  O  O14  1  0.66371000  0.66371000  0.89696100  1
  O  O15  1  0.00087100  0.00087100  0.69198400  1
  O  O16  1  0.00274100  0.00274100  0.20395900  1
  O  O17  1  0.83355400  0.34191600  0.41189800  1
  O  O18  1  0.51635800  0.95974700  0.65262200  1
  O  O19  1  0.95974700  0.51635800  0.65262200  1
  O  O20  1  0.16788900  0.16788900  0.90422500  1
  O  O21  1  0.83286700  0.83286700  0.40936900  1
  O  O22  1  0.03824000  0.47764100  0.14377200  1
  O  O23  1  0.47764100  0.03824000  0.14377200  1
  O  O24  1  0.33105500  0.33105500  0.39184200  1
  O  O25  1  0.17055800  0.66538000  0.90519200  1
  O  O26  1  0.48455000  0.48455000  0.14775400  1
  O  O27  1  0.66538000  0.17055800  0.90519200  1
