# generated using pymatgen
data_LiFe(Si2O5)2
_symmetry_space_group_name_H-M   'P 1'
_cell_length_a   4.85494600
_cell_length_b   7.15893100
_cell_length_c   11.44561100
_cell_angle_alpha   90.00000000
_cell_angle_beta   90.00000000
_cell_angle_gamma   90.00000000
_symmetry_Int_Tables_number   1
_chemical_formula_structural   LiFe(Si2O5)2
_chemical_formula_sum   'Li2 Fe2 Si8 O20'
_cell_volume   397.80621313
_cell_formula_units_Z   2
loop_
 _symmetry_equiv_pos_site_id
 _symmetry_equiv_pos_as_xyz
  1  'x, y, z'
loop_
 _atom_site_type_symbol
 _atom_site_label
 _atom_site_symmetry_multiplicity
 _atom_site_fract_x
 _atom_site_fract_y
 _atom_site_fract_z
 _atom_site_occupancy
  Li  Li0  1  0.50000000  0.50000000  0.27726000  1
  Li  Li1  1  0.50000000  0.00000000  0.77726000  1
  Fe  Fe2  1  0.00000000  0.50000000  0.38392700  1
  Fe  Fe3  1  0.00000000  0.00000000  0.88392700  1
  Si  Si4  1  0.03818200  0.21378900  0.16979600  1
  Si  Si5  1  0.03818200  0.28621100  0.66979600  1
  Si  Si6  1  0.45606900  0.71306600  0.01198200  1
  Si  Si7  1  0.45606900  0.78693400  0.51198200  1
  Si  Si8  1  0.54393100  0.21306600  0.51198200  1
  Si  Si9  1  0.54393100  0.28693400  0.01198200  1
  Si  Si10  1  0.96181800  0.71378900  0.66979600  1
  Si  Si11  1  0.96181800  0.78621100  0.16979600  1
  O  O12  1  0.00000000  0.00000000  0.21469600  1
  O  O13  1  0.00000000  0.50000000  0.71469600  1
  O  O14  1  0.23430500  0.20635600  0.05007600  1
  O  O15  1  0.23430500  0.29364400  0.55007600  1
  O  O16  1  0.17695400  0.15851700  0.77008200  1
  O  O17  1  0.17695400  0.34148300  0.27008200  1
  O  O18  1  0.31059700  0.65214500  0.41724900  1
  O  O19  1  0.31059700  0.84785500  0.91724900  1
  O  O20  1  0.26722000  0.70277100  0.13244200  1
  O  O21  1  0.26722000  0.79722900  0.63244200  1
  O  O22  1  0.50000000  0.50000000  0.96461700  1
  O  O23  1  0.50000000  0.00000000  0.46461700  1
  O  O24  1  0.73278000  0.20277100  0.63244200  1
  O  O25  1  0.73278000  0.29722900  0.13244200  1
  O  O26  1  0.68940300  0.34785500  0.41724900  1
  O  O27  1  0.68940300  0.15214500  0.91724900  1
  O  O28  1  0.82304600  0.84148300  0.77008200  1
  O  O29  1  0.82304600  0.65851700  0.27008200  1
  O  O30  1  0.76569500  0.70635600  0.55007600  1
  O  O31  1  0.76569500  0.79364400  0.05007600  1
