# generated using pymatgen
data_Li2NiSnO4
_symmetry_space_group_name_H-M   'P 1'
_cell_length_a   6.08744202
_cell_length_b   6.10907933
_cell_length_c   10.48713771
_cell_angle_alpha   105.76638392
_cell_angle_beta   106.06705299
_cell_angle_gamma   61.44999996
_symmetry_Int_Tables_number   1
_chemical_formula_structural   Li2NiSnO4
_chemical_formula_sum   'Li8 Ni4 Sn4 O16'
_cell_volume   324.67367453
_cell_formula_units_Z   4
loop_
 _symmetry_equiv_pos_site_id
 _symmetry_equiv_pos_as_xyz
  1  'x, y, z'
loop_
 _atom_site_type_symbol
 _atom_site_label
 _atom_site_symmetry_multiplicity
 _atom_site_fract_x
 _atom_site_fract_y
 _atom_site_fract_z
 _atom_site_occupancy
  Li  Li0  1  0.24999800  0.75001100  0.24998000  1
  Li  Li1  1  0.75003400  0.25001800  0.75004600  1
  Li  Li2  1  0.00000100  0.49999000  0.00001600  1
  Li  Li3  1  0.49997000  0.99997300  0.49994700  1
  Li  Li4  1  0.25000000  0.25000400  0.25000200  1
  Li  Li5  1  0.74997800  0.74998100  0.75000700  1
  Li  Li6  1  0.74999800  0.75000500  0.25000100  1
  Li  Li7  1  0.24999200  0.24996900  0.75000800  1
  Ni  Ni8  1  0.25002100  0.74999900  0.75000900  1
  Ni  Ni9  1  0.99987200  0.49984400  0.49986200  1
  Ni  Ni10  1  0.74995800  0.25015100  0.25014300  1
  Ni  Ni11  1  0.50025900  0.00025800  0.99999200  1
  Sn  Sn12  1  0.49998900  0.49998700  0.99998100  1
  Sn  Sn13  1  0.00000200  0.99998000  0.49999900  1
  Sn  Sn14  1  0.99999900  0.99998000  0.99998300  1
  Sn  Sn15  1  0.50000100  0.49997200  0.50000200  1
  O  O16  1  0.63324700  0.60610800  0.37858400  1
  O  O17  1  0.13322900  0.10612300  0.87858800  1
  O  O18  1  0.10777600  0.13497800  0.38028000  1
  O  O19  1  0.60778000  0.63495300  0.88029100  1
  O  O20  1  0.39225000  0.36497300  0.11967800  1
  O  O21  1  0.89230900  0.86493900  0.61973900  1
  O  O22  1  0.86669900  0.89392000  0.12138200  1
  O  O23  1  0.36667500  0.39395700  0.62143300  1
  O  O24  1  0.37132200  0.86722900  0.11907700  1
  O  O25  1  0.87135600  0.36720900  0.61910000  1
  O  O26  1  0.62892600  0.13303000  0.38073600  1
  O  O27  1  0.12887100  0.63302500  0.88073700  1
  O  O28  1  0.87108700  0.36697500  0.11925300  1
  O  O29  1  0.37111300  0.86694900  0.61930500  1
  O  O30  1  0.12862000  0.63275200  0.38091000  1
  O  O31  1  0.62866600  0.13275800  0.88093000  1
