# generated using pymatgen
data_LiCo3Sb(PO4)6
_symmetry_space_group_name_H-M   'P 1'
_cell_length_a   8.51320041
_cell_length_b   8.51415782
_cell_length_c   8.52553149
_cell_angle_alpha   59.75011063
_cell_angle_beta   59.77158014
_cell_angle_gamma   59.82776465
_symmetry_Int_Tables_number   1
_chemical_formula_structural   LiCo3Sb(PO4)6
_chemical_formula_sum   'Li1 Co3 Sb1 P6 O24'
_cell_volume   434.80768417
_cell_formula_units_Z   1
loop_
 _symmetry_equiv_pos_site_id
 _symmetry_equiv_pos_as_xyz
  1  'x, y, z'
loop_
 _atom_site_type_symbol
 _atom_site_label
 _atom_site_symmetry_multiplicity
 _atom_site_fract_x
 _atom_site_fract_y
 _atom_site_fract_z
 _atom_site_occupancy
  Li  Li0  1  0.48938750  0.50033047  0.49564450  1
  Co  Co1  1  0.13664813  0.14053518  0.13854158  1
  Co  Co2  1  0.35795286  0.35582941  0.35387227  1
  Co  Co3  1  0.63709051  0.64112682  0.63813301  1
  Sb  Sb4  1  0.86112426  0.86033379  0.85897104  1
  P  P5  1  0.04332329  0.74743288  0.45276300  1
  P  P6  1  0.45135943  0.04398894  0.74745995  1
  P  P7  1  0.25379050  0.52523750  0.96282212  1
  P  P8  1  0.74689682  0.45354852  0.04276694  1
  P  P9  1  0.52495061  0.96690464  0.25266261  1
  P  P10  1  0.96489367  0.25396212  0.52227559  1
  O  O11  1  0.36365807  0.99908604  0.19546083  1
  O  O12  1  0.13114832  0.29947262  0.49517379  1
  O  O13  1  0.30548780  0.49929628  0.12543363  1
  O  O14  1  0.06586554  0.91859334  0.26027940  1
  O  O15  1  0.02102803  0.79129670  0.62127546  1
  O  O16  1  0.50759288  0.12795754  0.29865130  1
  O  O17  1  0.23597044  0.57683908  0.43563564  1
  O  O18  1  0.26093562  0.06657885  0.91587785  1
  O  O19  1  0.19193521  0.36875211  0.99067185  1
  O  O20  1  0.43657963  0.23862065  0.57498140  1
  O  O21  1  0.08681265  0.72376313  0.94395142  1
  O  O22  1  0.57533807  0.43966622  0.23658806  1
  O  O23  1  0.62166448  0.01640987  0.79198614  1
  O  O24  1  0.41918435  0.54276872  0.76996146  1
  O  O25  1  0.91542875  0.26019499  0.06438957  1
  O  O26  1  0.79524431  0.62007253  0.01800132  1
  O  O27  1  0.54172145  0.77384260  0.41765429  1
  O  O28  1  0.72285595  0.94485740  0.08371186  1
  O  O29  1  0.77224226  0.42169357  0.54382652  1
  O  O30  1  0.48660898  0.87467422  0.70337991  1
  O  O31  1  0.98474445  0.20118214  0.36435706  1
  O  O32  1  0.94538712  0.08581686  0.72005051  1
  O  O33  1  0.70300799  0.49109926  0.87412686  1
  O  O34  1  0.87184209  0.70799901  0.48922223  1
