# generated using pymatgen
data_Li5Mn6(BO3)6
_symmetry_space_group_name_H-M   'P 1'
_cell_length_a   5.28214100
_cell_length_b   6.22034027
_cell_length_c   11.80934872
_cell_angle_alpha   85.67909325
_cell_angle_beta   78.91033343
_cell_angle_gamma   87.78508764
_symmetry_Int_Tables_number   1
_chemical_formula_structural   Li5Mn6(BO3)6
_chemical_formula_sum   'Li5 Mn6 B6 O18'
_cell_volume   379.57314047
_cell_formula_units_Z   1
loop_
 _symmetry_equiv_pos_site_id
 _symmetry_equiv_pos_as_xyz
  1  'x, y, z'
loop_
 _atom_site_type_symbol
 _atom_site_label
 _atom_site_symmetry_multiplicity
 _atom_site_fract_x
 _atom_site_fract_y
 _atom_site_fract_z
 _atom_site_occupancy
  Li  Li0  1  0.49598300  0.19070100  0.87189000  1
  Li  Li1  1  0.83836700  0.13925200  0.45908600  1
  Li  Li2  1  0.17101300  0.47376100  0.79650400  1
  Li  Li3  1  0.15633200  0.85856000  0.53763400  1
  Li  Li4  1  0.52004400  0.79053100  0.13688300  1
  Mn  Mn5  1  0.03337000  0.02235300  0.78326700  1
  Mn  Mn6  1  0.63386400  0.63946500  0.88389600  1
  Mn  Mn7  1  0.30038100  0.30958300  0.54929200  1
  Mn  Mn8  1  0.69329300  0.69006500  0.44712100  1
  Mn  Mn9  1  0.35954500  0.36125000  0.12267500  1
  Mn  Mn10  1  0.98224200  0.96292900  0.21017200  1
  B  B11  1  0.74160500  0.40444700  0.66397200  1
  B  B12  1  0.07692900  0.74090400  0.99800700  1
  B  B13  1  0.40579100  0.06957400  0.33174000  1
  B  B14  1  0.59176700  0.92847300  0.66754100  1
  B  B15  1  0.92462300  0.24409400  0.00334300  1
  B  B16  1  0.25628200  0.61681300  0.33572400  1
  O  O17  1  0.67734400  0.30508700  0.98707900  1
  O  O18  1  0.12136000  0.20901100  0.91033100  1
  O  O19  1  0.98992500  0.36154000  0.68457000  1
  O  O20  1  0.54379400  0.45719600  0.75339400  1
  O  O21  1  0.69141800  0.38340300  0.55258300  1
  O  O22  1  0.02346600  0.71293000  0.88838200  1
  O  O23  1  0.65878600  0.02547100  0.34455900  1
  O  O24  1  0.64515200  0.95007200  0.77819000  1
  O  O25  1  0.21374000  0.12371600  0.42209600  1
  O  O26  1  0.78621100  0.87493000  0.57754600  1
  O  O27  1  0.34461000  0.04341400  0.22273700  1
  O  O28  1  0.34177500  0.97114400  0.64848900  1
  O  O29  1  0.98658100  0.23501800  0.11480900  1
  O  O30  1  0.30176000  0.61882000  0.44880800  1
  O  O31  1  0.43818400  0.54261500  0.24961600  1
  O  O32  1  0.01711100  0.70501600  0.31598300  1
  O  O33  1  0.88139800  0.81722300  0.08133500  1
  O  O34  1  0.32202400  0.68922600  0.02081900  1
