# generated using pymatgen
data_LiTi(PO3)4
_symmetry_space_group_name_H-M   'P 1'
_cell_length_a   8.44121800
_cell_length_b   7.32659400
_cell_length_c   7.72005193
_cell_angle_alpha   85.56156670
_cell_angle_beta   90.00000000
_cell_angle_gamma   90.00000000
_symmetry_Int_Tables_number   1
_chemical_formula_structural   LiTi(PO3)4
_chemical_formula_sum   'Li2 Ti2 P8 O24'
_cell_volume   476.01768340
_cell_formula_units_Z   2
loop_
 _symmetry_equiv_pos_site_id
 _symmetry_equiv_pos_as_xyz
  1  'x, y, z'
loop_
 _atom_site_type_symbol
 _atom_site_label
 _atom_site_symmetry_multiplicity
 _atom_site_fract_x
 _atom_site_fract_y
 _atom_site_fract_z
 _atom_site_occupancy
  Li  Li0  1  0.69550700  0.74801000  0.86837300  1
  Li  Li1  1  0.19550700  0.25199000  0.13162700  1
  Ti  Ti2  1  0.50432200  0.75276000  0.31804500  1
  Ti  Ti3  1  0.00432200  0.24724000  0.68195500  1
  P  P4  1  0.28074600  0.92172200  0.96665100  1
  P  P5  1  0.88441800  0.92945500  0.37975200  1
  P  P6  1  0.06802700  0.64428900  0.81017000  1
  P  P7  1  0.13092500  0.62720000  0.44395000  1
  P  P8  1  0.63092500  0.37280000  0.55605000  1
  P  P9  1  0.56802700  0.35571100  0.18983000  1
  P  P10  1  0.38441800  0.07054500  0.62024800  1
  P  P11  1  0.78074600  0.07827800  0.03334900  1
  O  O12  1  0.39762600  0.93801200  0.79883700  1
  O  O13  1  0.43050700  0.95704800  0.47646200  1
  O  O14  1  0.90658100  0.72384100  0.80622600  1
  O  O15  1  0.67540600  0.91572800  0.03946800  1
  O  O16  1  0.72829500  0.83089700  0.38982900  1
  O  O17  1  0.18405300  0.73519500  0.94383600  1
  O  O18  1  0.37965000  0.88277800  0.12564500  1
  O  O19  1  0.02219000  0.78400000  0.34394500  1
  O  O20  1  0.16080000  0.70506000  0.63051100  1
  O  O21  1  0.28508900  0.62694500  0.34858800  1
  O  O22  1  0.08502600  0.43836000  0.84869700  1
  O  O23  1  0.54450300  0.55244500  0.53544200  1
  O  O24  1  0.04450300  0.44755500  0.46455800  1
  O  O25  1  0.58502600  0.56164000  0.15130300  1
  O  O26  1  0.78508900  0.37305500  0.65141200  1
  O  O27  1  0.66080000  0.29494000  0.36948900  1
  O  O28  1  0.52219000  0.21600000  0.65605500  1
  O  O29  1  0.87965000  0.11722200  0.87435500  1
  O  O30  1  0.68405300  0.26480500  0.05616400  1
  O  O31  1  0.22829500  0.16910300  0.61017100  1
  O  O32  1  0.17540600  0.08427200  0.96053200  1
  O  O33  1  0.40658100  0.27615900  0.19377400  1
  O  O34  1  0.93050700  0.04295200  0.52353800  1
  O  O35  1  0.89762600  0.06198800  0.20116300  1
