# generated using pymatgen
data_Li10Ti11Cr9O40
_symmetry_space_group_name_H-M   'P 1'
_cell_length_a   5.95284993
_cell_length_b   5.95717783
_cell_length_c   24.58701024
_cell_angle_alpha   90.23136359
_cell_angle_beta   97.03605969
_cell_angle_gamma   119.75220215
_symmetry_Int_Tables_number   1
_chemical_formula_structural   Li10Ti11Cr9O40
_chemical_formula_sum   'Li10 Ti11 Cr9 O40'
_cell_volume   749.14401958
_cell_formula_units_Z   1
loop_
 _symmetry_equiv_pos_site_id
 _symmetry_equiv_pos_as_xyz
  1  'x, y, z'
loop_
 _atom_site_type_symbol
 _atom_site_label
 _atom_site_symmetry_multiplicity
 _atom_site_fract_x
 _atom_site_fract_y
 _atom_site_fract_z
 _atom_site_occupancy
  Li  Li0  1  0.84990166  0.67646388  0.02416425  1
  Li  Li1  1  0.94950583  0.72330116  0.17495725  1
  Li  Li2  1  0.45049417  0.47669884  0.42504275  1
  Li  Li3  1  0.24997294  0.87636084  0.62546270  1
  Li  Li4  1  0.65148104  0.07724150  0.22548042  1
  Li  Li5  1  0.74851896  0.12275850  0.37451958  1
  Li  Li6  1  0.55009834  0.52353612  0.57583575  1
  Li  Li7  1  0.35131828  0.92372310  0.77553013  1
  Li  Li8  1  0.04868172  0.27627690  0.82446987  1
  Li  Li9  1  0.15002706  0.32363916  0.97453730  1
  Ti  Ti10  1  0.20000000  0.60000000  0.30000000  1
  Ti  Ti11  1  0.49263659  0.99838618  0.99928816  1
  Ti  Ti12  1  0.40250543  0.20519044  0.10134225  1
  Ti  Ti13  1  0.90254734  0.20248691  0.10060424  1
  Ti  Ti14  1  0.70000000  0.60000000  0.30000000  1
  Ti  Ti15  1  0.99749457  0.99480956  0.49865775  1
  Ti  Ti16  1  0.49745266  0.99751309  0.49939576  1
  Ti  Ti17  1  0.60192527  0.80180524  0.89994282  1
  Ti  Ti18  1  0.79807473  0.39819476  0.70005718  1
  Ti  Ti19  1  0.90736341  0.20161382  0.60071184  1
  Ti  Ti20  1  0.70000000  0.60000000  0.80000000  1
  Cr  Cr21  1  0.39976501  0.69990823  0.09950264  1
  Cr  Cr22  1  0.30029566  0.40087648  0.20039108  1
  Cr  Cr23  1  0.09970434  0.79912352  0.39960892  1
  Cr  Cr24  1  0.20000000  0.10000000  0.30000000  1
  Cr  Cr25  1  0.00023499  0.50009177  0.50049736  1
  Cr  Cr26  1  0.30068788  0.40081465  0.70021395  1
  Cr  Cr27  1  0.09931212  0.79918535  0.89978605  1
  Cr  Cr28  1  0.79930824  0.89942451  0.70004243  1
  Cr  Cr29  1  0.60069176  0.30057549  0.89995757  1
  O  O30  1  0.23684038  0.87392015  0.05154396  1
  O  O31  1  0.68889676  0.87470994  0.05189374  1
  O  O32  1  0.00057415  0.74476963  0.25730031  1
  O  O33  1  0.20174675  0.34614041  0.05730308  1
  O  O34  1  0.10961428  0.52817753  0.14631268  1
  O  O35  1  0.36429453  0.92594667  0.34681075  1
  O  O36  1  0.11323627  0.07859399  0.14652201  1
  O  O37  1  0.56535065  0.52828682  0.14663198  1
  O  O38  1  0.48714350  0.72145717  0.25391073  1
  O  O39  1  0.68461163  0.31773599  0.05256836  1
  O  O40  1  0.03570547  0.27405333  0.25318925  1
  O  O41  1  0.39942585  0.45523037  0.34269969  1
  O  O42  1  0.29038572  0.67182247  0.45368732  1
  O  O43  1  0.49142881  0.27352230  0.25339137  1
  O  O44  1  0.19825325  0.85385959  0.54269692  1
  O  O45  1  0.59798077  0.05327060  0.14238223  1
  O  O46  1  0.90857119  0.92647770  0.34660863  1
  O  O47  1  0.16315962  0.32607985  0.54845604  1
  O  O48  1  0.71538837  0.88226401  0.54743164  1
  O  O49  1  0.91285650  0.47854283  0.34608927  1
  O  O50  1  0.28676373  0.12140601  0.45347799  1
  O  O51  1  0.07935857  0.51733955  0.65161147  1
  O  O52  1  0.83464935  0.67171318  0.45336802  1
  O  O53  1  0.08204350  0.06769830  0.65092386  1
  O  O54  1  0.71110324  0.32529006  0.54810626  1
  O  O55  1  0.80201923  0.14672940  0.45761777  1
  O  O56  1  0.51825234  0.73163973  0.74896217  1
  O  O57  1  0.60837640  0.54819837  0.65772640  1
  O  O58  1  0.40862393  0.94811092  0.85790508  1
  O  O59  1  0.96480139  0.72704975  0.74839889  1
  O  O60  1  0.52084651  0.28252158  0.74819662  1
  O  O61  1  0.32064143  0.68266045  0.94838853  1
  O  O62  1  0.43519861  0.47295025  0.85160111  1
  O  O63  1  0.87915349  0.91747842  0.85180338  1
  O  O64  1  0.63538388  0.07295344  0.65156372  1
  O  O65  1  0.88174766  0.46836027  0.85103783  1
  O  O66  1  0.99137607  0.25188908  0.74209492  1
  O  O67  1  0.79162360  0.65180163  0.94227360  1
  O  O68  1  0.31795650  0.13230170  0.94907614  1
  O  O69  1  0.76461612  0.12704656  0.94843628  1
