# generated using pymatgen
data_Li2SiNiO4
_symmetry_space_group_name_H-M   'P 1'
_cell_length_a   4.99560700
_cell_length_b   6.34085300
_cell_length_c   10.66518000
_cell_angle_alpha   90.00000000
_cell_angle_beta   90.00000000
_cell_angle_gamma   90.00000000
_symmetry_Int_Tables_number   1
_chemical_formula_structural   Li2SiNiO4
_chemical_formula_sum   'Li8 Si4 Ni4 O16'
_cell_volume   337.83461049
_cell_formula_units_Z   4
loop_
 _symmetry_equiv_pos_site_id
 _symmetry_equiv_pos_as_xyz
  1  'x, y, z'
loop_
 _atom_site_type_symbol
 _atom_site_label
 _atom_site_symmetry_multiplicity
 _atom_site_fract_x
 _atom_site_fract_y
 _atom_site_fract_z
 _atom_site_occupancy
  Li  Li0  1  0.20289300  0.99389500  0.66607400  1
  Li  Li1  1  0.29710700  0.99389500  0.16607400  1
  Li  Li2  1  0.20289300  0.50610500  0.66607400  1
  Li  Li3  1  0.29710700  0.50610500  0.16607400  1
  Li  Li4  1  0.70289300  0.49389500  0.83392600  1
  Li  Li5  1  0.79710700  0.49389500  0.33392600  1
  Li  Li6  1  0.79710700  0.00610500  0.33392600  1
  Li  Li7  1  0.70289300  0.00610500  0.83392600  1
  Si  Si8  1  0.19138100  0.25000000  0.91638400  1
  Si  Si9  1  0.30861900  0.25000000  0.41638400  1
  Si  Si10  1  0.69138100  0.75000000  0.58361600  1
  Si  Si11  1  0.80861900  0.75000000  0.08361600  1
  Ni  Ni12  1  0.80107000  0.25000000  0.58551300  1
  Ni  Ni13  1  0.69893000  0.25000000  0.08551300  1
  Ni  Ni14  1  0.30107000  0.75000000  0.91448700  1
  Ni  Ni15  1  0.19893000  0.75000000  0.41448700  1
  O  O16  1  0.29882900  0.03784500  0.84192700  1
  O  O17  1  0.20117100  0.03784500  0.34192700  1
  O  O18  1  0.85976500  0.25000000  0.91596600  1
  O  O19  1  0.20383800  0.25000000  0.56329200  1
  O  O20  1  0.29616200  0.25000000  0.06329200  1
  O  O21  1  0.64023500  0.25000000  0.41596600  1
  O  O22  1  0.29882900  0.46215500  0.84192700  1
  O  O23  1  0.20117100  0.46215500  0.34192700  1
  O  O24  1  0.70117100  0.53784500  0.15807300  1
  O  O25  1  0.79882900  0.53784500  0.65807300  1
  O  O26  1  0.70383800  0.75000000  0.93670800  1
  O  O27  1  0.35976500  0.75000000  0.58403400  1
  O  O28  1  0.79616200  0.75000000  0.43670800  1
  O  O29  1  0.14023500  0.75000000  0.08403400  1
  O  O30  1  0.79882900  0.96215500  0.65807300  1
  O  O31  1  0.70117100  0.96215500  0.15807300  1
