# generated using pymatgen
data_Li2FeF5
_symmetry_space_group_name_H-M   'P 1'
_cell_length_a   5.77095891
_cell_length_b   5.77095891
_cell_length_c   7.26222716
_cell_angle_alpha   70.60099768
_cell_angle_beta   70.60099768
_cell_angle_gamma   52.48826937
_symmetry_Int_Tables_number   1
_chemical_formula_structural   Li2FeF5
_chemical_formula_sum   'Li4 Fe2 F10'
_cell_volume   178.21143304
_cell_formula_units_Z   2
loop_
 _symmetry_equiv_pos_site_id
 _symmetry_equiv_pos_as_xyz
  1  'x, y, z'
loop_
 _atom_site_type_symbol
 _atom_site_label
 _atom_site_symmetry_multiplicity
 _atom_site_fract_x
 _atom_site_fract_y
 _atom_site_fract_z
 _atom_site_occupancy
  Li  Li0  1  0.37249100  0.34169400  0.74633500  1
  Li  Li1  1  0.34169400  0.37249100  0.24633500  1
  Li  Li2  1  0.65830600  0.62750900  0.75366500  1
  Li  Li3  1  0.62750900  0.65830600  0.25366500  1
  Fe  Fe4  1  0.00000000  0.00000000  0.50000000  1
  Fe  Fe5  1  0.00000000  0.00000000  0.00000000  1
  F  F6  1  0.59485600  0.23561100  0.95667900  1
  F  F7  1  0.23561100  0.59485600  0.45667900  1
  F  F8  1  0.66920300  0.97186400  0.64545600  1
  F  F9  1  0.02813600  0.33079700  0.85454400  1
  F  F10  1  0.97186400  0.66920300  0.14545600  1
  F  F11  1  0.33079700  0.02813600  0.35454400  1
  F  F12  1  0.76438900  0.40514400  0.54332100  1
  F  F13  1  0.17764100  0.82235900  0.75000000  1
  F  F14  1  0.40514400  0.76438900  0.04332100  1
  F  F15  1  0.82235900  0.17764100  0.25000000  1
