# generated using pymatgen
data_LiVFeP2(HO5)2
_symmetry_space_group_name_H-M   'P 1'
_cell_length_a   5.30248800
_cell_length_b   7.42388792
_cell_length_c   10.44608096
_cell_angle_alpha   105.14799431
_cell_angle_beta   98.06803624
_cell_angle_gamma   110.16277532
_symmetry_Int_Tables_number   1
_chemical_formula_structural   LiVFeP2(HO5)2
_chemical_formula_sum   'Li2 V2 Fe2 P4 H4 O20'
_cell_volume   360.34938585
_cell_formula_units_Z   2
loop_
 _symmetry_equiv_pos_site_id
 _symmetry_equiv_pos_as_xyz
  1  'x, y, z'
loop_
 _atom_site_type_symbol
 _atom_site_label
 _atom_site_symmetry_multiplicity
 _atom_site_fract_x
 _atom_site_fract_y
 _atom_site_fract_z
 _atom_site_occupancy
  Li  Li0  1  0.43481900  0.84468100  0.78314800  1
  Li  Li1  1  0.56518100  0.15531900  0.21685200  1
  V  V2  1  0.50000000  0.50000000  0.50000000  1
  V  V3  1  0.50000000  0.50000000  0.00000000  1
  Fe  Fe4  1  0.99888300  0.99323200  0.25349300  1
  Fe  Fe5  1  0.00111700  0.00676800  0.74650700  1
  P  P6  1  0.13077600  0.77579000  0.97661200  1
  P  P7  1  0.12606100  0.76958800  0.47528300  1
  P  P8  1  0.86922400  0.22421000  0.02338800  1
  P  P9  1  0.87393900  0.23041200  0.52471700  1
  H  H10  1  0.28680400  0.34694100  0.24739500  1
  H  H11  1  0.71319600  0.65305900  0.75260500  1
  H  H12  1  0.30782000  0.34353700  0.74516800  1
  H  H13  1  0.69218000  0.65646300  0.25483200  1
  O  O14  1  0.83015700  0.07199500  0.59754500  1
  O  O15  1  0.18109400  0.37698600  0.07107500  1
  O  O16  1  0.69113300  0.35128600  0.56400700  1
  O  O17  1  0.77840200  0.10688900  0.86897900  1
  O  O18  1  0.22159800  0.89311100  0.13102100  1
  O  O19  1  0.66956500  0.71727900  0.68544500  1
  O  O20  1  0.33043500  0.28272100  0.31455500  1
  O  O21  1  0.16984300  0.92800500  0.40245500  1
  O  O22  1  0.81890600  0.62301400  0.92892500  1
  O  O23  1  0.68264000  0.34099500  0.06599300  1
  O  O24  1  0.30886700  0.64871400  0.43599300  1
  O  O25  1  0.18778700  0.38217500  0.57779400  1
  O  O26  1  0.82614500  0.07764900  0.10693700  1
  O  O27  1  0.68327900  0.71306200  0.17909500  1
  O  O28  1  0.31672100  0.28693800  0.82090500  1
  O  O29  1  0.79556900  0.13076900  0.36796200  1
  O  O30  1  0.20443100  0.86923100  0.63203800  1
  O  O31  1  0.31736000  0.65900500  0.93400700  1
  O  O32  1  0.81221300  0.61782500  0.42220600  1
  O  O33  1  0.17385500  0.92235100  0.89306300  1
