# generated using pymatgen
data_Li3NbV3O8
_symmetry_space_group_name_H-M   'P 1'
_cell_length_a   6.08252777
_cell_length_b   6.10895552
_cell_length_c   10.53716135
_cell_angle_alpha   106.41461743
_cell_angle_beta   89.98984747
_cell_angle_gamma   119.83538798
_symmetry_Int_Tables_number   1
_chemical_formula_structural   Li3NbV3O8
_chemical_formula_sum   'Li6 Nb2 V6 O16'
_cell_volume   321.12828978
_cell_formula_units_Z   2
loop_
 _symmetry_equiv_pos_site_id
 _symmetry_equiv_pos_as_xyz
  1  'x, y, z'
loop_
 _atom_site_type_symbol
 _atom_site_label
 _atom_site_symmetry_multiplicity
 _atom_site_fract_x
 _atom_site_fract_y
 _atom_site_fract_z
 _atom_site_occupancy
  Li  Li0  1  0.24998700  0.50000900  0.25000600  1
  Li  Li1  1  0.74998300  0.50000200  0.75000400  1
  Li  Li2  1  0.49995000  0.49996700  0.50000700  1
  Li  Li3  1  0.99995100  0.49996800  0.00000500  1
  Li  Li4  1  0.99999600  0.50003800  0.49998800  1
  Li  Li5  1  0.49999300  0.50003600  0.99998900  1
  Nb  Nb6  1  0.50004500  0.00001100  0.50000500  1
  Nb  Nb7  1  0.99999000  0.00000000  0.00000000  1
  V  V8  1  0.49947600  0.00000000  0.00001000  1
  V  V9  1  0.25060600  0.99974200  0.75000600  1
  V  V10  1  0.25086700  0.00025900  0.24998700  1
  V  V11  1  0.99948500  0.00000300  0.50001000  1
  V  V12  1  0.75059600  0.99974100  0.24999600  1
  V  V13  1  0.75085600  0.00025700  0.74999400  1
  O  O14  1  0.38901700  0.77815000  0.13745600  1
  O  O15  1  0.88903500  0.77817400  0.63746700  1
  O  O16  1  0.61062800  0.22182300  0.86254600  1
  O  O17  1  0.11061900  0.22180600  0.36253100  1
  O  O18  1  0.88605400  0.77163400  0.12073900  1
  O  O19  1  0.38614100  0.77164200  0.62074100  1
  O  O20  1  0.11428000  0.22836200  0.87926200  1
  O  O21  1  0.61435700  0.22835500  0.37925600  1
  O  O22  1  0.15263700  0.77654400  0.37892300  1
  O  O23  1  0.65260100  0.77651200  0.87892800  1
  O  O24  1  0.62337000  0.77600500  0.37858700  1
  O  O25  1  0.12337000  0.77603300  0.87859300  1
  O  O26  1  0.84716300  0.22399100  0.62142600  1
  O  O27  1  0.34712900  0.22395600  0.12141500  1
  O  O28  1  0.37590700  0.22347500  0.62106700  1
  O  O29  1  0.87591200  0.22350700  0.12106200  1
