# generated using pymatgen
data_Li3VF5
_symmetry_space_group_name_H-M   'P 1'
_cell_length_a   6.80653500
_cell_length_b   7.56735700
_cell_length_c   8.35084000
_cell_angle_alpha   90.00000000
_cell_angle_beta   90.00000000
_cell_angle_gamma   90.00000000
_symmetry_Int_Tables_number   1
_chemical_formula_structural   Li3VF5
_chemical_formula_sum   'Li12 V4 F20'
_cell_volume   430.13072660
_cell_formula_units_Z   4
loop_
 _symmetry_equiv_pos_site_id
 _symmetry_equiv_pos_as_xyz
  1  'x, y, z'
loop_
 _atom_site_type_symbol
 _atom_site_label
 _atom_site_symmetry_multiplicity
 _atom_site_fract_x
 _atom_site_fract_y
 _atom_site_fract_z
 _atom_site_occupancy
  Li  Li0  1  0.35452300  0.25000000  0.12305000  1
  Li  Li1  1  0.76288700  0.55388700  0.12411700  1
  Li  Li2  1  0.76288700  0.94611300  0.12411700  1
  Li  Li3  1  0.26288700  0.05388700  0.37588300  1
  Li  Li4  1  0.26288700  0.44611300  0.37588300  1
  Li  Li5  1  0.85452300  0.75000000  0.37695000  1
  Li  Li6  1  0.14547700  0.25000000  0.62305000  1
  Li  Li7  1  0.73711300  0.55388700  0.62411700  1
  Li  Li8  1  0.73711300  0.94611300  0.62411700  1
  Li  Li9  1  0.23711300  0.05388700  0.87588300  1
  Li  Li10  1  0.23711300  0.44611300  0.87588300  1
  Li  Li11  1  0.64547700  0.75000000  0.87695000  1
  V  V12  1  0.25100000  0.75000000  0.12509900  1
  V  V13  1  0.75100000  0.25000000  0.37490100  1
  V  V14  1  0.24900000  0.75000000  0.62509900  1
  V  V15  1  0.74900000  0.25000000  0.87490100  1
  F  F16  1  0.56135500  0.75000000  0.09121600  1
  F  F17  1  0.23848900  0.02703200  0.12419500  1
  F  F18  1  0.23848900  0.47296800  0.12419500  1
  F  F19  1  0.77948300  0.25000000  0.12489100  1
  F  F20  1  0.94297300  0.75000000  0.16252100  1
  F  F21  1  0.44297300  0.25000000  0.33747900  1
  F  F22  1  0.27948300  0.75000000  0.37510900  1
  F  F23  1  0.73848900  0.52703200  0.37580500  1
  F  F24  1  0.73848900  0.97296800  0.37580500  1
  F  F25  1  0.06135500  0.25000000  0.40878400  1
  F  F26  1  0.93864500  0.75000000  0.59121600  1
  F  F27  1  0.26151100  0.02703200  0.62419500  1
  F  F28  1  0.26151100  0.47296800  0.62419500  1
  F  F29  1  0.72051700  0.25000000  0.62489100  1
  F  F30  1  0.55702700  0.75000000  0.66252100  1
  F  F31  1  0.05702700  0.25000000  0.83747900  1
  F  F32  1  0.22051700  0.75000000  0.87510900  1
  F  F33  1  0.76151100  0.52703200  0.87580500  1
  F  F34  1  0.76151100  0.97296800  0.87580500  1
  F  F35  1  0.43864500  0.25000000  0.90878400  1
