# generated using pymatgen
data_LiFe(PO3)4
_symmetry_space_group_name_H-M   'P 1'
_cell_length_a   8.85671500
_cell_length_b   7.44101700
_cell_length_c   15.45913122
_cell_angle_alpha   66.42729071
_cell_angle_beta   90.00000000
_cell_angle_gamma   90.00000000
_symmetry_Int_Tables_number   1
_chemical_formula_structural   LiFe(PO3)4
_chemical_formula_sum   'Li4 Fe4 P16 O48'
_cell_volume   933.78691426
_cell_formula_units_Z   4
loop_
 _symmetry_equiv_pos_site_id
 _symmetry_equiv_pos_as_xyz
  1  'x, y, z'
loop_
 _atom_site_type_symbol
 _atom_site_label
 _atom_site_symmetry_multiplicity
 _atom_site_fract_x
 _atom_site_fract_y
 _atom_site_fract_z
 _atom_site_occupancy
  Li  Li0  1  0.57309200  0.86386700  0.07567800  1
  Li  Li1  1  0.07309200  0.13613300  0.42432200  1
  Li  Li2  1  0.92690800  0.86386700  0.57567800  1
  Li  Li3  1  0.42690800  0.13613300  0.92432200  1
  Fe  Fe4  1  0.65302100  0.32042300  0.64690100  1
  Fe  Fe5  1  0.84697900  0.32042300  0.14690100  1
  Fe  Fe6  1  0.15302100  0.67957700  0.85309900  1
  Fe  Fe7  1  0.34697900  0.67957700  0.35309900  1
  P  P8  1  0.27767400  0.36676500  0.56984200  1
  P  P9  1  0.04817000  0.64635700  0.21680300  1
  P  P10  1  0.22970000  0.77506100  0.04159700  1
  P  P11  1  0.03914200  0.09783900  0.69230200  1
  P  P12  1  0.72970000  0.22493900  0.45840300  1
  P  P13  1  0.54817000  0.35364300  0.28319700  1
  P  P14  1  0.53914200  0.90216100  0.80769800  1
  P  P15  1  0.22232600  0.36676500  0.06984200  1
  P  P16  1  0.77767400  0.63323500  0.93015800  1
  P  P17  1  0.46085800  0.09783900  0.19230200  1
  P  P18  1  0.45183000  0.64635700  0.71680300  1
  P  P19  1  0.27030000  0.77506100  0.54159700  1
  P  P20  1  0.96085800  0.90216100  0.30769800  1
  P  P21  1  0.77030000  0.22493900  0.95840300  1
  P  P22  1  0.95183000  0.35364300  0.78319700  1
  P  P23  1  0.72232600  0.63323500  0.43015800  1
  O  O24  1  0.36592700  0.90255900  0.03168000  1
  O  O25  1  0.12240700  0.80007900  0.11981300  1
  O  O26  1  0.06639300  0.20600800  0.76274600  1
  O  O27  1  0.29245700  0.43389000  0.46385900  1
  O  O28  1  0.16242200  0.56896500  0.29534900  1
  O  O29  1  0.78443100  0.45013400  0.40792400  1
  O  O30  1  0.40868800  0.26903500  0.63055000  1
  O  O31  1  0.45533500  0.50137500  0.30135800  1
  O  O32  1  0.12896800  0.23437100  0.59701100  1
  O  O33  1  0.62240200  0.09470100  0.76651200  1
  O  O34  1  0.95533500  0.49862500  0.19864200  1
  O  O35  1  0.87862900  0.09629200  0.66313200  1
  O  O36  1  0.63957700  0.19748500  0.54520600  1
  O  O37  1  0.28443100  0.54986600  0.09207600  1
  O  O38  1  0.66242200  0.43103500  0.20465100  1
  O  O39  1  0.79245700  0.56611000  0.03614100  1
  O  O40  1  0.13957700  0.80251500  0.95479400  1
  O  O41  1  0.37862900  0.90370800  0.83686800  1
  O  O42  1  0.62240700  0.19992100  0.38018700  1
  O  O43  1  0.12240200  0.90529900  0.73348800  1
  O  O44  1  0.86592700  0.09744100  0.46832000  1
  O  O45  1  0.62896800  0.76562900  0.90298900  1
  O  O46  1  0.43360700  0.20600800  0.26274600  1
  O  O47  1  0.90868800  0.73096500  0.86945000  1
  O  O48  1  0.09131200  0.26903500  0.13055000  1
  O  O49  1  0.56639300  0.79399200  0.73725400  1
  O  O50  1  0.37103200  0.23437100  0.09701100  1
  O  O51  1  0.13407300  0.90255900  0.53168000  1
  O  O52  1  0.87759800  0.09470100  0.26651200  1
  O  O53  1  0.37759300  0.80007900  0.61981300  1
  O  O54  1  0.62137100  0.09629200  0.16313200  1
  O  O55  1  0.86042300  0.19748500  0.04520600  1
  O  O56  1  0.20754300  0.43389000  0.96385900  1
  O  O57  1  0.33757800  0.56896500  0.79534900  1
  O  O58  1  0.71556900  0.45013400  0.90792400  1
  O  O59  1  0.36042300  0.80251500  0.45479400  1
  O  O60  1  0.12137100  0.90370800  0.33686800  1
  O  O61  1  0.04466500  0.50137500  0.80135800  1
  O  O62  1  0.37759800  0.90529900  0.23348800  1
  O  O63  1  0.87103200  0.76562900  0.40298900  1
  O  O64  1  0.54466500  0.49862500  0.69864200  1
  O  O65  1  0.59131200  0.73096500  0.36945000  1
  O  O66  1  0.21556900  0.54986600  0.59207600  1
  O  O67  1  0.83757800  0.43103500  0.70465100  1
  O  O68  1  0.70754300  0.56611000  0.53614100  1
  O  O69  1  0.93360700  0.79399200  0.23725400  1
  O  O70  1  0.87759300  0.19992100  0.88018700  1
  O  O71  1  0.63407300  0.09744100  0.96832000  1
