# generated using pymatgen
data_Li5Ti4Co3O16
_symmetry_space_group_name_H-M   'P 1'
_cell_length_a   8.31615300
_cell_length_b   8.42403951
_cell_length_c   8.43526573
_cell_angle_alpha   90.44151874
_cell_angle_beta   90.24814108
_cell_angle_gamma   90.03426576
_symmetry_Int_Tables_number   1
_chemical_formula_structural   Li5Ti4Co3O16
_chemical_formula_sum   'Li10 Ti8 Co6 O32'
_cell_volume   590.91440869
_cell_formula_units_Z   2
loop_
 _symmetry_equiv_pos_site_id
 _symmetry_equiv_pos_as_xyz
  1  'x, y, z'
loop_
 _atom_site_type_symbol
 _atom_site_label
 _atom_site_symmetry_multiplicity
 _atom_site_fract_x
 _atom_site_fract_y
 _atom_site_fract_z
 _atom_site_occupancy
  Li  Li0  1  0.88486800  0.12181300  0.38213000  1
  Li  Li1  1  0.75592400  0.24946300  0.75072200  1
  Li  Li2  1  0.75388700  0.74969400  0.25690000  1
  Li  Li3  1  0.62370500  0.87444600  0.87371100  1
  Li  Li4  1  0.35982500  0.37760800  0.61938900  1
  Li  Li5  1  0.36083400  0.62042000  0.37975100  1
  Li  Li6  1  0.12885800  0.37841000  0.86665800  1
  Li  Li7  1  0.12794000  0.62379200  0.13384000  1
  Li  Li8  1  0.11909600  0.13794200  0.61673800  1
  Li  Li9  1  0.11995700  0.87145100  0.37282400  1
  Ti  Ti10  1  0.88925600  0.38428500  0.12358600  1
  Ti  Ti11  1  0.87734300  0.62004800  0.88158800  1
  Ti  Ti12  1  0.87690800  0.89670800  0.60419000  1
  Ti  Ti13  1  0.63300000  0.11139200  0.12018100  1
  Ti  Ti14  1  0.61880400  0.37693900  0.38748500  1
  Ti  Ti15  1  0.61175700  0.62408600  0.62101500  1
  Ti  Ti16  1  0.37955900  0.13098600  0.85798600  1
  Ti  Ti17  1  0.37485300  0.86162000  0.13499300  1
  Co  Co18  1  0.99816500  0.50024500  0.50028900  1
  Co  Co19  1  0.49646600  0.49622500  0.99797800  1
  Co  Co20  1  0.50172300  0.99700000  0.49551100  1
  Co  Co21  1  0.25308400  0.24922200  0.24922500  1
  Co  Co22  1  0.24471900  0.75398100  0.75476200  1
  Co  Co23  1  0.00638700  0.99803900  0.99650900  1
  O  O24  1  0.88317400  0.39522000  0.89559300  1
  O  O25  1  0.88399900  0.88188800  0.39392600  1
  O  O26  1  0.88102500  0.10664600  0.62318100  1
  O  O27  1  0.87961000  0.60891400  0.10847900  1
  O  O28  1  0.88070200  0.86500800  0.87718700  1
  O  O29  1  0.86015700  0.37634100  0.36046300  1
  O  O30  1  0.86546900  0.13301000  0.11462200  1
  O  O31  1  0.86118900  0.63137200  0.64029700  1
  O  O32  1  0.63622300  0.36360300  0.13401300  1
  O  O33  1  0.63396600  0.86253100  0.62170500  1
  O  O34  1  0.63820300  0.62185600  0.86377200  1
  O  O35  1  0.61971300  0.13548600  0.35956500  1
  O  O36  1  0.61944800  0.39169500  0.60804100  1
  O  O37  1  0.60692300  0.89272000  0.12234200  1
  O  O38  1  0.60444500  0.11980500  0.89603700  1
  O  O39  1  0.61584700  0.60506100  0.39590300  1
  O  O40  1  0.38309500  0.11608300  0.11664800  1
  O  O41  1  0.38572600  0.63464200  0.63688200  1
  O  O42  1  0.38767700  0.37129500  0.36726700  1
  O  O43  1  0.36860000  0.88621400  0.88644300  1
  O  O44  1  0.38164900  0.64041700  0.11927900  1
  O  O45  1  0.38086500  0.11793900  0.64066400  1
  O  O46  1  0.37727800  0.35759800  0.87833800  1
  O  O47  1  0.37454800  0.87800800  0.35593100  1
  O  O48  1  0.13595100  0.12106400  0.88234700  1
  O  O49  1  0.11823500  0.61857000  0.38023800  1
  O  O50  1  0.13574000  0.88109000  0.12111800  1
  O  O51  1  0.11722300  0.38013400  0.62050500  1
  O  O52  1  0.13680400  0.13167300  0.36998400  1
  O  O53  1  0.11528900  0.62903500  0.86961900  1
  O  O54  1  0.11438100  0.37102400  0.13130500  1
  O  O55  1  0.11993100  0.86820400  0.63038200  1
