# generated using pymatgen
data_Li5Cr17(SiO16)2
_symmetry_space_group_name_H-M   'P 1'
_cell_length_a   8.34248752
_cell_length_b   8.34248752
_cell_length_c   8.44506201
_cell_angle_alpha   89.82885562
_cell_angle_beta   89.82885562
_cell_angle_gamma   88.95989623
_symmetry_Int_Tables_number   1
_chemical_formula_structural   Li5Cr17(SiO16)2
_chemical_formula_sum   'Li5 Cr17 Si2 O32'
_cell_volume   587.64981663
_cell_formula_units_Z   1
loop_
 _symmetry_equiv_pos_site_id
 _symmetry_equiv_pos_as_xyz
  1  'x, y, z'
loop_
 _atom_site_type_symbol
 _atom_site_label
 _atom_site_symmetry_multiplicity
 _atom_site_fract_x
 _atom_site_fract_y
 _atom_site_fract_z
 _atom_site_occupancy
  Li  Li0  1  0.49792800  0.49792800  0.00356400  1
  Li  Li1  1  0.74590500  0.25303600  0.75223400  1
  Li  Li2  1  0.25303600  0.74590500  0.75223400  1
  Li  Li3  1  0.25428900  0.25428900  0.24531600  1
  Li  Li4  1  0.74642300  0.74642300  0.24417300  1
  Cr  Cr5  1  0.38263600  0.12304400  0.87507100  1
  Cr  Cr6  1  0.12304400  0.38263600  0.87507100  1
  Cr  Cr7  1  0.62192100  0.62192100  0.63124300  1
  Cr  Cr8  1  0.87673400  0.87673400  0.63019000  1
  Cr  Cr9  1  0.37783900  0.37783900  0.62367000  1
  Cr  Cr10  1  0.12233600  0.12233600  0.62180000  1
  Cr  Cr11  1  0.99590700  0.50184400  0.50044300  1
  Cr  Cr12  1  0.50184400  0.99590700  0.50044300  1
  Cr  Cr13  1  0.37780500  0.62317900  0.37460000  1
  Cr  Cr14  1  0.12260500  0.87694500  0.37795700  1
  Cr  Cr15  1  0.62317900  0.37780500  0.37460000  1
  Cr  Cr16  1  0.87694500  0.12260500  0.37795700  1
  Cr  Cr17  1  0.38065700  0.87259500  0.11970800  1
  Cr  Cr18  1  0.12208500  0.62463600  0.11902200  1
  Cr  Cr19  1  0.62463600  0.12208500  0.11902200  1
  Cr  Cr20  1  0.87259500  0.38065700  0.11970800  1
  Cr  Cr21  1  0.00113800  0.00113800  0.99749700  1
  Si  Si22  1  0.62264600  0.86988900  0.88323600  1
  Si  Si23  1  0.86988900  0.62264600  0.88323600  1
  O  O24  1  0.40900000  0.87644300  0.88231200  1
  O  O25  1  0.87644300  0.40900000  0.88231200  1
  O  O26  1  0.08886400  0.62426500  0.88161800  1
  O  O27  1  0.36072600  0.36072600  0.85970500  1
  O  O28  1  0.62426500  0.08886400  0.88161800  1
  O  O29  1  0.85154600  0.85154600  0.87445700  1
  O  O30  1  0.65079200  0.65079200  0.87264100  1
  O  O31  1  0.13581600  0.13581600  0.86808000  1
  O  O32  1  0.63251500  0.86946000  0.66347300  1
  O  O33  1  0.12917300  0.36792900  0.63301700  1
  O  O34  1  0.36792900  0.12917300  0.63301700  1
  O  O35  1  0.11397400  0.88507500  0.61453900  1
  O  O36  1  0.86946000  0.63251500  0.66347300  1
  O  O37  1  0.61470500  0.38639500  0.61325100  1
  O  O38  1  0.38639500  0.61470500  0.61325100  1
  O  O39  1  0.88507500  0.11397400  0.61453900  1
  O  O40  1  0.61667200  0.61667200  0.39364600  1
  O  O41  1  0.11333300  0.11333300  0.38804300  1
  O  O42  1  0.88373200  0.88373200  0.39351000  1
  O  O43  1  0.63126600  0.12823500  0.36089700  1
  O  O44  1  0.38739800  0.38739800  0.38728800  1
  O  O45  1  0.12823500  0.63126600  0.36089700  1
  O  O46  1  0.36823000  0.87228200  0.36042600  1
  O  O47  1  0.87228200  0.36823000  0.36042600  1
  O  O48  1  0.35953700  0.63694600  0.13816100  1
  O  O49  1  0.87176300  0.13337600  0.13237100  1
  O  O50  1  0.63694600  0.35953700  0.13816100  1
  O  O51  1  0.87861900  0.61994600  0.09417000  1
  O  O52  1  0.13337600  0.87176300  0.13237100  1
  O  O53  1  0.39072100  0.11097700  0.10781900  1
  O  O54  1  0.61994600  0.87861900  0.09417000  1
  O  O55  1  0.11097700  0.39072100  0.10781900  1
