# generated using pymatgen
data_NaLi2MnPCO7
_symmetry_space_group_name_H-M   'P 1'
_cell_length_a   6.66461300
_cell_length_b   8.72124211
_cell_length_c   10.07300404
_cell_angle_alpha   90.82070344
_cell_angle_beta   90.24389307
_cell_angle_gamma   90.76635644
_symmetry_Int_Tables_number   1
_chemical_formula_structural   NaLi2MnPCO7
_chemical_formula_sum   'Na4 Li8 Mn4 P4 C4 O28'
_cell_volume   585.36207914
_cell_formula_units_Z   4
loop_
 _symmetry_equiv_pos_site_id
 _symmetry_equiv_pos_as_xyz
  1  'x, y, z'
loop_
 _atom_site_type_symbol
 _atom_site_label
 _atom_site_symmetry_multiplicity
 _atom_site_fract_x
 _atom_site_fract_y
 _atom_site_fract_z
 _atom_site_occupancy
  Na  Na0  1  0.24811800  0.91693300  0.87871500  1
  Na  Na1  1  0.24532900  0.91685200  0.37974900  1
  Na  Na2  1  0.50104000  0.74582900  0.12349300  1
  Na  Na3  1  0.50035000  0.25420400  0.37687200  1
  Li  Li4  1  0.01320800  0.73559900  0.61802700  1
  Li  Li5  1  0.48797300  0.73619700  0.61922300  1
  Li  Li6  1  0.01121800  0.73455300  0.11891500  1
  Li  Li7  1  0.51143100  0.26306800  0.88085700  1
  Li  Li8  1  0.98734800  0.26338900  0.88190000  1
  Li  Li9  1  0.98926700  0.26453400  0.38124200  1
  Li  Li10  1  0.75290500  0.08260300  0.62388500  1
  Li  Li11  1  0.75839400  0.08532800  0.12071200  1
  Mn  Mn12  1  0.75273400  0.64095300  0.88581000  1
  Mn  Mn13  1  0.74958700  0.63983800  0.39136300  1
  Mn  Mn14  1  0.24716600  0.35736900  0.61431600  1
  Mn  Mn15  1  0.24980800  0.35890600  0.10900400  1
  P  P16  1  0.24987600  0.58889800  0.84823100  1
  P  P17  1  0.24117200  0.58894700  0.35309300  1
  P  P18  1  0.75003400  0.40557400  0.65210400  1
  P  P19  1  0.75809700  0.40531200  0.14727800  1
  C  C20  1  0.75104700  0.95593900  0.86601200  1
  C  C21  1  0.75905900  0.95265900  0.36714600  1
  C  C22  1  0.24880000  0.05158400  0.63362100  1
  C  C23  1  0.24063300  0.05470800  0.13211000  1
  O  O24  1  0.25092000  0.90204000  0.64133100  1
  O  O25  1  0.22839000  0.90588500  0.14115800  1
  O  O26  1  0.75231700  0.90322900  0.98668500  1
  O  O27  1  0.75010400  0.90117700  0.48799100  1
  O  O28  1  0.75206200  0.86050400  0.76491400  1
  O  O29  1  0.75391200  0.85616900  0.26665000  1
  O  O30  1  0.06718800  0.67935200  0.90154700  1
  O  O31  1  0.43862500  0.67950800  0.89677800  1
  O  O32  1  0.06286600  0.68507500  0.40583300  1
  O  O33  1  0.43400800  0.67755800  0.40026100  1
  O  O34  1  0.24601400  0.58741700  0.69256000  1
  O  O35  1  0.75090300  0.57546600  0.60308300  1
  O  O36  1  0.23442400  0.58285400  0.19770000  1
  O  O37  1  0.76595100  0.57233400  0.09491600  1
  O  O38  1  0.24927600  0.41962000  0.89543100  1
  O  O39  1  0.75415200  0.41240600  0.80762500  1
  O  O40  1  0.23380600  0.42242700  0.40349300  1
  O  O41  1  0.76551900  0.41677600  0.30235300  1
  O  O42  1  0.56269200  0.31329600  0.60463900  1
  O  O43  1  0.93070800  0.31229900  0.59989000  1
  O  O44  1  0.56660600  0.31516300  0.10103900  1
  O  O45  1  0.93389100  0.30578000  0.09581500  1
  O  O46  1  0.24816400  0.13724500  0.74015700  1
  O  O47  1  0.24499400  0.14062500  0.23854000  1
  O  O48  1  0.24707500  0.11696000  0.51875700  1
  O  O49  1  0.24984700  0.11894500  0.01705800  1
  O  O50  1  0.74904300  0.10225200  0.84532800  1
  O  O51  1  0.77194500  0.09785800  0.34478800  1
