# generated using pymatgen
data_Li2V3Si3O10
_symmetry_space_group_name_H-M   'P 1'
_cell_length_a   8.28099422
_cell_length_b   8.28099422
_cell_length_c   10.61678525
_cell_angle_alpha   87.38722609
_cell_angle_beta   87.38722609
_cell_angle_gamma   34.17261988
_symmetry_Int_Tables_number   1
_chemical_formula_structural   Li2V3Si3O10
_chemical_formula_sum   'Li4 V6 Si6 O20'
_cell_volume   408.46867581
_cell_formula_units_Z   2
loop_
 _symmetry_equiv_pos_site_id
 _symmetry_equiv_pos_as_xyz
  1  'x, y, z'
loop_
 _atom_site_type_symbol
 _atom_site_label
 _atom_site_symmetry_multiplicity
 _atom_site_fract_x
 _atom_site_fract_y
 _atom_site_fract_z
 _atom_site_occupancy
  Li  Li0  1  0.25071400  0.86535700  0.02407200  1
  Li  Li1  1  0.86535700  0.25071400  0.52407200  1
  Li  Li2  1  0.13464300  0.74928600  0.47592800  1
  Li  Li3  1  0.74928600  0.13464300  0.97592800  1
  V  V4  1  0.38866500  0.91258500  0.28672100  1
  V  V5  1  0.91258500  0.38866500  0.78672100  1
  V  V6  1  0.50000000  0.00000000  0.00000000  1
  V  V7  1  0.00000000  0.50000000  0.50000000  1
  V  V8  1  0.08741500  0.61133500  0.21327900  1
  V  V9  1  0.61133500  0.08741500  0.71327900  1
  Si  Si10  1  0.83878100  0.47191800  0.09959500  1
  Si  Si11  1  0.47191800  0.83878100  0.59959500  1
  Si  Si12  1  0.52808200  0.16121900  0.40040500  1
  Si  Si13  1  0.16121900  0.52808200  0.90040500  1
  Si  Si14  1  0.80065900  0.19934100  0.25000000  1
  Si  Si15  1  0.19934100  0.80065900  0.75000000  1
  O  O16  1  0.02105900  0.06014400  0.36131500  1
  O  O17  1  0.64224800  0.49870900  0.18752800  1
  O  O18  1  0.06014400  0.02105900  0.86131500  1
  O  O19  1  0.49870900  0.64224800  0.68752800  1
  O  O20  1  0.17071900  0.13659700  0.10455700  1
  O  O21  1  0.60765100  0.68763100  0.46144500  1
  O  O22  1  0.13659700  0.17071900  0.60455700  1
  O  O23  1  0.68763100  0.60765100  0.96144500  1
  O  O24  1  0.75999900  0.70976800  0.16449300  1
  O  O25  1  0.70976800  0.75999900  0.66449300  1
  O  O26  1  0.29023200  0.24000100  0.33550700  1
  O  O27  1  0.24000100  0.29023200  0.83550700  1
  O  O28  1  0.31236900  0.39234900  0.03855500  1
  O  O29  1  0.86340300  0.82928100  0.39544300  1
  O  O30  1  0.39234900  0.31236900  0.53855500  1
  O  O31  1  0.82928100  0.86340300  0.89544300  1
  O  O32  1  0.50129100  0.35775200  0.31247200  1
  O  O33  1  0.93985600  0.97894100  0.13868500  1
  O  O34  1  0.35775200  0.50129100  0.81247200  1
  O  O35  1  0.97894100  0.93985600  0.63868500  1
