# generated using pymatgen
data_Li4V2SiGeO10
_symmetry_space_group_name_H-M   'P 1'
_cell_length_a   4.57354401
_cell_length_b   9.21234414
_cell_length_c   9.21214897
_cell_angle_alpha   89.99500396
_cell_angle_beta   90.00233872
_cell_angle_gamma   90.00602212
_symmetry_Int_Tables_number   1
_chemical_formula_structural   Li4V2SiGeO10
_chemical_formula_sum   'Li8 V4 Si2 Ge2 O20'
_cell_volume   388.13603391
_cell_formula_units_Z   2
loop_
 _symmetry_equiv_pos_site_id
 _symmetry_equiv_pos_as_xyz
  1  'x, y, z'
loop_
 _atom_site_type_symbol
 _atom_site_label
 _atom_site_symmetry_multiplicity
 _atom_site_fract_x
 _atom_site_fract_y
 _atom_site_fract_z
 _atom_site_occupancy
  Li  Li0  1  0.00000300  0.49999900  0.49488200  1
  Li  Li1  1  0.00002100  0.00001400  0.99488100  1
  Li  Li2  1  0.00001000  0.25511700  0.24998100  1
  Li  Li3  1  0.00001300  0.75511300  0.75000600  1
  Li  Li4  1  0.00001300  0.74488400  0.24999400  1
  Li  Li5  1  0.00000800  0.24488700  0.75001500  1
  Li  Li6  1  0.00002200  0.49998700  0.00511500  1
  Li  Li7  1  0.00000300  0.00000100  0.50511900  1
  V  V8  1  0.58949800  0.74999700  0.50000000  1
  V  V9  1  0.41047900  0.25000300  0.50000100  1
  V  V10  1  0.58943100  0.24999700  0.00000000  1
  V  V11  1  0.41041000  0.75000100  0.00000200  1
  Si  Si12  1  0.49999100  0.49998300  0.24999700  1
  Si  Si13  1  0.49999400  0.00001000  0.74998400  1
  Ge  Ge14  1  0.49998800  0.49999600  0.75002100  1
  Ge  Ge15  1  0.49998200  0.00001000  0.24999500  1
  O  O16  1  0.22212000  0.24999800  0.99999700  1
  O  O17  1  0.22216400  0.74996600  0.49999900  1
  O  O18  1  0.77784900  0.75000100  0.00000100  1
  O  O19  1  0.77780400  0.25002700  0.50001400  1
  O  O20  1  0.28587500  0.39788000  0.35205800  1
  O  O21  1  0.28574200  0.89793900  0.85204900  1
  O  O22  1  0.71426600  0.39793400  0.14796400  1
  O  O23  1  0.71419800  0.89794000  0.64794800  1
  O  O24  1  0.71419400  0.60207400  0.35204000  1
  O  O25  1  0.71427300  0.10206500  0.85203700  1
  O  O26  1  0.28574300  0.60206100  0.14794900  1
  O  O27  1  0.28587400  0.10210300  0.64792600  1
  O  O28  1  0.73589000  0.39250100  0.85750700  1
  O  O29  1  0.73580800  0.89251000  0.35751600  1
  O  O30  1  0.26424100  0.39245500  0.64246300  1
  O  O31  1  0.26408100  0.89250300  0.14247700  1
  O  O32  1  0.26408700  0.60749900  0.85752300  1
  O  O33  1  0.26423000  0.10753800  0.35754200  1
  O  O34  1  0.73579300  0.60750600  0.64249900  1
  O  O35  1  0.73589500  0.10749900  0.14249700  1
