# generated using pymatgen
data_Li4Ti4Mn4VO18
_symmetry_space_group_name_H-M   'P 1'
_cell_length_a   2.91115000
_cell_length_b   9.13961200
_cell_length_c   26.53602800
_cell_angle_alpha   90.00000000
_cell_angle_beta   90.00000000
_cell_angle_gamma   90.00000000
_symmetry_Int_Tables_number   1
_chemical_formula_structural   Li4Ti4Mn4VO18
_chemical_formula_sum   'Li8 Ti8 Mn8 V2 O36'
_cell_volume   706.03829818
_cell_formula_units_Z   2
loop_
 _symmetry_equiv_pos_site_id
 _symmetry_equiv_pos_as_xyz
  1  'x, y, z'
loop_
 _atom_site_type_symbol
 _atom_site_label
 _atom_site_symmetry_multiplicity
 _atom_site_fract_x
 _atom_site_fract_y
 _atom_site_fract_z
 _atom_site_occupancy
  Li  Li0  1  0.00000000  0.19106500  0.98591900  1
  Li  Li1  1  0.00000000  0.20148500  0.17878100  1
  Li  Li2  1  0.00000000  0.29851500  0.67878100  1
  Li  Li3  1  0.00000000  0.30893500  0.48591900  1
  Li  Li4  1  0.00000000  0.69106500  0.51408100  1
  Li  Li5  1  0.00000000  0.70148500  0.32121900  1
  Li  Li6  1  0.00000000  0.79851500  0.82121900  1
  Li  Li7  1  0.00000000  0.80893500  0.01408100  1
  Ti  Ti8  1  0.00000000  0.98996600  0.10200900  1
  Ti  Ti9  1  0.50000000  0.15180600  0.80799900  1
  Ti  Ti10  1  0.50000000  0.34819400  0.30799900  1
  Ti  Ti11  1  0.00000000  0.51003400  0.60200900  1
  Ti  Ti12  1  0.00000000  0.48996600  0.39799100  1
  Ti  Ti13  1  0.50000000  0.65180600  0.69200100  1
  Ti  Ti14  1  0.50000000  0.84819400  0.19200100  1
  Ti  Ti15  1  0.00000000  0.01003400  0.89799100  1
  Mn  Mn16  1  0.00000000  0.00415700  0.30888800  1
  Mn  Mn17  1  0.50000000  0.15584200  0.58642000  1
  Mn  Mn18  1  0.50000000  0.34415800  0.08642000  1
  Mn  Mn19  1  0.00000000  0.49584300  0.80888800  1
  Mn  Mn20  1  0.00000000  0.50415700  0.19111200  1
  Mn  Mn21  1  0.50000000  0.65584200  0.91358000  1
  Mn  Mn22  1  0.50000000  0.84415800  0.41358000  1
  Mn  Mn23  1  0.00000000  0.99584300  0.69111200  1
  V  V24  1  0.00000000  0.00000000  0.50000000  1
  V  V25  1  0.00000000  0.50000000  0.00000000  1
  O  O26  1  0.00000000  0.98059700  0.42610200  1
  O  O27  1  0.00000000  0.01940300  0.57389800  1
  O  O28  1  0.50000000  0.06238700  0.94192500  1
  O  O29  1  0.50000000  0.04368200  0.15479000  1
  O  O30  1  0.50000000  0.12540300  0.66827500  1
  O  O31  1  0.00000000  0.10398200  0.76406300  1
  O  O32  1  0.50000000  0.14675800  0.49791300  1
  O  O33  1  0.50000000  0.13819400  0.29364400  1
  O  O34  1  0.00000000  0.18688200  0.85876900  1
  O  O35  1  0.00000000  0.20074700  0.08573400  1
  O  O36  1  0.00000000  0.29925300  0.58573400  1
  O  O37  1  0.00000000  0.31311800  0.35876900  1
  O  O38  1  0.50000000  0.36180600  0.79364400  1
  O  O39  1  0.50000000  0.35324200  0.99791300  1
  O  O40  1  0.00000000  0.39601800  0.26406300  1
  O  O41  1  0.50000000  0.37459700  0.16827500  1
  O  O42  1  0.50000000  0.45631800  0.65479000  1
  O  O43  1  0.50000000  0.43761300  0.44192500  1
  O  O44  1  0.00000000  0.48059700  0.07389800  1
  O  O45  1  0.00000000  0.51940300  0.92610200  1
  O  O46  1  0.50000000  0.56238700  0.55807500  1
  O  O47  1  0.50000000  0.54368200  0.34521000  1
  O  O48  1  0.50000000  0.62540300  0.83172500  1
  O  O49  1  0.00000000  0.60398200  0.73593700  1
  O  O50  1  0.50000000  0.64675800  0.00208700  1
  O  O51  1  0.50000000  0.63819400  0.20635600  1
  O  O52  1  0.00000000  0.68688200  0.64123100  1
  O  O53  1  0.00000000  0.70074700  0.41426600  1
  O  O54  1  0.00000000  0.79925300  0.91426600  1
  O  O55  1  0.00000000  0.81311800  0.14123100  1
  O  O56  1  0.50000000  0.86180600  0.70635600  1
  O  O57  1  0.50000000  0.85324200  0.50208700  1
  O  O58  1  0.00000000  0.89601800  0.23593700  1
  O  O59  1  0.50000000  0.87459700  0.33172500  1
  O  O60  1  0.50000000  0.95631800  0.84521000  1
  O  O61  1  0.50000000  0.93761300  0.05807500  1
