# generated using pymatgen
data_Li9Sb3P8O29
_symmetry_space_group_name_H-M   'P 1'
_cell_length_a   10.20409296
_cell_length_b   10.20409296
_cell_length_c   14.14358900
_cell_angle_alpha   90.00000000
_cell_angle_beta   90.00000000
_cell_angle_gamma   120.00000621
_symmetry_Int_Tables_number   1
_chemical_formula_structural   Li9Sb3P8O29
_chemical_formula_sum   'Li18 Sb6 P16 O58'
_cell_volume   1275.37836280
_cell_formula_units_Z   2
loop_
 _symmetry_equiv_pos_site_id
 _symmetry_equiv_pos_as_xyz
  1  'x, y, z'
loop_
 _atom_site_type_symbol
 _atom_site_label
 _atom_site_symmetry_multiplicity
 _atom_site_fract_x
 _atom_site_fract_y
 _atom_site_fract_z
 _atom_site_occupancy
  Li  Li0  1  0.00000000  0.00000000  0.00000000  1
  Li  Li1  1  0.00000000  0.00000000  0.50000000  1
  Li  Li2  1  0.32917600  0.22652500  0.06192900  1
  Li  Li3  1  0.32917600  0.10265100  0.56192900  1
  Li  Li4  1  0.77347500  0.67082400  0.56192900  1
  Li  Li5  1  0.66666700  0.33333300  0.87988300  1
  Li  Li6  1  0.66666700  0.33333300  0.37988300  1
  Li  Li7  1  0.89734900  0.67082400  0.06192900  1
  Li  Li8  1  0.77347500  0.10265100  0.06192900  1
  Li  Li9  1  0.10265100  0.77347500  0.43807100  1
  Li  Li10  1  0.89734900  0.22652500  0.56192900  1
  Li  Li11  1  0.22652500  0.89734900  0.93807100  1
  Li  Li12  1  0.10265100  0.32917600  0.93807100  1
  Li  Li13  1  0.33333300  0.66666700  0.12011700  1
  Li  Li14  1  0.33333300  0.66666700  0.62011700  1
  Li  Li15  1  0.22652500  0.32917600  0.43807100  1
  Li  Li16  1  0.67082400  0.89734900  0.43807100  1
  Li  Li17  1  0.67082400  0.77347500  0.93807100  1
  Sb  Sb18  1  0.43127200  0.43127200  0.25000000  1
  Sb  Sb19  1  0.56872800  0.56872800  0.75000000  1
  Sb  Sb20  1  0.43127200  0.00000000  0.75000000  1
  Sb  Sb21  1  0.56872800  0.00000000  0.25000000  1
  Sb  Sb22  1  0.00000000  0.56872800  0.25000000  1
  Sb  Sb23  1  0.00000000  0.43127200  0.75000000  1
  P  P24  1  0.30761100  0.22036300  0.84684300  1
  P  P25  1  0.30761100  0.08724800  0.34684300  1
  P  P26  1  0.77963700  0.69238900  0.34684300  1
  P  P27  1  0.66666700  0.33333300  0.61293400  1
  P  P28  1  0.66666700  0.33333300  0.11293400  1
  P  P29  1  0.91275200  0.69238900  0.84684300  1
  P  P30  1  0.08724800  0.77963700  0.65315700  1
  P  P31  1  0.77963700  0.08724800  0.84684300  1
  P  P32  1  0.22036300  0.91275200  0.15315700  1
  P  P33  1  0.91275200  0.22036300  0.34684300  1
  P  P34  1  0.08724800  0.30761100  0.15315700  1
  P  P35  1  0.33333300  0.66666700  0.38706600  1
  P  P36  1  0.33333300  0.66666700  0.88706600  1
  P  P37  1  0.22036300  0.30761100  0.65315700  1
  P  P38  1  0.69238900  0.91275200  0.65315700  1
  P  P39  1  0.69238900  0.77963700  0.15315700  1
  O  O40  1  0.22269000  0.22269000  0.75000000  1
  O  O41  1  0.22526300  0.21756800  0.56849800  1
  O  O42  1  0.30161900  0.23599000  0.34677800  1
  O  O43  1  0.22269000  0.00000000  0.25000000  1
  O  O44  1  0.22526300  0.00769600  0.06849800  1
  O  O45  1  0.30161900  0.06562900  0.84677800  1
  O  O46  1  0.47318500  0.34834800  0.84400800  1
  O  O47  1  0.50972500  0.30598000  0.15079200  1
  O  O48  1  0.65165200  0.52681500  0.34400800  1
  O  O49  1  0.78243200  0.77473700  0.06849800  1
  O  O50  1  0.77731000  0.77731000  0.25000000  1
  O  O51  1  0.76401000  0.69838100  0.84677800  1
  O  O52  1  0.50972500  0.20374500  0.65079200  1
  O  O53  1  0.47318500  0.12483700  0.34400800  1
  O  O54  1  0.69402000  0.49027500  0.65079200  1
  O  O55  1  0.66666700  0.33333300  0.50638100  1
  O  O56  1  0.66666700  0.33333300  0.00638100  1
  O  O57  1  0.79625500  0.49027500  0.15079200  1
  O  O58  1  0.65165200  0.12483700  0.84400800  1
  O  O59  1  0.69402000  0.20374500  0.15079200  1
  O  O60  1  0.93437100  0.69838100  0.34677800  1
  O  O61  1  0.00000000  0.77731000  0.75000000  1
  O  O62  1  0.99230400  0.77473700  0.56849800  1
  O  O63  1  0.00769600  0.78243200  0.93150200  1
  O  O64  1  0.87516300  0.52681500  0.84400800  1
  O  O65  1  0.79625500  0.30598000  0.65079200  1
  O  O66  1  0.06562900  0.76401000  0.15322200  1
  O  O67  1  0.87516300  0.34834800  0.34400800  1
  O  O68  1  0.76401000  0.06562900  0.34677800  1
  O  O69  1  0.21756800  0.99230400  0.43150200  1
  O  O70  1  0.78243200  0.00769600  0.56849800  1
  O  O71  1  0.77731000  0.00000000  0.75000000  1
  O  O72  1  0.23599000  0.93437100  0.65322200  1
  O  O73  1  0.12483700  0.65165200  0.65599200  1
  O  O74  1  0.93437100  0.23599000  0.84677800  1
  O  O75  1  0.20374500  0.69402000  0.34920800  1
  O  O76  1  0.12483700  0.47318500  0.15599200  1
  O  O77  1  0.99230400  0.21756800  0.06849800  1
  O  O78  1  0.00769600  0.22526300  0.43150200  1
  O  O79  1  0.00000000  0.22269000  0.25000000  1
  O  O80  1  0.06562900  0.30161900  0.65322200  1
  O  O81  1  0.30598000  0.79625500  0.84920800  1
  O  O82  1  0.34834800  0.87516300  0.15599200  1
  O  O83  1  0.20374500  0.50972500  0.84920800  1
  O  O84  1  0.33333300  0.66666700  0.49361900  1
  O  O85  1  0.33333300  0.66666700  0.99361900  1
  O  O86  1  0.30598000  0.50972500  0.34920800  1
  O  O87  1  0.52681500  0.87516300  0.65599200  1
  O  O88  1  0.49027500  0.79625500  0.34920800  1
  O  O89  1  0.23599000  0.30161900  0.15322200  1
  O  O90  1  0.21756800  0.22526300  0.93150200  1
  O  O91  1  0.34834800  0.47318500  0.65599200  1
  O  O92  1  0.49027500  0.69402000  0.84920800  1
  O  O93  1  0.52681500  0.65165200  0.15599200  1
  O  O94  1  0.69838100  0.93437100  0.15322200  1
  O  O95  1  0.77473700  0.99230400  0.93150200  1
  O  O96  1  0.69838100  0.76401000  0.65322200  1
  O  O97  1  0.77473700  0.78243200  0.43150200  1
