# generated using pymatgen
data_LiNiPO4
_symmetry_space_group_name_H-M   'P 1'
_cell_length_a   5.22010800
_cell_length_b   6.82531100
_cell_length_c   8.04719500
_cell_angle_alpha   90.00000000
_cell_angle_beta   90.00000000
_cell_angle_gamma   90.00000000
_symmetry_Int_Tables_number   1
_chemical_formula_structural   LiNiPO4
_chemical_formula_sum   'Li4 Ni4 P4 O16'
_cell_volume   286.71238850
_cell_formula_units_Z   4
loop_
 _symmetry_equiv_pos_site_id
 _symmetry_equiv_pos_as_xyz
  1  'x, y, z'
loop_
 _atom_site_type_symbol
 _atom_site_label
 _atom_site_symmetry_multiplicity
 _atom_site_fract_x
 _atom_site_fract_y
 _atom_site_fract_z
 _atom_site_occupancy
  Li  Li0  1  0.21821900  0.24872600  0.55418800  1
  Li  Li1  1  0.71821900  0.25127400  0.05418800  1
  Li  Li2  1  0.21821900  0.74872600  0.94581200  1
  Li  Li3  1  0.71821900  0.75127400  0.44581200  1
  Ni  Ni4  1  0.73891600  0.96411400  0.75552400  1
  Ni  Ni5  1  0.23891600  0.53588600  0.25552400  1
  Ni  Ni6  1  0.73891600  0.46411400  0.74447600  1
  Ni  Ni7  1  0.23891600  0.03588600  0.24447600  1
  P  P8  1  0.72304000  0.21694500  0.40854800  1
  P  P9  1  0.22304000  0.28305500  0.90854800  1
  P  P10  1  0.72304000  0.71694500  0.09145200  1
  P  P11  1  0.22304000  0.78305500  0.59145200  1
  O  O12  1  0.68565100  0.03081000  0.51345000  1
  O  O13  1  0.45066100  0.27580300  0.33617500  1
  O  O14  1  0.90086000  0.18469400  0.25550300  1
  O  O15  1  0.84365200  0.38065800  0.51563200  1
  O  O16  1  0.34365200  0.11934200  0.01563200  1
  O  O17  1  0.40086000  0.31530600  0.75550300  1
  O  O18  1  0.95066100  0.22419700  0.83617500  1
  O  O19  1  0.18565100  0.46919000  0.01345000  1
  O  O20  1  0.68565100  0.53081000  0.98655000  1
  O  O21  1  0.45066100  0.77580300  0.16382500  1
  O  O22  1  0.90086000  0.68469400  0.24449700  1
  O  O23  1  0.84365200  0.88065800  0.98436800  1
  O  O24  1  0.34365200  0.61934200  0.48436800  1
  O  O25  1  0.40086000  0.81530600  0.74449700  1
  O  O26  1  0.95066100  0.72419700  0.66382500  1
  O  O27  1  0.18565100  0.96919000  0.48655000  1
