# generated using pymatgen
data_Li4VNi3(PO4)4
_symmetry_space_group_name_H-M   'P 1'
_cell_length_a   5.98206300
_cell_length_b   4.74214800
_cell_length_c   10.22191361
_cell_angle_alpha   89.85526821
_cell_angle_beta   90.00000000
_cell_angle_gamma   90.00000000
_symmetry_Int_Tables_number   1
_chemical_formula_structural   Li4VNi3(PO4)4
_chemical_formula_sum   'Li4 V1 Ni3 P4 O16'
_cell_volume   289.97256298
_cell_formula_units_Z   1
loop_
 _symmetry_equiv_pos_site_id
 _symmetry_equiv_pos_as_xyz
  1  'x, y, z'
loop_
 _atom_site_type_symbol
 _atom_site_label
 _atom_site_symmetry_multiplicity
 _atom_site_fract_x
 _atom_site_fract_y
 _atom_site_fract_z
 _atom_site_occupancy
  Li  Li0  1  0.25137600  0.99913900  0.00300300  1
  Li  Li1  1  0.74862400  0.99913900  0.00300300  1
  Li  Li2  1  0.74943600  0.50032300  0.49783100  1
  Li  Li3  1  0.25056400  0.50032300  0.49783100  1
  V  V4  1  0.00000000  0.01989200  0.72513100  1
  Ni  Ni5  1  0.50000000  0.98129000  0.27596000  1
  Ni  Ni6  1  0.50000000  0.51957900  0.77650200  1
  Ni  Ni7  1  0.00000000  0.48007500  0.22397100  1
  P  P8  1  0.00000000  0.91463700  0.40332600  1
  P  P9  1  0.00000000  0.58454500  0.90815800  1
  P  P10  1  0.50000000  0.41664100  0.09439800  1
  P  P11  1  0.50000000  0.08603000  0.59322800  1
  O  O12  1  0.00000000  0.79391400  0.54430000  1
  O  O13  1  0.20647000  0.77465800  0.33269600  1
  O  O14  1  0.79353000  0.77465800  0.33269600  1
  O  O15  1  0.50000000  0.76080200  0.60048900  1
  O  O16  1  0.50000000  0.74015000  0.10018200  1
  O  O17  1  0.20792500  0.72196800  0.83727600  1
  O  O18  1  0.79207500  0.72196800  0.83727600  1
  O  O19  1  0.00000000  0.70243300  0.04963600  1
  O  O20  1  0.50000000  0.29995300  0.95203100  1
  O  O21  1  0.70571000  0.27512700  0.16546100  1
  O  O22  1  0.29429000  0.27512700  0.16546100  1
  O  O23  1  0.00000000  0.26194800  0.90462400  1
  O  O24  1  0.00000000  0.23848900  0.39840700  1
  O  O25  1  0.70326800  0.22853100  0.66350800  1
  O  O26  1  0.29673200  0.22853100  0.66350800  1
  O  O27  1  0.50000000  0.20012900  0.45011200  1
