# generated using pymatgen
data_Li4Cr3(CO3)6
_symmetry_space_group_name_H-M   'P 1'
_cell_length_a   4.70874100
_cell_length_b   6.06685496
_cell_length_c   12.08051018
_cell_angle_alpha   100.54127364
_cell_angle_beta   90.03609766
_cell_angle_gamma   112.65207866
_symmetry_Int_Tables_number   1
_chemical_formula_structural   Li4Cr3(CO3)6
_chemical_formula_sum   'Li4 Cr3 C6 O18'
_cell_volume   312.14802594
_cell_formula_units_Z   1
loop_
 _symmetry_equiv_pos_site_id
 _symmetry_equiv_pos_as_xyz
  1  'x, y, z'
loop_
 _atom_site_type_symbol
 _atom_site_label
 _atom_site_symmetry_multiplicity
 _atom_site_fract_x
 _atom_site_fract_y
 _atom_site_fract_z
 _atom_site_occupancy
  Li  Li0  1  0.24253000  0.49824600  0.92864000  1
  Li  Li1  1  0.39928000  0.80700200  0.38749400  1
  Li  Li2  1  0.60072000  0.19299800  0.61250600  1
  Li  Li3  1  0.75747000  0.50175400  0.07136000  1
  Cr  Cr4  1  0.33513400  0.67200200  0.66819500  1
  Cr  Cr5  1  0.66486600  0.32799800  0.33180500  1
  Cr  Cr6  1  0.00000000  0.00000000  0.00000000  1
  C  C7  1  0.11962600  0.24536000  0.47033800  1
  C  C8  1  0.45600100  0.90359800  0.13722000  1
  C  C9  1  0.21826100  0.42899000  0.19890100  1
  C  C10  1  0.78173900  0.57101000  0.80109900  1
  C  C11  1  0.54399900  0.09640200  0.86278000  1
  C  C12  1  0.88037400  0.75464000  0.52966200  1
  O  O13  1  0.72201800  0.89470900  0.12713600  1
  O  O14  1  0.61313700  0.77496400  0.53771000  1
  O  O15  1  0.39981100  0.49891200  0.29177100  1
  O  O16  1  0.31179800  0.37502300  0.10296800  1
  O  O17  1  0.05664000  0.34764700  0.56582600  1
  O  O18  1  0.39139400  0.00896100  0.23330200  1
  O  O19  1  0.91514900  0.15447600  0.38566800  1
  O  O20  1  0.24091700  0.80029100  0.05404300  1
  O  O21  1  0.06022100  0.57338500  0.79351900  1
  O  O22  1  0.93977900  0.42661500  0.20648100  1
  O  O23  1  0.75908300  0.19970900  0.94595700  1
  O  O24  1  0.08485100  0.84552400  0.61433200  1
  O  O25  1  0.60860600  0.99103900  0.76669800  1
  O  O26  1  0.94336000  0.65235300  0.43417400  1
  O  O27  1  0.68820200  0.62497700  0.89703200  1
  O  O28  1  0.60018900  0.50108800  0.70822900  1
  O  O29  1  0.38686300  0.22503600  0.46229000  1
  O  O30  1  0.27798200  0.10529100  0.87286400  1
