# generated using pymatgen
data_Li3Cr4O8
_symmetry_space_group_name_H-M   'P 1'
_cell_length_a   5.89264243
_cell_length_b   10.37644510
_cell_length_c   5.92048357
_cell_angle_alpha   106.57221962
_cell_angle_beta   59.84557763
_cell_angle_gamma   106.50032656
_symmetry_Int_Tables_number   1
_chemical_formula_structural   Li3Cr4O8
_chemical_formula_sum   'Li6 Cr8 O16'
_cell_volume   295.65709190
_cell_formula_units_Z   2
loop_
 _symmetry_equiv_pos_site_id
 _symmetry_equiv_pos_as_xyz
  1  'x, y, z'
loop_
 _atom_site_type_symbol
 _atom_site_label
 _atom_site_symmetry_multiplicity
 _atom_site_fract_x
 _atom_site_fract_y
 _atom_site_fract_z
 _atom_site_occupancy
  Li  Li0  1  0.00104500  0.99991600  0.49944000  1
  Li  Li1  1  0.49898700  0.50008500  0.00047800  1
  Li  Li2  1  0.49872700  0.00026000  0.50150200  1
  Li  Li3  1  0.00127200  0.49972300  0.99845400  1
  Li  Li4  1  0.49876600  0.00028500  0.99999500  1
  Li  Li5  1  0.00119900  0.49971200  0.49999600  1
  Cr  Cr6  1  0.74997800  0.25000600  0.75003400  1
  Cr  Cr7  1  0.25000700  0.75000300  0.24999800  1
  Cr  Cr8  1  0.74999600  0.75003300  0.25002700  1
  Cr  Cr9  1  0.75000200  0.74997700  0.75000300  1
  Cr  Cr10  1  0.75009500  0.25001100  0.24992500  1
  Cr  Cr11  1  0.24995900  0.25000200  0.74996600  1
  Cr  Cr12  1  0.24993800  0.25000500  0.24999100  1
  Cr  Cr13  1  0.25002300  0.75001800  0.74997700  1
  O  O14  1  0.12081400  0.36217500  0.12066700  1
  O  O15  1  0.62211800  0.86218600  0.61999100  1
  O  O16  1  0.37918200  0.13783000  0.37935900  1
  O  O17  1  0.87781800  0.63781100  0.88002900  1
  O  O18  1  0.62666000  0.35755500  0.10389900  1
  O  O19  1  0.12711700  0.85815400  0.60569900  1
  O  O20  1  0.62660100  0.35754300  0.62697000  1
  O  O21  1  0.12711100  0.85807900  0.12545300  1
  O  O22  1  0.10705400  0.35717900  0.62504100  1
  O  O23  1  0.60358500  0.85677400  0.12664700  1
  O  O24  1  0.39303100  0.14280000  0.87489900  1
  O  O25  1  0.89633400  0.64322300  0.37350500  1
  O  O26  1  0.87343400  0.14241900  0.87302700  1
  O  O27  1  0.37276000  0.64189600  0.37465100  1
  O  O28  1  0.87350100  0.14243100  0.39592300  1
  O  O29  1  0.37288300  0.64191200  0.89445400  1
