# generated using pymatgen
data_K2Li3CrO4
_symmetry_space_group_name_H-M   'P 1'
_cell_length_a   8.97562400
_cell_length_b   5.58478800
_cell_length_c   11.06204087
_cell_angle_alpha   70.21853251
_cell_angle_beta   90.00000000
_cell_angle_gamma   90.00000000
_symmetry_Int_Tables_number   1
_chemical_formula_structural   K2Li3CrO4
_chemical_formula_sum   'K8 Li12 Cr4 O16'
_cell_volume   521.78518223
_cell_formula_units_Z   4
loop_
 _symmetry_equiv_pos_site_id
 _symmetry_equiv_pos_as_xyz
  1  'x, y, z'
loop_
 _atom_site_type_symbol
 _atom_site_label
 _atom_site_symmetry_multiplicity
 _atom_site_fract_x
 _atom_site_fract_y
 _atom_site_fract_z
 _atom_site_occupancy
  K  K0  1  0.22667500  0.71638100  0.89221500  1
  K  K1  1  0.49311700  0.70532100  0.63770900  1
  K  K2  1  0.27332500  0.71638100  0.39221500  1
  K  K3  1  0.99311700  0.29467900  0.86229100  1
  K  K4  1  0.00688300  0.70532100  0.13770900  1
  K  K5  1  0.72667500  0.28361900  0.60778500  1
  K  K6  1  0.50688300  0.29467900  0.36229100  1
  K  K7  1  0.77332500  0.28361900  0.10778500  1
  Li  Li8  1  0.96323400  0.89688100  0.70563000  1
  Li  Li9  1  0.73372500  0.61680200  0.80064800  1
  Li  Li10  1  0.53676600  0.89688100  0.20563000  1
  Li  Li11  1  0.50254000  0.37798400  0.92767400  1
  Li  Li12  1  0.00254000  0.62201600  0.57232600  1
  Li  Li13  1  0.23372500  0.38319800  0.69935200  1
  Li  Li14  1  0.76627500  0.61680200  0.30064800  1
  Li  Li15  1  0.99746000  0.37798400  0.42767400  1
  Li  Li16  1  0.49746000  0.62201600  0.07232600  1
  Li  Li17  1  0.46323400  0.10311900  0.79437000  1
  Li  Li18  1  0.26627500  0.38319800  0.19935200  1
  Li  Li19  1  0.03676600  0.10311900  0.29437000  1
  Cr  Cr20  1  0.70874700  0.90589000  0.93703200  1
  Cr  Cr21  1  0.79125300  0.90589000  0.43703200  1
  Cr  Cr22  1  0.20874700  0.09411000  0.56296800  1
  Cr  Cr23  1  0.29125300  0.09411000  0.06296800  1
  O  O24  1  0.89028500  0.77140300  0.89323300  1
  O  O25  1  0.54361900  0.75259800  0.87641500  1
  O  O26  1  0.80238900  0.75086200  0.62297300  1
  O  O27  1  0.16197100  0.74468100  0.65153100  1
  O  O28  1  0.60971500  0.77140300  0.39323300  1
  O  O29  1  0.95638100  0.75259800  0.37641500  1
  O  O30  1  0.66197100  0.25531900  0.84846900  1
  O  O31  1  0.30238900  0.24913800  0.87702700  1
  O  O32  1  0.69761100  0.75086200  0.12297300  1
  O  O33  1  0.33802900  0.74468100  0.15153100  1
  O  O34  1  0.04361900  0.24740200  0.62358500  1
  O  O35  1  0.39028500  0.22859700  0.60676700  1
  O  O36  1  0.83802900  0.25531900  0.34846900  1
  O  O37  1  0.19761100  0.24913800  0.37702700  1
  O  O38  1  0.45638100  0.24740200  0.12358500  1
  O  O39  1  0.10971500  0.22859700  0.10676700  1
