# generated using pymatgen
data_LiCu2PO4
_symmetry_space_group_name_H-M   'P 1'
_cell_length_a   5.56749900
_cell_length_b   6.26308110
_cell_length_c   10.24669801
_cell_angle_alpha   89.04232547
_cell_angle_beta   89.32733900
_cell_angle_gamma   88.81915195
_symmetry_Int_Tables_number   1
_chemical_formula_structural   LiCu2PO4
_chemical_formula_sum   'Li4 Cu8 P4 O16'
_cell_volume   357.15027590
_cell_formula_units_Z   4
loop_
 _symmetry_equiv_pos_site_id
 _symmetry_equiv_pos_as_xyz
  1  'x, y, z'
loop_
 _atom_site_type_symbol
 _atom_site_label
 _atom_site_symmetry_multiplicity
 _atom_site_fract_x
 _atom_site_fract_y
 _atom_site_fract_z
 _atom_site_occupancy
  Li  Li0  1  0.14685600  0.00776200  0.25076900  1
  Li  Li1  1  0.15377700  0.99829800  0.74968700  1
  Li  Li2  1  0.32733900  0.24736900  0.50492300  1
  Li  Li3  1  0.68415400  0.24814000  0.75356500  1
  Cu  Cu4  1  0.34118300  0.27474000  0.98898900  1
  Cu  Cu5  1  0.65433200  0.28231300  0.25564700  1
  Cu  Cu6  1  0.75008000  0.51090500  0.01224700  1
  Cu  Cu7  1  0.75086200  0.50773000  0.51048300  1
  Cu  Cu8  1  0.64612200  0.70201400  0.27189200  1
  Cu  Cu9  1  0.65528800  0.70743200  0.77624700  1
  Cu  Cu10  1  0.36979400  0.73279400  0.49820100  1
  Cu  Cu11  1  0.36744800  0.71853000  0.98957500  1
  P  P12  1  0.84991900  0.00507900  0.99960600  1
  P  P13  1  0.84215900  0.01285200  0.50251500  1
  P  P14  1  0.17751900  0.49135500  0.74012000  1
  P  P15  1  0.17837100  0.50165000  0.25078500  1
  O  O16  1  0.83918500  0.01156200  0.35082500  1
  O  O17  1  0.10317100  0.01404200  0.55463700  1
  O  O18  1  0.84348800  0.00187200  0.84828600  1
  O  O19  1  0.11025300  0.00100400  0.05308000  1
  O  O20  1  0.68954700  0.20723500  0.55623300  1
  O  O21  1  0.70792100  0.20742900  0.04964000  1
  O  O22  1  0.32220700  0.28815300  0.78800600  1
  O  O23  1  0.30373500  0.29627500  0.30821600  1
  O  O24  1  0.17016100  0.49885900  0.09988600  1
  O  O25  1  0.91722600  0.50375300  0.30674700  1
  O  O26  1  0.17957600  0.49603400  0.58868200  1
  O  O27  1  0.91455700  0.47999900  0.79339000  1
  O  O28  1  0.29406000  0.71618900  0.29442600  1
  O  O29  1  0.29239100  0.70366800  0.78927400  1
  O  O30  1  0.70954600  0.81240100  0.56066100  1
  O  O31  1  0.70776800  0.81256600  0.06017100  1
