# generated using pymatgen
data_Li3V3P8O29
_symmetry_space_group_name_H-M   'P 1'
_cell_length_a   9.76165200
_cell_length_b   9.76880538
_cell_length_c   14.02539641
_cell_angle_alpha   89.47772654
_cell_angle_beta   89.49492654
_cell_angle_gamma   60.03149192
_symmetry_Int_Tables_number   1
_chemical_formula_structural   Li3V3P8O29
_chemical_formula_sum   'Li6 V6 P16 O58'
_cell_volume   1158.57721986
_cell_formula_units_Z   2
loop_
 _symmetry_equiv_pos_site_id
 _symmetry_equiv_pos_as_xyz
  1  'x, y, z'
loop_
 _atom_site_type_symbol
 _atom_site_label
 _atom_site_symmetry_multiplicity
 _atom_site_fract_x
 _atom_site_fract_y
 _atom_site_fract_z
 _atom_site_occupancy
  Li  Li0  1  0.09389100  0.68242500  0.94649700  1
  Li  Li1  1  0.22491700  0.08978600  0.94173400  1
  Li  Li2  1  0.90333700  0.76647800  0.55651400  1
  Li  Li3  1  0.09846600  0.23465900  0.43842200  1
  Li  Li4  1  0.77039500  0.91355400  0.06327100  1
  Li  Li5  1  0.00026300  0.99936000  0.49524900  1
  V  V6  1  0.00174400  0.56270500  0.75040700  1
  V  V7  1  0.99415600  0.43389300  0.24489000  1
  V  V8  1  0.56087000  0.00933200  0.25603200  1
  V  V9  1  0.43904200  0.99292200  0.74506200  1
  V  V10  1  0.56429700  0.43459700  0.74938700  1
  V  V11  1  0.43762100  0.56244400  0.25144700  1
  P  P12  1  0.68919400  0.22889300  0.15555900  1
  P  P13  1  0.69133000  0.08661200  0.66009100  1
  P  P14  1  0.22474800  0.69241300  0.65476900  1
  P  P15  1  0.33294400  0.33050500  0.87003900  1
  P  P16  1  0.32658500  0.33724300  0.37199300  1
  P  P17  1  0.09155000  0.68170500  0.16085600  1
  P  P18  1  0.91133300  0.77147800  0.34168700  1
  P  P19  1  0.23154700  0.08598500  0.15665400  1
  P  P20  1  0.76981000  0.91165500  0.84448100  1
  P  P21  1  0.08791600  0.22592400  0.65753200  1
  P  P22  1  0.91033200  0.31392300  0.84081900  1
  P  P23  1  0.67038400  0.66383100  0.62869300  1
  P  P24  1  0.66330400  0.67397800  0.12878700  1
  P  P25  1  0.77669300  0.30544100  0.34408500  1
  P  P26  1  0.30938700  0.91209700  0.34016100  1
  P  P27  1  0.31335500  0.77042300  0.84174600  1
  O  O28  1  0.79390300  0.21210600  0.43157600  1
  O  O29  1  0.65596100  0.25850500  0.66475200  1
  O  O30  1  0.76031200  0.98765600  0.93683500  1
  O  O31  1  0.65921100  0.08528900  0.16362600  1
  O  O32  1  0.52792900  0.38283700  0.17809700  1
  O  O33  1  0.47647800  0.33673200  0.82243300  1
  O  O34  1  0.38246000  0.53435300  0.67107900  1
  O  O35  1  0.23192700  0.76112800  0.92909700  1
  O  O36  1  0.25948400  0.65595100  0.16454900  1
  O  O37  1  0.47986300  0.18756200  0.32640900  1
  O  O38  1  0.53181200  0.08614000  0.67271800  1
  O  O39  1  0.33012500  0.48217100  0.32627200  1
  O  O40  1  0.32419800  0.34108100  0.97560200  1
  O  O41  1  0.33106200  0.32798000  0.47766400  1
  O  O42  1  0.18156900  0.48396300  0.82644300  1
  O  O43  1  0.38288900  0.09450500  0.17866100  1
  O  O44  1  0.33319500  0.18154500  0.82971000  1
  O  O45  1  0.08408800  0.65733700  0.66349900  1
  O  O46  1  0.00117700  0.79353300  0.25061000  1
  O  O47  1  0.98426800  0.78125400  0.43246500  1
  O  O48  1  0.00063800  0.75648900  0.07140900  1
  O  O49  1  0.09733100  0.52141600  0.17874000  1
  O  O50  1  0.18106500  0.32945900  0.33189500  1
  O  O51  1  0.91709600  0.74197400  0.83738300  1
  O  O52  1  0.09112100  0.38188400  0.67479000  1
  O  O53  1  0.25906300  0.08613500  0.66960300  1
  O  O54  1  0.79074400  0.00611300  0.75655900  1
  O  O55  1  0.78705400  0.99398800  0.57658700  1
  O  O56  1  0.21126000  0.00479800  0.42326800  1
  O  O57  1  0.73993800  0.91221300  0.33181200  1
  O  O58  1  0.91159500  0.61541600  0.32649300  1
  O  O59  1  0.08783800  0.25657000  0.16744200  1
  O  O60  1  0.81790200  0.67106500  0.67034700  1
  O  O61  1  0.90522500  0.47531100  0.82083600  1
  O  O62  1  0.00575600  0.23444600  0.92597200  1
  O  O63  1  0.01727200  0.22277500  0.56472900  1
  O  O64  1  0.99281600  0.20823000  0.74566400  1
  O  O65  1  0.91629200  0.34188300  0.33642000  1
  O  O66  1  0.66579100  0.82122700  0.16971600  1
  O  O67  1  0.61833200  0.90367400  0.82100600  1
  O  O68  1  0.81607800  0.52338500  0.17541700  1
  O  O69  1  0.67316800  0.66698000  0.02334600  1
  O  O70  1  0.67233400  0.67265800  0.52320000  1
  O  O71  1  0.66939000  0.51814400  0.67365600  1
  O  O72  1  0.46741400  0.91433600  0.32818900  1
  O  O73  1  0.51903500  0.81341100  0.67398100  1
  O  O74  1  0.74004200  0.34436100  0.83508000  1
  O  O75  1  0.79535900  0.20532300  0.24927700  1
  O  O76  1  0.76493500  0.23523100  0.06597700  1
  O  O77  1  0.61853200  0.46444000  0.32977100  1
  O  O78  1  0.52272000  0.66397000  0.17659100  1
  O  O79  1  0.47408900  0.61711100  0.82272500  1
  O  O80  1  0.34064500  0.91440400  0.83883000  1
  O  O81  1  0.24051800  0.00961400  0.06464200  1
  O  O82  1  0.20951100  0.99150100  0.24373900  1
  O  O83  1  0.34528200  0.74001900  0.33552400  1
  O  O84  1  0.20829200  0.78546100  0.56745100  1
  O  O85  1  0.20612300  0.79488500  0.74907900  1
