# generated using pymatgen
data_Li3MnV(PO4)3
_symmetry_space_group_name_H-M   'P 1'
_cell_length_a   9.83148100
_cell_length_b   9.83912493
_cell_length_c   9.86624960
_cell_angle_alpha   85.67110416
_cell_angle_beta   87.54652913
_cell_angle_gamma   87.71974917
_symmetry_Int_Tables_number   1
_chemical_formula_structural   Li3MnV(PO4)3
_chemical_formula_sum   'Li12 Mn4 V4 P12 O48'
_cell_volume   950.15818426
_cell_formula_units_Z   4
loop_
 _symmetry_equiv_pos_site_id
 _symmetry_equiv_pos_as_xyz
  1  'x, y, z'
loop_
 _atom_site_type_symbol
 _atom_site_label
 _atom_site_symmetry_multiplicity
 _atom_site_fract_x
 _atom_site_fract_y
 _atom_site_fract_z
 _atom_site_occupancy
  Li  Li0  1  0.98116300  0.00199000  0.04854100  1
  Li  Li1  1  0.14015000  0.05272000  0.73933600  1
  Li  Li2  1  0.72936100  0.13281000  0.06944900  1
  Li  Li3  1  0.64516600  0.23069800  0.55061900  1
  Li  Li4  1  0.95083300  0.27671400  0.85127100  1
  Li  Li5  1  0.43312400  0.36638500  0.76712100  1
  Li  Li6  1  0.76586100  0.44562500  0.35628800  1
  Li  Li7  1  0.45290100  0.50012900  0.51501700  1
  Li  Li8  1  0.54480800  0.64510800  0.23524600  1
  Li  Li9  1  0.34192000  0.76480700  0.47326100  1
  Li  Li10  1  0.03016700  0.72457100  0.16330000  1
  Li  Li11  1  0.26837400  0.85373200  0.95129700  1
  Mn  Mn12  1  0.02922300  0.25369400  0.47135500  1
  Mn  Mn13  1  0.97355400  0.73889300  0.52717800  1
  Mn  Mn14  1  0.75328100  0.75911100  0.74204900  1
  Mn  Mn15  1  0.53050000  0.97266700  0.76094000  1
  V  V16  1  0.47467900  0.02884700  0.25912600  1
  V  V17  1  0.24929200  0.24531300  0.25158400  1
  V  V18  1  0.24352100  0.46552600  0.02395800  1
  V  V19  1  0.74847400  0.53674000  0.96142600  1
  P  P20  1  0.85407100  0.05602300  0.67432600  1
  P  P21  1  0.33232900  0.14771800  0.95461100  1
  P  P22  1  0.35830400  0.17258300  0.55242800  1
  P  P23  1  0.94827200  0.32540400  0.14272500  1
  P  P24  1  0.54674500  0.35470600  0.16764600  1
  P  P25  1  0.83475900  0.44795800  0.64562000  1
  P  P26  1  0.17508300  0.54565700  0.33956900  1
  P  P27  1  0.45227100  0.64839000  0.81741000  1
  P  P28  1  0.04880300  0.67863500  0.84772500  1
  P  P29  1  0.65459800  0.82449800  0.45057200  1
  P  P30  1  0.67166300  0.85210700  0.05046800  1
  P  P31  1  0.15098200  0.94824000  0.32576100  1
  O  O32  1  0.41176300  0.03308200  0.61867500  1
  O  O33  1  0.22335700  0.05645300  0.90885700  1
  O  O34  1  0.11904700  0.10741700  0.33303600  1
  O  O35  1  0.33481700  0.11999600  0.11534400  1
  O  O36  1  0.70086000  0.09437100  0.69351600  1
  O  O37  1  0.47501700  0.11383800  0.89172500  1
  O  O38  1  0.94585600  0.09992800  0.78357100  1
  O  O39  1  0.89835100  0.12264200  0.53062700  1
  O  O40  1  0.38218800  0.16897900  0.39220900  1
  O  O41  1  0.20522600  0.18364000  0.59056700  1
  O  O42  1  0.58239700  0.19893600  0.19338000  1
  O  O43  1  0.90479200  0.21061100  0.05774000  1
  O  O44  1  0.10958700  0.32460100  0.12022500  1
  O  O45  1  0.44449400  0.28993400  0.59171900  1
  O  O46  1  0.30508300  0.30333800  0.91456100  1
  O  O47  1  0.90811400  0.31141000  0.29582100  1
  O  O48  1  0.38530500  0.37713800  0.16464100  1
  O  O49  1  0.16633100  0.38348900  0.37682000  1
  O  O50  1  0.60997600  0.39919000  0.02689600  1
  O  O51  1  0.97539000  0.37614500  0.61499900  1
  O  O52  1  0.72536300  0.40458400  0.55380800  1
  O  O53  1  0.59144800  0.44156700  0.27948600  1
  O  O54  1  0.80378200  0.41523200  0.80092600  1
  O  O55  1  0.89050600  0.46633000  0.08604300  1
  O  O56  1  0.10461200  0.53406000  0.89726600  1
  O  O57  1  0.19037600  0.57863000  0.18182300  1
  O  O58  1  0.29743800  0.59057200  0.41154600  1
  O  O59  1  0.41686800  0.56426200  0.70090100  1
  O  O60  1  0.03595800  0.61225700  0.37778000  1
  O  O61  1  0.38957700  0.59554300  0.95615900  1
  O  O62  1  0.84727400  0.60700900  0.61681000  1
  O  O63  1  0.61559200  0.63129700  0.82636100  1
  O  O64  1  0.68949700  0.69372200  0.08289800  1
  O  O65  1  0.08632900  0.70734600  0.69536400  1
  O  O66  1  0.55874300  0.71631400  0.40975900  1
  O  O67  1  0.88537100  0.67527300  0.87007100  1
  O  O68  1  0.09183800  0.78603700  0.94013000  1
  O  O69  1  0.80662200  0.79731700  0.41569200  1
  O  O70  1  0.41015000  0.80295100  0.80141300  1
  O  O71  1  0.62760800  0.83099700  0.61193600  1
  O  O72  1  0.10225600  0.87443600  0.46320300  1
  O  O73  1  0.08567000  0.90345300  0.20045400  1
  O  O74  1  0.53566100  0.89324000  0.12403400  1
  O  O75  1  0.30890700  0.91969700  0.32427600  1
  O  O76  1  0.65569400  0.88340700  0.89076000  1
  O  O77  1  0.79103400  0.93467600  0.08585800  1
  O  O78  1  0.87706100  0.89728000  0.66908900  1
  O  O79  1  0.60985000  0.96937700  0.39074400  1
