# generated using pymatgen
data_LiVPCO7
_symmetry_space_group_name_H-M   'P 1'
_cell_length_a   8.36947676
_cell_length_b   8.25374996
_cell_length_c   8.25457476
_cell_angle_alpha   78.35746435
_cell_angle_beta   93.67980604
_cell_angle_gamma   86.28162531
_symmetry_Int_Tables_number   1
_chemical_formula_structural   LiVPCO7
_chemical_formula_sum   'Li4 V4 P4 C4 O28'
_cell_volume   555.57047006
_cell_formula_units_Z   4
loop_
 _symmetry_equiv_pos_site_id
 _symmetry_equiv_pos_as_xyz
  1  'x, y, z'
loop_
 _atom_site_type_symbol
 _atom_site_label
 _atom_site_symmetry_multiplicity
 _atom_site_fract_x
 _atom_site_fract_y
 _atom_site_fract_z
 _atom_site_occupancy
  Li  Li0  1  0.09987100  0.53014100  0.71987900  1
  Li  Li1  1  0.09989000  0.03008900  0.21984300  1
  Li  Li2  1  0.90011800  0.46992600  0.28005800  1
  Li  Li3  1  0.90015100  0.96983400  0.78013600  1
  V  V4  1  0.32287500  0.26941900  0.48067200  1
  V  V5  1  0.67708700  0.73068500  0.51939600  1
  V  V6  1  0.32309000  0.76940100  0.98073500  1
  V  V7  1  0.67703100  0.23058300  0.01932400  1
  P  P8  1  0.42307900  0.49875100  0.75138000  1
  P  P9  1  0.42310300  0.99877300  0.25141600  1
  P  P10  1  0.57691600  0.50120200  0.24867800  1
  P  P11  1  0.57690700  0.00124900  0.74860600  1
  C  C12  1  0.05111200  0.70074700  0.04930700  1
  C  C13  1  0.05104500  0.20067000  0.54930600  1
  C  C14  1  0.94890400  0.29925500  0.95064800  1
  C  C15  1  0.94892400  0.79928500  0.45065400  1
  O  O16  1  0.07704500  0.82499400  0.92528900  1
  O  O17  1  0.07690300  0.32494300  0.42532200  1
  O  O18  1  0.92304600  0.17503800  0.07469100  1
  O  O19  1  0.92304100  0.67504600  0.57468200  1
  O  O20  1  0.08137300  0.34230600  0.90763500  1
  O  O21  1  0.08138300  0.84231300  0.40766100  1
  O  O22  1  0.91861400  0.65780600  0.09221400  1
  O  O23  1  0.91858400  0.15764900  0.59231400  1
  O  O24  1  0.19038700  0.62686400  0.12307800  1
  O  O25  1  0.19035100  0.12681900  0.62306400  1
  O  O26  1  0.80960700  0.37314100  0.87692300  1
  O  O27  1  0.80961400  0.87314700  0.37689600  1
  O  O28  1  0.43820100  0.41355200  0.33645100  1
  O  O29  1  0.43822800  0.91361700  0.83644300  1
  O  O30  1  0.56179900  0.58640800  0.66355600  1
  O  O31  1  0.56178300  0.08637100  0.16356000  1
  O  O32  1  0.49625800  0.35789100  0.89265100  1
  O  O33  1  0.49620600  0.85795300  0.39276500  1
  O  O34  1  0.50374400  0.64204100  0.10738700  1
  O  O35  1  0.50371400  0.14207500  0.60733700  1
  O  O36  1  0.30960700  0.43367000  0.62744900  1
  O  O37  1  0.30970100  0.93369900  0.12743600  1
  O  O38  1  0.30929600  0.62281200  0.81607000  1
  O  O39  1  0.30925700  0.12281300  0.31606700  1
  O  O40  1  0.69070700  0.37717800  0.18395400  1
  O  O41  1  0.69072700  0.87718600  0.68393800  1
  O  O42  1  0.69035100  0.56634900  0.37258300  1
  O  O43  1  0.69036900  0.06630700  0.87254500  1
