# generated using pymatgen
data_LiSn(PO3)3
_symmetry_space_group_name_H-M   'P 1'
_cell_length_a   7.94240400
_cell_length_b   9.35169700
_cell_length_c   12.96189100
_cell_angle_alpha   90.00000000
_cell_angle_beta   90.00000000
_cell_angle_gamma   90.00000000
_symmetry_Int_Tables_number   1
_chemical_formula_structural   LiSn(PO3)3
_chemical_formula_sum   'Li4 Sn4 P12 O36'
_cell_volume   962.74387929
_cell_formula_units_Z   4
loop_
 _symmetry_equiv_pos_site_id
 _symmetry_equiv_pos_as_xyz
  1  'x, y, z'
loop_
 _atom_site_type_symbol
 _atom_site_label
 _atom_site_symmetry_multiplicity
 _atom_site_fract_x
 _atom_site_fract_y
 _atom_site_fract_z
 _atom_site_occupancy
  Li  Li0  1  0.75000000  0.48780300  0.44119500  1
  Li  Li1  1  0.75000000  0.98780300  0.05880500  1
  Li  Li2  1  0.25000000  0.51219700  0.55880500  1
  Li  Li3  1  0.25000000  0.01219700  0.94119500  1
  Sn  Sn4  1  0.75000000  0.52748100  0.71722200  1
  Sn  Sn5  1  0.75000000  0.02748100  0.78277800  1
  Sn  Sn6  1  0.25000000  0.97251900  0.21722200  1
  Sn  Sn7  1  0.25000000  0.47251900  0.28277800  1
  P  P8  1  0.93727600  0.73863300  0.34803400  1
  P  P9  1  0.93727600  0.23863300  0.15196600  1
  P  P10  1  0.75000000  0.29543800  0.97160800  1
  P  P11  1  0.75000000  0.79543800  0.52839200  1
  P  P12  1  0.56272400  0.23863300  0.15196600  1
  P  P13  1  0.56272400  0.73863300  0.34803400  1
  P  P14  1  0.43727600  0.26136700  0.65196600  1
  P  P15  1  0.43727600  0.76136700  0.84803400  1
  P  P16  1  0.25000000  0.70456200  0.02839200  1
  P  P17  1  0.25000000  0.20456200  0.47160800  1
  P  P18  1  0.06272400  0.26136700  0.65196600  1
  P  P19  1  0.06272400  0.76136700  0.84803400  1
  O  O20  1  0.02398900  0.66570200  0.75923100  1
  O  O21  1  0.02398900  0.16570200  0.74076900  1
  O  O22  1  0.94843900  0.88377500  0.87813400  1
  O  O23  1  0.94843900  0.38377500  0.62186600  1
  O  O24  1  0.90642900  0.33328800  0.04784000  1
  O  O25  1  0.90642900  0.83328800  0.45216000  1
  O  O26  1  0.75000000  0.66240900  0.33321600  1
  O  O27  1  0.75000000  0.89079300  0.61920500  1
  O  O28  1  0.75000000  0.39079300  0.88079500  1
  O  O29  1  0.75000000  0.13371200  0.95393500  1
  O  O30  1  0.75000000  0.16240900  0.16678400  1
  O  O31  1  0.75000000  0.63371200  0.54606500  1
  O  O32  1  0.59357100  0.33328800  0.04784000  1
  O  O33  1  0.59357100  0.83328800  0.45216000  1
  O  O34  1  0.55156100  0.88377500  0.87813400  1
  O  O35  1  0.55156100  0.38377500  0.62186600  1
  O  O36  1  0.47601100  0.66570200  0.75923100  1
  O  O37  1  0.47601100  0.16570200  0.74076900  1
  O  O38  1  0.52398900  0.83429800  0.25923100  1
  O  O39  1  0.52398900  0.33429800  0.24076900  1
  O  O40  1  0.44843900  0.61622500  0.37813400  1
  O  O41  1  0.44843900  0.11622500  0.12186600  1
  O  O42  1  0.40642900  0.16671200  0.54784000  1
  O  O43  1  0.40642900  0.66671200  0.95216000  1
  O  O44  1  0.25000000  0.86628800  0.04606500  1
  O  O45  1  0.25000000  0.60920700  0.11920500  1
  O  O46  1  0.25000000  0.36628800  0.45393500  1
  O  O47  1  0.25000000  0.10920700  0.38079500  1
  O  O48  1  0.25000000  0.33759100  0.66678400  1
  O  O49  1  0.25000000  0.83759100  0.83321600  1
  O  O50  1  0.09357100  0.16671200  0.54784000  1
  O  O51  1  0.09357100  0.66671200  0.95216000  1
  O  O52  1  0.05156100  0.61622500  0.37813400  1
  O  O53  1  0.05156100  0.11622500  0.12186600  1
  O  O54  1  0.97601100  0.33429800  0.24076900  1
  O  O55  1  0.97601100  0.83429800  0.25923100  1
