# generated using pymatgen
data_Li5Mn3Co2(PO4)6
_symmetry_space_group_name_H-M   'P 1'
_cell_length_a   8.30759456
_cell_length_b   8.86652165
_cell_length_c   8.78990918
_cell_angle_alpha   59.89646399
_cell_angle_beta   59.37105123
_cell_angle_gamma   61.85225346
_symmetry_Int_Tables_number   1
_chemical_formula_structural   Li5Mn3Co2(PO4)6
_chemical_formula_sum   'Li5 Mn3 Co2 P6 O24'
_cell_volume   461.20699330
_cell_formula_units_Z   1
loop_
 _symmetry_equiv_pos_site_id
 _symmetry_equiv_pos_as_xyz
  1  'x, y, z'
loop_
 _atom_site_type_symbol
 _atom_site_label
 _atom_site_symmetry_multiplicity
 _atom_site_fract_x
 _atom_site_fract_y
 _atom_site_fract_z
 _atom_site_occupancy
  Li  Li0  1  0.51721017  0.16719202  0.15580747  1
  Li  Li1  1  0.24481271  0.87020633  0.64699823  1
  Li  Li2  1  0.71686687  0.13736018  0.32962964  1
  Li  Li3  1  0.70332306  0.82252165  0.15222109  1
  Li  Li4  1  0.71676369  0.33021678  0.81325720  1
  Mn  Mn5  1  0.06985544  0.64224672  0.64479035  1
  Mn  Mn6  1  0.43610959  0.84860280  0.85981550  1
  Mn  Mn7  1  0.94739578  0.34603144  0.34746297  1
  Co  Co8  1  0.99961268  0.01523640  0.99737085  1
  Co  Co9  1  0.49638856  0.49682611  0.49776187  1
  P  P10  1  0.25698786  0.25162445  0.54114930  1
  P  P11  1  0.25039282  0.94512044  0.24335547  1
  P  P12  1  0.26224887  0.54678107  0.94441825  1
  P  P13  1  0.75863098  0.45333274  0.04369274  1
  P  P14  1  0.77608505  0.03765596  0.74388174  1
  P  P15  1  0.73686339  0.74980322  0.46667524  1
  O  O16  1  0.06814281  0.09636965  0.30017723  1
  O  O17  1  0.07444781  0.50835493  0.10851450  1
  O  O18  1  0.07278965  0.32841526  0.49012811  1
  O  O19  1  0.21040314  0.09025945  0.73387644  1
  O  O20  1  0.44278494  0.18652424  0.39203966  1
  O  O21  1  0.28159295  0.39758065  0.57119520  1
  O  O22  1  0.23249524  0.92897883  0.08136803  1
  O  O23  1  0.25967103  0.75196778  0.40787927  1
  O  O24  1  0.57557224  0.60366190  0.01772702  1
  O  O25  1  0.27454014  0.58507291  0.74166306  1
  O  O26  1  0.78252096  0.26729988  0.04440957  1
  O  O27  1  0.59808169  0.98668068  0.79527362  1
  O  O28  1  0.44219634  0.97411949  0.18514860  1
  O  O29  1  0.23634279  0.74409379  0.92616192  1
  O  O30  1  0.74017823  0.41235777  0.25090733  1
  O  O31  1  0.44717640  0.39955861  0.96667865  1
  O  O32  1  0.74584531  0.24000041  0.59512721  1
  O  O33  1  0.77955263  0.05260219  0.91278135  1
  O  O34  1  0.70625637  0.61359061  0.42529694  1
  O  O35  1  0.54015607  0.81816205  0.61337525  1
  O  O36  1  0.78678391  0.90792462  0.27491078  1
  O  O37  1  0.89905062  0.65963530  0.54554862  1
  O  O38  1  0.94452514  0.50689253  0.89514693  1
  O  O39  1  0.96934508  0.90213617  0.67337479  1
