# generated using pymatgen
data_Li5Fe2P2(CO7)2
_symmetry_space_group_name_H-M   'P 1'
_cell_length_a   8.18785900
_cell_length_b   8.27978554
_cell_length_c   8.46164911
_cell_angle_alpha   92.79853862
_cell_angle_beta   94.04205941
_cell_angle_gamma   104.15820661
_symmetry_Int_Tables_number   1
_chemical_formula_structural   Li5Fe2P2(CO7)2
_chemical_formula_sum   'Li10 Fe4 P4 C4 O28'
_cell_volume   553.54215879
_cell_formula_units_Z   2
loop_
 _symmetry_equiv_pos_site_id
 _symmetry_equiv_pos_as_xyz
  1  'x, y, z'
loop_
 _atom_site_type_symbol
 _atom_site_label
 _atom_site_symmetry_multiplicity
 _atom_site_fract_x
 _atom_site_fract_y
 _atom_site_fract_z
 _atom_site_occupancy
  Li  Li0  1  0.73982700  0.49617600  0.09934200  1
  Li  Li1  1  0.24946300  0.97592900  0.09537100  1
  Li  Li2  1  0.88951200  0.85193300  0.27186600  1
  Li  Li3  1  0.59182500  0.11125000  0.27414200  1
  Li  Li4  1  0.38327300  0.36310600  0.27777700  1
  Li  Li5  1  0.40817500  0.88875000  0.72585800  1
  Li  Li6  1  0.61672700  0.63689400  0.72222300  1
  Li  Li7  1  0.11048800  0.14806700  0.72813400  1
  Li  Li8  1  0.26017300  0.50382400  0.90065800  1
  Li  Li9  1  0.75053700  0.02407100  0.90462900  1
  Fe  Fe10  1  0.47005100  0.72496400  0.32051900  1
  Fe  Fe11  1  0.97733500  0.23225000  0.34260700  1
  Fe  Fe12  1  0.02266500  0.76775000  0.65739300  1
  Fe  Fe13  1  0.52994900  0.27503600  0.67948100  1
  P  P14  1  0.75588700  0.51723700  0.41425100  1
  P  P15  1  0.26205400  0.01599700  0.41780200  1
  P  P16  1  0.73794600  0.98400300  0.58219800  1
  P  P17  1  0.24411300  0.48276300  0.58574900  1
  C  C18  1  0.52669300  0.78035000  0.02735200  1
  C  C19  1  0.03865000  0.26343900  0.05258800  1
  C  C20  1  0.96135000  0.73656100  0.94741200  1
  C  C21  1  0.47330700  0.21965000  0.97264800  1
  O  O22  1  0.40541200  0.65717400  0.05916100  1
  O  O23  1  0.90119100  0.15488100  0.08292800  1
  O  O24  1  0.91539500  0.71026000  0.08580200  1
  O  O25  1  0.61525800  0.87735300  0.14562200  1
  O  O26  1  0.43823800  0.18941700  0.11704900  1
  O  O27  1  0.12917600  0.34661300  0.17853600  1
  O  O28  1  0.62404500  0.55605400  0.29008300  1
  O  O29  1  0.81666300  0.37717900  0.32218500  1
  O  O30  1  0.32145600  0.89190100  0.30764300  1
  O  O31  1  0.10105100  0.04529900  0.32508000  1
  O  O32  1  0.90438000  0.67936200  0.44745600  1
  O  O33  1  0.78372900  0.05325200  0.41826500  1
  O  O34  1  0.31398800  0.53281800  0.42885100  1
  O  O35  1  0.40408100  0.17950800  0.44545200  1
  O  O36  1  0.59591900  0.82049200  0.55454800  1
  O  O37  1  0.68601200  0.46718200  0.57114900  1
  O  O38  1  0.21627100  0.94674800  0.58173500  1
  O  O39  1  0.09562000  0.32063800  0.55254400  1
  O  O40  1  0.89894900  0.95470100  0.67492000  1
  O  O41  1  0.18333700  0.62282100  0.67781500  1
  O  O42  1  0.67854400  0.10809900  0.69235700  1
  O  O43  1  0.37595500  0.44394600  0.70991700  1
  O  O44  1  0.87082400  0.65338700  0.82146400  1
  O  O45  1  0.56176200  0.81058300  0.88295100  1
  O  O46  1  0.38474200  0.12264700  0.85437800  1
  O  O47  1  0.08460500  0.28974000  0.91419800  1
  O  O48  1  0.59458800  0.34282600  0.94083900  1
  O  O49  1  0.09880900  0.84511900  0.91707200  1
