# generated using pymatgen
data_Li2Mn3CrO8
_symmetry_space_group_name_H-M   'P 1'
_cell_length_a   8.30672300
_cell_length_b   8.30672300
_cell_length_c   8.50183100
_cell_angle_alpha   90.00000000
_cell_angle_beta   90.00000000
_cell_angle_gamma   90.00000000
_symmetry_Int_Tables_number   1
_chemical_formula_structural   Li2Mn3CrO8
_chemical_formula_sum   'Li8 Mn12 Cr4 O32'
_cell_volume   586.64034150
_cell_formula_units_Z   4
loop_
 _symmetry_equiv_pos_site_id
 _symmetry_equiv_pos_as_xyz
  1  'x, y, z'
loop_
 _atom_site_type_symbol
 _atom_site_label
 _atom_site_symmetry_multiplicity
 _atom_site_fract_x
 _atom_site_fract_y
 _atom_site_fract_z
 _atom_site_occupancy
  Li  Li0  1  0.25230100  0.50096200  0.62718700  1
  Li  Li1  1  0.49903800  0.74769900  0.87281300  1
  Li  Li2  1  0.00096200  0.24769900  0.87718700  1
  Li  Li3  1  0.24769900  0.00096200  0.12281300  1
  Li  Li4  1  0.74769900  0.49903800  0.12718700  1
  Li  Li5  1  0.50096200  0.25230100  0.37281300  1
  Li  Li6  1  0.99903800  0.75230100  0.37718700  1
  Li  Li7  1  0.75230100  0.99903800  0.62281300  1
  Mn  Mn8  1  0.37688800  0.12309600  0.75278000  1
  Mn  Mn9  1  0.62723200  0.37276800  0.75000000  1
  Mn  Mn10  1  0.87690400  0.62311200  0.74722000  1
  Mn  Mn11  1  0.62309600  0.12311200  0.00278000  1
  Mn  Mn12  1  0.87276800  0.87276800  0.00000000  1
  Mn  Mn13  1  0.12311200  0.62309600  0.99722000  1
  Mn  Mn14  1  0.62311200  0.87690400  0.25278000  1
  Mn  Mn15  1  0.37276800  0.62723200  0.25000000  1
  Mn  Mn16  1  0.12309600  0.37688800  0.24722000  1
  Mn  Mn17  1  0.37690400  0.87688800  0.50278000  1
  Mn  Mn18  1  0.12723200  0.12723200  0.50000000  1
  Mn  Mn19  1  0.87688800  0.37690400  0.49722000  1
  Cr  Cr20  1  0.12646300  0.87353700  0.75000000  1
  Cr  Cr21  1  0.37353700  0.37353700  0.00000000  1
  Cr  Cr22  1  0.87353700  0.12646300  0.25000000  1
  Cr  Cr23  1  0.62646300  0.62646300  0.50000000  1
  O  O24  1  0.37064200  0.89067300  0.73229500  1
  O  O25  1  0.14813700  0.11234800  0.75312200  1
  O  O26  1  0.86572300  0.38671800  0.73011000  1
  O  O27  1  0.39115700  0.35621400  0.76274700  1
  O  O28  1  0.64378600  0.60884300  0.73725300  1
  O  O29  1  0.61328200  0.13427700  0.76989000  1
  O  O30  1  0.88765200  0.85186300  0.74687800  1
  O  O31  1  0.10932700  0.62935800  0.76770500  1
  O  O32  1  0.39067300  0.12935800  0.98229500  1
  O  O33  1  0.61234800  0.35186300  0.00312200  1
  O  O34  1  0.88671800  0.63427700  0.98011000  1
  O  O35  1  0.85621400  0.10884300  0.01274700  1
  O  O36  1  0.10884300  0.85621400  0.98725300  1
  O  O37  1  0.63427700  0.88671800  0.01989000  1
  O  O38  1  0.35186300  0.61234800  0.99687800  1
  O  O39  1  0.12935800  0.39067300  0.01770500  1
  O  O40  1  0.62935800  0.10932700  0.23229500  1
  O  O41  1  0.85186300  0.88765200  0.25312200  1
  O  O42  1  0.13427700  0.61328200  0.23011000  1
  O  O43  1  0.60884300  0.64378600  0.26274700  1
  O  O44  1  0.35621400  0.39115700  0.23725300  1
  O  O45  1  0.38671800  0.86572300  0.26989000  1
  O  O46  1  0.11234800  0.14813700  0.24687800  1
  O  O47  1  0.89067300  0.37064200  0.26770500  1
  O  O48  1  0.60932700  0.87064200  0.48229500  1
  O  O49  1  0.38765200  0.64813700  0.50312200  1
  O  O50  1  0.11328200  0.36572300  0.48011000  1
  O  O51  1  0.14378600  0.89115700  0.51274700  1
  O  O52  1  0.89115700  0.14378600  0.48725300  1
  O  O53  1  0.36572300  0.11328200  0.51989000  1
  O  O54  1  0.64813700  0.38765200  0.49687800  1
  O  O55  1  0.87064200  0.60932700  0.51770500  1
