# generated using pymatgen
data_Li4TiFe5O12
_symmetry_space_group_name_H-M   'P 1'
_cell_length_a   5.14649175
_cell_length_b   5.14649175
_cell_length_c   10.26739102
_cell_angle_alpha   89.43620487
_cell_angle_beta   89.43620487
_cell_angle_gamma   119.75842790
_symmetry_Int_Tables_number   1
_chemical_formula_structural   Li4TiFe5O12
_chemical_formula_sum   'Li4 Ti1 Fe5 O12'
_cell_volume   236.03794682
_cell_formula_units_Z   1
loop_
 _symmetry_equiv_pos_site_id
 _symmetry_equiv_pos_as_xyz
  1  'x, y, z'
loop_
 _atom_site_type_symbol
 _atom_site_label
 _atom_site_symmetry_multiplicity
 _atom_site_fract_x
 _atom_site_fract_y
 _atom_site_fract_z
 _atom_site_occupancy
  Li  Li0  1  0.64505000  0.13489700  0.75040500  1
  Li  Li1  1  0.86510300  0.35495000  0.24959500  1
  Li  Li2  1  0.13489700  0.64505000  0.75040500  1
  Li  Li3  1  0.35495000  0.86510300  0.24959500  1
  Ti  Ti4  1  0.00000000  0.00000000  0.00000000  1
  Fe  Fe5  1  0.83566900  0.16433100  0.50000000  1
  Fe  Fe6  1  0.33650200  0.66349800  0.00000000  1
  Fe  Fe7  1  0.66349800  0.33650200  0.00000000  1
  Fe  Fe8  1  0.16433100  0.83566900  0.50000000  1
  Fe  Fe9  1  0.50000000  0.50000000  0.50000000  1
  O  O10  1  0.67248800  0.00888000  0.10796200  1
  O  O11  1  0.99112000  0.32751200  0.89203800  1
  O  O12  1  0.51705100  0.18218800  0.39321400  1
  O  O13  1  0.18218800  0.51705100  0.39321400  1
  O  O14  1  0.81781200  0.48294900  0.60678600  1
  O  O15  1  0.18493800  0.18493800  0.59494500  1
  O  O16  1  0.48294900  0.81781200  0.60678600  1
  O  O17  1  0.00888000  0.67248800  0.10796200  1
  O  O18  1  0.31506500  0.31506500  0.09713700  1
  O  O19  1  0.32751200  0.99112000  0.89203800  1
  O  O20  1  0.68493500  0.68493500  0.90286300  1
  O  O21  1  0.81506200  0.81506200  0.40505500  1
