# generated using pymatgen
data_Li5MnV3O8
_symmetry_space_group_name_H-M   'P 1'
_cell_length_a   8.65302000
_cell_length_b   8.65302000
_cell_length_c   8.65302000
_cell_angle_alpha   90.00000000
_cell_angle_beta   90.00000000
_cell_angle_gamma   90.00000000
_symmetry_Int_Tables_number   1
_chemical_formula_structural   Li5MnV3O8
_chemical_formula_sum   'Li20 Mn4 V12 O32'
_cell_volume   647.89275355
_cell_formula_units_Z   4
loop_
 _symmetry_equiv_pos_site_id
 _symmetry_equiv_pos_as_xyz
  1  'x, y, z'
loop_
 _atom_site_type_symbol
 _atom_site_label
 _atom_site_symmetry_multiplicity
 _atom_site_fract_x
 _atom_site_fract_y
 _atom_site_fract_z
 _atom_site_occupancy
  Li  Li0  1  0.05270300  0.05270300  0.05270300  1
  Li  Li1  1  0.13851900  0.37500000  0.38851900  1
  Li  Li2  1  0.12500000  0.61148100  0.63851900  1
  Li  Li3  1  0.11148100  0.86148100  0.87500000  1
  Li  Li4  1  0.19729700  0.19729700  0.19729700  1
  Li  Li5  1  0.30270300  0.80270300  0.69729700  1
  Li  Li6  1  0.38851900  0.13851900  0.37500000  1
  Li  Li7  1  0.37500000  0.38851900  0.13851900  1
  Li  Li8  1  0.36148100  0.62500000  0.88851900  1
  Li  Li9  1  0.44729700  0.94729700  0.55270300  1
  Li  Li10  1  0.55270300  0.44729700  0.94729700  1
  Li  Li11  1  0.63851900  0.12500000  0.61148100  1
  Li  Li12  1  0.62500000  0.88851900  0.36148100  1
  Li  Li13  1  0.61148100  0.63851900  0.12500000  1
  Li  Li14  1  0.69729700  0.30270300  0.80270300  1
  Li  Li15  1  0.80270300  0.69729700  0.30270300  1
  Li  Li16  1  0.88851900  0.36148100  0.62500000  1
  Li  Li17  1  0.87500000  0.11148100  0.86148100  1
  Li  Li18  1  0.86148100  0.87500000  0.11148100  1
  Li  Li19  1  0.94729700  0.55270300  0.44729700  1
  Mn  Mn20  1  0.12500000  0.87500000  0.37500000  1
  Mn  Mn21  1  0.37500000  0.12500000  0.87500000  1
  Mn  Mn22  1  0.62500000  0.62500000  0.62500000  1
  Mn  Mn23  1  0.87500000  0.37500000  0.12500000  1
  V  V24  1  0.12445200  0.12554800  0.62500000  1
  V  V25  1  0.12500000  0.37554800  0.87445200  1
  V  V26  1  0.12554800  0.62500000  0.12445200  1
  V  V27  1  0.37445200  0.37500000  0.62445200  1
  V  V28  1  0.37500000  0.62445200  0.37445200  1
  V  V29  1  0.37554800  0.87445200  0.12500000  1
  V  V30  1  0.62445200  0.37445200  0.37500000  1
  V  V31  1  0.62500000  0.12445200  0.12554800  1
  V  V32  1  0.62554800  0.87500000  0.87554800  1
  V  V33  1  0.87445200  0.12500000  0.37554800  1
  V  V34  1  0.87500000  0.87554800  0.62554800  1
  V  V35  1  0.87554800  0.62554800  0.87500000  1
  O  O36  1  0.11422600  0.88877400  0.63060800  1
  O  O37  1  0.11122600  0.13060800  0.38577400  1
  O  O38  1  0.11968300  0.61968300  0.88031700  1
  O  O39  1  0.11939200  0.13877400  0.86422600  1
  O  O40  1  0.13060800  0.38577400  0.11122600  1
  O  O41  1  0.13031700  0.36968300  0.63031700  1
  O  O42  1  0.13877400  0.86422600  0.11939200  1
  O  O43  1  0.13577400  0.61939200  0.36122600  1
  O  O44  1  0.36422600  0.38060800  0.86122600  1
  O  O45  1  0.36122600  0.13577400  0.61939200  1
  O  O46  1  0.36968300  0.63031700  0.13031700  1
  O  O47  1  0.36939200  0.61422600  0.61122600  1
  O  O48  1  0.38060800  0.86122600  0.36422600  1
  O  O49  1  0.38031700  0.38031700  0.38031700  1
  O  O50  1  0.38877400  0.86939200  0.88577400  1
  O  O51  1  0.38577400  0.11122600  0.13060800  1
  O  O52  1  0.61422600  0.61122600  0.36939200  1
  O  O53  1  0.61122600  0.36939200  0.61422600  1
  O  O54  1  0.61968300  0.88031700  0.11968300  1
  O  O55  1  0.61939200  0.36122600  0.13577400  1
  O  O56  1  0.63060800  0.11422600  0.88877400  1
  O  O57  1  0.63031700  0.13031700  0.36968300  1
  O  O58  1  0.63877400  0.63577400  0.88060800  1
  O  O59  1  0.63577400  0.88060800  0.63877400  1
  O  O60  1  0.86422600  0.11939200  0.13877400  1
  O  O61  1  0.86122600  0.36422600  0.38060800  1
  O  O62  1  0.86968300  0.86968300  0.86968300  1
  O  O63  1  0.86939200  0.88577400  0.38877400  1
  O  O64  1  0.88060800  0.63877400  0.63577400  1
  O  O65  1  0.88031700  0.11968300  0.61968300  1
  O  O66  1  0.88877400  0.63060800  0.11422600  1
  O  O67  1  0.88577400  0.38877400  0.86939200  1
