# generated using pymatgen
data_Li3(CoO2)4
_symmetry_space_group_name_H-M   'P 1'
_cell_length_a   5.80301066
_cell_length_b   5.68327256
_cell_length_c   5.87235900
_cell_angle_alpha   120.45107526
_cell_angle_beta   60.26881495
_cell_angle_gamma   92.08756012
_symmetry_Int_Tables_number   1
_chemical_formula_structural   Li3(CoO2)4
_chemical_formula_sum   'Li3 Co4 O8'
_cell_volume   138.87534864
_cell_formula_units_Z   1
loop_
 _symmetry_equiv_pos_site_id
 _symmetry_equiv_pos_as_xyz
  1  'x, y, z'
loop_
 _atom_site_type_symbol
 _atom_site_label
 _atom_site_symmetry_multiplicity
 _atom_site_fract_x
 _atom_site_fract_y
 _atom_site_fract_z
 _atom_site_occupancy
  Li  Li0  1  0.99738447  0.50186623  0.00401276  1
  Li  Li1  1  0.49861088  0.00237960  0.00420197  1
  Li  Li2  1  0.49101299  0.50932122  0.51791611  1
  Co  Co3  1  0.99947609  0.00063034  0.50107463  1
  Co  Co4  1  0.99773870  0.00212320  0.00288660  1
  Co  Co5  1  0.99905916  0.50089723  0.50181748  1
  Co  Co6  1  0.49941567  0.50082479  0.00324766  1
  O  O7  1  0.21126882  0.26299553  0.50256787  1
  O  O8  1  0.21186151  0.27027230  0.05542449  1
  O  O9  1  0.22194724  0.76001440  0.50876610  1
  O  O10  1  0.22180242  0.77672435  0.04997848  1
  O  O11  1  0.77822436  0.22337804  0.94980667  1
  O  O12  1  0.77618674  0.24179609  0.49471318  1
  O  O13  1  0.78610792  0.73176512  0.94823118  1
  O  O14  1  0.78698903  0.73883553  0.50082681  1
