# generated using pymatgen
data_Li5Fe3Co2(PO4)6
_symmetry_space_group_name_H-M   'P 1'
_cell_length_a   8.44224900
_cell_length_b   8.54114331
_cell_length_c   8.55198567
_cell_angle_alpha   62.01585369
_cell_angle_beta   62.32951847
_cell_angle_gamma   62.47597124
_symmetry_Int_Tables_number   1
_chemical_formula_structural   Li5Fe3Co2(PO4)6
_chemical_formula_sum   'Li5 Fe3 Co2 P6 O24'
_cell_volume   458.15754826
_cell_formula_units_Z   1
loop_
 _symmetry_equiv_pos_site_id
 _symmetry_equiv_pos_as_xyz
  1  'x, y, z'
loop_
 _atom_site_type_symbol
 _atom_site_label
 _atom_site_symmetry_multiplicity
 _atom_site_fract_x
 _atom_site_fract_y
 _atom_site_fract_z
 _atom_site_occupancy
  Li  Li0  1  0.15813700  0.15832800  0.16101800  1
  Li  Li1  1  0.24573100  0.64444100  0.85860200  1
  Li  Li2  1  0.80964800  0.32886400  0.14756400  1
  Li  Li3  1  0.33106300  0.14372500  0.81317600  1
  Li  Li4  1  0.14303000  0.81186300  0.33308800  1
  Fe  Fe5  1  0.64612700  0.64554900  0.64283900  1
  Fe  Fe6  1  0.85356800  0.85757700  0.85375200  1
  Fe  Fe7  1  0.35189000  0.34646600  0.34882800  1
  Co  Co8  1  0.99219000  0.00307200  0.00288400  1
  Co  Co9  1  0.50881800  0.49960600  0.49582800  1
  P  P10  1  0.94406400  0.54789200  0.24974700  1
  P  P11  1  0.55303500  0.24309600  0.94654800  1
  P  P12  1  0.24711500  0.94578500  0.54744000  1
  P  P13  1  0.74473400  0.04341200  0.45796900  1
  P  P14  1  0.44763800  0.74346900  0.03940000  1
  P  P15  1  0.05206300  0.46127500  0.74749700  1
  O  O16  1  0.50937900  0.30602300  0.10919600  1
  O  O17  1  0.31097300  0.10810500  0.50446800  1
  O  O18  1  0.10739200  0.50113800  0.31671700  1
  O  O19  1  0.94729500  0.73991800  0.08718000  1
  O  O20  1  0.96926600  0.39781400  0.18653200  1
  O  O21  1  0.74780100  0.57561000  0.40617300  1
  O  O22  1  0.75115500  0.08907700  0.93486500  1
  O  O23  1  0.56809200  0.40772000  0.75548700  1
  O  O24  1  0.81478500  0.00413100  0.61263700  1
  O  O25  1  0.39998700  0.74524900  0.57878500  1
  O  O26  1  0.90321100  0.04358900  0.26672400  1
  O  O27  1  0.62067200  0.79716000  0.98387400  1
  O  O28  1  0.40106600  0.17696500  0.97470400  1
  O  O29  1  0.09884300  0.92687400  0.75043900  1
  O  O30  1  0.60107300  0.24889600  0.42428100  1
  O  O31  1  0.18218300  0.97288100  0.39795400  1
  O  O32  1  0.42554500  0.59640100  0.24235100  1
  O  O33  1  0.25924200  0.90859900  0.05018600  1
  O  O34  1  0.25423400  0.42247400  0.59726600  1
  O  O35  1  0.04005500  0.61003900  0.81025100  1
  O  O36  1  0.04378700  0.27118700  0.90519000  1
  O  O37  1  0.89184900  0.53604200  0.66916900  1
  O  O38  1  0.65329700  0.89857200  0.51618900  1
  O  O39  1  0.46996100  0.66812100  0.89620100  1
