# generated using pymatgen
data_Li2V3WO8
_symmetry_space_group_name_H-M   'P 1'
_cell_length_a   6.11881642
_cell_length_b   10.55886699
_cell_length_c   6.03607842
_cell_angle_alpha   105.36620891
_cell_angle_beta   59.61827604
_cell_angle_gamma   90.06656832
_symmetry_Int_Tables_number   1
_chemical_formula_structural   Li2V3WO8
_chemical_formula_sum   'Li4 V6 W2 O16'
_cell_volume   320.23306454
_cell_formula_units_Z   2
loop_
 _symmetry_equiv_pos_site_id
 _symmetry_equiv_pos_as_xyz
  1  'x, y, z'
loop_
 _atom_site_type_symbol
 _atom_site_label
 _atom_site_symmetry_multiplicity
 _atom_site_fract_x
 _atom_site_fract_y
 _atom_site_fract_z
 _atom_site_occupancy
  Li  Li0  1  0.93245200  0.19404200  0.13639700  1
  Li  Li1  1  0.43329300  0.69389100  0.13367100  1
  Li  Li2  1  0.56668800  0.30612400  0.86635700  1
  Li  Li3  1  0.06753500  0.80597100  0.86362000  1
  V  V4  1  0.99993700  0.00008400  0.50026200  1
  V  V5  1  0.50017600  0.99993000  0.49981900  1
  V  V6  1  0.99987000  0.50001700  0.00011700  1
  V  V7  1  0.50011000  0.49994400  0.49985800  1
  V  V8  1  0.99992400  0.49993100  0.49993100  1
  V  V9  1  0.50012300  0.99999200  0.99982600  1
  W  W10  1  0.75005500  0.74946100  0.49635200  1
  W  W11  1  0.24994700  0.25053400  0.50365300  1
  O  O12  1  0.86339800  0.39915700  0.27330600  1
  O  O13  1  0.36206300  0.89938500  0.27537400  1
  O  O14  1  0.63791900  0.10063700  0.72465700  1
  O  O15  1  0.13659700  0.60083500  0.72668300  1
  O  O16  1  0.64241300  0.62777000  0.71696900  1
  O  O17  1  0.13994500  0.12797200  0.72050600  1
  O  O18  1  0.63915600  0.62296700  0.26434500  1
  O  O19  1  0.14573000  0.12255500  0.26311700  1
  O  O20  1  0.09447000  0.62137700  0.25877600  1
  O  O21  1  0.59196900  0.12276200  0.26318600  1
  O  O22  1  0.40803800  0.87724300  0.73683400  1
  O  O23  1  0.90549800  0.37863300  0.74125400  1
  O  O24  1  0.85427500  0.87745500  0.73688600  1
  O  O25  1  0.36080900  0.37704800  0.73568400  1
  O  O26  1  0.86001900  0.87204400  0.27952500  1
  O  O27  1  0.35759000  0.37223700  0.28303400  1
