# generated using pymatgen
data_Li6V3P8O29
_symmetry_space_group_name_H-M   'P 1'
_cell_length_a   9.77361800
_cell_length_b   9.79772931
_cell_length_c   13.97464647
_cell_angle_alpha   90.31624871
_cell_angle_beta   89.95223522
_cell_angle_gamma   119.73546568
_symmetry_Int_Tables_number   1
_chemical_formula_structural   Li6V3P8O29
_chemical_formula_sum   'Li12 V6 P16 O58'
_cell_volume   1161.97317993
_cell_formula_units_Z   2
loop_
 _symmetry_equiv_pos_site_id
 _symmetry_equiv_pos_as_xyz
  1  'x, y, z'
loop_
 _atom_site_type_symbol
 _atom_site_label
 _atom_site_symmetry_multiplicity
 _atom_site_fract_x
 _atom_site_fract_y
 _atom_site_fract_z
 _atom_site_occupancy
  Li  Li0  1  0.09202000  0.33042900  0.06477500  1
  Li  Li1  1  0.23992400  0.33942700  0.56195800  1
  Li  Li2  1  0.09792400  0.76534100  0.55882900  1
  Li  Li3  1  0.33617700  0.66163600  0.88576500  1
  Li  Li4  1  0.23380600  0.90959100  0.06098000  1
  Li  Li5  1  0.67284000  0.76717000  0.06069600  1
  Li  Li6  1  0.33554900  0.10202600  0.44016500  1
  Li  Li7  1  0.66360200  0.90554400  0.56183700  1
  Li  Li8  1  0.76447100  0.66541400  0.43897100  1
  Li  Li9  1  0.90032900  0.66523200  0.94010700  1
  Li  Li10  1  0.01078000  0.04654800  0.99565700  1
  Li  Li11  1  0.98495300  0.03621000  0.49420600  1
  V  V12  1  0.43643800  0.99985700  0.24959600  1
  V  V13  1  0.56615100  0.00445400  0.75396500  1
  V  V14  1  0.43705800  0.43340400  0.75152600  1
  V  V15  1  0.56385500  0.56280500  0.24698700  1
  V  V16  1  0.99680900  0.43016200  0.25246000  1
  V  V17  1  0.99963600  0.56090100  0.74525100  1
  P  P18  1  0.09161700  0.31535000  0.84666900  1
  P  P19  1  0.22857600  0.31491100  0.34347600  1
  P  P20  1  0.08771800  0.77393500  0.34155100  1
  P  P21  1  0.33008700  0.66492900  0.12747600  1
  P  P22  1  0.33869400  0.66993000  0.62956100  1
  P  P23  1  0.22075800  0.90620700  0.84234900  1
  P  P24  1  0.30954800  0.08367500  0.65787500  1
  P  P25  1  0.68609200  0.77616600  0.84210500  1
  P  P26  1  0.30597600  0.22067900  0.15827800  1
  P  P27  1  0.68748000  0.91245800  0.34473700  1
  P  P28  1  0.77843000  0.08248400  0.15937600  1
  P  P29  1  0.66662500  0.33482700  0.36816900  1
  P  P30  1  0.66851500  0.33751700  0.87090400  1
  P  P31  1  0.91731100  0.21871100  0.66103000  1
  P  P32  1  0.77224700  0.68586800  0.65637500  1
  P  P33  1  0.91401200  0.68454400  0.15751200  1
  O  O34  1  0.01305800  0.20918200  0.58001900  1
  O  O35  1  0.08846800  0.34401100  0.33732900  1
  O  O36  1  0.19808100  0.20468100  0.07769600  1
  O  O37  1  0.25845100  0.34104600  0.83779800  1
  O  O38  1  0.10293600  0.47797300  0.83113600  1
  O  O39  1  0.18691000  0.51038400  0.16552900  1
  O  O40  1  0.09305300  0.62200100  0.32856800  1
  O  O41  1  0.99938400  0.77130200  0.06803700  1
  O  O42  1  0.07583100  0.73692900  0.83624700  1
  O  O43  1  0.32906400  0.51627700  0.67137300  1
  O  O44  1  0.38447600  0.46916800  0.33000100  1
  O  O45  1  0.19088100  0.67838900  0.66770300  1
  O  O46  1  0.32932100  0.66669300  0.01915800  1
  O  O47  1  0.34317900  0.67065500  0.52263600  1
  O  O48  1  0.31978300  0.80904200  0.16799900  1
  O  O49  1  0.52130700  0.62642100  0.83042100  1
  O  O50  1  0.48660000  0.67609200  0.16499900  1
  O  O51  1  0.25495900  0.92008900  0.34096600  1
  O  O52  1  0.20350600  0.99678400  0.75144700  1
  O  O53  1  0.22004500  0.99642100  0.56851400  1
  O  O54  1  0.21324800  0.98318500  0.93330700  1
  O  O55  1  0.37103100  0.89099100  0.83043500  1
  O  O56  1  0.49015500  0.81513100  0.67304500  1
  O  O57  1  0.34023700  0.08179300  0.15886300  1
  O  O58  1  0.53101100  0.91336800  0.33050600  1
  O  O59  1  0.65971100  0.74213500  0.33645600  1
  O  O60  1  0.20996700  0.19809900  0.25732100  1
  O  O61  1  0.22290200  0.22900300  0.43503400  1
  O  O62  1  0.77550800  0.77782300  0.56871800  1
  O  O63  1  0.33243100  0.25049200  0.65868600  1
  O  O64  1  0.46533500  0.08350800  0.66919900  1
  O  O65  1  0.66342600  0.91893500  0.84125600  1
  O  O66  1  0.50998300  0.18905300  0.32908000  1
  O  O67  1  0.61982400  0.07812400  0.16817200  1
  O  O68  1  0.79447300  0.99075200  0.07782900  1
  O  O69  1  0.77071200  0.98366300  0.43747600  1
  O  O70  1  0.80155400  0.00878000  0.25841900  1
  O  O71  1  0.74624400  0.08438000  0.65802400  1
  O  O72  1  0.52269100  0.33861600  0.82293300  1
  O  O73  1  0.45968700  0.37838100  0.16621200  1
  O  O74  1  0.66249800  0.18661900  0.82523200  1
  O  O75  1  0.66642700  0.34143100  0.97680000  1
  O  O76  1  0.66453700  0.34157100  0.47498300  1
  O  O77  1  0.80680800  0.32323900  0.32347600  1
  O  O78  1  0.61835300  0.53072100  0.66672300  1
  O  O79  1  0.67689300  0.48928900  0.32559700  1
  O  O80  1  0.91761200  0.25319600  0.15983600  1
  O  O81  1  0.98860600  0.19992000  0.76051500  1
  O  O82  1  0.01437400  0.23520800  0.93832100  1
  O  O83  1  0.92449100  0.38095400  0.66838000  1
  O  O84  1  0.81645200  0.48432500  0.82847600  1
  O  O85  1  0.91419700  0.52988700  0.17093300  1
  O  O86  1  0.74394600  0.65839700  0.15742400  1
  O  O87  1  0.77168100  0.76935600  0.93065900  1
  O  O88  1  0.79407500  0.79159700  0.75054900  1
  O  O89  1  0.91793000  0.66258500  0.65607900  1
  O  O90  1  0.99972800  0.77622600  0.43052000  1
  O  O91  1  0.99956600  0.79581000  0.24929900  1
