# generated using pymatgen
data_Li3BiO3
_symmetry_space_group_name_H-M   'P 1'
_cell_length_a   10.57359909
_cell_length_b   10.57359909
_cell_length_c   10.57359909
_cell_angle_alpha   97.33973039
_cell_angle_beta   97.33973039
_cell_angle_gamma   138.11576156
_symmetry_Int_Tables_number   1
_chemical_formula_structural   Li3BiO3
_chemical_formula_sum   'Li24 Bi8 O24'
_cell_volume   737.09389063
_cell_formula_units_Z   8
loop_
 _symmetry_equiv_pos_site_id
 _symmetry_equiv_pos_as_xyz
  1  'x, y, z'
loop_
 _atom_site_type_symbol
 _atom_site_label
 _atom_site_symmetry_multiplicity
 _atom_site_fract_x
 _atom_site_fract_y
 _atom_site_fract_z
 _atom_site_occupancy
  Li  Li0  1  0.76979500  0.64916500  0.03455200  1
  Li  Li1  1  0.29066700  0.19155600  0.37256900  1
  Li  Li2  1  0.06024000  0.84358500  0.22302400  1
  Li  Li3  1  0.97428500  0.56272200  0.13222500  1
  Li  Li4  1  0.81272200  0.18049700  0.08843700  1
  Li  Li5  1  0.16809700  0.04066700  0.59911000  1
  Li  Li6  1  0.21031400  0.82656300  0.46467300  1
  Li  Li7  1  0.48870300  0.11229900  0.44162500  1
  Li  Li8  1  0.89916500  0.36461300  0.37937000  1
  Li  Li9  1  0.29707800  0.23870300  0.87640400  1
  Li  Li10  1  0.07656300  0.11189000  0.11625000  1
  Li  Li11  1  0.08721600  0.81024000  0.71665500  1
  Li  Li12  1  0.09358500  0.37056100  0.28334500  1
  Li  Li13  1  0.99564000  0.96031400  0.88375000  1
  Li  Li14  1  0.36229900  0.42067400  0.12359600  1
  Li  Li15  1  0.98524300  0.51979500  0.62063000  1
  Li  Li16  1  0.67067400  0.04707800  0.55837500  1
  Li  Li17  1  0.36189000  0.74564000  0.53532700  1
  Li  Li18  1  0.44155600  0.56898700  0.40089000  1
  Li  Li19  1  0.09206000  0.72428500  0.91156300  1
  Li  Li20  1  0.43049700  0.84206000  0.86777500  1
  Li  Li21  1  0.62056100  0.83721600  0.77697600  1
  Li  Li22  1  0.81898700  0.91809700  0.62743100  1
  Li  Li23  1  0.61461300  0.73524300  0.96544800  1
  Bi  Bi24  1  0.44006300  0.13020200  0.12060100  1
  Bi  Bi25  1  0.79647200  0.61290400  0.37206300  1
  Bi  Bi26  1  0.67440900  0.54647200  0.68356800  1
  Bi  Bi27  1  0.38020200  0.75960100  0.19013900  1
  Bi  Bi28  1  0.56946200  0.19006300  0.80986100  1
  Bi  Bi29  1  0.86290400  0.99084000  0.31643200  1
  Bi  Bi30  1  0.24084000  0.42440900  0.62793700  1
  Bi  Bi31  1  0.00960100  0.31946200  0.87939900  1
  O  O32  1  0.28509000  0.17119900  0.04567100  1
  O  O33  1  0.79217000  0.54617400  0.16989600  1
  O  O34  1  0.16382100  0.81853700  0.10192000  1
  O  O35  1  0.12427600  0.93883100  0.41285800  1
  O  O36  1  0.50326800  0.25515700  0.33275900  1
  O  O37  1  0.06853700  0.46661800  0.15471600  1
  O  O38  1  0.96141800  0.87427600  0.68544500  1
  O  O39  1  0.95264800  0.58164800  0.46707900  1
  O  O40  1  0.79617400  0.12627800  0.25400400  1
  O  O41  1  0.42050900  0.25326800  0.74811000  1
  O  O42  1  0.73556900  0.70264800  0.87100000  1
  O  O43  1  0.42119900  0.87552800  0.38610900  1
  O  O44  1  0.48941900  0.03509000  0.61389100  1
  O  O45  1  0.83164800  0.86456900  0.12900000  1
  O  O46  1  0.50515700  0.67239900  0.25189000  1
  O  O47  1  0.87227400  0.54217000  0.74599600  1
  O  O48  1  0.11456900  0.48556900  0.53292100  1
  O  O49  1  0.18883100  0.27597300  0.31455500  1
  O  O50  1  0.31190100  0.91382100  0.84528400  1
  O  O51  1  0.92239900  0.17050900  0.66724100  1
  O  O52  1  0.52597300  0.71141800  0.58714200  1
  O  O53  1  0.71661800  0.06190100  0.89808000  1
  O  O54  1  0.37627800  0.62227400  0.83010400  1
  O  O55  1  0.12552800  0.23941900  0.95432900  1
