# generated using pymatgen
data_LiVBO4
_symmetry_space_group_name_H-M   'P 1'
_cell_length_a   4.38560600
_cell_length_b   6.06722100
_cell_length_c   10.10121600
_cell_angle_alpha   90.00000000
_cell_angle_beta   90.00000000
_cell_angle_gamma   90.00000000
_symmetry_Int_Tables_number   1
_chemical_formula_structural   LiVBO4
_chemical_formula_sum   'Li4 V4 B4 O16'
_cell_volume   268.77760816
_cell_formula_units_Z   4
loop_
 _symmetry_equiv_pos_site_id
 _symmetry_equiv_pos_as_xyz
  1  'x, y, z'
loop_
 _atom_site_type_symbol
 _atom_site_label
 _atom_site_symmetry_multiplicity
 _atom_site_fract_x
 _atom_site_fract_y
 _atom_site_fract_z
 _atom_site_occupancy
  Li  Li0  1  0.48050000  0.25000000  0.72349700  1
  Li  Li1  1  0.98050000  0.75000000  0.77650300  1
  Li  Li2  1  0.01950000  0.25000000  0.22349700  1
  Li  Li3  1  0.51950000  0.75000000  0.27650300  1
  V  V4  1  0.00000000  0.50000000  0.50000000  1
  V  V5  1  0.00000000  0.00000000  0.50000000  1
  V  V6  1  0.50000000  0.50000000  0.00000000  1
  V  V7  1  0.50000000  0.00000000  0.00000000  1
  B  B8  1  0.40673200  0.75000000  0.58282000  1
  B  B9  1  0.90673200  0.25000000  0.91718000  1
  B  B10  1  0.09326800  0.75000000  0.08282000  1
  B  B11  1  0.59326800  0.25000000  0.41718000  1
  O  O12  1  0.74721300  0.25000000  0.56117000  1
  O  O13  1  0.73509700  0.75000000  0.57466900  1
  O  O14  1  0.27110200  0.95173200  0.64220300  1
  O  O15  1  0.27110200  0.54826800  0.64220300  1
  O  O16  1  0.77110200  0.04826800  0.85779700  1
  O  O17  1  0.77110200  0.45173200  0.85779700  1
  O  O18  1  0.23509700  0.25000000  0.92533100  1
  O  O19  1  0.24721300  0.75000000  0.93883000  1
  O  O20  1  0.75278700  0.25000000  0.06117000  1
  O  O21  1  0.76490300  0.75000000  0.07466900  1
  O  O22  1  0.22889800  0.54826800  0.14220300  1
  O  O23  1  0.22889800  0.95173200  0.14220300  1
  O  O24  1  0.72889800  0.04826800  0.35779700  1
  O  O25  1  0.72889800  0.45173200  0.35779700  1
  O  O26  1  0.26490300  0.25000000  0.42533100  1
  O  O27  1  0.25278700  0.75000000  0.43883000  1
