# generated using pymatgen
data_Li2Fe(PO3)5
_symmetry_space_group_name_H-M   'P 1'
_cell_length_a   9.61331800
_cell_length_b   5.35174000
_cell_length_c   13.15257353
_cell_angle_alpha   70.72630632
_cell_angle_beta   90.00000000
_cell_angle_gamma   90.00000000
_symmetry_Int_Tables_number   1
_chemical_formula_structural   Li2Fe(PO3)5
_chemical_formula_sum   'Li4 Fe2 P10 O30'
_cell_volume   638.74754063
_cell_formula_units_Z   2
loop_
 _symmetry_equiv_pos_site_id
 _symmetry_equiv_pos_as_xyz
  1  'x, y, z'
loop_
 _atom_site_type_symbol
 _atom_site_label
 _atom_site_symmetry_multiplicity
 _atom_site_fract_x
 _atom_site_fract_y
 _atom_site_fract_z
 _atom_site_occupancy
  Li  Li0  1  0.40413000  0.04145100  0.07861200  1
  Li  Li1  1  0.36397900  0.90321300  0.44019800  1
  Li  Li2  1  0.59587000  0.04145100  0.57861200  1
  Li  Li3  1  0.63602100  0.90321300  0.94019800  1
  Fe  Fe4  1  0.99123600  0.03756000  0.49311300  1
  Fe  Fe5  1  0.00876400  0.03756000  0.99311300  1
  P  P6  1  0.80646300  0.39182900  0.08046100  1
  P  P7  1  0.51840700  0.46507700  0.14415200  1
  P  P8  1  0.98799900  0.02566600  0.24511900  1
  P  P9  1  0.52521000  0.52107300  0.36078800  1
  P  P10  1  0.81945900  0.62735800  0.40997000  1
  P  P11  1  0.19353700  0.39182900  0.58046100  1
  P  P12  1  0.48159300  0.46507700  0.64415200  1
  P  P13  1  0.01200100  0.02566600  0.74511900  1
  P  P14  1  0.47479000  0.52107300  0.86078800  1
  P  P15  1  0.18054100  0.62735800  0.90997000  1
  O  O16  1  0.84639600  0.22351900  0.01131000  1
  O  O17  1  0.83025700  0.68383500  0.03454900  1
  O  O18  1  0.50831800  0.73991000  0.06500900  1
  O  O19  1  0.64994200  0.31283800  0.11098000  1
  O  O20  1  0.06682900  0.98099300  0.15329500  1
  O  O21  1  0.39838400  0.27956200  0.16329100  1
  O  O22  1  0.88381600  0.27214400  0.19617800  1
  O  O23  1  0.58550000  0.48808700  0.25220100  1
  O  O24  1  0.88951900  0.76833300  0.29374800  1
  O  O25  1  0.40647800  0.70885600  0.34087200  1
  O  O26  1  0.06111800  0.07504700  0.33828400  1
  O  O27  1  0.66073200  0.68030700  0.38682500  1
  O  O28  1  0.51664500  0.25025900  0.44252800  1
  O  O29  1  0.85494000  0.33645800  0.44531500  1
  O  O30  1  0.85932400  0.77122400  0.48760300  1
  O  O31  1  0.15360400  0.22351900  0.51131000  1
  O  O32  1  0.16974300  0.68383500  0.53454900  1
  O  O33  1  0.49168200  0.73991000  0.56500900  1
  O  O34  1  0.35005800  0.31283800  0.61098000  1
  O  O35  1  0.93317100  0.98099300  0.65329500  1
  O  O36  1  0.60161600  0.27956200  0.66329100  1
  O  O37  1  0.11618400  0.27214400  0.69617800  1
  O  O38  1  0.41450000  0.48808700  0.75220100  1
  O  O39  1  0.11048100  0.76833300  0.79374800  1
  O  O40  1  0.59352200  0.70885600  0.84087200  1
  O  O41  1  0.93888200  0.07504700  0.83828400  1
  O  O42  1  0.33926800  0.68030700  0.88682500  1
  O  O43  1  0.48335500  0.25025900  0.94252800  1
  O  O44  1  0.14506000  0.33645800  0.94531500  1
  O  O45  1  0.14067600  0.77122400  0.98760300  1
