# generated using pymatgen
data_LiP4WO12
_symmetry_space_group_name_H-M   'P 1'
_cell_length_a   8.73801053
_cell_length_b   8.73801053
_cell_length_c   9.77335174
_cell_angle_alpha   60.36740297
_cell_angle_beta   60.36740297
_cell_angle_gamma   50.55388410
_symmetry_Int_Tables_number   1
_chemical_formula_structural   LiP4WO12
_chemical_formula_sum   'Li2 P8 W2 O24'
_cell_volume   482.47721453
_cell_formula_units_Z   2
loop_
 _symmetry_equiv_pos_site_id
 _symmetry_equiv_pos_as_xyz
  1  'x, y, z'
loop_
 _atom_site_type_symbol
 _atom_site_label
 _atom_site_symmetry_multiplicity
 _atom_site_fract_x
 _atom_site_fract_y
 _atom_site_fract_z
 _atom_site_occupancy
  Li  Li0  1  0.68852400  0.31147600  0.75000000  1
  Li  Li1  1  0.31147600  0.68852400  0.25000000  1
  P  P2  1  0.02880200  0.68497600  0.17325000  1
  P  P3  1  0.44253600  0.29480900  0.13299100  1
  P  P4  1  0.70519100  0.55746400  0.36700900  1
  P  P5  1  0.31502400  0.97119800  0.32675000  1
  P  P6  1  0.68497700  0.02880200  0.67325000  1
  P  P7  1  0.29480900  0.44253600  0.63299100  1
  P  P8  1  0.55746400  0.70519100  0.86700900  1
  P  P9  1  0.97119800  0.31502300  0.82675000  1
  W  W10  1  0.13629300  0.86370700  0.75000000  1
  W  W11  1  0.86370700  0.13629300  0.25000000  1
  O  O12  1  0.59797700  0.19483400  0.22107900  1
  O  O13  1  0.23480100  0.47545700  0.21694100  1
  O  O14  1  0.01676000  0.73745000  0.00642600  1
  O  O15  1  0.85702800  0.63679300  0.31204900  1
  O  O16  1  0.97838400  0.16254200  0.78840800  1
  O  O17  1  0.36320700  0.14297200  0.18795100  1
  O  O18  1  0.26255000  0.98324000  0.49357400  1
  O  O19  1  0.63503100  0.50726800  0.54757100  1
  O  O20  1  0.49273200  0.36496900  0.95242900  1
  O  O21  1  0.52454300  0.76519900  0.28305900  1
  O  O22  1  0.80516600  0.40202300  0.27892100  1
  O  O23  1  0.83745800  0.02161600  0.71159200  1
  O  O24  1  0.16254200  0.97838400  0.28840800  1
  O  O25  1  0.19483400  0.59797700  0.72107900  1
  O  O26  1  0.47545700  0.23480100  0.71694100  1
  O  O27  1  0.50726800  0.63503100  0.04757100  1
  O  O28  1  0.36496900  0.49273200  0.45242900  1
  O  O29  1  0.73745000  0.01676000  0.50642600  1
  O  O30  1  0.63679300  0.85702800  0.81204900  1
  O  O31  1  0.02161600  0.83745800  0.21159200  1
  O  O32  1  0.14297200  0.36320700  0.68795100  1
  O  O33  1  0.98324000  0.26255000  0.99357400  1
  O  O34  1  0.76519900  0.52454300  0.78305900  1
  O  O35  1  0.40202300  0.80516600  0.77892100  1
