# generated using pymatgen
data_Li4V3P8O29
_symmetry_space_group_name_H-M   'P 1'
_cell_length_a   9.74768000
_cell_length_b   9.76209470
_cell_length_c   14.12131042
_cell_angle_alpha   89.95872635
_cell_angle_beta   90.43614206
_cell_angle_gamma   119.72131712
_symmetry_Int_Tables_number   1
_chemical_formula_structural   Li4V3P8O29
_chemical_formula_sum   'Li8 V6 P16 O58'
_cell_volume   1166.93694653
_cell_formula_units_Z   2
loop_
 _symmetry_equiv_pos_site_id
 _symmetry_equiv_pos_as_xyz
  1  'x, y, z'
loop_
 _atom_site_type_symbol
 _atom_site_label
 _atom_site_symmetry_multiplicity
 _atom_site_fract_x
 _atom_site_fract_y
 _atom_site_fract_z
 _atom_site_occupancy
  Li  Li0  1  0.90584500  0.67831800  0.05526000  1
  Li  Li1  1  0.77626500  0.08395900  0.05779200  1
  Li  Li2  1  0.32011300  0.22878400  0.06191400  1
  Li  Li3  1  0.67242700  0.90644200  0.44469400  1
  Li  Li4  1  0.32965300  0.09491100  0.55859200  1
  Li  Li5  1  0.22430200  0.90639200  0.93945700  1
  Li  Li6  1  0.09126600  0.32277900  0.93817300  1
  Li  Li7  1  0.99953400  0.99685300  0.50675100  1
  V  V8  1  0.56865700  0.00062400  0.24818100  1
  V  V9  1  0.43317900  0.99906800  0.75200100  1
  V  V10  1  0.56967600  0.56710400  0.74920200  1
  V  V11  1  0.43467700  0.43942000  0.25479600  1
  V  V12  1  0.00056400  0.56432600  0.25954700  1
  V  V13  1  0.99660600  0.43421100  0.73760700  1
  P  P14  1  0.91282100  0.68077000  0.83991500  1
  P  P15  1  0.77661600  0.69525800  0.34147500  1
  P  P16  1  0.91795800  0.22053700  0.34288400  1
  P  P17  1  0.66858000  0.33648100  0.13270100  1
  P  P18  1  0.65974500  0.33270500  0.62819900  1
  P  P19  1  0.77504900  0.09370700  0.83939600  1
  P  P20  1  0.68691600  0.91188700  0.65925600  1
  P  P21  1  0.32018700  0.23397500  0.84580900  1
  P  P22  1  0.68400000  0.76797300  0.15480200  1
  P  P23  1  0.31596000  0.08915200  0.34169200  1
  P  P24  1  0.22660300  0.90759700  0.16112300  1
  P  P25  1  0.33720500  0.66947900  0.37141700  1
  P  P26  1  0.32746400  0.65944900  0.86691100  1
  P  P27  1  0.08365200  0.78124000  0.65677200  1
  P  P28  1  0.22485000  0.30623200  0.66084100  1
  P  P29  1  0.08732300  0.31955600  0.15832100  1
  O  O30  1  0.00305500  0.80099500  0.57370000  1
  O  O31  1  0.91355100  0.65720100  0.33594400  1
  O  O32  1  0.76503900  0.75608800  0.06994100  1
  O  O33  1  0.74453200  0.65741700  0.83561200  1
  O  O34  1  0.90698900  0.52305900  0.81828400  1
  O  O35  1  0.81775500  0.48353200  0.17846900  1
  O  O36  1  0.91739900  0.38111400  0.33034200  1
  O  O37  1  0.00193700  0.24609600  0.06719400  1
  O  O38  1  0.92082500  0.26221900  0.83304400  1
  O  O39  1  0.66829800  0.48180600  0.67747800  1
  O  O40  1  0.61757100  0.53648300  0.33000400  1
  O  O41  1  0.81019900  0.32917300  0.67223800  1
  O  O42  1  0.67110300  0.34425700  0.02738700  1
  O  O43  1  0.66661300  0.34191800  0.52367600  1
  O  O44  1  0.67169300  0.18547700  0.16919900  1
  O  O45  1  0.47962900  0.38101300  0.82493600  1
  O  O46  1  0.51805500  0.33466800  0.17439700  1
  O  O47  1  0.74353700  0.08341200  0.33632400  1
  O  O48  1  0.79627200  0.00323600  0.75020700  1
  O  O49  1  0.77355300  0.98072800  0.56977800  1
  O  O50  1  0.76949900  0.01671000  0.93068400  1
  O  O51  1  0.62072000  0.10007100  0.81950700  1
  O  O52  1  0.50872700  0.18621000  0.66617400  1
  O  O53  1  0.66215600  0.91504800  0.15666700  1
  O  O54  1  0.47154900  0.08930300  0.32802600  1
  O  O55  1  0.34504900  0.26044800  0.32741700  1
  O  O56  1  0.79437400  0.79383200  0.24730200  1
  O  O57  1  0.78757800  0.79299300  0.42473700  1
  O  O58  1  0.20573400  0.19732600  0.58178400  1
  O  O59  1  0.65708500  0.74039800  0.67149800  1
  O  O60  1  0.53073800  0.91137200  0.67120000  1
  O  O61  1  0.33551200  0.08334600  0.84402200  1
  O  O62  1  0.48960100  0.81380400  0.33343600  1
  O  O63  1  0.37928700  0.89916400  0.17906300  1
  O  O64  1  0.23852900  0.99638400  0.07158400  1
  O  O65  1  0.23201800  0.02234400  0.43173100  1
  O  O66  1  0.20430800  0.99584600  0.25117800  1
  O  O67  1  0.25892200  0.91622400  0.66441900  1
  O  O68  1  0.47170000  0.65628900  0.81936900  1
  O  O69  1  0.52380000  0.61802300  0.17694200  1
  O  O70  1  0.32838000  0.81374400  0.83286400  1
  O  O71  1  0.32388700  0.64665200  0.97187900  1
  O  O72  1  0.33073000  0.65851100  0.47569600  1
  O  O73  1  0.18805400  0.67172000  0.32585800  1
  O  O74  1  0.38420100  0.46065400  0.66869200  1
  O  O75  1  0.33018100  0.51837700  0.32276600  1
  O  O76  1  0.07944400  0.74095100  0.16185700  1
  O  O77  1  0.00803600  0.79850900  0.75498600  1
  O  O78  1  0.99875100  0.75381700  0.93095500  1
  O  O79  1  0.08118800  0.61976400  0.66704700  1
  O  O80  1  0.17786200  0.51404000  0.82125100  1
  O  O81  1  0.09406900  0.47780200  0.18023500  1
  O  O82  1  0.25526500  0.33957500  0.16026900  1
  O  O83  1  0.24595400  0.24699900  0.93592900  1
  O  O84  1  0.20209100  0.21327900  0.75993300  1
  O  O85  1  0.08770400  0.34517100  0.66265600  1
  O  O86  1  0.00170000  0.20697300  0.42629100  1
  O  O87  1  0.99390300  0.20370100  0.24435300  1
