# generated using pymatgen
data_Li32Ti11Cr5O48
_symmetry_space_group_name_H-M   'P 1'
_cell_length_a   5.07979460
_cell_length_b   5.07979537
_cell_length_c   38.67694755
_cell_angle_alpha   88.85672302
_cell_angle_beta   91.14327740
_cell_angle_gamma   60.06032259
_symmetry_Int_Tables_number   1
_chemical_formula_structural   Li32Ti11Cr5O48
_chemical_formula_sum   'Li32 Ti11 Cr5 O48'
_cell_volume   864.15853090
_cell_formula_units_Z   1
loop_
 _symmetry_equiv_pos_site_id
 _symmetry_equiv_pos_as_xyz
  1  'x, y, z'
loop_
 _atom_site_type_symbol
 _atom_site_label
 _atom_site_symmetry_multiplicity
 _atom_site_fract_x
 _atom_site_fract_y
 _atom_site_fract_z
 _atom_site_occupancy
  Li  Li0  1  0.09125820  0.08919920  0.24982119  1
  Li  Li1  1  0.99715621  0.49967736  0.00004251  1
  Li  Li2  1  0.06124630  0.43788730  0.18747994  1
  Li  Li3  1  0.12241316  0.37318312  0.37513407  1
  Li  Li4  1  0.18584175  0.31587829  0.56249809  1
  Li  Li5  1  0.25177684  0.25074923  0.75013116  1
  Li  Li6  1  0.31239806  0.18756443  0.93741705  1
  Li  Li7  1  0.03459135  0.78748936  0.12502836  1
  Li  Li8  1  0.37030692  0.12289173  0.12508238  1
  Li  Li9  1  0.16248936  0.65959135  0.49997164  1
  Li  Li10  1  0.28727965  0.53215819  0.87484119  1
  Li  Li11  1  0.43751237  0.06251237  0.31250000  1
  Li  Li12  1  0.49789173  0.99530692  0.49991762  1
  Li  Li13  1  0.40994184  0.41236711  0.24984219  1
  Li  Li14  1  0.53148390  0.29110770  0.62479368  1
  Li  Li15  1  0.21789943  0.96079345  0.62507430  1
  Li  Li16  1  0.33579345  0.84289943  0.99992570  1
  Li  Li17  1  0.66610770  0.15648390  0.00020632  1
  Li  Li18  1  0.78736711  0.03494184  0.37515781  1
  Li  Li19  1  0.46419920  0.71625820  0.37517881  1
  Li  Li20  1  0.59149270  0.58743993  0.75012243  1
  Li  Li21  1  0.56256443  0.93739806  0.68758295  1
  Li  Li22  1  0.72002939  0.46473146  0.12514234  1
  Li  Li23  1  0.83973146  0.34502939  0.49985766  1
  Li  Li24  1  0.62574923  0.87677684  0.87486884  1
  Li  Li25  1  0.96243993  0.21649270  0.87487757  1
  Li  Li26  1  0.69087829  0.81084175  0.06250191  1
  Li  Li27  1  0.74818312  0.74741316  0.24986593  1
  Li  Li28  1  0.81288730  0.68624630  0.43752006  1
  Li  Li29  1  0.87467736  0.62215621  0.62495749  1
  Li  Li30  1  0.93640768  0.56140768  0.81250000  1
  Li  Li31  1  0.90715819  0.91227965  0.75015881  1
  Ti  Ti32  1  0.10481241  0.72981241  0.31250000  1
  Ti  Ti33  1  0.22974422  0.60493596  0.68768250  1
  Ti  Ti34  1  0.35007019  0.48250758  0.06234826  1
  Ti  Ti35  1  0.48034351  0.35672650  0.43752438  1
  Ti  Ti36  1  0.27180798  0.89680798  0.81250000  1
  Ti  Ti37  1  0.73172650  0.10534351  0.18747562  1
  Ti  Ti38  1  0.64439969  0.52007105  0.93733642  1
  Ti  Ti39  1  0.76978677  0.39478677  0.31250000  1
  Ti  Ti40  1  0.89507105  0.26939969  0.68766358  1
  Ti  Ti41  1  0.85750758  0.97507019  0.56265174  1
  Ti  Ti42  1  0.97993596  0.85474422  0.93731750  1
  Cr  Cr43  1  0.02281777  0.14415521  0.06257505  1
  Cr  Cr44  1  0.14450558  0.01997639  0.43757729  1
  Cr  Cr45  1  0.60516506  0.23016506  0.81250000  1
  Cr  Cr46  1  0.39497639  0.76950558  0.18742271  1
  Cr  Cr47  1  0.51915521  0.64781777  0.56242495  1
  O  O48  1  0.09153941  0.05323464  0.34091562  1
  O  O49  1  0.05490257  0.09006148  0.15917962  1
  O  O50  1  0.07240568  0.42762671  0.28355065  1
  O  O51  1  0.19740567  0.30224606  0.65870867  1
  O  O52  1  0.05499292  0.45048708  0.09171719  1
  O  O53  1  0.17767379  0.31923559  0.46621435  1
  O  O54  1  0.30461153  0.19783100  0.84131899  1
  O  O55  1  0.31469886  0.17541023  0.03390269  1
  O  O56  1  0.44231545  0.05138591  0.40903528  1
  O  O57  1  0.07734853  0.78190715  0.21572989  1
  O  O58  1  0.42638591  0.06731545  0.21596472  1
  O  O59  1  0.19199852  0.66031107  0.59121335  1
  O  O60  1  0.32198413  0.53323570  0.96583684  1
  O  O61  1  0.03531107  0.81699852  0.03378665  1
  O  O62  1  0.15690715  0.70234853  0.40927011  1
  O  O63  1  0.28943090  0.56405733  0.78449057  1
  O  O64  1  0.21636444  0.92772743  0.71616993  1
  O  O65  1  0.18955163  0.95874627  0.53449926  1
  O  O66  1  0.30272743  0.84136444  0.90883007  1
  O  O67  1  0.44680194  0.40841116  0.34103085  1
  O  O68  1  0.57164273  0.28319694  0.71603433  1
  O  O69  1  0.40752157  0.45492324  0.15920368  1
  O  O70  1  0.53424862  0.32781039  0.53452367  1
  O  O71  1  0.65819694  0.19664273  0.90896567  1
  O  O72  1  0.33374627  0.81455163  0.09050074  1
  O  O73  1  0.46506148  0.67990257  0.46582038  1
  O  O74  1  0.58999518  0.55203965  0.84073203  1
  O  O75  1  0.42823464  0.71653941  0.28408438  1
  O  O76  1  0.55327477  0.59178250  0.65926226  1
  O  O77  1  0.70281039  0.15924862  0.09047633  1
  O  O78  1  0.82992324  0.03252157  0.46579632  1
  O  O79  1  0.78341116  0.07180193  0.28396915  1
  O  O80  1  0.71474591  0.42905238  0.21583177  1
  O  O81  1  0.83581915  0.30907854  0.59045637  1
  O  O82  1  0.96678250  0.17827477  0.96573774  1
  O  O83  1  0.68407854  0.46081915  0.03454363  1
  O  O84  1  0.80405238  0.33974591  0.40916823  1
  O  O85  1  0.57283100  0.92961153  0.78368101  1
  O  O86  1  0.92703965  0.21499518  0.78426797  1
  O  O87  1  0.55041023  0.93969886  0.59109731  1
  O  O88  1  0.67724606  0.82240567  0.96629133  1
  O  O89  1  0.69423559  0.80267379  0.15878565  1
  O  O90  1  0.82548708  0.67999292  0.53328281  1
  O  O91  1  0.94712590  0.55282324  0.90840576  1
  O  O92  1  0.80262671  0.69740568  0.34144935  1
  O  O93  1  0.92782324  0.57212590  0.71659424  1
  O  O94  1  0.93905733  0.91443090  0.84050943  1
  O  O95  1  0.90823570  0.94698413  0.65916316  1
