# generated using pymatgen
data_Li4Si2NiO7
_symmetry_space_group_name_H-M   'P 1'
_cell_length_a   7.18567291
_cell_length_b   7.18567291
_cell_length_c   8.01996211
_cell_angle_alpha   84.88556534
_cell_angle_beta   84.88556534
_cell_angle_gamma   44.66452571
_symmetry_Int_Tables_number   1
_chemical_formula_structural   Li4Si2NiO7
_chemical_formula_sum   'Li8 Si4 Ni2 O14'
_cell_volume   289.73979405
_cell_formula_units_Z   2
loop_
 _symmetry_equiv_pos_site_id
 _symmetry_equiv_pos_as_xyz
  1  'x, y, z'
loop_
 _atom_site_type_symbol
 _atom_site_label
 _atom_site_symmetry_multiplicity
 _atom_site_fract_x
 _atom_site_fract_y
 _atom_site_fract_z
 _atom_site_occupancy
  Li  Li0  1  0.41773200  0.73412100  0.12447500  1
  Li  Li1  1  0.73412100  0.41773200  0.62447500  1
  Li  Li2  1  0.53526400  0.88106700  0.40401400  1
  Li  Li3  1  0.88106700  0.53526400  0.90401400  1
  Li  Li4  1  0.42531900  0.13049300  0.05266600  1
  Li  Li5  1  0.13049300  0.42531900  0.55266600  1
  Li  Li6  1  0.81554900  0.19132400  0.97779300  1
  Li  Li7  1  0.19132400  0.81554900  0.47779300  1
  Si  Si8  1  0.96697900  0.30633900  0.25934200  1
  Si  Si9  1  0.30633900  0.96697900  0.75934200  1
  Si  Si10  1  0.59335500  0.25615100  0.33226100  1
  Si  Si11  1  0.25615100  0.59335500  0.83226100  1
  Ni  Ni12  1  0.01489800  0.69252900  0.20312800  1
  Ni  Ni13  1  0.69252900  0.01489800  0.70312800  1
  O  O14  1  0.83975600  0.21595800  0.39798800  1
  O  O15  1  0.21595800  0.83975600  0.89798800  1
  O  O16  1  0.79176600  0.42769300  0.09397100  1
  O  O17  1  0.42769300  0.79176600  0.59397100  1
  O  O18  1  0.28007800  0.04463400  0.22662000  1
  O  O19  1  0.04463400  0.28007800  0.72662000  1
  O  O20  1  0.91709200  0.53567300  0.35300300  1
  O  O21  1  0.53567300  0.91709200  0.85300300  1
  O  O22  1  0.52560000  0.14235400  0.48504500  1
  O  O23  1  0.14235400  0.52560000  0.98504500  1
  O  O24  1  0.70056500  0.08070700  0.16517400  1
  O  O25  1  0.08070700  0.70056500  0.66517400  1
  O  O26  1  0.33313500  0.57290000  0.29483900  1
  O  O27  1  0.57290000  0.33313500  0.79483900  1
