# generated using pymatgen
data_Li9Mn7Cr12O48
_symmetry_space_group_name_H-M   'P 1'
_cell_length_a   5.14796900
_cell_length_b   10.35786985
_cell_length_c   17.43450433
_cell_angle_alpha   90.12498211
_cell_angle_beta   90.51513480
_cell_angle_gamma   90.19959778
_symmetry_Int_Tables_number   1
_chemical_formula_structural   Li9Mn7Cr12O48
_chemical_formula_sum   'Li9 Mn7 Cr12 O48'
_cell_volume   929.59702618
_cell_formula_units_Z   1
loop_
 _symmetry_equiv_pos_site_id
 _symmetry_equiv_pos_as_xyz
  1  'x, y, z'
loop_
 _atom_site_type_symbol
 _atom_site_label
 _atom_site_symmetry_multiplicity
 _atom_site_fract_x
 _atom_site_fract_y
 _atom_site_fract_z
 _atom_site_occupancy
  Li  Li0  1  0.24318500  0.42401900  0.96886500  1
  Li  Li1  1  0.24486100  0.74738400  0.30230400  1
  Li  Li2  1  0.25887900  0.25501000  0.79901500  1
  Li  Li3  1  0.25470800  0.57762300  0.47047300  1
  Li  Li4  1  0.40260900  0.74841900  0.75055200  1
  Li  Li5  1  0.59782900  0.25202100  0.24935500  1
  Li  Li6  1  0.74474000  0.07784800  0.53029800  1
  Li  Li7  1  0.74019700  0.74596600  0.20230600  1
  Li  Li8  1  0.75591400  0.24950000  0.69851000  1
  Mn  Mn9  1  0.09660600  0.25101000  0.25192000  1
  Mn  Mn10  1  0.24804100  0.08005300  0.97087200  1
  Mn  Mn11  1  0.25054000  0.92793700  0.47427200  1
  Mn  Mn12  1  0.75006000  0.43164900  0.52512200  1
  Mn  Mn13  1  0.75066800  0.57069200  0.02707500  1
  Mn  Mn14  1  0.74968400  0.92135700  0.02917900  1
  Mn  Mn15  1  0.90348900  0.74950400  0.74805300  1
  Cr  Cr16  1  0.21980100  0.74956700  0.94398900  1
  Cr  Cr17  1  0.22257500  0.02721700  0.65628300  1
  Cr  Cr18  1  0.21805700  0.47164400  0.65394200  1
  Cr  Cr19  1  0.27705300  0.52965900  0.15490900  1
  Cr  Cr20  1  0.27734800  0.97075500  0.15643200  1
  Cr  Cr21  1  0.28079900  0.25114300  0.44481600  1
  Cr  Cr22  1  0.71946800  0.74971100  0.55511900  1
  Cr  Cr23  1  0.72212200  0.02932600  0.84408700  1
  Cr  Cr24  1  0.72557300  0.47189000  0.84385100  1
  Cr  Cr25  1  0.77833700  0.52738600  0.34494200  1
  Cr  Cr26  1  0.77853500  0.97171400  0.34512400  1
  Cr  Cr27  1  0.77999500  0.24962400  0.05654700  1
  O  O28  1  0.04331000  0.24872600  0.99912000  1
  O  O29  1  0.04682500  0.60578200  0.36959300  1
  O  O30  1  0.05570300  0.89319600  0.37256700  1
  O  O31  1  0.10150000  0.62564300  0.20830300  1
  O  O32  1  0.09796800  0.87664200  0.20906400  1
  O  O33  1  0.10580700  0.12049700  0.46542500  1
  O  O34  1  0.09281100  0.37702800  0.46540300  1
  O  O35  1  0.09586000  0.00331100  0.07652200  1
  O  O36  1  0.09764000  0.49644800  0.07672200  1
  O  O37  1  0.14982200  0.74986900  0.85038900  1
  O  O38  1  0.15617100  0.60898500  0.70111400  1
  O  O39  1  0.15559000  0.88841500  0.70330600  1
  O  O40  1  0.34077900  0.10998000  0.20297300  1
  O  O41  1  0.34046900  0.39050900  0.20194700  1
  O  O42  1  0.34564800  0.25115900  0.35097500  1
  O  O43  1  0.40067900  0.99350800  0.57675100  1
  O  O44  1  0.40085100  0.50505100  0.57726700  1
  O  O45  1  0.40165000  0.88182300  0.96541400  1
  O  O46  1  0.40633200  0.62379100  0.96563300  1
  O  O47  1  0.40623000  0.12123100  0.70975200  1
  O  O48  1  0.39186200  0.37563100  0.70742100  1
  O  O49  1  0.44910100  0.10834200  0.86989300  1
  O  O50  1  0.45429800  0.39564500  0.86904700  1
  O  O51  1  0.45227300  0.75359700  0.49804400  1
  O  O52  1  0.55310000  0.25773800  0.50269300  1
  O  O53  1  0.55348000  0.60722600  0.12861200  1
  O  O54  1  0.55059400  0.89206000  0.13061900  1
  O  O55  1  0.59387100  0.62041800  0.29184400  1
  O  O56  1  0.60392700  0.87566500  0.29082800  1
  O  O57  1  0.59339200  0.11896900  0.03540500  1
  O  O58  1  0.59840700  0.37761300  0.03567800  1
  O  O59  1  0.59771900  0.00419200  0.42268800  1
  O  O60  1  0.60083000  0.49261500  0.42588200  1
  O  O61  1  0.65426900  0.75067800  0.64875000  1
  O  O62  1  0.65936000  0.61113500  0.79671000  1
  O  O63  1  0.65873900  0.89032500  0.79758400  1
  O  O64  1  0.84405300  0.10951800  0.29808200  1
  O  O65  1  0.84337100  0.38982000  0.29757800  1
  O  O66  1  0.85252000  0.24906500  0.15035000  1
  O  O67  1  0.90419800  0.50601400  0.92314900  1
  O  O68  1  0.90301800  0.99499400  0.92428600  1
  O  O69  1  0.89579200  0.61540400  0.53405500  1
  O  O70  1  0.90941800  0.87533100  0.53374700  1
  O  O71  1  0.90366800  0.12350900  0.79249600  1
  O  O72  1  0.90390000  0.37665200  0.79025300  1
  O  O73  1  0.95398800  0.10537700  0.63102900  1
  O  O74  1  0.93654900  0.39262000  0.62427500  1
  O  O75  1  0.95098400  0.74862700  0.00254900  1
