# generated using pymatgen
data_Li5La3(SbO6)2
_symmetry_space_group_name_H-M   'P 1'
_cell_length_a   11.23141000
_cell_length_b   11.24545602
_cell_length_c   11.24991178
_cell_angle_alpha   109.04060501
_cell_angle_beta   109.51986921
_cell_angle_gamma   109.68537319
_symmetry_Int_Tables_number   1
_chemical_formula_structural   Li5La3(SbO6)2
_chemical_formula_sum   'Li20 La12 Sb8 O48'
_cell_volume   1096.03306739
_cell_formula_units_Z   4
loop_
 _symmetry_equiv_pos_site_id
 _symmetry_equiv_pos_as_xyz
  1  'x, y, z'
loop_
 _atom_site_type_symbol
 _atom_site_label
 _atom_site_symmetry_multiplicity
 _atom_site_fract_x
 _atom_site_fract_y
 _atom_site_fract_z
 _atom_site_occupancy
  Li  Li0  1  0.89205000  0.68992600  0.44068700  1
  Li  Li1  1  0.27515200  0.10580200  0.01168700  1
  Li  Li2  1  0.07712000  0.60779600  0.32009800  1
  Li  Li3  1  0.75040600  0.81307900  0.70908000  1
  Li  Li4  1  0.75606700  0.47493200  0.08386700  1
  Li  Li5  1  0.39031000  0.95908200  0.20853600  1
  Li  Li6  1  0.30735000  0.70936300  0.25287300  1
  Li  Li7  1  0.19079200  0.44102100  0.39469900  1
  Li  Li8  1  0.46353100  0.20838000  0.89623100  1
  Li  Li9  1  0.81364900  0.56913600  0.60861600  1
  Li  Li10  1  0.54390300  0.79046500  0.09978800  1
  Li  Li11  1  0.24778500  0.54180300  0.92665400  1
  Li  Li12  1  0.25393300  0.18188700  0.28782500  1
  Li  Li13  1  0.60297600  0.02095900  0.77744500  1
  Li  Li14  1  0.71095500  0.89036100  0.96582100  1
  Li  Li15  1  0.58832500  0.26065900  0.48452600  1
  Li  Li16  1  0.92546000  0.39538300  0.68360200  1
  Li  Li17  1  0.21065300  0.24347400  0.81307800  1
  Li  Li18  1  0.11202400  0.32028100  0.57654600  1
  Li  Li19  1  0.95219800  0.05649200  0.24965700  1
  La  La20  1  0.24917000  0.87945700  0.62782200  1
  La  La21  1  0.10919200  0.86659700  0.24976600  1
  La  La22  1  0.61748300  0.36856800  0.25117500  1
  La  La23  1  0.74892400  0.61599900  0.87462500  1
  La  La24  1  0.12520900  0.75652900  0.87712300  1
  La  La25  1  0.87108300  0.24950600  0.11860900  1
  La  La26  1  0.62791800  0.75218700  0.37848400  1
  La  La27  1  0.37944500  0.24827000  0.62269400  1
  La  La28  1  0.25085600  0.38177300  0.12843000  1
  La  La29  1  0.38297500  0.63261300  0.74323900  1
  La  La30  1  0.87897800  0.12889900  0.74874200  1
  La  La31  1  0.75100500  0.11946900  0.37192100  1
  Sb  Sb32  1  0.99943300  0.99854800  0.50182200  1
  Sb  Sb33  1  0.99872400  0.99827600  0.99622600  1
  Sb  Sb34  1  0.49670300  0.99781600  0.50134000  1
  Sb  Sb35  1  0.50025600  0.50263100  0.99927500  1
  Sb  Sb36  1  0.99950200  0.49816100  0.99645700  1
  Sb  Sb37  1  0.50267900  0.00126300  0.00367900  1
  Sb  Sb38  1  0.50016200  0.50366200  0.49927000  1
  Sb  Sb39  1  0.99731200  0.49708100  0.49872600  1
  O  O40  1  0.67631800  0.59393800  0.47706400  1
  O  O41  1  0.00856500  0.68285900  0.61347900  1
  O  O42  1  0.41733100  0.32747400  0.30315000  1
  O  O43  1  0.48563000  0.88819900  0.81367700  1
  O  O44  1  0.02824600  0.82718300  0.42004500  1
  O  O45  1  0.90047100  0.88646400  0.07564600  1
  O  O46  1  0.66661700  0.56545700  0.19174100  1
  O  O47  1  0.82021200  0.01154100  0.89628000  1
  O  O48  1  0.62275300  0.93263400  0.60407600  1
  O  O49  1  0.88230100  0.48111300  0.30489600  1
  O  O50  1  0.39360900  0.32024900  0.01110500  1
  O  O51  1  0.10095900  0.12527100  0.93037800  1
  O  O52  1  0.28930300  0.82812800  0.41062500  1
  O  O53  1  0.18587900  0.61339800  0.51139800  1
  O  O54  1  0.17866500  0.98504700  0.09602100  1
  O  O55  1  0.91834500  0.60878200  0.09061300  1
  O  O56  1  0.58751500  0.67154500  0.69945400  1
  O  O57  1  0.91497100  0.79725600  0.82891900  1
  O  O58  1  0.57713700  0.40185600  0.88962200  1
  O  O59  1  0.50461600  0.89173200  0.32177700  1
  O  O60  1  0.31207100  0.98442800  0.88689300  1
  O  O61  1  0.20521500  0.08951800  0.67042000  1
  O  O62  1  0.17302400  0.69743600  0.08091600  1
  O  O63  1  0.87751500  0.90534100  0.57644200  1
  O  O64  1  0.61740700  0.20159700  0.03112900  1
  O  O65  1  0.09822300  0.48182600  0.17663800  1
  O  O66  1  0.40673600  0.57818900  0.37804800  1
  O  O67  1  0.80484100  0.92749100  0.33010600  1
  O  O68  1  0.83649400  0.29919100  0.92265100  1
  O  O69  1  0.38445500  0.80541700  0.98041400  1
  O  O70  1  0.91629100  0.53177400  0.82755100  1
  O  O71  1  0.59448000  0.42289400  0.61268900  1
  O  O72  1  0.42440000  0.60363800  0.11177300  1
  O  O73  1  0.46854900  0.08158400  0.67291200  1
  O  O74  1  0.08573400  0.38985500  0.90688100  1
  O  O75  1  0.38834500  0.08555900  0.40717400  1
  O  O76  1  0.11514100  0.51212700  0.69010900  1
  O  O77  1  0.58554000  0.67210900  0.96481200  1
  O  O78  1  0.69014000  0.16836300  0.56363400  1
  O  O79  1  0.80380300  0.38247100  0.48447300  1
  O  O80  1  0.32171100  0.42201800  0.80536400  1
  O  O81  1  0.52623900  0.11142900  0.20027300  1
  O  O82  1  0.98519500  0.17727300  0.59862100  1
  O  O83  1  0.98348300  0.30645200  0.38561100  1
  O  O84  1  0.32545800  0.40949600  0.52203600  1
  O  O85  1  0.69993500  0.02222000  0.11572300  1
  O  O86  1  0.11266700  0.08710900  0.41420900  1
  O  O87  1  0.07381500  0.18948800  0.17579900  1
