# generated using pymatgen
data_LiV3O4
_symmetry_space_group_name_H-M   'P 1'
_cell_length_a   6.20520705
_cell_length_b   6.10724379
_cell_length_c   6.09847102
_cell_angle_alpha   90.33055471
_cell_angle_beta   59.69260844
_cell_angle_gamma   120.45831689
_symmetry_Int_Tables_number   1
_chemical_formula_structural   LiV3O4
_chemical_formula_sum   'Li2 V6 O8'
_cell_volume   161.99264205
_cell_formula_units_Z   2
loop_
 _symmetry_equiv_pos_site_id
 _symmetry_equiv_pos_as_xyz
  1  'x, y, z'
loop_
 _atom_site_type_symbol
 _atom_site_label
 _atom_site_symmetry_multiplicity
 _atom_site_fract_x
 _atom_site_fract_y
 _atom_site_fract_z
 _atom_site_occupancy
  Li  Li0  1  0.99997400  0.50001800  0.00001400  1
  Li  Li1  1  0.49997400  0.50001900  0.00001400  1
  V  V2  1  0.99996600  0.00002100  0.50001300  1
  V  V3  1  0.99997000  0.50002200  0.50001300  1
  V  V4  1  0.49997000  0.50002200  0.50001100  1
  V  V5  1  0.49996300  0.00002100  0.50001500  1
  V  V6  1  0.49996900  0.00002100  0.00001300  1
  V  V7  1  0.99996800  0.00002100  0.00001500  1
  O  O8  1  0.01287500  0.76423300  0.73583200  1
  O  O9  1  0.51484000  0.76585600  0.73404400  1
  O  O10  1  0.48509800  0.23418500  0.26598300  1
  O  O11  1  0.98706200  0.23580900  0.26419600  1
  O  O12  1  0.00003900  0.75787600  0.25802600  1
  O  O13  1  0.49967000  0.75813900  0.25819600  1
  O  O14  1  0.50026800  0.24190900  0.74183000  1
  O  O15  1  0.99989900  0.24216800  0.74199800  1
