# generated using pymatgen
data_LiFeSiO4
_symmetry_space_group_name_H-M   'P 1'
_cell_length_a   4.77948700
_cell_length_b   6.22272700
_cell_length_c   10.35446400
_cell_angle_alpha   90.00000000
_cell_angle_beta   90.00000000
_cell_angle_gamma   90.00000000
_symmetry_Int_Tables_number   1
_chemical_formula_structural   LiFeSiO4
_chemical_formula_sum   'Li4 Fe4 Si4 O16'
_cell_volume   307.95669879
_cell_formula_units_Z   4
loop_
 _symmetry_equiv_pos_site_id
 _symmetry_equiv_pos_as_xyz
  1  'x, y, z'
loop_
 _atom_site_type_symbol
 _atom_site_label
 _atom_site_symmetry_multiplicity
 _atom_site_fract_x
 _atom_site_fract_y
 _atom_site_fract_z
 _atom_site_occupancy
  Li  Li0  1  0.98144300  0.03243200  0.03381700  1
  Li  Li1  1  0.01855700  0.53243200  0.46618300  1
  Li  Li2  1  0.51855700  0.96756800  0.53381700  1
  Li  Li3  1  0.48144300  0.46756800  0.96618300  1
  Fe  Fe4  1  0.49808000  0.76911900  0.24459600  1
  Fe  Fe5  1  0.50192000  0.26911900  0.25540400  1
  Fe  Fe6  1  0.00192000  0.23088100  0.74459600  1
  Fe  Fe7  1  0.99808000  0.73088100  0.75540400  1
  Si  Si8  1  0.91724300  0.51846200  0.16086800  1
  Si  Si9  1  0.08275700  0.01846200  0.33913200  1
  Si  Si10  1  0.58275700  0.48153800  0.66086800  1
  Si  Si11  1  0.41724300  0.98153800  0.83913200  1
  O  O12  1  0.78069800  0.74143900  0.10274800  1
  O  O13  1  0.77132100  0.30124200  0.10014700  1
  O  O14  1  0.26078200  0.51542500  0.16757500  1
  O  O15  1  0.24700100  0.01849700  0.19142900  1
  O  O16  1  0.75299900  0.51849700  0.30857100  1
  O  O17  1  0.73921800  0.01542500  0.33242500  1
  O  O18  1  0.22867900  0.80124200  0.39985300  1
  O  O19  1  0.21930200  0.24143900  0.39725200  1
  O  O20  1  0.71930200  0.25856100  0.60274800  1
  O  O21  1  0.72867900  0.69875800  0.60014700  1
  O  O22  1  0.23921800  0.48457500  0.66757500  1
  O  O23  1  0.25299900  0.98150300  0.69142900  1
  O  O24  1  0.74700100  0.48150300  0.80857100  1
  O  O25  1  0.76078200  0.98457500  0.83242500  1
  O  O26  1  0.27132100  0.19875800  0.89985300  1
  O  O27  1  0.28069800  0.75856100  0.89725200  1
