# generated using pymatgen
data_Li3AgF4
_symmetry_space_group_name_H-M   'P 1'
_cell_length_a   8.85312800
_cell_length_b   8.91054954
_cell_length_c   11.06890439
_cell_angle_alpha   99.48709964
_cell_angle_beta   97.80424923
_cell_angle_gamma   104.32696291
_symmetry_Int_Tables_number   1
_chemical_formula_structural   Li3AgF4
_chemical_formula_sum   'Li24 Ag8 F32'
_cell_volume   820.08829372
_cell_formula_units_Z   8
loop_
 _symmetry_equiv_pos_site_id
 _symmetry_equiv_pos_as_xyz
  1  'x, y, z'
loop_
 _atom_site_type_symbol
 _atom_site_label
 _atom_site_symmetry_multiplicity
 _atom_site_fract_x
 _atom_site_fract_y
 _atom_site_fract_z
 _atom_site_occupancy
  Li  Li0  1  0.00641800  0.89335500  0.35339200  1
  Li  Li1  1  0.00760500  0.63645100  0.20184300  1
  Li  Li2  1  0.12951500  0.86148000  0.73370100  1
  Li  Li3  1  0.01736500  0.12083900  0.68906000  1
  Li  Li4  1  0.13937500  0.50736400  0.69118600  1
  Li  Li5  1  0.13953100  0.39397200  0.24911200  1
  Li  Li6  1  0.16415600  0.01938000  0.19983800  1
  Li  Li7  1  0.37768900  0.49579900  0.85374400  1
  Li  Li8  1  0.50166500  0.89783400  0.92328500  1
  Li  Li9  1  0.39160600  0.64845400  0.24336300  1
  Li  Li10  1  0.37218400  0.11561600  0.74388900  1
  Li  Li11  1  0.51417500  0.65070700  0.69674400  1
  Li  Li12  1  0.41659200  0.02684700  0.43932800  1
  Li  Li13  1  0.50298200  0.38426800  0.35368500  1
  Li  Li14  1  0.64096400  0.89365100  0.24685600  1
  Li  Li15  1  0.60827200  0.37536700  0.72642500  1
  Li  Li16  1  0.51374400  0.13335700  0.19967700  1
  Li  Li17  1  0.65021600  0.51902200  0.19869500  1
  Li  Li18  1  0.87193100  0.98543900  0.84724000  1
  Li  Li19  1  0.62293000  0.00655200  0.69745600  1
  Li  Li20  1  0.87157500  0.61535300  0.73507500  1
  Li  Li21  1  0.90499800  0.52483800  0.43219200  1
  Li  Li22  1  0.98548900  0.36382900  0.84425000  1
  Li  Li23  1  0.89069800  0.14502500  0.24367500  1
  Ag  Ag24  1  0.16272100  0.74654600  0.99824200  1
  Ag  Ag25  1  0.25736900  0.69186500  0.48504200  1
  Ag  Ag26  1  0.20027800  0.27085900  0.49514900  1
  Ag  Ag27  1  0.26597100  0.19400200  0.00096100  1
  Ag  Ag28  1  0.68863300  0.76827000  0.49287600  1
  Ag  Ag29  1  0.76983700  0.68866300  0.99493300  1
  Ag  Ag30  1  0.68367100  0.26291600  0.99131000  1
  Ag  Ag31  1  0.76941700  0.19111500  0.50016100  1
  F  F32  1  0.02252600  0.69477900  0.37550800  1
  F  F33  1  0.03693000  0.64580200  0.63396800  1
  F  F34  1  0.03189900  0.17551800  0.86632100  1
  F  F35  1  0.17554000  0.52385800  0.86572100  1
  F  F36  1  0.32862900  0.95475500  0.84538400  1
  F  F37  1  0.07765500  0.18211500  0.16966700  1
  F  F38  1  0.17913000  0.56957000  0.16611200  1
  F  F39  1  0.17041600  0.03344900  0.64599800  1
  F  F40  1  0.32616600  0.98496700  0.11777800  1
  F  F41  1  0.33157200  0.47689800  0.66498800  1
  F  F42  1  0.20925400  0.03708300  0.37633600  1
  F  F43  1  0.33908400  0.47966400  0.35969200  1
  F  F44  1  0.47990000  0.81416500  0.62567300  1
  F  F45  1  0.47932400  0.85134100  0.35652100  1
  F  F46  1  0.52993700  0.69380300  0.87474700  1
  F  F47  1  0.46013200  0.32108400  0.84937000  1
  F  F48  1  0.48812100  0.32693400  0.16637500  1
  F  F49  1  0.57160900  0.68276700  0.16186200  1
  F  F50  1  0.53345900  0.15452000  0.63643900  1
  F  F51  1  0.53886700  0.19125100  0.37604800  1
  F  F52  1  0.66579900  0.55702800  0.64840900  1
  F  F53  1  0.81639700  0.97997400  0.66189800  1
  F  F54  1  0.69919500  0.53478500  0.37367900  1
  F  F55  1  0.67599400  0.02470700  0.87118400  1
  F  F56  1  0.84223500  0.98847300  0.35645700  1
  F  F57  1  0.81554800  0.45050800  0.83286900  1
  F  F58  1  0.67841600  0.05941900  0.15201300  1
  F  F59  1  0.96201600  0.81567400  0.84409800  1
  F  F60  1  0.81752700  0.49508700  0.12233900  1
  F  F61  1  0.99403000  0.83203400  0.16523400  1
  F  F62  1  0.99098400  0.30977200  0.65256100  1
  F  F63  1  0.97656900  0.34997300  0.36251900  1
