# generated using pymatgen
data_LiFeF4
_symmetry_space_group_name_H-M   'P 1'
_cell_length_a   5.68728600
_cell_length_b   4.70895100
_cell_length_c   5.07055064
_cell_angle_alpha   87.50295557
_cell_angle_beta   90.00000000
_cell_angle_gamma   90.00000000
_symmetry_Int_Tables_number   1
_chemical_formula_structural   LiFeF4
_chemical_formula_sum   'Li2 Fe2 F8'
_cell_volume   135.66624123
_cell_formula_units_Z   2
loop_
 _symmetry_equiv_pos_site_id
 _symmetry_equiv_pos_as_xyz
  1  'x, y, z'
loop_
 _atom_site_type_symbol
 _atom_site_label
 _atom_site_symmetry_multiplicity
 _atom_site_fract_x
 _atom_site_fract_y
 _atom_site_fract_z
 _atom_site_occupancy
  Li  Li0  1  0.35829200  0.50000000  0.75000000  1
  Li  Li1  1  0.64170800  0.50000000  0.25000000  1
  Fe  Fe2  1  0.83453400  0.00000000  0.75000000  1
  Fe  Fe3  1  0.16546600  0.00000000  0.25000000  1
  F  F4  1  0.10884100  0.78090600  0.93068000  1
  F  F5  1  0.89115900  0.78090600  0.43068000  1
  F  F6  1  0.62359000  0.73801400  0.91045400  1
  F  F7  1  0.37641000  0.73801400  0.41045400  1
  F  F8  1  0.62359000  0.26198600  0.58954600  1
  F  F9  1  0.37641000  0.26198600  0.08954600  1
  F  F10  1  0.10884100  0.21909400  0.56932000  1
  F  F11  1  0.89115900  0.21909400  0.06932000  1
