# generated using pymatgen
data_Li3VS4
_symmetry_space_group_name_H-M   'P 1'
_cell_length_a   17.98387799
_cell_length_b   13.51537641
_cell_length_c   12.96537585
_cell_angle_alpha   85.52469258
_cell_angle_beta   48.52424093
_cell_angle_gamma   45.95106648
_symmetry_Int_Tables_number   1
_chemical_formula_structural   Li3VS4
_chemical_formula_sum   'Li24 V8 S32'
_cell_volume   1194.70804762
_cell_formula_units_Z   8
loop_
 _symmetry_equiv_pos_site_id
 _symmetry_equiv_pos_as_xyz
  1  'x, y, z'
loop_
 _atom_site_type_symbol
 _atom_site_label
 _atom_site_symmetry_multiplicity
 _atom_site_fract_x
 _atom_site_fract_y
 _atom_site_fract_z
 _atom_site_occupancy
  Li  Li0  1  0.99375200  0.00624800  0.00624800  1
  Li  Li1  1  0.48026800  0.51973200  0.51973200  1
  Li  Li2  1  0.76928000  0.73905300  0.22456800  1
  Li  Li3  1  0.37090900  0.87557800  0.67875800  1
  Li  Li4  1  0.35474200  0.36530500  0.83523600  1
  Li  Li5  1  0.94936700  0.36461100  0.27578700  1
  Li  Li6  1  0.86584800  0.19025100  0.37685500  1
  Li  Li7  1  0.87314500  0.68295400  0.38415200  1
  Li  Li8  1  0.97421300  0.83976500  0.30063300  1
  Li  Li9  1  0.41476400  0.80528300  0.89525800  1
  Li  Li10  1  0.57124200  0.17524500  0.87909100  1
  Li  Li11  1  0.02543200  0.98290100  0.48072000  1
  Li  Li12  1  0.24375200  0.25624800  0.25624800  1
  Li  Li13  1  0.73026800  0.76973200  0.76973200  1
  Li  Li14  1  0.51094700  0.48072000  0.98290100  1
  Li  Li15  1  0.37442200  0.87909100  0.17524500  1
  Li  Li16  1  0.88469500  0.89525800  0.80528300  1
  Li  Li17  1  0.88538900  0.30063300  0.83976500  1
  Li  Li18  1  0.05974900  0.38415200  0.68295400  1
  Li  Li19  1  0.56704600  0.37685500  0.19025100  1
  Li  Li20  1  0.41023500  0.27578700  0.36461100  1
  Li  Li21  1  0.44471700  0.83523600  0.36530500  1
  Li  Li22  1  0.07475500  0.67875800  0.87557800  1
  Li  Li23  1  0.26709900  0.22456800  0.73905300  1
  V  V24  1  0.69677400  0.07326000  0.32148000  1
  V  V25  1  0.41640500  0.57160300  0.82869500  1
  V  V26  1  0.42130500  0.06670300  0.83359500  1
  V  V27  1  0.92852000  0.34151400  0.55322600  1
  V  V28  1  0.17674000  0.55322600  0.34151400  1
  V  V29  1  0.67839700  0.83359500  0.06670300  1
  V  V30  1  0.18329700  0.82869500  0.57160300  1
  V  V31  1  0.90848600  0.32148000  0.07326000  1
  S  S32  1  0.70768900  0.60464300  0.28969900  1
  S  S33  1  0.88647300  0.78854500  0.21135400  1
  S  S34  1  0.76024500  0.14708700  0.35006300  1
  S  S35  1  0.25421300  0.63909300  0.85067700  1
  S  S36  1  0.07817200  0.11071100  0.05927300  1
  S  S37  1  0.53652000  0.88956700  0.60999300  1
  S  S38  1  0.13282500  0.36653600  0.03359600  1
  S  S39  1  0.56295900  0.57342600  0.62865200  1
  S  S40  1  0.62134800  0.01503700  0.68704100  1
  S  S41  1  0.21640400  0.78295600  0.11717500  1
  S  S42  1  0.64000700  0.28608100  0.71348000  1
  S  S43  1  0.19072700  0.49815600  0.17182800  1
  S  S44  1  0.39932300  0.99398200  0.99578700  1
  S  S45  1  0.89993700  0.50739500  0.48975500  1
  S  S46  1  0.03864600  0.13637300  0.36352700  1
  S  S47  1  0.96030100  0.85203000  0.54231100  1
  S  S48  1  0.64535700  0.54231100  0.85203000  1
  S  S49  1  0.46145500  0.36352700  0.13637300  1
  S  S50  1  0.10291300  0.48975500  0.50739500  1
  S  S51  1  0.61090700  0.99578700  0.99398200  1
  S  S52  1  0.13928900  0.17182800  0.49815600  1
  S  S53  1  0.36043300  0.71348000  0.28608100  1
  S  S54  1  0.88346400  0.11717500  0.78295600  1
  S  S55  1  0.67657400  0.68704100  0.01503700  1
  S  S56  1  0.23496300  0.62865200  0.57342600  1
  S  S57  1  0.46704400  0.03359600  0.36653600  1
  S  S58  1  0.96391900  0.60999300  0.88956700  1
  S  S59  1  0.75184400  0.05927300  0.11071100  1
  S  S60  1  0.25601800  0.85067700  0.63909300  1
  S  S61  1  0.74260500  0.35006300  0.14708700  1
  S  S62  1  0.11362700  0.21135400  0.78854500  1
  S  S63  1  0.39797000  0.28969900  0.60464300  1
