# generated using pymatgen
data_Li2Sn(BO3)2
_symmetry_space_group_name_H-M   'P 1'
_cell_length_a   5.26268100
_cell_length_b   8.94113407
_cell_length_c   10.28822542
_cell_angle_alpha   89.67189939
_cell_angle_beta   87.32549973
_cell_angle_gamma   89.18161154
_symmetry_Int_Tables_number   1
_chemical_formula_structural   Li2Sn(BO3)2
_chemical_formula_sum   'Li8 Sn4 B8 O24'
_cell_volume   483.52276955
_cell_formula_units_Z   4
loop_
 _symmetry_equiv_pos_site_id
 _symmetry_equiv_pos_as_xyz
  1  'x, y, z'
loop_
 _atom_site_type_symbol
 _atom_site_label
 _atom_site_symmetry_multiplicity
 _atom_site_fract_x
 _atom_site_fract_y
 _atom_site_fract_z
 _atom_site_occupancy
  Li  Li0  1  0.31640600  0.52000700  0.58223100  1
  Li  Li1  1  0.36692900  0.53997800  0.17915400  1
  Li  Li2  1  0.62776900  0.45479400  0.83475300  1
  Li  Li3  1  0.68792000  0.47202200  0.39176400  1
  Li  Li4  1  0.66627400  0.13780700  0.89308000  1
  Li  Li5  1  0.87575900  0.95751000  0.09972500  1
  Li  Li6  1  0.81018100  0.64680300  0.61738200  1
  Li  Li7  1  0.85975000  0.96658400  0.67823500  1
  Sn  Sn8  1  0.12407300  0.70374800  0.87577200  1
  Sn  Sn9  1  0.36126400  0.18778500  0.63102000  1
  Sn  Sn10  1  0.62141100  0.81572800  0.37087800  1
  Sn  Sn11  1  0.88034800  0.29781600  0.12713900  1
  B  B12  1  0.16719000  0.69493900  0.39094500  1
  B  B13  1  0.15593300  0.35136700  0.86605600  1
  B  B14  1  0.33305400  0.19812000  0.10690300  1
  B  B15  1  0.33344000  0.84383400  0.63121800  1
  B  B16  1  0.65407700  0.15551400  0.36909700  1
  B  B17  1  0.65994300  0.79900200  0.87356300  1
  B  B18  1  0.85084500  0.64977200  0.13421700  1
  B  B19  1  0.83063600  0.31724200  0.62679800  1
  O  O20  1  0.08990500  0.66506100  0.07381000  1
  O  O21  1  0.08526400  0.34793600  0.60778000  1
  O  O22  1  0.12470800  0.10767100  0.09980500  1
  O  O23  1  0.21502700  0.98053600  0.64993400  1
  O  O24  1  0.18899700  0.71705400  0.66549400  1
  O  O25  1  0.26718900  0.34729300  0.13585800  1
  O  O26  1  0.23630200  0.84125400  0.36952000  1
  O  O27  1  0.31816300  0.23155500  0.82788500  1
  O  O28  1  0.26461800  0.49113000  0.85009500  1
  O  O29  1  0.36486000  0.58972700  0.39123500  1
  O  O30  1  0.43039600  0.17543400  0.44093200  1
  O  O31  1  0.41504400  0.84338800  0.88986000  1
  O  O32  1  0.58539000  0.15591900  0.08024000  1
  O  O33  1  0.58792900  0.82982700  0.58429900  1
  O  O34  1  0.65023500  0.42892400  0.61463200  1
  O  O35  1  0.73652300  0.51303500  0.15493100  1
  O  O36  1  0.71604600  0.77625500  0.17649800  1
  O  O37  1  0.74938900  0.17246200  0.66414300  1
  O  O38  1  0.74564400  0.65400300  0.83870700  1
  O  O39  1  0.77796400  0.28185300  0.32100200  1
  O  O40  1  0.75987400  0.01807700  0.33626900  1
  O  O41  1  0.85687400  0.89981800  0.88583200  1
  O  O42  1  0.90988700  0.65840800  0.41507200  1
  O  O43  1  0.90757200  0.33080600  0.91623800  1
