# generated using pymatgen
data_Li4V2Ni3Sb3O16
_symmetry_space_group_name_H-M   'P 1'
_cell_length_a   6.08720130
_cell_length_b   6.08720130
_cell_length_c   9.73503592
_cell_angle_alpha   88.69803334
_cell_angle_beta   88.69803334
_cell_angle_gamma   60.16886919
_symmetry_Int_Tables_number   1
_chemical_formula_structural   Li4V2Ni3Sb3O16
_chemical_formula_sum   'Li4 V2 Ni3 Sb3 O16'
_cell_volume   312.81691871
_cell_formula_units_Z   1
loop_
 _symmetry_equiv_pos_site_id
 _symmetry_equiv_pos_as_xyz
  1  'x, y, z'
loop_
 _atom_site_type_symbol
 _atom_site_label
 _atom_site_symmetry_multiplicity
 _atom_site_fract_x
 _atom_site_fract_y
 _atom_site_fract_z
 _atom_site_occupancy
  Li  Li0  1  0.67960500  0.67960500  0.11271200  1
  Li  Li1  1  0.97891600  0.97891600  0.01487000  1
  Li  Li2  1  0.99279100  0.99279100  0.49562700  1
  Li  Li3  1  0.32849100  0.32849100  0.59551600  1
  V  V4  1  0.67805000  0.67805000  0.50171900  1
  V  V5  1  0.36213400  0.36213400  0.03512800  1
  Ni  Ni6  1  0.83110000  0.83110000  0.78427600  1
  Ni  Ni7  1  0.16474200  0.67714600  0.29336200  1
  Ni  Ni8  1  0.67714600  0.16474200  0.29336200  1
  Sb  Sb9  1  0.33495700  0.83601600  0.78622200  1
  Sb  Sb10  1  0.83601600  0.33495700  0.78622200  1
  Sb  Sb11  1  0.17496700  0.17496700  0.28678000  1
  O  O12  1  0.32747300  0.85625400  0.40045900  1
  O  O13  1  0.51600100  0.51600100  0.66502800  1
  O  O14  1  0.66318200  0.66318200  0.89852400  1
  O  O15  1  0.00343300  0.00343300  0.68462000  1
  O  O16  1  0.01055600  0.01055600  0.19306600  1
  O  O17  1  0.85625400  0.32747300  0.40045900  1
  O  O18  1  0.50712300  0.96414800  0.66230100  1
  O  O19  1  0.96414800  0.50712300  0.66230100  1
  O  O20  1  0.15682700  0.15682700  0.89867300  1
  O  O21  1  0.83626700  0.83626700  0.40577700  1
  O  O22  1  0.04885300  0.47887600  0.14816500  1
  O  O23  1  0.47887600  0.04885300  0.14816500  1
  O  O24  1  0.33415000  0.33415000  0.39171700  1
  O  O25  1  0.17297100  0.67860300  0.90187700  1
  O  O26  1  0.49061300  0.49061300  0.14100900  1
  O  O27  1  0.67860300  0.17297100  0.90187700  1
