# generated using pymatgen
data_Li4Bi2C4SO16
_symmetry_space_group_name_H-M   'P 1'
_cell_length_a   10.06235583
_cell_length_b   9.64386396
_cell_length_c   10.18860185
_cell_angle_alpha   59.16848703
_cell_angle_beta   58.27446298
_cell_angle_gamma   63.10846568
_symmetry_Int_Tables_number   1
_chemical_formula_structural   Li4Bi2C4SO16
_chemical_formula_sum   'Li8 Bi4 C8 S2 O32'
_cell_volume   699.13757448
_cell_formula_units_Z   2
loop_
 _symmetry_equiv_pos_site_id
 _symmetry_equiv_pos_as_xyz
  1  'x, y, z'
loop_
 _atom_site_type_symbol
 _atom_site_label
 _atom_site_symmetry_multiplicity
 _atom_site_fract_x
 _atom_site_fract_y
 _atom_site_fract_z
 _atom_site_occupancy
  Li  Li0  1  0.93057238  0.33474415  0.30504335  1
  Li  Li1  1  0.06993751  0.05877283  0.66787331  1
  Li  Li2  1  0.70869718  0.66819988  0.05877573  1
  Li  Li3  1  0.35372086  0.29253838  0.94885800  1
  Li  Li4  1  0.91033122  0.94180020  0.30881704  1
  Li  Li5  1  0.92045356  0.30209571  0.93102982  1
  Li  Li6  1  0.06541110  0.70003208  0.68409454  1
  Li  Li7  1  0.30726241  0.93545831  0.92962819  1
  Bi  Bi8  1  0.49510824  0.49476073  0.01578886  1
  Bi  Bi9  1  0.50018930  0.00223283  0.49609369  1
  Bi  Bi10  1  0.50074299  0.51695627  0.49741087  1
  Bi  Bi11  1  0.00680825  0.50178744  0.49308967  1
  C  C12  1  0.69290622  0.29233925  0.25489020  1
  C  C13  1  0.25154882  0.26093672  0.29690376  1
  C  C14  1  0.29599990  0.68248649  0.26515540  1
  C  C15  1  0.25257033  0.27508805  0.68409819  1
  C  C16  1  0.70749739  0.33402015  0.73126679  1
  C  C17  1  0.74646806  0.70612983  0.33348652  1
  C  C18  1  0.32080009  0.70662513  0.75091468  1
  C  C19  1  0.73350478  0.73394045  0.70567260  1
  S  S20  1  0.11480249  0.13578542  0.11476110  1
  S  S21  1  0.87766096  0.87537430  0.86469195  1
  O  O22  1  0.29395673  0.07257148  0.04760264  1
  O  O23  1  0.04764529  0.06841629  0.06280820  1
  O  O24  1  0.07243439  0.32181610  0.04337434  1
  O  O25  1  0.03850522  0.08188822  0.29861081  1
  O  O26  1  0.69566483  0.15057622  0.26502017  1
  O  O27  1  0.37851492  0.25117159  0.16506214  1
  O  O28  1  0.71846008  0.41349617  0.11213487  1
  O  O29  1  0.25144009  0.15641336  0.44363222  1
  O  O30  1  0.12244261  0.38207794  0.28680941  1
  O  O31  1  0.66664880  0.30655203  0.38716746  1
  O  O32  1  0.28889272  0.71159531  0.12918575  1
  O  O33  1  0.36656687  0.13854782  0.69178701  1
  O  O34  1  0.76861368  0.58452885  0.29824542  1
  O  O35  1  0.83984870  0.33021192  0.59838976  1
  O  O36  1  0.43985970  0.63725035  0.26640746  1
  O  O37  1  0.11091612  0.27941725  0.70619299  1
  O  O38  1  0.86219226  0.73200865  0.33390273  1
  O  O39  1  0.57908813  0.32120550  0.74434853  1
  O  O40  1  0.27549877  0.41162795  0.65618174  1
  O  O41  1  0.16748286  0.68803430  0.39646277  1
  O  O42  1  0.59789167  0.79670905  0.38158064  1
  O  O43  1  0.71078161  0.35797523  0.84483496  1
  O  O44  1  0.28782935  0.70922725  0.64350139  1
  O  O45  1  0.86795570  0.61797235  0.70299294  1
  O  O46  1  0.72707979  0.86245574  0.57382461  1
  O  O47  1  0.35228061  0.56465419  0.86638939  1
  O  O48  1  0.32784391  0.84253671  0.74303809  1
  O  O49  1  0.60478595  0.71977359  0.84257365  1
  O  O50  1  0.94390555  0.93571587  0.67759545  1
  O  O51  1  0.93870876  0.68707832  0.92161016  1
  O  O52  1  0.69954135  0.91121882  0.94311353  1
  O  O53  1  0.94372993  0.95317200  0.90373051  1
