# generated using pymatgen
data_Li34Sb8S7
_symmetry_space_group_name_H-M   'P 1'
_cell_length_a   11.79626099
_cell_length_b   11.79626099
_cell_length_c   11.79626099
_cell_angle_alpha   131.52626989
_cell_angle_beta   131.52626989
_cell_angle_gamma   70.97826908
_symmetry_Int_Tables_number   1
_chemical_formula_structural   Li34Sb8S7
_chemical_formula_sum   'Li34 Sb8 S7'
_cell_volume   900.91741496
_cell_formula_units_Z   1
loop_
 _symmetry_equiv_pos_site_id
 _symmetry_equiv_pos_as_xyz
  1  'x, y, z'
loop_
 _atom_site_type_symbol
 _atom_site_label
 _atom_site_symmetry_multiplicity
 _atom_site_fract_x
 _atom_site_fract_y
 _atom_site_fract_z
 _atom_site_occupancy
  Li  Li0  1  0.73052800  0.00986400  0.88385000  1
  Li  Li1  1  0.00986400  0.12601300  0.27933500  1
  Li  Li2  1  0.35955000  0.22245700  0.58200700  1
  Li  Li3  1  0.44865700  0.15080900  0.84986500  1
  Li  Li4  1  0.15416300  0.04472500  0.71591500  1
  Li  Li5  1  0.77754300  0.35955000  0.13709300  1
  Li  Li6  1  0.43824800  0.15416300  0.10943700  1
  Li  Li7  1  0.15080900  0.30094400  0.70215200  1
  Li  Li8  1  0.56957100  0.06957100  0.50000000  1
  Li  Li9  1  0.93042900  0.43042900  0.50000000  1
  Li  Li10  1  0.75000000  0.25000000  0.50000000  1
  Li  Li11  1  0.59879200  0.44865700  0.29784800  1
  Li  Li12  1  0.87398700  0.15332200  0.88385000  1
  Li  Li13  1  0.04472500  0.32881000  0.89056300  1
  Li  Li14  1  0.22245700  0.64045000  0.86290700  1
  Li  Li15  1  0.32881000  0.43824800  0.28408500  1
  Li  Li16  1  0.15332200  0.26947200  0.27933500  1
  Li  Li17  1  0.30094400  0.59879200  0.15013500  1
  Li  Li18  1  0.64045000  0.77754300  0.41799300  1
  Li  Li19  1  0.69905600  0.40120800  0.84986500  1
  Li  Li20  1  0.84667800  0.73052800  0.72066500  1
  Li  Li21  1  0.67119000  0.56175200  0.71591500  1
  Li  Li22  1  0.95527500  0.67119000  0.10943700  1
  Li  Li23  1  0.12601300  0.84667800  0.11615000  1
  Li  Li24  1  0.40120800  0.55134300  0.70215200  1
  Li  Li25  1  0.43042900  0.93042900  0.50000000  1
  Li  Li26  1  0.25000000  0.75000000  0.50000000  1
  Li  Li27  1  0.06957100  0.56957100  0.50000000  1
  Li  Li28  1  0.84919100  0.69905600  0.29784800  1
  Li  Li29  1  0.56175200  0.84583700  0.89056300  1
  Li  Li30  1  0.84583700  0.95527500  0.28408500  1
  Li  Li31  1  0.55134300  0.84919100  0.15013500  1
  Li  Li32  1  0.99013600  0.87398700  0.72066500  1
  Li  Li33  1  0.26947200  0.99013600  0.11615000  1
  Sb  Sb34  1  0.71829300  0.15551500  0.18679500  1
  Sb  Sb35  1  0.84448500  0.03128000  0.56277800  1
  Sb  Sb36  1  0.46850200  0.28170700  0.43722200  1
  Sb  Sb37  1  0.96872000  0.53149800  0.81320500  1
  Sb  Sb38  1  0.03128000  0.46850200  0.18679500  1
  Sb  Sb39  1  0.53149800  0.71829300  0.56277800  1
  Sb  Sb40  1  0.15551500  0.96872000  0.43722200  1
  Sb  Sb41  1  0.28170700  0.84448500  0.81320500  1
  S  S42  1  0.00000000  0.00000000  0.00000000  1
  S  S43  1  0.60716200  0.18405300  0.79121500  1
  S  S44  1  0.18405300  0.39283800  0.57689100  1
  S  S45  1  0.31710700  0.31710700  0.00000000  1
  S  S46  1  0.81594700  0.60716200  0.42310900  1
  S  S47  1  0.39283800  0.81594700  0.20878500  1
  S  S48  1  0.68289300  0.68289300  0.00000000  1
