# generated using pymatgen
data_Li4Cr3Fe3(SnO8)2
_symmetry_space_group_name_H-M   'P 1'
_cell_length_a   5.98626971
_cell_length_b   5.98624395
_cell_length_c   9.74699286
_cell_angle_alpha   89.90853671
_cell_angle_beta   90.47348045
_cell_angle_gamma   120.21728686
_symmetry_Int_Tables_number   1
_chemical_formula_structural   Li4Cr3Fe3(SnO8)2
_chemical_formula_sum   'Li4 Cr3 Fe3 Sn2 O16'
_cell_volume   301.81454261
_cell_formula_units_Z   1
loop_
 _symmetry_equiv_pos_site_id
 _symmetry_equiv_pos_as_xyz
  1  'x, y, z'
loop_
 _atom_site_type_symbol
 _atom_site_label
 _atom_site_symmetry_multiplicity
 _atom_site_fract_x
 _atom_site_fract_y
 _atom_site_fract_z
 _atom_site_occupancy
  Li  Li0  1  0.32891200  0.66000300  0.89615500  1
  Li  Li1  1  0.00245300  0.00323800  0.99343600  1
  Li  Li2  1  0.00027300  0.00024900  0.49351600  1
  Li  Li3  1  0.66730900  0.33066100  0.39466900  1
  Cr  Cr4  1  0.17006000  0.83151000  0.21451700  1
  Cr  Cr5  1  0.17659200  0.34299300  0.21769000  1
  Cr  Cr6  1  0.34440000  0.16796200  0.71710000  1
  Fe  Fe7  1  0.66364000  0.83458100  0.21247000  1
  Fe  Fe8  1  0.83030200  0.66060600  0.71507400  1
  Fe  Fe9  1  0.83631200  0.17334800  0.71301800  1
  Sn  Sn10  1  0.33480300  0.67057700  0.49168300  1
  Sn  Sn11  1  0.66658000  0.33660300  0.99310400  1
  O  O12  1  0.16148500  0.83992300  0.59970000  1
  O  O13  1  0.03536600  0.51430700  0.33747800  1
  O  O14  1  0.31999700  0.64904300  0.10859500  1
  O  O15  1  0.01020800  0.01519000  0.30669900  1
  O  O16  1  0.01465100  0.00847200  0.80631200  1
  O  O17  1  0.16812400  0.32226300  0.59977200  1
  O  O18  1  0.48677400  0.96478000  0.33735400  1
  O  O19  1  0.47356900  0.50673800  0.33621200  1
  O  O20  1  0.32118600  0.16314900  0.10084900  1
  O  O21  1  0.67993400  0.84301500  0.59979600  1
  O  O22  1  0.51275900  0.47893900  0.83929600  1
  O  O23  1  0.50231500  0.03230700  0.83701800  1
  O  O24  1  0.64889700  0.32597700  0.60723600  1
  O  O25  1  0.83740100  0.68208100  0.09978300  1
  O  O26  1  0.96228500  0.47651700  0.83985000  1
  O  O27  1  0.84341400  0.16526900  0.09945400  1
