# generated using pymatgen
data_Li6V3P8O29
_symmetry_space_group_name_H-M   'P 1'
_cell_length_a   9.77665000
_cell_length_b   9.80742148
_cell_length_c   13.95308661
_cell_angle_alpha   90.30411982
_cell_angle_beta   89.85289518
_cell_angle_gamma   119.86977061
_symmetry_Int_Tables_number   1
_chemical_formula_structural   Li6V3P8O29
_chemical_formula_sum   'Li12 V6 P16 O58'
_cell_volume   1160.13393476
_cell_formula_units_Z   2
loop_
 _symmetry_equiv_pos_site_id
 _symmetry_equiv_pos_as_xyz
  1  'x, y, z'
loop_
 _atom_site_type_symbol
 _atom_site_label
 _atom_site_symmetry_multiplicity
 _atom_site_fract_x
 _atom_site_fract_y
 _atom_site_fract_z
 _atom_site_occupancy
  Li  Li0  1  0.23344900  0.91248800  0.05826600  1
  Li  Li1  1  0.66455700  0.90085000  0.56430800  1
  Li  Li2  1  0.33162900  0.66290800  0.88402900  1
  Li  Li3  1  0.67542800  0.77052500  0.05842200  1
  Li  Li4  1  0.09095500  0.32828300  0.05967600  1
  Li  Li5  1  0.76522000  0.66202700  0.44299800  1
  Li  Li6  1  0.23851500  0.33401600  0.56553800  1
  Li  Li7  1  0.90018500  0.66493900  0.93615900  1
  Li  Li8  1  0.33403600  0.09516300  0.44252500  1
  Li  Li9  1  0.90085400  0.23265900  0.44378800  1
  Li  Li10  1  0.01803000  0.04453500  0.98676700  1
  Li  Li11  1  0.01188100  0.95989100  0.51427700  1
  V  V12  1  0.56479700  0.56547100  0.24857100  1
  V  V13  1  0.43966500  0.43537600  0.75299500  1
  V  V14  1  0.00299900  0.56439400  0.74404900  1
  V  V15  1  0.99929700  0.43422400  0.25111700  1
  V  V16  1  0.43457000  0.99992400  0.24843200  1
  V  V17  1  0.56321400  0.00365400  0.75341000  1
  P  P18  1  0.21861200  0.90980800  0.84253200  1
  P  P19  1  0.08403800  0.77743900  0.33982000  1
  P  P20  1  0.68472700  0.91353900  0.34442800  1
  P  P21  1  0.33265100  0.66670300  0.12693500  1
  P  P22  1  0.33798900  0.66500100  0.63004000  1
  P  P23  1  0.68489500  0.77849700  0.84196000  1
  P  P24  1  0.77484100  0.68834900  0.65746700  1
  P  P25  1  0.09235400  0.31499400  0.84365800  1
  P  P26  1  0.91349300  0.68383800  0.15418700  1
  P  P27  1  0.22930500  0.31509200  0.34519900  1
  P  P28  1  0.30662000  0.22343100  0.15840800  1
  P  P29  1  0.66560800  0.33289300  0.36901400  1
  P  P30  1  0.67252500  0.33823400  0.87048300  1
  P  P31  1  0.30851700  0.08548200  0.65720100  1
  P  P32  1  0.91282000  0.22328500  0.65891400  1
  P  P33  1  0.77767700  0.08429600  0.15892200  1
  O  O34  1  0.21733100  0.00775100  0.56706700  1
  O  O35  1  0.25545400  0.91646900  0.34110500  1
  O  O36  1  0.99571300  0.76619400  0.06297300  1
  O  O37  1  0.07484200  0.74242800  0.83930300  1
  O  O38  1  0.36923700  0.89408100  0.83042000  1
  O  O39  1  0.32025800  0.81027100  0.16597700  1
  O  O40  1  0.52693800  0.90985900  0.32758800  1
  O  O41  1  0.79427000  0.99490900  0.07652200  1
  O  O42  1  0.65923900  0.91954600  0.84258800  1
  O  O43  1  0.19080000  0.66641100  0.67647000  1
  O  O44  1  0.07978800  0.61824700  0.33035200  1
  O  O45  1  0.48822200  0.81273000  0.67235200  1
  O  O46  1  0.33241000  0.66557400  0.01882800  1
  O  O47  1  0.33895500  0.66242900  0.52328300  1
  O  O48  1  0.48879700  0.67929300  0.16620200  1
  O  O49  1  0.10019400  0.47625300  0.83355000  1
  O  O50  1  0.18926000  0.51246900  0.16712300  1
  O  O51  1  0.66150000  0.74539300  0.34093900  1
  O  O52  1  0.79242600  0.79650700  0.75002600  1
  O  O53  1  0.78376200  0.78350300  0.56880600  1
  O  O54  1  0.77235800  0.77216200  0.92982000  1
  O  O55  1  0.52060700  0.62819200  0.83104900  1
  O  O56  1  0.32945300  0.51236300  0.67181200  1
  O  O57  1  0.74458300  0.66188900  0.15894200  1
  O  O58  1  0.38246600  0.47274900  0.32801100  1
  O  O59  1  0.08370800  0.33813100  0.34274600  1
  O  O60  1  0.00905300  0.80010600  0.24174500  1
  O  O61  1  0.99110800  0.78979000  0.42192000  1
  O  O62  1  0.00305500  0.22177000  0.57063000  1
  O  O63  1  0.91289100  0.65823700  0.65940600  1
  O  O64  1  0.61623700  0.53692600  0.66538500  1
  O  O65  1  0.26031800  0.34276300  0.83872100  1
  O  O66  1  0.67770000  0.48837500  0.32811600  1
  O  O67  1  0.46149100  0.37989500  0.16784400  1
  O  O68  1  0.20005100  0.20901900  0.07743700  1
  O  O69  1  0.23204700  0.23368100  0.43608400  1
  O  O70  1  0.20878600  0.20031800  0.25748800  1
  O  O71  1  0.33754400  0.25446600  0.66171200  1
  O  O72  1  0.82220400  0.48385400  0.82671100  1
  O  O73  1  0.90757800  0.52718700  0.17076400  1
  O  O74  1  0.52785500  0.34206000  0.82422700  1
  O  O75  1  0.67639500  0.34701200  0.97642400  1
  O  O76  1  0.66438500  0.33370700  0.47623500  1
  O  O77  1  0.51009300  0.18868000  0.32824600  1
  O  O78  1  0.90755600  0.37664500  0.66753800  1
  O  O79  1  0.81019800  0.31968200  0.33001900  1
  O  O80  1  0.33860600  0.08302600  0.15890600  1
  O  O81  1  0.20204900  0.99782000  0.75007600  1
  O  O82  1  0.21598500  0.99304500  0.93225200  1
  O  O83  1  0.46220200  0.07975000  0.66655200  1
  O  O84  1  0.66346900  0.18643500  0.82501500  1
  O  O85  1  0.61993600  0.08117600  0.16790700  1
  O  O86  1  0.91750700  0.25676800  0.16099100  1
  O  O87  1  0.01075700  0.22722800  0.93339200  1
  O  O88  1  0.99825100  0.20557100  0.75270000  1
  O  O89  1  0.74558800  0.07933200  0.65894800  1
  O  O90  1  0.76536200  0.99628400  0.43647500  1
  O  O91  1  0.80023200  0.00863800  0.25752200  1
