# generated using pymatgen
data_LiCr4P7O24
_symmetry_space_group_name_H-M   'P 1'
_cell_length_a   10.10565600
_cell_length_b   10.24542758
_cell_length_c   10.69402661
_cell_angle_alpha   108.73040127
_cell_angle_beta   111.32738480
_cell_angle_gamma   104.92343008
_symmetry_Int_Tables_number   1
_chemical_formula_structural   LiCr4P7O24
_chemical_formula_sum   'Li2 Cr8 P14 O48'
_cell_volume   884.48934758
_cell_formula_units_Z   2
loop_
 _symmetry_equiv_pos_site_id
 _symmetry_equiv_pos_as_xyz
  1  'x, y, z'
loop_
 _atom_site_type_symbol
 _atom_site_label
 _atom_site_symmetry_multiplicity
 _atom_site_fract_x
 _atom_site_fract_y
 _atom_site_fract_z
 _atom_site_occupancy
  Li  Li0  1  0.55201300  0.24580200  0.67118200  1
  Li  Li1  1  0.44798700  0.75419800  0.32881800  1
  Cr  Cr2  1  0.51166400  0.66354600  0.88443200  1
  Cr  Cr3  1  0.00312900  0.38775400  0.07472200  1
  Cr  Cr4  1  0.98625700  0.83089500  0.41232800  1
  Cr  Cr5  1  0.50016400  0.10488100  0.25560100  1
  Cr  Cr6  1  0.01374300  0.16910500  0.58767200  1
  Cr  Cr7  1  0.99687100  0.61224600  0.92527800  1
  Cr  Cr8  1  0.49983600  0.89511900  0.74439900  1
  Cr  Cr9  1  0.48833600  0.33645400  0.11556800  1
  P  P10  1  0.74777500  0.54064700  0.05099300  1
  P  P11  1  0.73400100  0.17954600  0.11671200  1
  P  P12  1  0.25222500  0.45935300  0.94900700  1
  P  P13  1  0.80666600  0.37436100  0.56671200  1
  P  P14  1  0.24907200  0.39134300  0.52274500  1
  P  P15  1  0.19812600  0.93989600  0.26115800  1
  P  P16  1  0.26599900  0.82045400  0.88328800  1
  P  P17  1  0.19333400  0.62563900  0.43328800  1
  P  P18  1  0.26200300  0.03610100  0.75848800  1
  P  P19  1  0.73799700  0.96389900  0.24151200  1
  P  P20  1  0.75092800  0.60865700  0.47725500  1
  P  P21  1  0.22636700  0.21974300  0.22526600  1
  P  P22  1  0.80187400  0.06010400  0.73884200  1
  P  P23  1  0.77363300  0.78025700  0.77473400  1
  O  O24  1  0.34738900  0.43586400  0.08331100  1
  O  O25  1  0.11218600  0.25715000  0.12653100  1
  O  O26  1  0.86752700  0.21063800  0.87373000  1
  O  O27  1  0.65261100  0.56413600  0.91668900  1
  O  O28  1  0.86377700  0.94437900  0.79711600  1
  O  O29  1  0.33630300  0.17509600  0.90638100  1
  O  O30  1  0.62135600  0.98098800  0.65786100  1
  O  O31  1  0.66369700  0.82490400  0.09361900  1
  O  O32  1  0.12676100  0.50053400  0.99083700  1
  O  O33  1  0.91192400  0.30230700  0.53689500  1
  O  O34  1  0.13622300  0.05562100  0.20288400  1
  O  O35  1  0.88187100  0.97494800  0.37230300  1
  O  O36  1  0.63465900  0.78074200  0.80276500  1
  O  O37  1  0.37048300  0.72478600  0.53434600  1
  O  O38  1  0.81486800  0.10749500  0.21944900  1
  O  O39  1  0.30986500  0.33908000  0.40137400  1
  O  O40  1  0.13247300  0.78936200  0.12627000  1
  O  O41  1  0.08807600  0.69769300  0.46310500  1
  O  O42  1  0.18513200  0.89250500  0.78055100  1
  O  O43  1  0.87006100  0.32092200  0.16019900  1
  O  O44  1  0.69013500  0.66092000  0.59862600  1
  O  O45  1  0.12993900  0.67907800  0.83980100  1
  O  O46  1  0.63301900  0.40351700  0.04401800  1
  O  O47  1  0.83520300  0.67867800  0.20506300  1
  O  O48  1  0.36698100  0.59648300  0.95598200  1
  O  O49  1  0.16689100  0.56430500  0.27170400  1
  O  O50  1  0.60480400  0.50729600  0.32781100  1
  O  O51  1  0.35678700  0.93666600  0.04697800  1
  O  O52  1  0.85133100  0.06478400  0.62322200  1
  O  O53  1  0.62282900  0.98786600  0.29893900  1
  O  O54  1  0.14866900  0.93521600  0.37677800  1
  O  O55  1  0.87323900  0.49946600  0.00916300  1
  O  O56  1  0.88781400  0.74285000  0.87346900  1
  O  O57  1  0.84919200  0.51988300  0.53045600  1
  O  O58  1  0.37717100  0.01213400  0.70106100  1
  O  O59  1  0.62151600  0.22004000  0.17762200  1
  O  O60  1  0.39519600  0.49270400  0.67218900  1
  O  O61  1  0.36534100  0.21925800  0.19723500  1
  O  O62  1  0.11812900  0.02505200  0.62769700  1
  O  O63  1  0.15080800  0.48011700  0.46954400  1
  O  O64  1  0.37848400  0.77996000  0.82237800  1
  O  O65  1  0.16479700  0.32132200  0.79493700  1
  O  O66  1  0.85324900  0.75463800  0.49383300  1
  O  O67  1  0.37864400  0.01901200  0.34213900  1
  O  O68  1  0.62951700  0.27521400  0.46565400  1
  O  O69  1  0.14675100  0.24536200  0.50616700  1
  O  O70  1  0.83310900  0.43569500  0.72829600  1
  O  O71  1  0.64321300  0.06333400  0.95302200  1
