# generated using pymatgen
data_Li2CoBO4
_symmetry_space_group_name_H-M   'P 1'
_cell_length_a   5.00254900
_cell_length_b   5.79388100
_cell_length_c   10.34494700
_cell_angle_alpha   90.00000000
_cell_angle_beta   90.00000000
_cell_angle_gamma   90.00000000
_symmetry_Int_Tables_number   1
_chemical_formula_structural   Li2CoBO4
_chemical_formula_sum   'Li8 Co4 B4 O16'
_cell_volume   299.83973976
_cell_formula_units_Z   4
loop_
 _symmetry_equiv_pos_site_id
 _symmetry_equiv_pos_as_xyz
  1  'x, y, z'
loop_
 _atom_site_type_symbol
 _atom_site_label
 _atom_site_symmetry_multiplicity
 _atom_site_fract_x
 _atom_site_fract_y
 _atom_site_fract_z
 _atom_site_occupancy
  Li  Li0  1  0.17591300  0.50349500  0.66655000  1
  Li  Li1  1  0.32408700  0.50349500  0.16655000  1
  Li  Li2  1  0.17591300  0.99650500  0.66655000  1
  Li  Li3  1  0.32408700  0.99650500  0.16655000  1
  Li  Li4  1  0.67591300  0.00349500  0.83345000  1
  Li  Li5  1  0.82408700  0.00349500  0.33345000  1
  Li  Li6  1  0.82408700  0.49650500  0.33345000  1
  Li  Li7  1  0.67591300  0.49650500  0.83345000  1
  Co  Co8  1  0.68111400  0.75000000  0.58226900  1
  Co  Co9  1  0.81888600  0.75000000  0.08226900  1
  Co  Co10  1  0.18111400  0.25000000  0.91773100  1
  Co  Co11  1  0.31888600  0.25000000  0.41773100  1
  B  B12  1  0.16501000  0.75000000  0.91538600  1
  B  B13  1  0.33499000  0.75000000  0.41538600  1
  B  B14  1  0.66501000  0.25000000  0.58461400  1
  B  B15  1  0.83499000  0.25000000  0.08461400  1
  O  O16  1  0.28196200  0.53774100  0.85392700  1
  O  O17  1  0.21803800  0.53774100  0.35392700  1
  O  O18  1  0.86934900  0.75000000  0.90037800  1
  O  O19  1  0.29798700  0.75000000  0.55800100  1
  O  O20  1  0.20201300  0.75000000  0.05800100  1
  O  O21  1  0.63065100  0.75000000  0.40037800  1
  O  O22  1  0.28196200  0.96225900  0.85392700  1
  O  O23  1  0.21803800  0.96225900  0.35392700  1
  O  O24  1  0.71803800  0.03774100  0.14607300  1
  O  O25  1  0.78196200  0.03774100  0.64607300  1
  O  O26  1  0.79798700  0.25000000  0.94199900  1
  O  O27  1  0.36934900  0.25000000  0.59962200  1
  O  O28  1  0.70201300  0.25000000  0.44199900  1
  O  O29  1  0.13065100  0.25000000  0.09962200  1
  O  O30  1  0.78196200  0.46225900  0.64607300  1
  O  O31  1  0.71803800  0.46225900  0.14607300  1
