# generated using pymatgen
data_LiTi2(PO4)3
_symmetry_space_group_name_H-M   'P 1'
_cell_length_a   8.36768990
_cell_length_b   8.96536642
_cell_length_c   14.84842461
_cell_angle_alpha   85.30161597
_cell_angle_beta   73.81944791
_cell_angle_gamma   117.65073288
_symmetry_Int_Tables_number   1
_chemical_formula_structural   LiTi2(PO4)3
_chemical_formula_sum   'Li4 Ti8 P12 O48'
_cell_volume   917.94027690
_cell_formula_units_Z   4
loop_
 _symmetry_equiv_pos_site_id
 _symmetry_equiv_pos_as_xyz
  1  'x, y, z'
loop_
 _atom_site_type_symbol
 _atom_site_label
 _atom_site_symmetry_multiplicity
 _atom_site_fract_x
 _atom_site_fract_y
 _atom_site_fract_z
 _atom_site_occupancy
  Li  Li0  1  0.07300385  0.75893185  0.37170404  1
  Li  Li1  1  0.73705789  0.97227595  0.16038110  1
  Li  Li2  1  0.26294211  0.02772405  0.83961890  1
  Li  Li3  1  0.92699615  0.24106815  0.62829596  1
  Ti  Ti4  1  0.14939277  0.36298089  0.07167171  1
  Ti  Ti5  1  0.34764505  0.88099315  0.17143296  1
  Ti  Ti6  1  0.14549068  0.85881515  0.57312028  1
  Ti  Ti7  1  0.63954128  0.61222546  0.32618479  1
  Ti  Ti8  1  0.36045872  0.38777454  0.67381521  1
  Ti  Ti9  1  0.65235495  0.11900685  0.82856704  1
  Ti  Ti10  1  0.85450932  0.14118485  0.42687972  1
  Ti  Ti11  1  0.85060723  0.63701911  0.92832829  1
  P  P12  1  0.03135580  0.01723772  0.23272978  1
  P  P13  1  0.03590391  0.51651244  0.73132615  1
  P  P14  1  0.46509165  0.87149726  0.37423775  1
  P  P15  1  0.54026675  0.62766028  0.12425327  1
  P  P16  1  0.24836702  0.76805834  0.98153541  1
  P  P17  1  0.24613099  0.26502821  0.48415497  1
  P  P18  1  0.75386901  0.73497179  0.51584503  1
  P  P19  1  0.75163298  0.23194166  0.01846459  1
  P  P20  1  0.45973325  0.37233972  0.87574673  1
  P  P21  1  0.53490835  0.12850274  0.62576225  1
  P  P22  1  0.96864420  0.98276228  0.76727022  1
  P  P23  1  0.96409609  0.48348756  0.26867385  1
  O  O24  1  0.16786429  0.94987480  0.24487848  1
  O  O25  1  0.22160494  0.81732225  0.08061552  1
  O  O26  1  0.15546168  0.64662652  0.26388190  1
  O  O27  1  0.26064797  0.82558184  0.43946667  1
  O  O28  1  0.00258925  0.11036042  0.31278306  1
  O  O29  1  0.99818685  0.60319034  0.81345850  1
  O  O30  1  0.12055109  0.14550179  0.13308978  1
  O  O31  1  0.11743819  0.64405341  0.63277578  1
  O  O32  1  0.48849440  0.92738938  0.26649306  1
  O  O33  1  0.52904690  0.79663877  0.11318623  1
  O  O34  1  0.10078466  0.27906312  0.44463308  1
  O  O35  1  0.11654736  0.79602876  0.93591308  1
  O  O36  1  0.37994951  0.97647803  0.60189342  1
  O  O37  1  0.37730129  0.48138468  0.10154095  1
  O  O38  1  0.48627564  0.70979905  0.38918155  1
  O  O39  1  0.18074160  0.45831149  0.73758836  1
  O  O40  1  0.20786977  0.31223650  0.58404888  1
  O  O41  1  0.52395622  0.57100867  0.22894515  1
  O  O42  1  0.20803318  0.07882319  0.49756255  1
  O  O43  1  0.20192441  0.57988585  0.99594544  1
  O  O44  1  0.73685700  0.67018873  0.05230665  1
  O  O45  1  0.16530731  0.13477650  0.76235031  1
  O  O46  1  0.45664230  0.39166239  0.41428281  1
  O  O47  1  0.46064179  0.89351501  0.91158184  1
  O  O48  1  0.53935821  0.10648499  0.08841816  1
  O  O49  1  0.54335770  0.60833761  0.58571719  1
  O  O50  1  0.83469269  0.86522350  0.23764969  1
  O  O51  1  0.26314300  0.32981127  0.94769335  1
  O  O52  1  0.79807559  0.42011415  0.00405456  1
  O  O53  1  0.79196682  0.92117681  0.50243745  1
  O  O54  1  0.47604378  0.42899133  0.77105485  1
  O  O55  1  0.79213023  0.68776350  0.41595112  1
  O  O56  1  0.81925840  0.54168851  0.26241164  1
  O  O57  1  0.51372436  0.29020095  0.61081845  1
  O  O58  1  0.62005049  0.02352197  0.39810658  1
  O  O59  1  0.62269871  0.51861532  0.89845905  1
  O  O60  1  0.89921534  0.72093688  0.55536692  1
  O  O61  1  0.88345264  0.20397124  0.06408692  1
  O  O62  1  0.47095310  0.20336123  0.88681377  1
  O  O63  1  0.51150560  0.07261062  0.73350694  1
  O  O64  1  0.88256181  0.35594659  0.36722422  1
  O  O65  1  0.87944891  0.85449821  0.86691022  1
  O  O66  1  0.99741075  0.88963958  0.68721694  1
  O  O67  1  0.00181315  0.39680966  0.18654150  1
  O  O68  1  0.73935203  0.17441816  0.56053333  1
  O  O69  1  0.84453832  0.35337348  0.73611810  1
  O  O70  1  0.77839506  0.18267775  0.91938448  1
  O  O71  1  0.83213571  0.05012520  0.75512152  1
