# generated using pymatgen
data_Li2VGaO4
_symmetry_space_group_name_H-M   'P 1'
_cell_length_a   5.16566340
_cell_length_b   10.70569201
_cell_length_c   8.94898258
_cell_angle_alpha   74.50040597
_cell_angle_beta   73.88300562
_cell_angle_gamma   76.31044882
_symmetry_Int_Tables_number   1
_chemical_formula_structural   Li2VGaO4
_chemical_formula_sum   'Li12 V6 Ga6 O24'
_cell_volume   451.04337373
_cell_formula_units_Z   6
loop_
 _symmetry_equiv_pos_site_id
 _symmetry_equiv_pos_as_xyz
  1  'x, y, z'
loop_
 _atom_site_type_symbol
 _atom_site_label
 _atom_site_symmetry_multiplicity
 _atom_site_fract_x
 _atom_site_fract_y
 _atom_site_fract_z
 _atom_site_occupancy
  Li  Li0  1  0.00012000  0.75130400  0.24837000  1
  Li  Li1  1  0.00017100  0.25131700  0.74822500  1
  Li  Li2  1  0.99980900  0.49869400  0.83505200  1
  Li  Li3  1  0.99974500  0.99869700  0.33490100  1
  Li  Li4  1  0.00291500  0.50100600  0.16194900  1
  Li  Li5  1  0.00293900  0.00113000  0.66191000  1
  Li  Li6  1  0.99700900  0.74882900  0.92149200  1
  Li  Li7  1  0.99705500  0.24898600  0.42139300  1
  Li  Li8  1  0.00109900  0.99583300  0.00358800  1
  Li  Li9  1  0.00116400  0.49580600  0.50339600  1
  Li  Li10  1  0.99900400  0.25421700  0.08005100  1
  Li  Li11  1  0.99900400  0.75415200  0.57983800  1
  V  V12  1  0.49980200  0.37496700  0.29158500  1
  V  V13  1  0.50067400  0.62406900  0.37695000  1
  V  V14  1  0.49935200  0.12592200  0.20641200  1
  V  V15  1  0.49985600  0.87507900  0.79164100  1
  V  V16  1  0.50050700  0.12403400  0.87692800  1
  V  V17  1  0.49952200  0.62594400  0.70647700  1
  Ga  Ga18  1  0.50004900  0.62501600  0.04164300  1
  Ga  Ga19  1  0.50005200  0.12504800  0.54166900  1
  Ga  Ga20  1  0.49828600  0.87243500  0.12726300  1
  Ga  Ga21  1  0.49836500  0.37238100  0.62712200  1
  Ga  Ga22  1  0.50154300  0.37759600  0.95629200  1
  Ga  Ga23  1  0.50186600  0.87750400  0.45605000  1
  O  O24  1  0.27125500  0.55794400  0.60172400  1
  O  O25  1  0.27112100  0.05787200  0.10206300  1
  O  O26  1  0.72860100  0.19194100  0.98196700  1
  O  O27  1  0.72896500  0.69205800  0.48140300  1
  O  O28  1  0.27618500  0.31185400  0.85071000  1
  O  O29  1  0.27574600  0.81200700  0.35075100  1
  O  O30  1  0.72395800  0.43799700  0.73268400  1
  O  O31  1  0.72436900  0.93776300  0.23262700  1
  O  O32  1  0.27414600  0.31356500  0.17968300  1
  O  O33  1  0.27441100  0.81317200  0.67970700  1
  O  O34  1  0.72546000  0.43663000  0.40361600  1
  O  O35  1  0.72548800  0.93693200  0.90350400  1
  O  O36  1  0.27421400  0.56136200  0.93450800  1
  O  O37  1  0.27467500  0.06134100  0.43422300  1
  O  O38  1  0.72557100  0.68869900  0.14884200  1
  O  O39  1  0.72584100  0.18863700  0.64879800  1
  O  O40  1  0.27485300  0.55947600  0.26661500  1
  O  O41  1  0.27462100  0.05953900  0.76672700  1
  O  O42  1  0.72528600  0.69054900  0.81651300  1
  O  O43  1  0.72528800  0.19061900  0.31662900  1
  O  O44  1  0.27372200  0.80736300  0.02245400  1
  O  O45  1  0.27342000  0.30722700  0.52276600  1
  O  O46  1  0.72662100  0.44276200  0.06049600  1
  O  O47  1  0.72627100  0.94272000  0.56078900  1
