# generated using pymatgen
data_LiTi(Si2O5)2
_symmetry_space_group_name_H-M   'P 1'
_cell_length_a   5.26673800
_cell_length_b   8.01722500
_cell_length_c   11.57152179
_cell_angle_alpha   68.99209480
_cell_angle_beta   90.00000000
_cell_angle_gamma   90.00000000
_symmetry_Int_Tables_number   1
_chemical_formula_structural   LiTi(Si2O5)2
_chemical_formula_sum   'Li2 Ti2 Si8 O20'
_cell_volume   456.12617573
_cell_formula_units_Z   2
loop_
 _symmetry_equiv_pos_site_id
 _symmetry_equiv_pos_as_xyz
  1  'x, y, z'
loop_
 _atom_site_type_symbol
 _atom_site_label
 _atom_site_symmetry_multiplicity
 _atom_site_fract_x
 _atom_site_fract_y
 _atom_site_fract_z
 _atom_site_occupancy
  Li  Li0  1  0.25444100  0.00000000  0.25000000  1
  Li  Li1  1  0.74555900  0.00000000  0.75000000  1
  Ti  Ti2  1  0.75233600  0.00000000  0.25000000  1
  Ti  Ti3  1  0.24766400  0.00000000  0.75000000  1
  Si  Si4  1  0.46382700  0.29917700  0.00000600  1
  Si  Si5  1  0.03811100  0.70126600  0.15113800  1
  Si  Si6  1  0.03811100  0.29873400  0.34886200  1
  Si  Si7  1  0.46382700  0.70082300  0.49999400  1
  Si  Si8  1  0.53617300  0.29917700  0.50000600  1
  Si  Si9  1  0.96188900  0.70126600  0.65113800  1
  Si  Si10  1  0.96188900  0.29873400  0.84886200  1
  Si  Si11  1  0.53617300  0.70082300  0.99999400  1
  O  O12  1  0.50000000  0.50000000  0.00000000  1
  O  O13  1  0.50742900  0.15143700  0.13831800  1
  O  O14  1  0.99978400  0.84667700  0.21799600  1
  O  O15  1  0.82603100  0.72873900  0.04201700  1
  O  O16  1  0.32810000  0.72894400  0.09661200  1
  O  O17  1  0.99978400  0.15332300  0.28200400  1
  O  O18  1  0.50742900  0.84856300  0.36168200  1
  O  O19  1  0.00340000  0.50000000  0.25000000  1
  O  O20  1  0.32810000  0.27105600  0.40338800  1
  O  O21  1  0.17396900  0.72873900  0.54201700  1
  O  O22  1  0.82603100  0.27126100  0.45798300  1
  O  O23  1  0.67190000  0.72894400  0.59661200  1
  O  O24  1  0.50000000  0.50000000  0.50000000  1
  O  O25  1  0.99660000  0.50000000  0.75000000  1
  O  O26  1  0.49257100  0.15143700  0.63831800  1
  O  O27  1  0.00021600  0.84667700  0.71799600  1
  O  O28  1  0.67190000  0.27105600  0.90338800  1
  O  O29  1  0.17396900  0.27126100  0.95798300  1
  O  O30  1  0.00021600  0.15332300  0.78200400  1
  O  O31  1  0.49257100  0.84856300  0.86168200  1
