# generated using pymatgen
data_Li3Ti2V3O12
_symmetry_space_group_name_H-M   'P 1'
_cell_length_a   9.27891100
_cell_length_b   8.79517000
_cell_length_c   15.24505126
_cell_angle_alpha   55.79649147
_cell_angle_beta   90.00000000
_cell_angle_gamma   90.00000000
_symmetry_Int_Tables_number   1
_chemical_formula_structural   Li3Ti2V3O12
_chemical_formula_sum   'Li12 Ti8 V12 O48'
_cell_volume   1028.96329358
_cell_formula_units_Z   4
loop_
 _symmetry_equiv_pos_site_id
 _symmetry_equiv_pos_as_xyz
  1  'x, y, z'
loop_
 _atom_site_type_symbol
 _atom_site_label
 _atom_site_symmetry_multiplicity
 _atom_site_fract_x
 _atom_site_fract_y
 _atom_site_fract_z
 _atom_site_occupancy
  Li  Li0  1  0.91287100  0.36687900  0.70206900  1
  Li  Li1  1  0.48503600  0.72010700  0.34806900  1
  Li  Li2  1  0.22626500  0.00032000  0.18409700  1
  Li  Li3  1  0.72626500  0.99968000  0.31590300  1
  Li  Li4  1  0.41287100  0.63312100  0.79793100  1
  Li  Li5  1  0.98503600  0.27989300  0.15193100  1
  Li  Li6  1  0.01496400  0.72010700  0.84806900  1
  Li  Li7  1  0.58712900  0.36687900  0.20206900  1
  Li  Li8  1  0.27373500  0.00032000  0.68409700  1
  Li  Li9  1  0.77373500  0.99968000  0.81590300  1
  Li  Li10  1  0.51496400  0.27989300  0.65193100  1
  Li  Li11  1  0.08712900  0.63312100  0.29793100  1
  Ti  Ti12  1  0.98006400  0.36865700  0.88660600  1
  Ti  Ti13  1  0.48006400  0.63134300  0.61339400  1
  Ti  Ti14  1  0.02493700  0.86917300  0.38876500  1
  Ti  Ti15  1  0.52493700  0.13082700  0.11123500  1
  Ti  Ti16  1  0.47506300  0.86917300  0.88876500  1
  Ti  Ti17  1  0.97506300  0.13082700  0.61123500  1
  Ti  Ti18  1  0.51993600  0.36865700  0.38660600  1
  Ti  Ti19  1  0.01993600  0.63134300  0.11339400  1
  V  V20  1  0.75635600  0.53761400  0.49049000  1
  V  V21  1  0.62152400  0.26871400  0.84802700  1
  V  V22  1  0.88530800  0.97366200  0.13930800  1
  V  V23  1  0.12152400  0.73128600  0.65197300  1
  V  V24  1  0.38530800  0.02633800  0.36069200  1
  V  V25  1  0.25635600  0.46238600  0.00951000  1
  V  V26  1  0.74364400  0.53761400  0.99049000  1
  V  V27  1  0.61469200  0.97366200  0.63930800  1
  V  V28  1  0.87847600  0.26871400  0.34802700  1
  V  V29  1  0.11469200  0.02633800  0.86069200  1
  V  V30  1  0.37847600  0.73128600  0.15197300  1
  V  V31  1  0.24364400  0.46238600  0.50951000  1
  O  O32  1  0.11353900  0.63273000  0.42562700  1
  O  O33  1  0.10683200  0.16623200  0.90667400  1
  O  O34  1  0.34973200  0.45579800  0.61046100  1
  O  O35  1  0.42558900  0.88170700  0.19571200  1
  O  O36  1  0.63201700  0.51006000  0.59258500  1
  O  O37  1  0.81416200  0.27252000  0.84535800  1
  O  O38  1  0.57365100  0.16421500  0.98653100  1
  O  O39  1  0.01467800  0.89161300  0.23925800  1
  O  O40  1  0.71627000  0.98833300  0.18548300  1
  O  O41  1  0.83763600  0.76822600  0.42130200  1
  O  O42  1  0.51680600  0.47726000  0.76611100  1
  O  O43  1  0.01680600  0.52274000  0.73388900  1
  O  O44  1  0.94331900  0.20053700  0.04622400  1
  O  O45  1  0.44331900  0.79946300  0.45377600  1
  O  O46  1  0.33763600  0.23177400  0.07869800  1
  O  O47  1  0.21627000  0.01166700  0.31451700  1
  O  O48  1  0.07365100  0.83578500  0.51346900  1
  O  O49  1  0.51467800  0.10838700  0.26074200  1
  O  O50  1  0.31416200  0.72748000  0.65464200  1
  O  O51  1  0.13201700  0.48994000  0.90741500  1
  O  O52  1  0.84973200  0.54420200  0.88953900  1
  O  O53  1  0.60683200  0.83376800  0.59332600  1
  O  O54  1  0.92558900  0.11829300  0.30428800  1
  O  O55  1  0.61353900  0.36727000  0.07437300  1
  O  O56  1  0.38646100  0.63273000  0.92562700  1
  O  O57  1  0.07441100  0.88170700  0.69571200  1
  O  O58  1  0.39316800  0.16623200  0.40667400  1
  O  O59  1  0.15026800  0.45579800  0.11046100  1
  O  O60  1  0.86798300  0.51006000  0.09258500  1
  O  O61  1  0.68583800  0.27252000  0.34535800  1
  O  O62  1  0.48532200  0.89161300  0.73925800  1
  O  O63  1  0.92634900  0.16421500  0.48653100  1
  O  O64  1  0.78373000  0.98833300  0.68548300  1
  O  O65  1  0.66236400  0.76822600  0.92130200  1
  O  O66  1  0.55668100  0.20053700  0.54622400  1
  O  O67  1  0.05668100  0.79946300  0.95377600  1
  O  O68  1  0.98319400  0.47726000  0.26611200  1
  O  O69  1  0.48319400  0.52274000  0.23388900  1
  O  O70  1  0.16236400  0.23177400  0.57869800  1
  O  O71  1  0.28373000  0.01166700  0.81451700  1
  O  O72  1  0.98532200  0.10838700  0.76074200  1
  O  O73  1  0.42634900  0.83578500  0.01346900  1
  O  O74  1  0.18583800  0.72748000  0.15464200  1
  O  O75  1  0.36798300  0.48994000  0.40741500  1
  O  O76  1  0.57441100  0.11829300  0.80428800  1
  O  O77  1  0.65026800  0.54420200  0.38953900  1
  O  O78  1  0.89316800  0.83376800  0.09332600  1
  O  O79  1  0.88646100  0.36727000  0.57437300  1
