# generated using pymatgen
data_Li5MnO3F2
_symmetry_space_group_name_H-M   'P 1'
_cell_length_a   5.15946794
_cell_length_b   7.60639518
_cell_length_c   11.59946832
_cell_angle_alpha   79.26568722
_cell_angle_beta   90.87671545
_cell_angle_gamma   106.32662600
_symmetry_Int_Tables_number   1
_chemical_formula_structural   Li5MnO3F2
_chemical_formula_sum   'Li20 Mn4 O12 F8'
_cell_volume   428.88757466
_cell_formula_units_Z   4
loop_
 _symmetry_equiv_pos_site_id
 _symmetry_equiv_pos_as_xyz
  1  'x, y, z'
loop_
 _atom_site_type_symbol
 _atom_site_label
 _atom_site_symmetry_multiplicity
 _atom_site_fract_x
 _atom_site_fract_y
 _atom_site_fract_z
 _atom_site_occupancy
  Li  Li0  1  0.87635400  0.12802900  0.74807100  1
  Li  Li1  1  0.12635500  0.87802800  0.24807000  1
  Li  Li2  1  0.37635400  0.62802900  0.74807100  1
  Li  Li3  1  0.62635400  0.37803000  0.24807200  1
  Li  Li4  1  0.45936900  0.86849800  0.93668700  1
  Li  Li5  1  0.70936600  0.61849500  0.43668600  1
  Li  Li6  1  0.95936600  0.36849500  0.93668600  1
  Li  Li7  1  0.20936900  0.11849800  0.43668700  1
  Li  Li8  1  0.29094400  0.38440400  0.55945000  1
  Li  Li9  1  0.54094400  0.13440300  0.05945100  1
  Li  Li10  1  0.79094700  0.88440600  0.55945100  1
  Li  Li11  1  0.04094700  0.63440600  0.05945200  1
  Li  Li12  1  0.27484700  0.02573700  0.65356800  1
  Li  Li13  1  0.52483400  0.77574100  0.15356900  1
  Li  Li14  1  0.77485100  0.52573700  0.65357100  1
  Li  Li15  1  0.02484100  0.27574100  0.15356800  1
  Li  Li16  1  0.47586400  0.22747700  0.84286300  1
  Li  Li17  1  0.72586400  0.97747600  0.34286100  1
  Li  Li18  1  0.97585900  0.72747800  0.84286000  1
  Li  Li19  1  0.22587400  0.47747500  0.34286100  1
  Mn  Mn20  1  0.25039400  0.75133000  0.49808400  1
  Mn  Mn21  1  0.50042400  0.50134700  0.99807400  1
  Mn  Mn22  1  0.00041200  0.00134200  0.99808800  1
  Mn  Mn23  1  0.75040900  0.25133300  0.49807600  1
  O  O24  1  0.25059300  0.25142600  0.99773600  1
  O  O25  1  0.50061700  0.00145200  0.49773700  1
  O  O26  1  0.75061600  0.75145200  0.99773700  1
  O  O27  1  0.00059500  0.50142600  0.49773700  1
  O  O28  1  0.74768500  0.11484800  0.90962500  1
  O  O29  1  0.99767900  0.86484700  0.40962700  1
  O  O30  1  0.24768500  0.61485000  0.90962200  1
  O  O31  1  0.49767900  0.36485000  0.40962800  1
  O  O32  1  0.00291000  0.13806200  0.58668300  1
  O  O33  1  0.25291500  0.88806000  0.08668100  1
  O  O34  1  0.50291100  0.63806000  0.58668600  1
  O  O35  1  0.75291600  0.38806200  0.08668100  1
  F  F36  1  0.57030900  0.25320100  0.67514300  1
  F  F37  1  0.82029400  0.00318900  0.17514200  1
  F  F38  1  0.07029400  0.75319400  0.67515300  1
  F  F39  1  0.32029400  0.50320200  0.17515300  1
  F  F40  1  0.18184000  0.99998600  0.82112500  1
  F  F41  1  0.43185500  0.74998500  0.32111500  1
  F  F42  1  0.68185400  0.49999300  0.82111500  1
  F  F43  1  0.93185500  0.24999800  0.32112700  1
