# generated using pymatgen
data_LiCoSiO4
_symmetry_space_group_name_H-M   'P 1'
_cell_length_a   6.34342807
_cell_length_b   8.28017263
_cell_length_c   8.28062195
_cell_angle_alpha   79.99484738
_cell_angle_beta   112.52647315
_cell_angle_gamma   67.48100377
_symmetry_Int_Tables_number   1
_chemical_formula_structural   LiCoSiO4
_chemical_formula_sum   'Li4 Co4 Si4 O16'
_cell_volume   343.95161735
_cell_formula_units_Z   4
loop_
 _symmetry_equiv_pos_site_id
 _symmetry_equiv_pos_as_xyz
  1  'x, y, z'
loop_
 _atom_site_type_symbol
 _atom_site_label
 _atom_site_symmetry_multiplicity
 _atom_site_fract_x
 _atom_site_fract_y
 _atom_site_fract_z
 _atom_site_occupancy
  Li  Li0  1  0.49999900  0.49999700  0.50000300  1
  Li  Li1  1  0.00001200  0.74998400  0.75001700  1
  Li  Li2  1  0.49999800  0.99999900  0.00000400  1
  Li  Li3  1  0.00001100  0.24998500  0.25001600  1
  Co  Co4  1  0.50008300  0.87496400  0.37495000  1
  Co  Co5  1  0.99990000  0.12505100  0.62503700  1
  Co  Co6  1  0.50008200  0.37496500  0.87494700  1
  Co  Co7  1  0.99989800  0.62505300  0.12503500  1
  Si  Si8  1  0.00001800  0.49999400  0.50001100  1
  Si  Si9  1  0.49998300  0.75001900  0.74998100  1
  Si  Si10  1  0.00000500  0.99998900  0.00000600  1
  Si  Si11  1  0.49997000  0.25003000  0.24997100  1
  O  O12  1  0.10665200  0.59235200  0.37726600  1
  O  O13  1  0.60666800  0.84238100  0.62730900  1
  O  O14  1  0.10665500  0.09235100  0.87726200  1
  O  O15  1  0.60667100  0.34237700  0.12731200  1
  O  O16  1  0.13769300  0.99960000  0.21466800  1
  O  O17  1  0.63786000  0.24952400  0.46462700  1
  O  O18  1  0.13768700  0.49960500  0.71466200  1
  O  O19  1  0.63785200  0.74952900  0.96462700  1
  O  O20  1  0.67825700  0.62273600  0.40765200  1
  O  O21  1  0.17826300  0.87269000  0.65762300  1
  O  O22  1  0.67825900  0.12273300  0.90765100  1
  O  O23  1  0.17826700  0.37268400  0.15762500  1
  O  O24  1  0.07737900  0.28533300  0.50040000  1
  O  O25  1  0.57724900  0.53537200  0.75047100  1
  O  O26  1  0.07737800  0.78533700  0.00039500  1
  O  O27  1  0.57725300  0.03537100  0.25047500  1
