# generated using pymatgen
data_Li9Ni15O28
_symmetry_space_group_name_H-M   'P 1'
_cell_length_a   7.55947300
_cell_length_b   8.22270486
_cell_length_c   8.57633137
_cell_angle_alpha   104.50425976
_cell_angle_beta   105.70464892
_cell_angle_gamma   104.52681225
_symmetry_Int_Tables_number   1
_chemical_formula_structural   Li9Ni15O28
_chemical_formula_sum   'Li9 Ni15 O28'
_cell_volume   466.90478570
_cell_formula_units_Z   1
loop_
 _symmetry_equiv_pos_site_id
 _symmetry_equiv_pos_as_xyz
  1  'x, y, z'
loop_
 _atom_site_type_symbol
 _atom_site_label
 _atom_site_symmetry_multiplicity
 _atom_site_fract_x
 _atom_site_fract_y
 _atom_site_fract_z
 _atom_site_occupancy
  Li  Li0  1  0.50000000  0.00000000  0.50000000  1
  Li  Li1  1  0.43198600  0.27177100  0.70770700  1
  Li  Li2  1  0.92629800  0.28013000  0.20732900  1
  Li  Li3  1  0.85085400  0.57506600  0.43011200  1
  Li  Li4  1  0.36018900  0.57922800  0.93625000  1
  Li  Li5  1  0.63981100  0.42077200  0.06375000  1
  Li  Li6  1  0.14914600  0.42493400  0.56988800  1
  Li  Li7  1  0.07370200  0.71987000  0.79267100  1
  Li  Li8  1  0.56801400  0.72822900  0.29229300  1
  Ni  Ni9  1  0.00000000  0.00000000  0.00000000  1
  Ni  Ni10  1  0.35705600  0.07226000  0.92921800  1
  Ni  Ni11  1  0.86462000  0.07597500  0.43155900  1
  Ni  Ni12  1  0.56771100  0.20898800  0.29002500  1
  Ni  Ni13  1  0.07055000  0.21256700  0.78758900  1
  Ni  Ni14  1  0.79192800  0.35902100  0.64574500  1
  Ni  Ni15  1  0.00000000  0.50000000  0.00000000  1
  Ni  Ni16  1  0.71449300  0.64550000  0.85716800  1
  Ni  Ni17  1  0.50000000  0.50000000  0.50000000  1
  Ni  Ni18  1  0.28550700  0.35450000  0.14283200  1
  Ni  Ni19  1  0.20807200  0.64097900  0.35425500  1
  Ni  Ni20  1  0.92945000  0.78743300  0.21241100  1
  Ni  Ni21  1  0.43228900  0.79101200  0.70997500  1
  Ni  Ni22  1  0.13538000  0.92402500  0.56844100  1
  Ni  Ni23  1  0.64294400  0.92774000  0.07078200  1
  O  O24  1  0.39933100  0.01451200  0.70997200  1
  O  O25  1  0.90651900  0.03145900  0.20431400  1
  O  O26  1  0.80439500  0.13747400  0.65042200  1
  O  O27  1  0.12553000  0.16361700  0.58275600  1
  O  O28  1  0.86010000  0.31498900  0.45006300  1
  O  O29  1  0.02222200  0.25653500  0.99737600  1
  O  O30  1  0.53062600  0.25431000  0.50508100  1
  O  O31  1  0.34325900  0.31262700  0.91773500  1
  O  O32  1  0.28899300  0.12531200  0.12854800  1
  O  O33  1  0.61912100  0.17354200  0.08386700  1
  O  O34  1  0.72832600  0.41604800  0.84709300  1
  O  O35  1  0.77082000  0.57778000  0.63143300  1
  O  O36  1  0.55365300  0.44440700  0.29252400  1
  O  O37  1  0.05537900  0.46702600  0.79454100  1
  O  O38  1  0.94462100  0.53297400  0.20545900  1
  O  O39  1  0.44634700  0.55559300  0.70747600  1
  O  O40  1  0.22918000  0.42222000  0.36856700  1
  O  O41  1  0.27167400  0.58395200  0.15290700  1
  O  O42  1  0.38087900  0.82645800  0.91613300  1
  O  O43  1  0.71100700  0.87468800  0.87145200  1
  O  O44  1  0.65674100  0.68737300  0.08226500  1
  O  O45  1  0.46937400  0.74569000  0.49491900  1
  O  O46  1  0.97777800  0.74346500  0.00262400  1
  O  O47  1  0.13990000  0.68501100  0.54993700  1
  O  O48  1  0.87447000  0.83638300  0.41724400  1
  O  O49  1  0.19560500  0.86252600  0.34957800  1
  O  O50  1  0.09348100  0.96854100  0.79568600  1
  O  O51  1  0.60066900  0.98548800  0.29002800  1
