# generated using pymatgen
data_LiVCrP2(O4F)2
_symmetry_space_group_name_H-M   'P 1'
_cell_length_a   5.16329500
_cell_length_b   7.32732322
_cell_length_c   24.55040826
_cell_angle_alpha   97.15341254
_cell_angle_beta   91.39611785
_cell_angle_gamma   106.07198787
_symmetry_Int_Tables_number   1
_chemical_formula_structural   LiVCrP2(O4F)2
_chemical_formula_sum   'Li5 V5 Cr5 P10 O40 F10'
_cell_volume   883.88056504
_cell_formula_units_Z   5
loop_
 _symmetry_equiv_pos_site_id
 _symmetry_equiv_pos_as_xyz
  1  'x, y, z'
loop_
 _atom_site_type_symbol
 _atom_site_label
 _atom_site_symmetry_multiplicity
 _atom_site_fract_x
 _atom_site_fract_y
 _atom_site_fract_z
 _atom_site_occupancy
  Li  Li0  1  0.98844400  0.73062600  0.08716100  1
  Li  Li1  1  0.78834300  0.53130300  0.28666400  1
  Li  Li2  1  0.58836900  0.33133200  0.48665200  1
  Li  Li3  1  0.38971000  0.13263600  0.68647800  1
  Li  Li4  1  0.00886400  0.26727100  0.91177300  1
  V  V5  1  0.00002700  0.99970300  0.99965300  1
  V  V6  1  0.80039600  0.80587700  0.20085400  1
  V  V7  1  0.60077800  0.60607000  0.40082700  1
  V  V8  1  0.40058200  0.40588600  0.60078800  1
  V  V9  1  0.20051900  0.19974000  0.79955300  1
  Cr  Cr10  1  0.99686100  0.99777900  0.50014400  1
  Cr  Cr11  1  0.79527800  0.79690200  0.70012900  1
  Cr  Cr12  1  0.60584100  0.60383400  0.89905500  1
  Cr  Cr13  1  0.39497500  0.39674000  0.10005700  1
  Cr  Cr14  1  0.19686000  0.19786600  0.30015600  1
  P  P15  1  0.81634200  0.13427100  0.62272000  1
  P  P16  1  0.98779200  0.66676200  0.57662300  1
  P  P17  1  0.78869300  0.46410300  0.77585900  1
  P  P18  1  0.58441000  0.26853900  0.97756100  1
  P  P19  1  0.38810300  0.06683500  0.17658600  1
  P  P20  1  0.61225700  0.93656500  0.82384400  1
  P  P21  1  0.41624900  0.73177400  0.02210900  1
  P  P22  1  0.21605700  0.53444400  0.22279600  1
  P  P23  1  0.01644800  0.33463500  0.42276800  1
  P  P24  1  0.18840900  0.86707300  0.37658100  1
  O  O25  1  0.98224000  0.24313100  0.36309500  1
  O  O26  1  0.90646800  0.05913300  0.84389100  1
  O  O27  1  0.88405500  0.19901200  0.46403500  1
  O  O28  1  0.96521900  0.31766700  0.77220800  1
  O  O29  1  0.78196500  0.04289700  0.56299300  1
  O  O30  1  0.84537100  0.48452100  0.42942100  1
  O  O31  1  0.74969800  0.11430900  0.97222900  1
  O  O32  1  0.90683500  0.60325400  0.73596700  1
  O  O33  1  0.89388000  0.74244100  0.35736100  1
  O  O34  1  0.81138200  0.55383900  0.83578800  1
  O  O35  1  0.62008300  0.36835100  0.03660100  1
  O  O36  1  0.64574300  0.28448100  0.62930900  1
  O  O37  1  0.71777700  0.40010100  0.93565600  1
  O  O38  1  0.50706000  0.20175800  0.13559900  1
  O  O39  1  0.69348000  0.54207500  0.55726800  1
  O  O40  1  0.71791700  0.83489400  0.04093100  1
  O  O41  1  0.41280600  0.16451300  0.23573500  1
  O  O42  1  0.43548100  0.08272400  0.82783000  1
  O  O43  1  0.30743300  0.00204500  0.33566900  1
  O  O44  1  0.49427900  0.34112100  0.75607100  1
  O  O45  1  0.51784300  0.63553900  0.24164900  1
  O  O46  1  0.68373400  0.99870000  0.66391700  1
  O  O47  1  0.55937400  0.91619700  0.17360400  1
  O  O48  1  0.59070700  0.84680600  0.76405600  1
  O  O49  1  0.28259000  0.16514600  0.95911900  1
  O  O50  1  0.31815300  0.43575000  0.44167600  1
  O  O51  1  0.49380600  0.79724000  0.86393700  1
  O  O52  1  0.28287100  0.59982900  0.06422000  1
  O  O53  1  0.35950400  0.71630700  0.37362200  1
  O  O54  1  0.38170400  0.63250500  0.96323000  1
  O  O55  1  0.18106900  0.44256400  0.16310800  1
  O  O56  1  0.11817200  0.23519900  0.64153300  1
  O  O57  1  0.08393200  0.39909500  0.26410200  1
  O  O58  1  0.25005800  0.88533800  0.02793600  1
  O  O59  1  0.15940900  0.51631000  0.57365200  1
  O  O60  1  0.21316800  0.96466900  0.43579400  1
  O  O61  1  0.04532500  0.68455200  0.22944000  1
  O  O62  1  0.10717400  0.80207600  0.53577800  1
  O  O63  1  0.09365200  0.94204400  0.15729400  1
  O  O64  1  0.01142500  0.76386300  0.63580900  1
  F  F65  1  0.92221200  0.80400500  0.93639900  1
  F  F66  1  0.72032400  0.60351700  0.13506600  1
  F  F67  1  0.87976100  0.99872900  0.26429300  1
  F  F68  1  0.52190800  0.40360300  0.33492800  1
  F  F69  1  0.67976600  0.79872000  0.46429500  1
  F  F70  1  0.32190200  0.20347100  0.53492700  1
  F  F71  1  0.47832000  0.59849500  0.66437300  1
  F  F72  1  0.12202600  0.00112600  0.73428500  1
  F  F73  1  0.28057100  0.39891800  0.86536200  1
  F  F74  1  0.07962700  0.19609800  0.06345900  1
