# generated using pymatgen
data_Li2FeSiO4
_symmetry_space_group_name_H-M   'P 1'
_cell_length_a   5.05774900
_cell_length_b   6.29576600
_cell_length_c   11.01063600
_cell_angle_alpha   90.00000000
_cell_angle_beta   90.00000000
_cell_angle_gamma   90.00000000
_symmetry_Int_Tables_number   1
_chemical_formula_structural   Li2FeSiO4
_chemical_formula_sum   'Li8 Fe4 Si4 O16'
_cell_volume   350.60512191
_cell_formula_units_Z   4
loop_
 _symmetry_equiv_pos_site_id
 _symmetry_equiv_pos_as_xyz
  1  'x, y, z'
loop_
 _atom_site_type_symbol
 _atom_site_label
 _atom_site_symmetry_multiplicity
 _atom_site_fract_x
 _atom_site_fract_y
 _atom_site_fract_z
 _atom_site_occupancy
  Li  Li0  1  0.26486500  0.74907500  0.92325300  1
  Li  Li1  1  0.76390500  0.50329300  0.84107800  1
  Li  Li2  1  0.26390500  0.00329300  0.65892200  1
  Li  Li3  1  0.76486500  0.24907500  0.57674700  1
  Li  Li4  1  0.26486500  0.75092500  0.42325300  1
  Li  Li5  1  0.76390500  0.99670700  0.34107800  1
  Li  Li6  1  0.26390500  0.49670700  0.15892200  1
  Li  Li7  1  0.76486500  0.25092500  0.07674700  1
  Fe  Fe8  1  0.26266700  0.48982600  0.66704800  1
  Fe  Fe9  1  0.26266700  0.01017400  0.16704800  1
  Fe  Fe10  1  0.76266700  0.98982600  0.83295200  1
  Fe  Fe11  1  0.76266700  0.51017400  0.33295200  1
  Si  Si12  1  0.25796500  0.25125500  0.91240400  1
  Si  Si13  1  0.75796500  0.75125500  0.58759600  1
  Si  Si14  1  0.25796500  0.24874500  0.41240400  1
  Si  Si15  1  0.75796500  0.74874500  0.08759600  1
  O  O16  1  0.86787800  0.75341000  0.94607800  1
  O  O17  1  0.93160000  0.25087500  0.91230900  1
  O  O18  1  0.36374000  0.47053000  0.84422300  1
  O  O19  1  0.35775400  0.03605600  0.83775700  1
  O  O20  1  0.86374000  0.97053000  0.65577700  1
  O  O21  1  0.85775400  0.53605600  0.66224300  1
  O  O22  1  0.43160000  0.75087500  0.58769100  1
  O  O23  1  0.36787800  0.25341000  0.55392200  1
  O  O24  1  0.86787800  0.74659000  0.44607800  1
  O  O25  1  0.93160000  0.24912500  0.41230900  1
  O  O26  1  0.36374000  0.02947000  0.34422300  1
  O  O27  1  0.35775400  0.46394400  0.33775700  1
  O  O28  1  0.86374000  0.52947000  0.15577700  1
  O  O29  1  0.85775400  0.96394400  0.16224300  1
  O  O30  1  0.43160000  0.74912500  0.08769100  1
  O  O31  1  0.36787800  0.24659000  0.05392200  1
