# generated using pymatgen
data_Li4Mn(WO4)3
_symmetry_space_group_name_H-M   'P 1'
_cell_length_a   7.12936357
_cell_length_b   10.22223545
_cell_length_c   7.30299899
_cell_angle_alpha   69.53919482
_cell_angle_beta   91.19287127
_cell_angle_gamma   70.04258308
_symmetry_Int_Tables_number   1
_chemical_formula_structural   Li4Mn(WO4)3
_chemical_formula_sum   'Li8 Mn2 W6 O24'
_cell_volume   462.73303946
_cell_formula_units_Z   2
loop_
 _symmetry_equiv_pos_site_id
 _symmetry_equiv_pos_as_xyz
  1  'x, y, z'
loop_
 _atom_site_type_symbol
 _atom_site_label
 _atom_site_symmetry_multiplicity
 _atom_site_fract_x
 _atom_site_fract_y
 _atom_site_fract_z
 _atom_site_occupancy
  Li  Li0  1  0.14353000  0.71199300  0.14408800  1
  Li  Li1  1  0.64352900  0.71198900  0.64408800  1
  Li  Li2  1  0.83254500  0.83444100  0.83273800  1
  Li  Li3  1  0.33255800  0.83442200  0.33273700  1
  Li  Li4  1  0.57852100  0.34230900  0.07886100  1
  Li  Li5  1  0.07850600  0.34236400  0.57881900  1
  Li  Li6  1  0.40237700  0.19499200  0.90256800  1
  Li  Li7  1  0.90234400  0.19499400  0.40255600  1
  Mn  Mn8  1  0.44822600  0.10343500  0.44817500  1
  Mn  Mn9  1  0.94852800  0.10385100  0.94807000  1
  W  W10  1  0.19312300  0.61345600  0.69333100  1
  W  W11  1  0.69312900  0.61344700  0.19335800  1
  W  W12  1  0.28364300  0.93230900  0.78374000  1
  W  W13  1  0.05016400  0.39984200  0.05030400  1
  W  W14  1  0.55015800  0.39979700  0.55030000  1
  W  W15  1  0.78366300  0.93242900  0.28360300  1
  O  O16  1  0.31357100  0.26807400  0.15339500  1
  O  O17  1  0.81373400  0.26816100  0.65330700  1
  O  O18  1  0.41851500  0.26826000  0.57825200  1
  O  O19  1  0.91847200  0.26828000  0.07825600  1
  O  O20  1  0.15166200  0.58066700  0.96510600  1
  O  O21  1  0.65165300  0.58067200  0.46510600  1
  O  O22  1  0.26747200  0.57980100  0.45471000  1
  O  O23  1  0.76745000  0.57980800  0.95471200  1
  O  O24  1  0.04774000  0.89928900  0.86098300  1
  O  O25  1  0.54774000  0.89929000  0.36098500  1
  O  O26  1  0.05272900  0.89865000  0.23956500  1
  O  O27  1  0.55273800  0.89865800  0.73950900  1
  O  O28  1  0.08906300  0.43396500  0.77414300  1
  O  O29  1  0.58911400  0.43393700  0.27412700  1
  O  O30  1  0.47810800  0.43408900  0.79208900  1
  O  O31  1  0.97809600  0.43409300  0.29208700  1
  O  O32  1  0.25106600  0.07341400  0.89817700  1
  O  O33  1  0.75100700  0.07342400  0.39817500  1
  O  O34  1  0.67606400  0.07338000  0.02820800  1
  O  O35  1  0.17598000  0.07327700  0.52826800  1
  O  O36  1  0.93084700  0.74937500  0.57578400  1
  O  O37  1  0.43078000  0.74937700  0.07579700  1
  O  O38  1  0.32040200  0.74907700  0.67542700  1
  O  O39  1  0.82037400  0.74907700  0.17541400  1
