# generated using pymatgen
data_Li2Bi(BO2)5
_symmetry_space_group_name_H-M   'P 1'
_cell_length_a   16.42005000
_cell_length_b   7.25873700
_cell_length_c   7.26090282
_cell_angle_alpha   87.37227571
_cell_angle_beta   90.00000000
_cell_angle_gamma   90.00000000
_symmetry_Int_Tables_number   1
_chemical_formula_structural   Li2Bi(BO2)5
_chemical_formula_sum   'Li8 Bi4 B20 O40'
_cell_volume   864.50848654
_cell_formula_units_Z   4
loop_
 _symmetry_equiv_pos_site_id
 _symmetry_equiv_pos_as_xyz
  1  'x, y, z'
loop_
 _atom_site_type_symbol
 _atom_site_label
 _atom_site_symmetry_multiplicity
 _atom_site_fract_x
 _atom_site_fract_y
 _atom_site_fract_z
 _atom_site_occupancy
  Li  Li0  1  0.84144800  0.98474500  0.08914200  1
  Li  Li1  1  0.65855200  0.48474500  0.08914200  1
  Li  Li2  1  0.08574600  0.39095000  0.30726500  1
  Li  Li3  1  0.41425400  0.89095000  0.30726500  1
  Li  Li4  1  0.58574600  0.10905000  0.69273500  1
  Li  Li5  1  0.91425400  0.60905000  0.69273500  1
  Li  Li6  1  0.34144800  0.51525500  0.91085800  1
  Li  Li7  1  0.15855200  0.01525500  0.91085800  1
  Bi  Bi8  1  0.87511400  0.47698000  0.16869400  1
  Bi  Bi9  1  0.62488600  0.97698000  0.16869400  1
  Bi  Bi10  1  0.37511400  0.02302000  0.83130600  1
  Bi  Bi11  1  0.12488600  0.52302000  0.83130600  1
  B  B12  1  0.97892500  0.07837700  0.19740200  1
  B  B13  1  0.52107500  0.57837700  0.19740200  1
  B  B14  1  0.23153600  0.48559100  0.22950900  1
  B  B15  1  0.26846400  0.98559100  0.22950900  1
  B  B16  1  0.47892500  0.25633400  0.25929900  1
  B  B17  1  0.02107500  0.75633400  0.25929900  1
  B  B18  1  0.37896300  0.50711400  0.31061300  1
  B  B19  1  0.12103700  0.00711400  0.31061300  1
  B  B20  1  0.72576700  0.47804400  0.45125500  1
  B  B21  1  0.77423300  0.97804400  0.45125500  1
  B  B22  1  0.22576700  0.02195600  0.54874500  1
  B  B23  1  0.27423300  0.52195600  0.54874500  1
  B  B24  1  0.87896300  0.99288600  0.68938700  1
  B  B25  1  0.62103700  0.49288600  0.68938700  1
  B  B26  1  0.97892500  0.24366600  0.74070100  1
  B  B27  1  0.52107500  0.74366600  0.74070100  1
  B  B28  1  0.73153600  0.01440900  0.77049100  1
  B  B29  1  0.76846400  0.51440900  0.77049100  1
  B  B30  1  0.47892500  0.42162300  0.80259800  1
  B  B31  1  0.02107500  0.92162300  0.80259800  1
  O  O32  1  0.16645700  0.45968600  0.11585700  1
  O  O33  1  0.33354300  0.95968600  0.11585700  1
  O  O34  1  0.91497700  0.19048600  0.14184500  1
  O  O35  1  0.58502300  0.69048600  0.14184500  1
  O  O36  1  0.19015400  0.02102100  0.17048900  1
  O  O37  1  0.53709300  0.38785500  0.18777700  1
  O  O38  1  0.30984600  0.52102100  0.17048900  1
  O  O39  1  0.96290700  0.88785500  0.18777700  1
  O  O40  1  0.49771300  0.07331500  0.26574100  1
  O  O41  1  0.00228700  0.57331500  0.26574100  1
  O  O42  1  0.74460500  0.46686300  0.26861900  1
  O  O43  1  0.05389400  0.13823800  0.25184700  1
  O  O44  1  0.75539500  0.96686300  0.26861900  1
  O  O45  1  0.44610600  0.63823800  0.25184700  1
  O  O46  1  0.40643700  0.31656800  0.32208900  1
  O  O47  1  0.09356300  0.81656800  0.32208900  1
  O  O48  1  0.21410400  0.46978000  0.42074000  1
  O  O49  1  0.28589600  0.96978000  0.42074000  1
  O  O50  1  0.64921900  0.43680300  0.51096300  1
  O  O51  1  0.14921900  0.06319700  0.48903700  1
  O  O52  1  0.85078100  0.93680300  0.51096300  1
  O  O53  1  0.35078100  0.56319700  0.48903700  1
  O  O54  1  0.71410400  0.03022000  0.57926000  1
  O  O55  1  0.78589600  0.53022000  0.57926000  1
  O  O56  1  0.90643700  0.18343200  0.67791100  1
  O  O57  1  0.59356300  0.68343200  0.67791100  1
  O  O58  1  0.55389400  0.36176200  0.74815300  1
  O  O59  1  0.24460500  0.03313700  0.73138100  1
  O  O60  1  0.94610600  0.86176200  0.74815300  1
  O  O61  1  0.25539500  0.53313700  0.73138100  1
  O  O62  1  0.99771300  0.42668500  0.73425900  1
  O  O63  1  0.50228700  0.92668500  0.73425900  1
  O  O64  1  0.03709300  0.11214500  0.81222300  1
  O  O65  1  0.69015400  0.47897900  0.82951100  1
  O  O66  1  0.46290700  0.61214500  0.81222300  1
  O  O67  1  0.80984600  0.97897900  0.82951100  1
  O  O68  1  0.41497700  0.30951400  0.85815500  1
  O  O69  1  0.08502300  0.80951400  0.85815500  1
  O  O70  1  0.66645700  0.04031400  0.88414300  1
  O  O71  1  0.83354300  0.54031400  0.88414300  1
