# generated using pymatgen
data_Li2V2P2O9
_symmetry_space_group_name_H-M   'P 1'
_cell_length_a   5.67306300
_cell_length_b   8.45025200
_cell_length_c   14.53110100
_cell_angle_alpha   90.00000000
_cell_angle_beta   90.00000000
_cell_angle_gamma   90.00000000
_symmetry_Int_Tables_number   1
_chemical_formula_structural   Li2V2P2O9
_chemical_formula_sum   'Li8 V8 P8 O36'
_cell_volume   696.60371844
_cell_formula_units_Z   4
loop_
 _symmetry_equiv_pos_site_id
 _symmetry_equiv_pos_as_xyz
  1  'x, y, z'
loop_
 _atom_site_type_symbol
 _atom_site_label
 _atom_site_symmetry_multiplicity
 _atom_site_fract_x
 _atom_site_fract_y
 _atom_site_fract_z
 _atom_site_occupancy
  Li  Li0  1  0.75000000  0.52163000  0.73889100  1
  Li  Li1  1  0.75000000  0.51980700  0.12867500  1
  Li  Li2  1  0.25000000  0.98019300  0.62867500  1
  Li  Li3  1  0.25000000  0.97837000  0.23889100  1
  Li  Li4  1  0.75000000  0.02163000  0.76110900  1
  Li  Li5  1  0.75000000  0.01980700  0.37132500  1
  Li  Li6  1  0.25000000  0.48019300  0.87132500  1
  Li  Li7  1  0.25000000  0.47837000  0.26110900  1
  V  V8  1  0.50000000  0.50000000  0.50000000  1
  V  V9  1  0.00000000  0.50000000  0.50000000  1
  V  V10  1  0.75000000  0.70697100  0.93619300  1
  V  V11  1  0.25000000  0.79302900  0.43619300  1
  V  V12  1  0.50000000  0.00000000  0.00000000  1
  V  V13  1  0.00000000  0.00000000  0.00000000  1
  V  V14  1  0.75000000  0.20697100  0.56380700  1
  V  V15  1  0.25000000  0.29302900  0.06380700  1
  P  P16  1  0.25000000  0.67145900  0.07038800  1
  P  P17  1  0.75000000  0.70782200  0.32997100  1
  P  P18  1  0.25000000  0.79217800  0.82997100  1
  P  P19  1  0.75000000  0.82854100  0.57038800  1
  P  P20  1  0.25000000  0.17145900  0.42961200  1
  P  P21  1  0.75000000  0.20782200  0.17002900  1
  P  P22  1  0.25000000  0.29217800  0.67002900  1
  P  P23  1  0.75000000  0.32854100  0.92961200  1
  O  O24  1  0.75000000  0.48822600  0.98364000  1
  O  O25  1  0.75000000  0.56597900  0.40562700  1
  O  O26  1  0.25000000  0.56104400  0.41315500  1
  O  O27  1  0.75000000  0.63121100  0.23759900  1
  O  O28  1  0.25000000  0.64899800  0.17270500  1
  O  O29  1  0.03042600  0.68299400  0.84787100  1
  O  O30  1  0.46957400  0.68299400  0.84787100  1
  O  O31  1  0.51899300  0.73725200  0.53816600  1
  O  O32  1  0.98100700  0.73725200  0.53816600  1
  O  O33  1  0.01899300  0.76274800  0.03816600  1
  O  O34  1  0.48100700  0.76274800  0.03816600  1
  O  O35  1  0.53042600  0.81700600  0.34787100  1
  O  O36  1  0.96957400  0.81700600  0.34787100  1
  O  O37  1  0.75000000  0.85100200  0.67270500  1
  O  O38  1  0.25000000  0.86878900  0.73759900  1
  O  O39  1  0.75000000  0.93895600  0.91315500  1
  O  O40  1  0.25000000  0.93402100  0.90562700  1
  O  O41  1  0.25000000  0.01177400  0.48364000  1
  O  O42  1  0.75000000  0.98822600  0.51636000  1
  O  O43  1  0.75000000  0.06597900  0.09437300  1
  O  O44  1  0.25000000  0.06104400  0.08684500  1
  O  O45  1  0.75000000  0.13121100  0.26240100  1
  O  O46  1  0.25000000  0.14899800  0.32729500  1
  O  O47  1  0.03042600  0.18299400  0.65212900  1
  O  O48  1  0.46957400  0.18299400  0.65212900  1
  O  O49  1  0.51899300  0.23725200  0.96183400  1
  O  O50  1  0.98100700  0.23725200  0.96183400  1
  O  O51  1  0.01899300  0.26274800  0.46183400  1
  O  O52  1  0.48100700  0.26274800  0.46183400  1
  O  O53  1  0.53042600  0.31700600  0.15212900  1
  O  O54  1  0.96957400  0.31700600  0.15212900  1
  O  O55  1  0.75000000  0.35100200  0.82729500  1
  O  O56  1  0.25000000  0.36878900  0.76240100  1
  O  O57  1  0.75000000  0.43895600  0.58684500  1
  O  O58  1  0.25000000  0.43402100  0.59437300  1
  O  O59  1  0.25000000  0.51177400  0.01636000  1
