# generated using pymatgen
data_LiV(PO3)3
_symmetry_space_group_name_H-M   'P 1'
_cell_length_a   7.06906407
_cell_length_b   10.35684237
_cell_length_c   12.19484261
_cell_angle_alpha   89.98699189
_cell_angle_beta   101.15512694
_cell_angle_gamma   89.99304407
_symmetry_Int_Tables_number   1
_chemical_formula_structural   LiV(PO3)3
_chemical_formula_sum   'Li4 V4 P12 O36'
_cell_volume   875.95506824
_cell_formula_units_Z   4
loop_
 _symmetry_equiv_pos_site_id
 _symmetry_equiv_pos_as_xyz
  1  'x, y, z'
loop_
 _atom_site_type_symbol
 _atom_site_label
 _atom_site_symmetry_multiplicity
 _atom_site_fract_x
 _atom_site_fract_y
 _atom_site_fract_z
 _atom_site_occupancy
  Li  Li0  1  0.39190200  0.49995400  0.24986900  1
  Li  Li1  1  0.14242100  0.99994500  0.49994100  1
  Li  Li2  1  0.89233000  0.49993600  0.74994000  1
  Li  Li3  1  0.64211600  0.99995100  0.00005600  1
  V  V4  1  0.51192500  0.99975400  0.50003400  1
  V  V5  1  0.26164600  0.50010600  0.75004700  1
  V  V6  1  0.76148400  0.50013500  0.25009200  1
  V  V7  1  0.01174600  0.99982300  0.00005300  1
  P  P8  1  0.37717600  0.28676600  0.57653300  1
  P  P9  1  0.12678800  0.78680700  0.82631600  1
  P  P10  1  0.87718000  0.28673500  0.07667400  1
  P  P11  1  0.62664500  0.78678300  0.32621600  1
  P  P12  1  0.16054100  0.28010900  0.92715000  1
  P  P13  1  0.91033700  0.77986100  0.17670700  1
  P  P14  1  0.66030000  0.28034000  0.42699600  1
  P  P15  1  0.41028900  0.77997200  0.67667700  1
  P  P16  1  0.26666200  0.93301200  0.24670600  1
  P  P17  1  0.01743400  0.43341900  0.49651800  1
  P  P18  1  0.76671500  0.93300200  0.74671600  1
  P  P19  1  0.51741400  0.43330000  0.99655000  1
  O  O20  1  0.22698400  0.37609400  0.49052500  1
  O  O21  1  0.97645400  0.87631500  0.74064900  1
  O  O22  1  0.72703800  0.37602300  0.99067800  1
  O  O23  1  0.47640500  0.87636800  0.24041700  1
  O  O24  1  0.07598700  0.32093000  0.03728400  1
  O  O25  1  0.82523300  0.82136700  0.28655700  1
  O  O26  1  0.57597400  0.32103000  0.53717700  1
  O  O27  1  0.32526800  0.82155800  0.78657200  1
  O  O28  1  0.13728000  0.80224600  0.22226700  1
  O  O29  1  0.88708400  0.30320800  0.47249300  1
  O  O30  1  0.63726000  0.80230800  0.72225900  1
  O  O31  1  0.38736900  0.30292500  0.97256000  1
  O  O32  1  0.58418100  0.37649200  0.33599500  1
  O  O33  1  0.33528600  0.87595800  0.58550000  1
  O  O34  1  0.08492000  0.37642500  0.83635900  1
  O  O35  1  0.83529000  0.87579000  0.08544600  1
  O  O36  1  0.57224800  0.64780600  0.29940200  1
  O  O37  1  0.32397600  0.14749900  0.55028900  1
  O  O38  1  0.07257300  0.64782500  0.79960900  1
  O  O39  1  0.82391700  0.14744100  0.05049000  1
  O  O40  1  0.51171800  0.47626800  0.11411900  1
  O  O41  1  0.26075900  0.97565000  0.36431900  1
  O  O42  1  0.01182300  0.47633800  0.61406000  1
  O  O43  1  0.76092900  0.97568900  0.86440900  1
  O  O44  1  0.96709800  0.52676600  0.40197800  1
  O  O45  1  0.71616200  0.02637100  0.65230800  1
  O  O46  1  0.46704000  0.52664300  0.90203700  1
  O  O47  1  0.21609700  0.02642200  0.15228900  1
  O  O48  1  0.89632700  0.33520800  0.19363700  1
  O  O49  1  0.64646200  0.83441800  0.44341100  1
  O  O50  1  0.39624000  0.33518500  0.69345500  1
  O  O51  1  0.14651200  0.83444200  0.94355700  1
  O  O52  1  0.88349900  0.63864500  0.15430500  1
  O  O53  1  0.63413300  0.13903500  0.40473100  1
  O  O54  1  0.38328400  0.63877600  0.65424900  1
  O  O55  1  0.13417100  0.13882500  0.90481500  1
