# generated using pymatgen
data_Li4Cr3NiO8
_symmetry_space_group_name_H-M   'P 1'
_cell_length_a   5.12637669
_cell_length_b   5.89074296
_cell_length_c   10.62229210
_cell_angle_alpha   105.96370209
_cell_angle_beta   85.46103488
_cell_angle_gamma   73.09293004
_symmetry_Int_Tables_number   1
_chemical_formula_structural   Li4Cr3NiO8
_chemical_formula_sum   'Li8 Cr6 Ni2 O16'
_cell_volume   290.62544097
_cell_formula_units_Z   2
loop_
 _symmetry_equiv_pos_site_id
 _symmetry_equiv_pos_as_xyz
  1  'x, y, z'
loop_
 _atom_site_type_symbol
 _atom_site_label
 _atom_site_symmetry_multiplicity
 _atom_site_fract_x
 _atom_site_fract_y
 _atom_site_fract_z
 _atom_site_occupancy
  Li  Li0  1  0.99998596  0.12504297  0.74993877  1
  Li  Li1  1  0.00062359  0.00218894  0.99573481  1
  Li  Li2  1  0.99944549  0.24787789  0.50426877  1
  Li  Li3  1  0.00046389  0.37486179  0.24997332  1
  Li  Li4  1  0.00001852  0.62495046  0.74994559  1
  Li  Li5  1  0.00400821  0.49323511  0.99917352  1
  Li  Li6  1  0.99623562  0.75673596  0.50083565  1
  Li  Li7  1  0.99940348  0.87532043  0.25019516  1
  Cr  Cr8  1  0.50105619  0.31189979  0.37616136  1
  Cr  Cr9  1  0.50100251  0.55724866  0.87241644  1
  Cr  Cr10  1  0.50050267  0.43508359  0.12323192  1
  Cr  Cr11  1  0.49916709  0.69269999  0.62760519  1
  Cr  Cr12  1  0.49939432  0.81489261  0.37674662  1
  Cr  Cr13  1  0.49885862  0.93811171  0.12382145  1
  Ni  Ni14  1  0.49917155  0.06243783  0.87516163  1
  Ni  Ni15  1  0.50086310  0.18750289  0.62480283  1
  O  O16  1  0.27573384  0.08719113  0.31064543  1
  O  O17  1  0.73030758  0.03199097  0.43437716  1
  O  O18  1  0.27732518  0.34240590  0.81428562  1
  O  O19  1  0.73278004  0.29586691  0.94207915  1
  O  O20  1  0.72417144  0.16282772  0.18934821  1
  O  O21  1  0.26952212  0.21803402  0.06565123  1
  O  O22  1  0.27935115  0.46518594  0.56075914  1
  O  O23  1  0.73296873  0.42280752  0.69349281  1
  O  O24  1  0.27891684  0.58595346  0.31001290  1
  O  O25  1  0.72436517  0.53938019  0.44106525  1
  O  O26  1  0.26719838  0.82718505  0.80652966  1
  O  O27  1  0.72067190  0.78484088  0.93928853  1
  O  O28  1  0.27560271  0.71057727  0.05891874  1
  O  O29  1  0.26721168  0.95404931  0.55792508  1
  O  O30  1  0.72091056  0.66407378  0.18996981  1
  O  O31  1  0.72276287  0.90753731  0.68563825  1
