# generated using pymatgen
data_Li2Cr2O7
_symmetry_space_group_name_H-M   'P 1'
_cell_length_a   7.32158700
_cell_length_b   6.10793100
_cell_length_c   13.94143120
_cell_angle_alpha   72.84227856
_cell_angle_beta   90.00000000
_cell_angle_gamma   90.00000000
_symmetry_Int_Tables_number   1
_chemical_formula_structural   Li2Cr2O7
_chemical_formula_sum   'Li8 Cr8 O28'
_cell_volume   595.71113978
_cell_formula_units_Z   4
loop_
 _symmetry_equiv_pos_site_id
 _symmetry_equiv_pos_as_xyz
  1  'x, y, z'
loop_
 _atom_site_type_symbol
 _atom_site_label
 _atom_site_symmetry_multiplicity
 _atom_site_fract_x
 _atom_site_fract_y
 _atom_site_fract_z
 _atom_site_occupancy
  Li  Li0  1  0.14160700  0.73786000  0.09111400  1
  Li  Li1  1  0.87448000  0.26418100  0.16679900  1
  Li  Li2  1  0.37448000  0.73581900  0.33320100  1
  Li  Li3  1  0.64160700  0.26214000  0.40888600  1
  Li  Li4  1  0.35839300  0.73786000  0.59111400  1
  Li  Li5  1  0.62552000  0.26418100  0.66679900  1
  Li  Li6  1  0.12552000  0.73581900  0.83320100  1
  Li  Li7  1  0.85839300  0.26214000  0.90888600  1
  Cr  Cr8  1  0.35272300  0.22752800  0.09765200  1
  Cr  Cr9  1  0.72875400  0.80351200  0.11734700  1
  Cr  Cr10  1  0.22875400  0.19648800  0.38265300  1
  Cr  Cr11  1  0.85272300  0.77247200  0.40234800  1
  Cr  Cr12  1  0.14727700  0.22752800  0.59765200  1
  Cr  Cr13  1  0.77124600  0.80351200  0.61734700  1
  Cr  Cr14  1  0.27124600  0.19648800  0.88265300  1
  Cr  Cr15  1  0.64727700  0.77247200  0.90234800  1
  O  O16  1  0.57257200  0.76829800  0.02589700  1
  O  O17  1  0.20086400  0.43285200  0.08066500  1
  O  O18  1  0.83266000  0.05611900  0.07794300  1
  O  O19  1  0.52415500  0.27107300  0.16258000  1
  O  O20  1  0.26058700  0.97232100  0.14761000  1
  O  O21  1  0.88729100  0.60234800  0.13556900  1
  O  O22  1  0.61483200  0.77875800  0.21855800  1
  O  O23  1  0.11483200  0.22124200  0.28144200  1
  O  O24  1  0.76058700  0.02767900  0.35239000  1
  O  O25  1  0.02415500  0.72892700  0.33742000  1
  O  O26  1  0.38729100  0.39765200  0.36443100  1
  O  O27  1  0.33266000  0.94388100  0.42205700  1
  O  O28  1  0.70086400  0.56714800  0.41933500  1
  O  O29  1  0.07257200  0.23170200  0.47410300  1
  O  O30  1  0.92742800  0.76829800  0.52589700  1
  O  O31  1  0.29913600  0.43285200  0.58066500  1
  O  O32  1  0.66734000  0.05611900  0.57794300  1
  O  O33  1  0.61270900  0.60234800  0.63556900  1
  O  O34  1  0.97584500  0.27107300  0.66258000  1
  O  O35  1  0.23941300  0.97232100  0.64761000  1
  O  O36  1  0.88516800  0.77875800  0.71855800  1
  O  O37  1  0.38516800  0.22124200  0.78144200  1
  O  O38  1  0.11270900  0.39765200  0.86443100  1
  O  O39  1  0.73941300  0.02767900  0.85239000  1
  O  O40  1  0.47584500  0.72892700  0.83742000  1
  O  O41  1  0.16734000  0.94388100  0.92205700  1
  O  O42  1  0.79913600  0.56714800  0.91933500  1
  O  O43  1  0.42742800  0.23170200  0.97410300  1
