# generated using pymatgen
data_LiLa4FeO8
_symmetry_space_group_name_H-M   'P 1'
_cell_length_a   6.90242892
_cell_length_b   7.74004574
_cell_length_c   7.74043062
_cell_angle_alpha   89.99191198
_cell_angle_beta   73.71523171
_cell_angle_gamma   106.25875353
_symmetry_Int_Tables_number   1
_chemical_formula_structural   LiLa4FeO8
_chemical_formula_sum   'Li2 La8 Fe2 O16'
_cell_volume   379.67699321
_cell_formula_units_Z   2
loop_
 _symmetry_equiv_pos_site_id
 _symmetry_equiv_pos_as_xyz
  1  'x, y, z'
loop_
 _atom_site_type_symbol
 _atom_site_label
 _atom_site_symmetry_multiplicity
 _atom_site_fract_x
 _atom_site_fract_y
 _atom_site_fract_z
 _atom_site_occupancy
  Li  Li0  1  0.99600700  0.99936400  0.00218300  1
  Li  Li1  1  0.99599900  0.49936100  0.50218400  1
  La  La2  1  0.72564700  0.18237900  0.32120000  1
  La  La3  1  0.72564200  0.68237800  0.82120400  1
  La  La4  1  0.26960800  0.31546400  0.18336800  1
  La  La5  1  0.26960000  0.81547100  0.68337300  1
  La  La6  1  0.72322600  0.18150000  0.81981600  1
  La  La7  1  0.72322700  0.68150500  0.31982100  1
  La  La8  1  0.27206700  0.81898900  0.18278900  1
  La  La9  1  0.27207000  0.31899400  0.68277800  1
  Fe  Fe10  1  0.99738900  0.99975400  0.50191300  1
  Fe  Fe11  1  0.99738700  0.49976100  0.00191000  1
  O  O12  1  0.63066100  0.40477000  0.59255400  1
  O  O13  1  0.63066200  0.90477100  0.09255700  1
  O  O14  1  0.36520400  0.09330300  0.91424600  1
  O  O15  1  0.36520200  0.59330400  0.41424900  1
  O  O16  1  0.64786800  0.41554700  0.08917200  1
  O  O17  1  0.64787200  0.91554800  0.58917000  1
  O  O18  1  0.34768000  0.08899600  0.41016400  1
  O  O19  1  0.34767700  0.58899900  0.91015900  1
  O  O20  1  0.99701100  0.25010300  0.00417700  1
  O  O21  1  0.99700700  0.75010300  0.50418000  1
  O  O22  1  0.99969100  0.49772400  0.25071400  1
  O  O23  1  0.99968800  0.99772400  0.75071700  1
  O  O24  1  0.99553000  0.50133700  0.75289700  1
  O  O25  1  0.99553400  0.00133600  0.25289600  1
  O  O26  1  0.99859900  0.74958100  0.99952300  1
  O  O27  1  0.99860000  0.24958500  0.49952000  1
