# generated using pymatgen
data_LiSi6Bi9O26
_symmetry_space_group_name_H-M   'P 1'
_cell_length_a   9.70809708
_cell_length_b   9.70809708
_cell_length_c   7.08245100
_cell_angle_alpha   90.00000000
_cell_angle_beta   90.00000000
_cell_angle_gamma   120.00000733
_symmetry_Int_Tables_number   1
_chemical_formula_structural   LiSi6Bi9O26
_chemical_formula_sum   'Li1 Si6 Bi9 O26'
_cell_volume   578.07261879
_cell_formula_units_Z   1
loop_
 _symmetry_equiv_pos_site_id
 _symmetry_equiv_pos_as_xyz
  1  'x, y, z'
loop_
 _atom_site_type_symbol
 _atom_site_label
 _atom_site_symmetry_multiplicity
 _atom_site_fract_x
 _atom_site_fract_y
 _atom_site_fract_z
 _atom_site_occupancy
  Li  Li0  1  0.33333300  0.66666700  0.51887900  1
  Si  Si1  1  0.03029900  0.62252300  0.25238600  1
  Si  Si2  1  0.59222400  0.96970100  0.25238600  1
  Si  Si3  1  0.37747700  0.40777600  0.25238600  1
  Si  Si4  1  0.62376300  0.60191200  0.74832300  1
  Si  Si5  1  0.39808800  0.02185100  0.74832300  1
  Si  Si6  1  0.97814900  0.37623700  0.74832300  1
  Bi  Bi7  1  0.98824300  0.76026200  0.73330600  1
  Bi  Bi8  1  0.33333300  0.66666700  0.97738100  1
  Bi  Bi9  1  0.23973800  0.22798100  0.73330600  1
  Bi  Bi10  1  0.22450200  0.98147600  0.23666300  1
  Bi  Bi11  1  0.77201900  0.01175700  0.73330600  1
  Bi  Bi12  1  0.75697400  0.77549800  0.23666300  1
  Bi  Bi13  1  0.66666700  0.33333300  0.00169000  1
  Bi  Bi14  1  0.66666700  0.33333300  0.48900700  1
  Bi  Bi15  1  0.01852400  0.24302600  0.23666300  1
  O  O16  1  0.06589900  0.75437000  0.42179800  1
  O  O17  1  0.09828700  0.74409800  0.06681500  1
  O  O18  1  0.12775700  0.52698600  0.26521900  1
  O  O19  1  0.32400800  0.83059300  0.74172600  1
  O  O20  1  0.16940700  0.49341400  0.74172600  1
  O  O21  1  0.39922900  0.87224300  0.26521900  1
  O  O22  1  0.00000000  0.00000000  0.18785800  1
  O  O23  1  0.00000000  0.00000000  0.69182300  1
  O  O24  1  0.25590200  0.35418900  0.06681500  1
  O  O25  1  0.24563000  0.31152800  0.42179800  1
  O  O26  1  0.50658600  0.67599200  0.74172600  1
  O  O27  1  0.47301400  0.60077100  0.26521900  1
  O  O28  1  0.64581100  0.90171300  0.06681500  1
  O  O29  1  0.68847200  0.93410100  0.42179800  1
  O  O30  1  0.32908100  0.08148400  0.92665800  1
  O  O31  1  0.35345600  0.10045000  0.56606900  1
  O  O32  1  0.52785100  0.40466400  0.75950900  1
  O  O33  1  0.50293000  0.33899500  0.24437000  1
  O  O34  1  0.75240300  0.67091900  0.92665800  1
  O  O35  1  0.74699400  0.64654400  0.56606900  1
  O  O36  1  0.59533600  0.12318700  0.75950900  1
  O  O37  1  0.83606500  0.49707000  0.24437000  1
  O  O38  1  0.66100500  0.16393500  0.24437000  1
  O  O39  1  0.87681300  0.47214900  0.75950900  1
  O  O40  1  0.89955000  0.25300600  0.56606900  1
  O  O41  1  0.91851600  0.24759700  0.92665800  1
