# generated using pymatgen
data_Li2V3P9O28
_symmetry_space_group_name_H-M   'P 1'
_cell_length_a   7.06421600
_cell_length_b   9.16352624
_cell_length_c   9.28587832
_cell_angle_alpha   111.47544951
_cell_angle_beta   109.82197634
_cell_angle_gamma   98.87795315
_symmetry_Int_Tables_number   1
_chemical_formula_structural   Li2V3P9O28
_chemical_formula_sum   'Li2 V3 P9 O28'
_cell_volume   498.89619391
_cell_formula_units_Z   1
loop_
 _symmetry_equiv_pos_site_id
 _symmetry_equiv_pos_as_xyz
  1  'x, y, z'
loop_
 _atom_site_type_symbol
 _atom_site_label
 _atom_site_symmetry_multiplicity
 _atom_site_fract_x
 _atom_site_fract_y
 _atom_site_fract_z
 _atom_site_occupancy
  Li  Li0  1  0.20624100  0.95375300  0.72205700  1
  Li  Li1  1  0.79375900  0.04624700  0.27794300  1
  V  V2  1  0.00000000  0.50000000  0.50000000  1
  V  V3  1  0.25965500  0.01595400  0.25595600  1
  V  V4  1  0.74034500  0.98404600  0.74404400  1
  P  P5  1  0.28750600  0.76353800  0.43288600  1
  P  P6  1  0.80885000  0.75457400  0.95392100  1
  P  P7  1  0.65336700  0.67792700  0.39209900  1
  P  P8  1  0.19067500  0.70206200  0.91970500  1
  P  P9  1  0.50000000  0.50000000  0.00000000  1
  P  P10  1  0.34663300  0.32207300  0.60790100  1
  P  P11  1  0.80932500  0.29793800  0.08029500  1
  P  P12  1  0.71249400  0.23646200  0.56711400  1
  P  P13  1  0.19115000  0.24542600  0.04607900  1
  O  O14  1  0.41874200  0.90280000  0.61820300  1
  O  O15  1  0.91802600  0.90895000  0.12837300  1
  O  O16  1  0.32061700  0.87795100  0.05436700  1
  O  O17  1  0.78627400  0.85635200  0.52264900  1
  O  O18  1  0.73594900  0.79402700  0.80356000  1
  O  O19  1  0.24009500  0.82461600  0.29840200  1
  O  O20  1  0.61612500  0.66029400  0.20668400  1
  O  O21  1  0.13743700  0.69214500  0.74244700  1
  O  O22  1  0.61524400  0.62972000  0.93674300  1
  O  O23  1  0.08631500  0.66138100  0.41676900  1
  O  O24  1  0.42296700  0.64203800  0.39015600  1
  O  O25  1  0.96913200  0.65036300  0.93361500  1
  O  O26  1  0.27984800  0.56437700  0.95189800  1
  O  O27  1  0.72612500  0.54457200  0.42979400  1
  O  O28  1  0.72015200  0.43562300  0.04810200  1
  O  O29  1  0.27387500  0.45542800  0.57020600  1
  O  O30  1  0.57703300  0.35796200  0.60984400  1
  O  O31  1  0.03086800  0.34963700  0.06638500  1
  O  O32  1  0.38475600  0.37028000  0.06325700  1
  O  O33  1  0.91368500  0.33861900  0.58323100  1
  O  O34  1  0.38387500  0.33970600  0.79331600  1
  O  O35  1  0.86256300  0.30785500  0.25755300  1
  O  O36  1  0.26405100  0.20597300  0.19644000  1
  O  O37  1  0.75990500  0.17538400  0.70159800  1
  O  O38  1  0.67938300  0.12204900  0.94563300  1
  O  O39  1  0.21372600  0.14364800  0.47735100  1
  O  O40  1  0.58125800  0.09720000  0.38179700  1
  O  O41  1  0.08197400  0.09105000  0.87162700  1
