# generated using pymatgen
data_Li2Sn4P4O15
_symmetry_space_group_name_H-M   'P 1'
_cell_length_a   9.35968651
_cell_length_b   9.35968651
_cell_length_c   20.34017173
_cell_angle_alpha   86.86276654
_cell_angle_beta   86.86276654
_cell_angle_gamma   113.09788876
_symmetry_Int_Tables_number   1
_chemical_formula_structural   Li2Sn4P4O15
_chemical_formula_sum   'Li8 Sn16 P16 O60'
_cell_volume   1630.93442400
_cell_formula_units_Z   4
loop_
 _symmetry_equiv_pos_site_id
 _symmetry_equiv_pos_as_xyz
  1  'x, y, z'
loop_
 _atom_site_type_symbol
 _atom_site_label
 _atom_site_symmetry_multiplicity
 _atom_site_fract_x
 _atom_site_fract_y
 _atom_site_fract_z
 _atom_site_occupancy
  Li  Li0  1  0.45987100  0.02876800  0.73941100  1
  Li  Li1  1  0.44152600  0.54229300  0.90244700  1
  Li  Li2  1  0.45770700  0.55847400  0.59755300  1
  Li  Li3  1  0.02876800  0.45987100  0.23941100  1
  Li  Li4  1  0.97123200  0.54012900  0.76058900  1
  Li  Li5  1  0.54229300  0.44152600  0.40244700  1
  Li  Li6  1  0.55847400  0.45770700  0.09755300  1
  Li  Li7  1  0.54012900  0.97123200  0.26058900  1
  Sn  Sn8  1  0.90407800  0.85012100  0.56569700  1
  Sn  Sn9  1  0.92697600  0.33491200  0.93664400  1
  Sn  Sn10  1  0.00000000  0.50000000  0.50000000  1
  Sn  Sn11  1  0.85012100  0.90407800  0.06569700  1
  Sn  Sn12  1  0.80605600  0.19394400  0.75000000  1
  Sn  Sn13  1  0.52102100  0.47897900  0.75000000  1
  Sn  Sn14  1  0.02483300  0.97516700  0.75000000  1
  Sn  Sn15  1  0.33491200  0.92697600  0.43664400  1
  Sn  Sn16  1  0.66508800  0.07302400  0.56335600  1
  Sn  Sn17  1  0.97516700  0.02483300  0.25000000  1
  Sn  Sn18  1  0.19394400  0.80605600  0.25000000  1
  Sn  Sn19  1  0.47897900  0.52102100  0.25000000  1
  Sn  Sn20  1  0.14987900  0.09592200  0.93430300  1
  Sn  Sn21  1  0.07302400  0.66508800  0.06335600  1
  Sn  Sn22  1  0.09592200  0.14987900  0.43430300  1
  Sn  Sn23  1  0.50000000  0.00000000  0.00000000  1
  P  P24  1  0.73887000  0.87651600  0.89589900  1
  P  P25  1  0.95053800  0.71176800  0.88741900  1
  P  P26  1  0.63574300  0.83456800  0.67808100  1
  P  P27  1  0.87651600  0.73887000  0.39589900  1
  P  P28  1  0.71176800  0.95053800  0.38741900  1
  P  P29  1  0.77022600  0.46262500  0.62781900  1
  P  P30  1  0.83456800  0.63574300  0.17808100  1
  P  P31  1  0.53737500  0.22977400  0.87218100  1
  P  P32  1  0.46262500  0.77022600  0.12781900  1
  P  P33  1  0.16543200  0.36425700  0.82191900  1
  P  P34  1  0.22977400  0.53737500  0.37218100  1
  P  P35  1  0.28823200  0.04946200  0.61258100  1
  P  P36  1  0.12348400  0.26113000  0.60410100  1
  P  P37  1  0.36425700  0.16543200  0.32191900  1
  P  P38  1  0.04946200  0.28823200  0.11258100  1
  P  P39  1  0.26113000  0.12348400  0.10410100  1
  O  O40  1  0.79085700  0.93779100  0.82278800  1
  O  O41  1  0.81375100  0.86426100  0.67482200  1
  O  O42  1  0.78787700  0.72628800  0.90925400  1
  O  O43  1  0.56287100  0.80334600  0.91524300  1
  O  O44  1  0.94509100  0.57222900  0.93304800  1
  O  O45  1  0.93779100  0.79085700  0.32278800  1
  O  O46  1  0.56889800  0.77673100  0.61206100  1
  O  O47  1  0.90459800  0.61141100  0.59159900  1
  O  O48  1  0.00002600  0.37547700  0.81762400  1
  O  O49  1  0.86426100  0.81375100  0.17482200  1
  O  O50  1  0.54508100  0.72425300  0.73834600  1
  O  O51  1  0.72628800  0.78787700  0.40925400  1
  O  O52  1  0.80334600  0.56287100  0.41524300  1
  O  O53  1  0.57222900  0.94509100  0.43304800  1
  O  O54  1  0.81660000  0.43549600  0.69888800  1
  O  O55  1  0.31153400  0.04353200  0.68588100  1
  O  O56  1  0.82908500  0.99931600  0.94277800  1
  O  O57  1  0.08487700  0.86240700  0.90325200  1
  O  O58  1  0.67320700  0.23148900  0.91420300  1
  O  O59  1  0.77673100  0.56889800  0.11206100  1
  O  O60  1  0.52002100  0.38657100  0.87000900  1
  O  O61  1  0.61141100  0.90459800  0.09159900  1
  O  O62  1  0.61342900  0.47997900  0.62999100  1
  O  O63  1  0.76851100  0.32679300  0.58579700  1
  O  O64  1  0.13759300  0.91512300  0.59674800  1
  O  O65  1  0.00068400  0.17091500  0.55722200  1
  O  O66  1  0.37547700  0.00002600  0.31762400  1
  O  O67  1  0.72425300  0.54508100  0.23834600  1
  O  O68  1  0.95646800  0.68846600  0.81411900  1
  O  O69  1  0.56450400  0.18340000  0.80111200  1
  O  O70  1  0.43549600  0.81660000  0.19888800  1
  O  O71  1  0.04353200  0.31153400  0.18588100  1
  O  O72  1  0.27574700  0.45491900  0.76165400  1
  O  O73  1  0.62452300  0.99997400  0.68237600  1
  O  O74  1  0.99931600  0.82908500  0.44277800  1
  O  O75  1  0.86240700  0.08487700  0.40325200  1
  O  O76  1  0.23148900  0.67320700  0.41420300  1
  O  O77  1  0.38657100  0.52002100  0.37000900  1
  O  O78  1  0.38858900  0.09540200  0.90840100  1
  O  O79  1  0.47997900  0.61342900  0.12999100  1
  O  O80  1  0.22326900  0.43110200  0.88793900  1
  O  O81  1  0.32679300  0.76851100  0.08579700  1
  O  O82  1  0.91512300  0.13759300  0.09674800  1
  O  O83  1  0.17091500  0.00068400  0.05722200  1
  O  O84  1  0.68846600  0.95646800  0.31411900  1
  O  O85  1  0.18340000  0.56450400  0.30111200  1
  O  O86  1  0.42777100  0.05490900  0.56695200  1
  O  O87  1  0.19665400  0.43712900  0.58475700  1
  O  O88  1  0.27371200  0.21212300  0.59074600  1
  O  O89  1  0.45491900  0.27574700  0.26165400  1
  O  O90  1  0.13573900  0.18624900  0.82517800  1
  O  O91  1  0.99997400  0.62452300  0.18237600  1
  O  O92  1  0.09540200  0.38858900  0.40840100  1
  O  O93  1  0.43110200  0.22326900  0.38793900  1
  O  O94  1  0.06220900  0.20914300  0.67721200  1
  O  O95  1  0.05490900  0.42777100  0.06695200  1
  O  O96  1  0.43712900  0.19665400  0.08475700  1
  O  O97  1  0.21212300  0.27371200  0.09074600  1
  O  O98  1  0.18624900  0.13573900  0.32517800  1
  O  O99  1  0.20914300  0.06220900  0.17721200  1
