# generated using pymatgen
data_Li12Nb14ZnO42
_symmetry_space_group_name_H-M   'P 1'
_cell_length_a   9.06114300
_cell_length_b   9.27631916
_cell_length_c   9.89582098
_cell_angle_alpha   103.60446016
_cell_angle_beta   98.78017150
_cell_angle_gamma   99.35907822
_symmetry_Int_Tables_number   1
_chemical_formula_structural   Li12Nb14ZnO42
_chemical_formula_sum   'Li12 Nb14 Zn1 O42'
_cell_volume   781.72157171
_cell_formula_units_Z   1
loop_
 _symmetry_equiv_pos_site_id
 _symmetry_equiv_pos_as_xyz
  1  'x, y, z'
loop_
 _atom_site_type_symbol
 _atom_site_label
 _atom_site_symmetry_multiplicity
 _atom_site_fract_x
 _atom_site_fract_y
 _atom_site_fract_z
 _atom_site_occupancy
  Li  Li0  1  0.31574000  0.04879100  0.85494000  1
  Li  Li1  1  0.60403700  0.19126300  0.42524000  1
  Li  Li2  1  0.52877600  0.40699900  0.78374500  1
  Li  Li3  1  0.24593500  0.26213600  0.21032600  1
  Li  Li4  1  0.17419700  0.47601200  0.56886100  1
  Li  Li5  1  0.81755500  0.54857100  0.35353600  1
  Li  Li6  1  0.10412100  0.69327700  0.92630700  1
  Li  Li7  1  0.74639900  0.76523300  0.71225500  1
  Li  Li8  1  0.45941600  0.61996700  0.13853400  1
  Li  Li9  1  0.38766400  0.83426100  0.49672600  1
  Li  Li10  1  0.03072900  0.90538500  0.28217700  1
  Li  Li11  1  0.67492000  0.97540600  0.06886700  1
  Nb  Nb12  1  0.64412900  0.07861300  0.79240100  1
  Nb  Nb13  1  0.29198700  0.14255500  0.57270700  1
  Nb  Nb14  1  0.92880300  0.21597200  0.35502300  1
  Nb  Nb15  1  0.21299600  0.35788600  0.93038800  1
  Nb  Nb16  1  0.85501000  0.43170700  0.71855100  1
  Nb  Nb17  1  0.57356400  0.28786700  0.14355300  1
  Nb  Nb18  1  0.49863100  0.50092600  0.49934400  1
  Nb  Nb19  1  0.42951200  0.71506100  0.85668000  1
  Nb  Nb20  1  0.14192100  0.57066400  0.28269000  1
  Nb  Nb21  1  0.78826800  0.63873500  0.06812200  1
  Nb  Nb22  1  0.07032800  0.77998600  0.64219300  1
  Nb  Nb23  1  0.71011500  0.85344400  0.42558800  1
  Nb  Nb24  1  0.35626800  0.92852700  0.21294000  1
  Nb  Nb25  1  0.99796300  0.00035800  0.99959500  1
  Zn  Zn26  1  0.95969200  0.11744800  0.64052300  1
  O  O27  1  0.83252000  0.08913300  0.95067100  1
  O  O28  1  0.44438300  0.02681700  0.66942800  1
  O  O29  1  0.53975600  0.13048600  0.96946700  1
  O  O30  1  0.16582700  0.13726600  0.97398800  1
  O  O31  1  0.69649400  0.28141100  0.78825500  1
  O  O32  1  0.73050500  0.16887300  0.24010100  1
  O  O33  1  0.82766600  0.27297300  0.54379600  1
  O  O34  1  0.41613200  0.13781000  0.22442700  1
  O  O35  1  0.32514600  0.27322000  0.79258100  1
  O  O36  1  0.04061900  0.13068700  0.22117200  1
  O  O37  1  0.45378100  0.28155800  0.54461100  1
  O  O38  1  0.12408800  0.23948900  0.52703900  1
  O  O39  1  0.01846500  0.30802300  0.80346600  1
  O  O40  1  0.98817800  0.42499300  0.36786200  1
  O  O41  1  0.90000100  0.56384700  0.93014200  1
  O  O42  1  0.61139700  0.41664100  0.36438400  1
  O  O43  1  0.69547600  0.52833900  0.66771300  1
  O  O44  1  0.58864300  0.59785500  0.95387800  1
  O  O45  1  0.73338900  0.43006500  0.12181700  1
  O  O46  1  0.27208100  0.56582300  0.93790900  1
  O  O47  1  0.40990400  0.38344800  0.09614400  1
  O  O48  1  0.30210500  0.45548000  0.38358000  1
  O  O49  1  0.39746700  0.55805400  0.68427000  1
  O  O50  1  0.12049200  0.41850800  0.11544800  1
  O  O51  1  0.02346000  0.56675300  0.68749800  1
  O  O52  1  0.97994200  0.67034000  0.23985600  1
  O  O53  1  0.87348500  0.74114200  0.52580600  1
  O  O54  1  0.96894800  0.84486900  0.82748700  1
  O  O55  1  0.56016900  0.71148100  0.51068600  1
  O  O56  1  0.68093700  0.70295700  0.25517500  1
  O  O57  1  0.18376200  0.70276300  0.50682100  1
  O  O58  1  0.59372300  0.85040500  0.82885100  1
  O  O59  1  0.26677300  0.81305800  0.81122500  1
  O  O60  1  0.31014500  0.71032700  0.26061000  1
  O  O61  1  0.84554800  0.85052700  0.08271500  1
  O  O62  1  0.75772300  0.99116700  0.65215100  1
  O  O63  1  0.46876300  0.84457700  0.07720200  1
  O  O64  1  0.88165000  0.99537700  0.40568600  1
  O  O65  1  0.55237700  0.95653700  0.38343400  1
  O  O66  1  0.12664900  0.99533200  0.65369400  1
  O  O67  1  0.15911500  0.88308600  0.09708000  1
  O  O68  1  0.25477300  0.98818000  0.39980100  1
