# generated using pymatgen
data_Li5FeS4
_symmetry_space_group_name_H-M   'P 1'
_cell_length_a   6.40299400
_cell_length_b   11.26627000
_cell_length_c   19.41057400
_cell_angle_alpha   90.00000000
_cell_angle_beta   90.00000000
_cell_angle_gamma   90.00000000
_symmetry_Int_Tables_number   1
_chemical_formula_structural   Li5FeS4
_chemical_formula_sum   'Li40 Fe8 S32'
_cell_volume   1400.23725444
_cell_formula_units_Z   8
loop_
 _symmetry_equiv_pos_site_id
 _symmetry_equiv_pos_as_xyz
  1  'x, y, z'
loop_
 _atom_site_type_symbol
 _atom_site_label
 _atom_site_symmetry_multiplicity
 _atom_site_fract_x
 _atom_site_fract_y
 _atom_site_fract_z
 _atom_site_occupancy
  Li  Li0  1  0.95889400  0.95325500  0.43469400  1
  Li  Li1  1  0.54110600  0.95325500  0.93469400  1
  Li  Li2  1  0.38432600  0.91358100  0.75354000  1
  Li  Li3  1  0.11567400  0.91358100  0.25354000  1
  Li  Li4  1  0.41052300  0.84243200  0.50555200  1
  Li  Li5  1  0.08947700  0.84243200  0.00555200  1
  Li  Li6  1  0.60845200  0.84337200  0.33955000  1
  Li  Li7  1  0.89154800  0.84337200  0.83955000  1
  Li  Li8  1  0.46736300  0.78801100  0.14033400  1
  Li  Li9  1  0.03263700  0.78801100  0.64033400  1
  Li  Li10  1  0.96736300  0.71198900  0.14033400  1
  Li  Li11  1  0.53263700  0.71198900  0.64033400  1
  Li  Li12  1  0.10845200  0.65662800  0.33955000  1
  Li  Li13  1  0.39154800  0.65662800  0.83955000  1
  Li  Li14  1  0.91052300  0.65756800  0.50555200  1
  Li  Li15  1  0.58947700  0.65756800  0.00555200  1
  Li  Li16  1  0.61567400  0.58641900  0.25354000  1
  Li  Li17  1  0.88432600  0.58641900  0.75354000  1
  Li  Li18  1  0.04110600  0.54674500  0.93469400  1
  Li  Li19  1  0.45889400  0.54674500  0.43469400  1
  Li  Li20  1  0.95889400  0.45325500  0.06530600  1
  Li  Li21  1  0.54110600  0.45325500  0.56530600  1
  Li  Li22  1  0.11567400  0.41358100  0.24646000  1
  Li  Li23  1  0.38432600  0.41358100  0.74646000  1
  Li  Li24  1  0.41052300  0.34243200  0.99444800  1
  Li  Li25  1  0.08947700  0.34243200  0.49444800  1
  Li  Li26  1  0.60845200  0.34337200  0.16045000  1
  Li  Li27  1  0.89154800  0.34337200  0.66045000  1
  Li  Li28  1  0.46736300  0.28801100  0.35966600  1
  Li  Li29  1  0.03263700  0.28801100  0.85966600  1
  Li  Li30  1  0.96736300  0.21198900  0.35966600  1
  Li  Li31  1  0.53263700  0.21198900  0.85966600  1
  Li  Li32  1  0.39154800  0.15662800  0.66045000  1
  Li  Li33  1  0.10845200  0.15662800  0.16045000  1
  Li  Li34  1  0.91052300  0.15756800  0.99444800  1
  Li  Li35  1  0.58947700  0.15756800  0.49444800  1
  Li  Li36  1  0.61567400  0.08641900  0.24646000  1
  Li  Li37  1  0.88432600  0.08641900  0.74646000  1
  Li  Li38  1  0.04110600  0.04674500  0.56530600  1
  Li  Li39  1  0.45889400  0.04674500  0.06530600  1
  Fe  Fe40  1  0.83717100  0.95716800  0.12630300  1
  Fe  Fe41  1  0.66282900  0.95716800  0.62630300  1
  Fe  Fe42  1  0.33717100  0.54283200  0.12630300  1
  Fe  Fe43  1  0.16282900  0.54283200  0.62630300  1
  Fe  Fe44  1  0.66282900  0.45716800  0.87369700  1
  Fe  Fe45  1  0.83717100  0.45716800  0.37369700  1
  Fe  Fe46  1  0.33717100  0.04283200  0.37369700  1
  Fe  Fe47  1  0.16282900  0.04283200  0.87369700  1
  S  S48  1  0.18817700  0.94049800  0.12390300  1
  S  S49  1  0.31182300  0.94049800  0.62390300  1
  S  S50  1  0.80573400  0.86214300  0.53456000  1
  S  S51  1  0.69426600  0.86214300  0.03456000  1
  S  S52  1  0.73616200  0.86155800  0.22272300  1
  S  S53  1  0.76383800  0.86155800  0.72272300  1
  S  S54  1  0.24265100  0.84948300  0.37779300  1
  S  S55  1  0.25734900  0.84948300  0.87779300  1
  S  S56  1  0.75734900  0.65051700  0.87779300  1
  S  S57  1  0.74265100  0.65051700  0.37779300  1
  S  S58  1  0.23616200  0.63844200  0.22272300  1
  S  S59  1  0.26383800  0.63844200  0.72272300  1
  S  S60  1  0.19426600  0.63785700  0.03456000  1
  S  S61  1  0.30573400  0.63785700  0.53456000  1
  S  S62  1  0.68817700  0.55950200  0.12390300  1
  S  S63  1  0.81182300  0.55950200  0.62390300  1
  S  S64  1  0.31182300  0.44049800  0.87609700  1
  S  S65  1  0.18817700  0.44049800  0.37609700  1
  S  S66  1  0.80573400  0.36214300  0.96544000  1
  S  S67  1  0.69426600  0.36214300  0.46544000  1
  S  S68  1  0.73616200  0.36155800  0.27727700  1
  S  S69  1  0.76383800  0.36155800  0.77727700  1
  S  S70  1  0.24265100  0.34948300  0.12220700  1
  S  S71  1  0.25734900  0.34948300  0.62220700  1
  S  S72  1  0.75734900  0.15051700  0.62220700  1
  S  S73  1  0.74265100  0.15051700  0.12220700  1
  S  S74  1  0.23616200  0.13844200  0.27727700  1
  S  S75  1  0.26383800  0.13844200  0.77727700  1
  S  S76  1  0.19426600  0.13785700  0.46544000  1
  S  S77  1  0.30573400  0.13785700  0.96544000  1
  S  S78  1  0.68817700  0.05950200  0.37609700  1
  S  S79  1  0.81182300  0.05950200  0.87609700  1
