# generated using pymatgen
data_Li2MnCu(PO4)2
_symmetry_space_group_name_H-M   'P 1'
_cell_length_a   6.14662100
_cell_length_b   4.77635700
_cell_length_c   10.27759859
_cell_angle_alpha   88.03094777
_cell_angle_beta   90.00000000
_cell_angle_gamma   90.00000000
_symmetry_Int_Tables_number   1
_chemical_formula_structural   Li2MnCu(PO4)2
_chemical_formula_sum   'Li4 Mn2 Cu2 P4 O16'
_cell_volume   301.55626402
_cell_formula_units_Z   2
loop_
 _symmetry_equiv_pos_site_id
 _symmetry_equiv_pos_as_xyz
  1  'x, y, z'
loop_
 _atom_site_type_symbol
 _atom_site_label
 _atom_site_symmetry_multiplicity
 _atom_site_fract_x
 _atom_site_fract_y
 _atom_site_fract_z
 _atom_site_occupancy
  Li  Li0  1  0.00000000  0.00000000  0.00000000  1
  Li  Li1  1  0.50000000  0.00000000  0.00000000  1
  Li  Li2  1  0.00000000  0.50000000  0.50000000  1
  Li  Li3  1  0.50000000  0.50000000  0.50000000  1
  Mn  Mn4  1  0.75000000  0.47937000  0.78105500  1
  Mn  Mn5  1  0.25000000  0.52063000  0.21894500  1
  Cu  Cu6  1  0.25000000  0.94592800  0.71473100  1
  Cu  Cu7  1  0.75000000  0.05407200  0.28526900  1
  P  P8  1  0.25000000  0.41161100  0.90077700  1
  P  P9  1  0.75000000  0.92519900  0.58820100  1
  P  P10  1  0.25000000  0.07480100  0.41179900  1
  P  P11  1  0.75000000  0.58838900  0.09922300  1
  O  O12  1  0.75000000  0.70812100  0.95623100  1
  O  O13  1  0.25000000  0.73764000  0.89254800  1
  O  O14  1  0.04555400  0.28269500  0.83493900  1
  O  O15  1  0.45444600  0.28269500  0.83493900  1
  O  O16  1  0.55001000  0.78361600  0.66017400  1
  O  O17  1  0.94999000  0.78361600  0.66017400  1
  O  O18  1  0.75000000  0.24574100  0.59053100  1
  O  O19  1  0.25000000  0.18980400  0.55262900  1
  O  O20  1  0.75000000  0.81019600  0.44737100  1
  O  O21  1  0.25000000  0.75425900  0.40946900  1
  O  O22  1  0.05001000  0.21638400  0.33982600  1
  O  O23  1  0.44999000  0.21638400  0.33982600  1
  O  O24  1  0.54555400  0.71730500  0.16506100  1
  O  O25  1  0.95444600  0.71730500  0.16506100  1
  O  O26  1  0.75000000  0.26236000  0.10745200  1
  O  O27  1  0.25000000  0.29187900  0.04376900  1
