# generated using pymatgen
data_Li2NbV3O8
_symmetry_space_group_name_H-M   'P 1'
_cell_length_a   8.59080000
_cell_length_b   8.59080000
_cell_length_c   8.59080000
_cell_angle_alpha   90.00000000
_cell_angle_beta   90.00000000
_cell_angle_gamma   90.00000000
_symmetry_Int_Tables_number   1
_chemical_formula_structural   Li2NbV3O8
_chemical_formula_sum   'Li8 Nb4 V12 O32'
_cell_volume   634.01688693
_cell_formula_units_Z   4
loop_
 _symmetry_equiv_pos_site_id
 _symmetry_equiv_pos_as_xyz
  1  'x, y, z'
loop_
 _atom_site_type_symbol
 _atom_site_label
 _atom_site_symmetry_multiplicity
 _atom_site_fract_x
 _atom_site_fract_y
 _atom_site_fract_z
 _atom_site_occupancy
  Li  Li0  1  0.99988400  0.99988400  0.99988400  1
  Li  Li1  1  0.25011600  0.25011600  0.25011600  1
  Li  Li2  1  0.24988400  0.74988400  0.75011600  1
  Li  Li3  1  0.50011600  0.00011600  0.49988400  1
  Li  Li4  1  0.49988400  0.50011600  0.00011600  1
  Li  Li5  1  0.75011600  0.24988400  0.74988400  1
  Li  Li6  1  0.74988400  0.75011600  0.24988400  1
  Li  Li7  1  0.00011600  0.49988400  0.50011600  1
  Nb  Nb8  1  0.12500000  0.87500000  0.37500000  1
  Nb  Nb9  1  0.37500000  0.12500000  0.87500000  1
  Nb  Nb10  1  0.62500000  0.62500000  0.62500000  1
  Nb  Nb11  1  0.87500000  0.37500000  0.12500000  1
  V  V12  1  0.12023500  0.12976500  0.62500000  1
  V  V13  1  0.12500000  0.37976500  0.87023500  1
  V  V14  1  0.12976500  0.62500000  0.12023500  1
  V  V15  1  0.37023500  0.37500000  0.62023500  1
  V  V16  1  0.37500000  0.62023500  0.37023500  1
  V  V17  1  0.37976500  0.87023500  0.12500000  1
  V  V18  1  0.62023500  0.37023500  0.37500000  1
  V  V19  1  0.62500000  0.12023500  0.12976500  1
  V  V20  1  0.62976500  0.87500000  0.87976500  1
  V  V21  1  0.87023500  0.12500000  0.37976500  1
  V  V22  1  0.87500000  0.87976500  0.62976500  1
  V  V23  1  0.87976500  0.62976500  0.87500000  1
  O  O24  1  0.11041200  0.11067700  0.38093900  1
  O  O25  1  0.11906100  0.88958800  0.61067700  1
  O  O26  1  0.11382100  0.61382100  0.88617900  1
  O  O27  1  0.13932300  0.13958800  0.86906100  1
  O  O28  1  0.11067700  0.38093900  0.11041200  1
  O  O29  1  0.13617900  0.36382100  0.63617900  1
  O  O30  1  0.13093900  0.63932300  0.36041200  1
  O  O31  1  0.13958800  0.86906100  0.13932300  1
  O  O32  1  0.36041200  0.13093900  0.63932300  1
  O  O33  1  0.36906100  0.36067700  0.86041200  1
  O  O34  1  0.36382100  0.63617900  0.13617900  1
  O  O35  1  0.38932300  0.61906100  0.61041200  1
  O  O36  1  0.36067700  0.86041200  0.36906100  1
  O  O37  1  0.38617900  0.38617900  0.38617900  1
  O  O38  1  0.38093900  0.11041200  0.11067700  1
  O  O39  1  0.38958800  0.88932300  0.88093900  1
  O  O40  1  0.61041200  0.38932300  0.61906100  1
  O  O41  1  0.61906100  0.61041200  0.38932300  1
  O  O42  1  0.61382100  0.88617900  0.11382100  1
  O  O43  1  0.63932300  0.36041200  0.13093900  1
  O  O44  1  0.61067700  0.11906100  0.88958800  1
  O  O45  1  0.63617900  0.13617900  0.36382100  1
  O  O46  1  0.63093900  0.86067700  0.63958800  1
  O  O47  1  0.63958800  0.63093900  0.86067700  1
  O  O48  1  0.86041200  0.36906100  0.36067700  1
  O  O49  1  0.86906100  0.13932300  0.13958800  1
  O  O50  1  0.86382100  0.86382100  0.86382100  1
  O  O51  1  0.88932300  0.88093900  0.38958800  1
  O  O52  1  0.86067700  0.63958800  0.63093900  1
  O  O53  1  0.88617900  0.11382100  0.61382100  1
  O  O54  1  0.88093900  0.38958800  0.88932300  1
  O  O55  1  0.88958800  0.61067700  0.11906100  1
