# generated using pymatgen
data_Li2Co3WO8
_symmetry_space_group_name_H-M   'P 1'
_cell_length_a   5.91839754
_cell_length_b   5.91839754
_cell_length_c   9.65509294
_cell_angle_alpha   89.88078693
_cell_angle_beta   89.88078693
_cell_angle_gamma   120.52545603
_symmetry_Int_Tables_number   1
_chemical_formula_structural   Li2Co3WO8
_chemical_formula_sum   'Li4 Co6 W2 O16'
_cell_volume   291.31817283
_cell_formula_units_Z   2
loop_
 _symmetry_equiv_pos_site_id
 _symmetry_equiv_pos_as_xyz
  1  'x, y, z'
loop_
 _atom_site_type_symbol
 _atom_site_label
 _atom_site_symmetry_multiplicity
 _atom_site_fract_x
 _atom_site_fract_y
 _atom_site_fract_z
 _atom_site_occupancy
  Li  Li0  1  0.66608000  0.33924200  0.09438700  1
  Li  Li1  1  0.99665300  0.99874300  0.00986500  1
  Li  Li2  1  0.99874300  0.99665300  0.50986500  1
  Li  Li3  1  0.33924200  0.66608000  0.59438700  1
  Co  Co4  1  0.82928400  0.65553700  0.78012000  1
  Co  Co5  1  0.33598600  0.17203100  0.78544900  1
  Co  Co6  1  0.82536700  0.17376000  0.78669600  1
  Co  Co7  1  0.17376000  0.82536700  0.28669600  1
  Co  Co8  1  0.65553700  0.82928400  0.28012000  1
  Co  Co9  1  0.17203100  0.33598600  0.28544900  1
  W  W10  1  0.66881700  0.32471100  0.51079700  1
  W  W11  1  0.32471100  0.66881700  0.01079700  1
  O  O12  1  0.85352800  0.65315300  0.41061700  1
  O  O13  1  0.52747500  0.48425200  0.63978300  1
  O  O14  1  0.67557200  0.34770300  0.88760500  1
  O  O15  1  0.98032700  0.99227700  0.70157100  1
  O  O16  1  0.99227700  0.98032700  0.20157100  1
  O  O17  1  0.34494200  0.14475500  0.41231100  1
  O  O18  1  0.96632500  0.46746700  0.65781800  1
  O  O19  1  0.54021400  0.03810500  0.65646300  1
  O  O20  1  0.16652900  0.83146500  0.91259800  1
  O  O21  1  0.83146500  0.16652900  0.41259800  1
  O  O22  1  0.46746700  0.96632500  0.15781800  1
  O  O23  1  0.03810500  0.54021400  0.15646300  1
  O  O24  1  0.34770300  0.67557200  0.38760500  1
  O  O25  1  0.65315300  0.85352800  0.91061700  1
  O  O26  1  0.48425200  0.52747500  0.13978300  1
  O  O27  1  0.14475500  0.34494200  0.91231100  1
