# generated using pymatgen
data_Li5Fe11O16
_symmetry_space_group_name_H-M   'P 1'
_cell_length_a   12.09918100
_cell_length_b   6.09275400
_cell_length_c   10.48786233
_cell_angle_alpha   54.46476023
_cell_angle_beta   90.00000000
_cell_angle_gamma   90.00000000
_symmetry_Int_Tables_number   1
_chemical_formula_structural   Li5Fe11O16
_chemical_formula_sum   'Li10 Fe22 O32'
_cell_volume   629.14677445
_cell_formula_units_Z   2
loop_
 _symmetry_equiv_pos_site_id
 _symmetry_equiv_pos_as_xyz
  1  'x, y, z'
loop_
 _atom_site_type_symbol
 _atom_site_label
 _atom_site_symmetry_multiplicity
 _atom_site_fract_x
 _atom_site_fract_y
 _atom_site_fract_z
 _atom_site_occupancy
  Li  Li0  1  0.12666400  0.01152500  0.74136500  1
  Li  Li1  1  0.62666400  0.98847500  0.75863500  1
  Li  Li2  1  0.74602300  0.50852900  0.99934300  1
  Li  Li3  1  0.50000000  0.50000000  0.00000000  1
  Li  Li4  1  0.25397700  0.49147100  0.00065700  1
  Li  Li5  1  0.87333600  0.98847500  0.25863500  1
  Li  Li6  1  0.37333600  0.01152500  0.24136500  1
  Li  Li7  1  0.00000000  0.50000000  0.50000000  1
  Li  Li8  1  0.24602300  0.49147100  0.50065700  1
  Li  Li9  1  0.75397700  0.50852900  0.49934300  1
  Fe  Fe10  1  0.12788300  0.50692100  0.74033200  1
  Fe  Fe11  1  0.37380100  0.49525400  0.75445200  1
  Fe  Fe12  1  0.87380100  0.50474600  0.74554800  1
  Fe  Fe13  1  0.62788300  0.49307900  0.75966800  1
  Fe  Fe14  1  0.37164000  0.98994600  0.75832800  1
  Fe  Fe15  1  0.87164000  0.01005400  0.74167200  1
  Fe  Fe16  1  0.74920500  0.00530500  0.00000000  1
  Fe  Fe17  1  0.25079500  0.99469500  0.00000000  1
  Fe  Fe18  1  0.00000000  0.50000000  0.00000000  1
  Fe  Fe19  1  0.00000000  0.00000000  0.00000000  1
  Fe  Fe20  1  0.50000000  0.00000000  0.00000000  1
  Fe  Fe21  1  0.62619900  0.50474600  0.24554800  1
  Fe  Fe22  1  0.12619900  0.49525400  0.25445200  1
  Fe  Fe23  1  0.62836000  0.01005400  0.24167200  1
  Fe  Fe24  1  0.87211700  0.49307900  0.25966800  1
  Fe  Fe25  1  0.37211700  0.50692100  0.24033200  1
  Fe  Fe26  1  0.12836000  0.98994600  0.25832800  1
  Fe  Fe27  1  0.00000000  0.00000000  0.50000000  1
  Fe  Fe28  1  0.50000000  0.00000000  0.50000000  1
  Fe  Fe29  1  0.75079500  0.00530500  0.50000000  1
  Fe  Fe30  1  0.24920500  0.99469500  0.50000000  1
  Fe  Fe31  1  0.50000000  0.50000000  0.50000000  1
  O  O32  1  0.50186200  0.26986800  0.74649800  1
  O  O33  1  0.24985600  0.27013400  0.74491500  1
  O  O34  1  0.74928600  0.27534000  0.74556700  1
  O  O35  1  0.00079800  0.25764500  0.75790900  1
  O  O36  1  0.50079800  0.74235500  0.74209100  1
  O  O37  1  0.00186200  0.73013200  0.75350200  1
  O  O38  1  0.24928600  0.72466000  0.75443300  1
  O  O39  1  0.74985600  0.72986600  0.75508500  1
  O  O40  1  0.62529200  0.75508200  0.01100700  1
  O  O41  1  0.12092700  0.75482100  0.00985700  1
  O  O42  1  0.11973300  0.23888000  0.99950600  1
  O  O43  1  0.62417000  0.26456600  0.99632500  1
  O  O44  1  0.87907300  0.24517900  0.99014300  1
  O  O45  1  0.88026700  0.76112000  0.00049400  1
  O  O46  1  0.37470800  0.24491800  0.98899300  1
  O  O47  1  0.37583000  0.73543400  0.00367500  1
  O  O48  1  0.25014400  0.27013400  0.24491500  1
  O  O49  1  0.99813800  0.26986800  0.24649800  1
  O  O50  1  0.75071400  0.27534000  0.24556700  1
  O  O51  1  0.49920200  0.25764500  0.25790900  1
  O  O52  1  0.25071400  0.72466000  0.25443300  1
  O  O53  1  0.99920200  0.74235500  0.24209100  1
  O  O54  1  0.75014400  0.72986600  0.25508500  1
  O  O55  1  0.49813800  0.73013200  0.25350200  1
  O  O56  1  0.37907300  0.75482100  0.50985700  1
  O  O57  1  0.87583000  0.26456600  0.49632500  1
  O  O58  1  0.38026700  0.23888000  0.49950600  1
  O  O59  1  0.87470800  0.75508200  0.51100700  1
  O  O60  1  0.61973300  0.76112000  0.50049400  1
  O  O61  1  0.12529200  0.24491800  0.48899300  1
  O  O62  1  0.62092700  0.24517900  0.49014300  1
  O  O63  1  0.12417000  0.73543400  0.50367500  1
