# generated using pymatgen
data_Li4V(PO4)2
_symmetry_space_group_name_H-M   'P 1'
_cell_length_a   6.23488732
_cell_length_b   10.54277072
_cell_length_c   10.49065076
_cell_angle_alpha   68.92653994
_cell_angle_beta   94.22843435
_cell_angle_gamma   95.78343992
_symmetry_Int_Tables_number   1
_chemical_formula_structural   Li4V(PO4)2
_chemical_formula_sum   'Li16 V4 P8 O32'
_cell_volume   639.66491534
_cell_formula_units_Z   4
loop_
 _symmetry_equiv_pos_site_id
 _symmetry_equiv_pos_as_xyz
  1  'x, y, z'
loop_
 _atom_site_type_symbol
 _atom_site_label
 _atom_site_symmetry_multiplicity
 _atom_site_fract_x
 _atom_site_fract_y
 _atom_site_fract_z
 _atom_site_occupancy
  Li  Li0  1  0.51714900  0.07688700  0.10776300  1
  Li  Li1  1  0.51718500  0.07693000  0.60774100  1
  Li  Li2  1  0.51724800  0.57691700  0.35775700  1
  Li  Li3  1  0.51712800  0.57694400  0.85773900  1
  Li  Li4  1  0.48287400  0.42310000  0.14224700  1
  Li  Li5  1  0.48279700  0.42307000  0.64228200  1
  Li  Li6  1  0.48281500  0.92305100  0.39225400  1
  Li  Li7  1  0.48281300  0.92307200  0.89225300  1
  Li  Li8  1  0.20575600  0.17650600  0.22128800  1
  Li  Li9  1  0.20570700  0.17644200  0.72135400  1
  Li  Li10  1  0.20568400  0.67641900  0.47136600  1
  Li  Li11  1  0.20574200  0.67648500  0.97129000  1
  Li  Li12  1  0.79426200  0.32348300  0.02873100  1
  Li  Li13  1  0.79433800  0.32357000  0.52867700  1
  Li  Li14  1  0.79432800  0.82352300  0.27872800  1
  Li  Li15  1  0.79430100  0.82355300  0.77867600  1
  V  V16  1  0.99988800  0.00001800  0.49977500  1
  V  V17  1  0.99986900  0.49997300  0.75009400  1
  V  V18  1  0.99998600  0.00004500  0.00000500  1
  V  V19  1  0.99997100  0.50008500  0.24985600  1
  P  P20  1  0.73083900  0.18362900  0.31737200  1
  P  P21  1  0.73074500  0.18358700  0.81750000  1
  P  P22  1  0.73077600  0.68359800  0.56748500  1
  P  P23  1  0.73080900  0.68361700  0.06743700  1
  P  P24  1  0.26919800  0.31638200  0.93263900  1
  P  P25  1  0.26923000  0.31642000  0.43251800  1
  P  P26  1  0.26922700  0.81638800  0.18256900  1
  P  P27  1  0.26916400  0.81642100  0.68253900  1
  O  O28  1  0.91811800  0.11274200  0.28647900  1
  O  O29  1  0.91801700  0.11268400  0.78676000  1
  O  O30  1  0.91802200  0.61268000  0.53676300  1
  O  O31  1  0.91807100  0.61277100  0.03654500  1
  O  O32  1  0.08193200  0.38725700  0.96349600  1
  O  O33  1  0.08191800  0.38732600  0.46322700  1
  O  O34  1  0.08196300  0.88724400  0.21342800  1
  O  O35  1  0.08190700  0.88732400  0.71323700  1
  O  O36  1  0.51163600  0.12293600  0.27656000  1
  O  O37  1  0.51156800  0.12293400  0.77660900  1
  O  O38  1  0.51160900  0.62293200  0.52660100  1
  O  O39  1  0.51158300  0.62295800  0.02659900  1
  O  O40  1  0.48846300  0.37701000  0.97342500  1
  O  O41  1  0.48842600  0.37705800  0.47340700  1
  O  O42  1  0.48846000  0.87700500  0.22342300  1
  O  O43  1  0.48833300  0.87708200  0.72343100  1
  O  O44  1  0.24529700  0.16057100  0.01655100  1
  O  O45  1  0.24530300  0.16061300  0.51640700  1
  O  O46  1  0.24531500  0.66058300  0.26643700  1
  O  O47  1  0.24523000  0.66063300  0.76656100  1
  O  O48  1  0.75476600  0.33939800  0.23344400  1
  O  O49  1  0.75467500  0.33940100  0.73357800  1
  O  O50  1  0.75474100  0.83936300  0.48344900  1
  O  O51  1  0.75470300  0.83942800  0.98356400  1
  O  O52  1  0.74950900  0.14797700  0.97648900  1
  O  O53  1  0.74954300  0.14810100  0.47634300  1
  O  O54  1  0.74953900  0.64799900  0.22643900  1
  O  O55  1  0.74941400  0.64803100  0.72648300  1
  O  O56  1  0.25056400  0.35199900  0.27353900  1
  O  O57  1  0.25045400  0.35190000  0.77366700  1
  O  O58  1  0.25056400  0.85196200  0.52355000  1
  O  O59  1  0.25052900  0.85198400  0.02357600  1
