# generated using pymatgen
data_LiMnF5
_symmetry_space_group_name_H-M   'P 1'
_cell_length_a   7.28219200
_cell_length_b   8.21073610
_cell_length_c   9.24346929
_cell_angle_alpha   98.44738246
_cell_angle_beta   95.65043512
_cell_angle_gamma   100.82096086
_symmetry_Int_Tables_number   1
_chemical_formula_structural   LiMnF5
_chemical_formula_sum   'Li6 Mn6 F30'
_cell_volume   532.43250102
_cell_formula_units_Z   6
loop_
 _symmetry_equiv_pos_site_id
 _symmetry_equiv_pos_as_xyz
  1  'x, y, z'
loop_
 _atom_site_type_symbol
 _atom_site_label
 _atom_site_symmetry_multiplicity
 _atom_site_fract_x
 _atom_site_fract_y
 _atom_site_fract_z
 _atom_site_occupancy
  Li  Li0  1  0.77936800  0.32529400  0.39738000  1
  Li  Li1  1  0.65311600  0.41223200  0.72261300  1
  Li  Li2  1  0.20119500  0.07727000  0.81829000  1
  Li  Li3  1  0.79880500  0.92273000  0.18171000  1
  Li  Li4  1  0.34688400  0.58776800  0.27738700  1
  Li  Li5  1  0.22063200  0.67470600  0.60262000  1
  Mn  Mn6  1  0.83424100  0.37783900  0.03617600  1
  Mn  Mn7  1  0.80273300  0.71073100  0.48224400  1
  Mn  Mn8  1  0.67242200  0.00358200  0.77961200  1
  Mn  Mn9  1  0.32757800  0.99641800  0.22038800  1
  Mn  Mn10  1  0.19726700  0.28926900  0.51775600  1
  Mn  Mn11  1  0.16575900  0.62216100  0.96382400  1
  F  F12  1  0.13206600  0.10486100  0.59836000  1
  F  F13  1  0.99622800  0.41496300  0.88057000  1
  F  F14  1  0.66590100  0.17931100  0.93882000  1
  F  F15  1  0.68576200  0.16700200  0.66141300  1
  F  F16  1  0.99155600  0.25748500  0.10148400  1
  F  F17  1  0.94809300  0.59367400  0.38269000  1
  F  F18  1  0.92743500  0.04787400  0.81525900  1
  F  F19  1  0.00303200  0.77266700  0.62703800  1
  F  F20  1  0.58857400  0.03000000  0.24600600  1
  F  F21  1  0.71181800  0.50672300  0.54990900  1
  F  F22  1  0.66545500  0.86502000  0.91448700  1
  F  F23  1  0.70521600  0.36676000  0.18973800  1
  F  F24  1  0.31893400  0.51137500  0.06250800  1
  F  F25  1  0.39287900  0.35087600  0.66848700  1
  F  F26  1  0.35008400  0.17481000  0.38219600  1
  F  F27  1  0.64991600  0.82519000  0.61780400  1
  F  F28  1  0.60712100  0.64912400  0.33151300  1
  F  F29  1  0.68106600  0.48862500  0.93749200  1
  F  F30  1  0.29478400  0.63324000  0.81026200  1
  F  F31  1  0.33454500  0.13498000  0.08551300  1
  F  F32  1  0.28818200  0.49327700  0.45009100  1
  F  F33  1  0.41142600  0.97000000  0.75399400  1
  F  F34  1  0.99696800  0.22733300  0.37296200  1
  F  F35  1  0.07256500  0.95212600  0.18474100  1
  F  F36  1  0.05190700  0.40632600  0.61731000  1
  F  F37  1  0.00844400  0.74251500  0.89851600  1
  F  F38  1  0.31423800  0.83299800  0.33858700  1
  F  F39  1  0.33409900  0.82068900  0.06118000  1
  F  F40  1  0.00377200  0.58503700  0.11943000  1
  F  F41  1  0.86793400  0.89513900  0.40164000  1
