# generated using pymatgen
data_LiCu5(PO4)2
_symmetry_space_group_name_H-M   'P 1'
_cell_length_a   5.52328800
_cell_length_b   6.25675010
_cell_length_c   10.47696282
_cell_angle_alpha   90.06286327
_cell_angle_beta   90.03082182
_cell_angle_gamma   90.00999076
_symmetry_Int_Tables_number   1
_chemical_formula_structural   LiCu5(PO4)2
_chemical_formula_sum   'Li2 Cu10 P4 O16'
_cell_volume   362.06085279
_cell_formula_units_Z   2
loop_
 _symmetry_equiv_pos_site_id
 _symmetry_equiv_pos_as_xyz
  1  'x, y, z'
loop_
 _atom_site_type_symbol
 _atom_site_label
 _atom_site_symmetry_multiplicity
 _atom_site_fract_x
 _atom_site_fract_y
 _atom_site_fract_z
 _atom_site_occupancy
  Li  Li0  1  0.67453200  0.24917700  0.49609200  1
  Li  Li1  1  0.32487800  0.74935600  0.24827700  1
  Cu  Cu2  1  0.79828800  0.00445600  0.75007100  1
  Cu  Cu3  1  0.80321500  0.99663000  0.24479300  1
  Cu  Cu4  1  0.65766200  0.24493900  0.00039500  1
  Cu  Cu5  1  0.33016100  0.25823000  0.24871500  1
  Cu  Cu6  1  0.34950600  0.25133100  0.75197400  1
  Cu  Cu7  1  0.19596000  0.49512100  0.99884700  1
  Cu  Cu8  1  0.20152100  0.50510100  0.49543700  1
  Cu  Cu9  1  0.34331300  0.74326800  0.74719400  1
  Cu  Cu10  1  0.65494700  0.75547000  0.49659800  1
  Cu  Cu11  1  0.66494000  0.75640900  0.00335200  1
  P  P12  1  0.17162900  0.99406800  0.00306600  1
  P  P13  1  0.17064500  0.00462200  0.49710100  1
  P  P14  1  0.82738900  0.50274000  0.25436000  1
  P  P15  1  0.83041600  0.49661700  0.74594200  1
  O  O16  1  0.17649900  0.99559900  0.64515400  1
  O  O17  1  0.90506600  0.01570900  0.44860000  1
  O  O18  1  0.18062200  0.99251600  0.15086500  1
  O  O19  1  0.91039600  0.99391300  0.94946600  1
  O  O20  1  0.32037800  0.20546800  0.45016900  1
  O  O21  1  0.30165500  0.19912600  0.94928300  1
  O  O22  1  0.69895200  0.29560400  0.19963100  1
  O  O23  1  0.69636300  0.29780800  0.68613300  1
  O  O24  1  0.82453200  0.49271200  0.89377700  1
  O  O25  1  0.09360500  0.49674200  0.69476900  1
  O  O26  1  0.81821600  0.49462200  0.40204400  1
  O  O27  1  0.09184600  0.51456700  0.20387300  1
  O  O28  1  0.69934600  0.70437800  0.69550700  1
  O  O29  1  0.67809800  0.70115500  0.20449100  1
  O  O30  1  0.29868700  0.80179900  0.43646800  1
  O  O31  1  0.30674200  0.79074200  0.95015100  1
