# generated using pymatgen
data_Li7Mn(OF)3
_symmetry_space_group_name_H-M   'P 1'
_cell_length_a   5.47735663
_cell_length_b   6.52415515
_cell_length_c   10.28970617
_cell_angle_alpha   84.38419777
_cell_angle_beta   76.22640041
_cell_angle_gamma   119.97240230
_symmetry_Int_Tables_number   1
_chemical_formula_structural   Li7Mn(OF)3
_chemical_formula_sum   'Li14 Mn2 O6 F6'
_cell_volume   298.92249106
_cell_formula_units_Z   2
loop_
 _symmetry_equiv_pos_site_id
 _symmetry_equiv_pos_as_xyz
  1  'x, y, z'
loop_
 _atom_site_type_symbol
 _atom_site_label
 _atom_site_symmetry_multiplicity
 _atom_site_fract_x
 _atom_site_fract_y
 _atom_site_fract_z
 _atom_site_occupancy
  Li  Li0  1  0.10251831  0.10045145  0.22487749  1
  Li  Li1  1  0.10716416  0.61913882  0.74636077  1
  Li  Li2  1  0.46100965  0.95166730  0.39656490  1
  Li  Li3  1  0.53248609  0.53290147  0.11999425  1
  Li  Li4  1  0.27025951  0.22614943  0.44531808  1
  Li  Li5  1  0.20201410  0.68162839  0.95145132  1
  Li  Li6  1  0.30271291  0.37424802  0.66642375  1
  Li  Li7  1  0.73200431  0.25704946  0.05576319  1
  Li  Li8  1  0.76347553  0.80996677  0.53873996  1
  Li  Li9  1  0.47318051  0.49139981  0.89000139  1
  Li  Li10  1  0.51374718  0.01187386  0.61753517  1
  Li  Li11  1  0.87895435  0.39436155  0.27700890  1
  Li  Li12  1  0.94002491  0.89722580  0.74064727  1
  Li  Li13  1  0.69146279  0.12829466  0.81526996  1
  Mn  Mn14  1  0.08623963  0.05818248  0.95541924  1
  Mn  Mn15  1  0.98865614  0.45192777  0.51720342  1
  O  O16  1  0.25145718  0.92659567  0.80845774  1
  O  O17  1  0.39163797  0.24894659  0.04251772  1
  O  O18  1  0.35709686  0.69492827  0.55869024  1
  O  O19  1  0.06192635  0.35735171  0.87533910  1
  O  O20  1  0.62136260  0.27608454  0.46544037  1
  O  O21  1  0.92995161  0.12664589  0.62522972  1
  F  F22  1  0.10034669  0.92624853  0.38289519  1
  F  F23  1  0.24033954  0.41948581  0.29585341  1
  F  F24  1  0.90604351  0.58656389  0.11760158  1
  F  F25  1  0.61113264  0.78813540  0.94905910  1
  F  F26  1  0.73370712  0.57909350  0.70706701  1
  F  F27  1  0.74908785  0.08345217  0.21326976  1
