# generated using pymatgen
data_Li3CrO4
_symmetry_space_group_name_H-M   'P 1'
_cell_length_a   5.80035035
_cell_length_b   5.80035035
_cell_length_c   9.06364990
_cell_angle_alpha   72.27788133
_cell_angle_beta   72.27788133
_cell_angle_gamma   90.14003112
_symmetry_Int_Tables_number   1
_chemical_formula_structural   Li3CrO4
_chemical_formula_sum   'Li12 Cr4 O16'
_cell_volume   275.15843515
_cell_formula_units_Z   4
loop_
 _symmetry_equiv_pos_site_id
 _symmetry_equiv_pos_as_xyz
  1  'x, y, z'
loop_
 _atom_site_type_symbol
 _atom_site_label
 _atom_site_symmetry_multiplicity
 _atom_site_fract_x
 _atom_site_fract_y
 _atom_site_fract_z
 _atom_site_occupancy
  Li  Li0  1  0.94053100  0.69497700  0.86691600  1
  Li  Li1  1  0.69497700  0.94053100  0.36691600  1
  Li  Li2  1  0.81862300  0.56203100  0.61932500  1
  Li  Li3  1  0.43918200  0.66951700  0.87577700  1
  Li  Li4  1  0.33048300  0.56081800  0.62422300  1
  Li  Li5  1  0.43796900  0.18137700  0.88067500  1
  Li  Li6  1  0.56203100  0.81862300  0.11932500  1
  Li  Li7  1  0.66951700  0.43918200  0.37577700  1
  Li  Li8  1  0.56081800  0.33048300  0.12422300  1
  Li  Li9  1  0.18137700  0.43796900  0.38067500  1
  Li  Li10  1  0.30502300  0.05946900  0.63308400  1
  Li  Li11  1  0.05946900  0.30502300  0.13308400  1
  Cr  Cr12  1  0.93887700  0.21552500  0.87649600  1
  Cr  Cr13  1  0.21552500  0.93887700  0.37649600  1
  Cr  Cr14  1  0.78447500  0.06112300  0.62350400  1
  Cr  Cr15  1  0.06112300  0.78447500  0.12350400  1
  O  O16  1  0.72034600  0.95989300  0.85526400  1
  O  O17  1  0.95989300  0.72034600  0.35526400  1
  O  O18  1  0.57893600  0.82896000  0.63281300  1
  O  O19  1  0.70460400  0.41515000  0.88234100  1
  O  O20  1  0.16782900  0.94402700  0.89514000  1
  O  O21  1  0.82896000  0.57893600  0.13281300  1
  O  O22  1  0.41515000  0.70460400  0.38234100  1
  O  O23  1  0.94402700  0.16782900  0.39514000  1
  O  O24  1  0.05597300  0.83217100  0.60486000  1
  O  O25  1  0.58485000  0.29539600  0.61765900  1
  O  O26  1  0.17104000  0.42106400  0.86718700  1
  O  O27  1  0.83217100  0.05597300  0.10486000  1
  O  O28  1  0.29539600  0.58485000  0.11765900  1
  O  O29  1  0.42106400  0.17104000  0.36718700  1
  O  O30  1  0.04010700  0.27965400  0.64473600  1
  O  O31  1  0.27965400  0.04010700  0.14473600  1
