# generated using pymatgen
data_LiVSiO4
_symmetry_space_group_name_H-M   'P 1'
_cell_length_a   7.32135000
_cell_length_b   7.32135000
_cell_length_c   7.32135000
_cell_angle_alpha   90.00000000
_cell_angle_beta   90.00000000
_cell_angle_gamma   90.00000000
_symmetry_Int_Tables_number   1
_chemical_formula_structural   LiVSiO4
_chemical_formula_sum   'Li4 V4 Si4 O16'
_cell_volume   392.44021674
_cell_formula_units_Z   4
loop_
 _symmetry_equiv_pos_site_id
 _symmetry_equiv_pos_as_xyz
  1  'x, y, z'
loop_
 _atom_site_type_symbol
 _atom_site_label
 _atom_site_symmetry_multiplicity
 _atom_site_fract_x
 _atom_site_fract_y
 _atom_site_fract_z
 _atom_site_occupancy
  Li  Li0  1  0.24796800  0.75203200  0.25203200  1
  Li  Li1  1  0.25203200  0.24796800  0.75203200  1
  Li  Li2  1  0.74796800  0.74796800  0.74796800  1
  Li  Li3  1  0.75203200  0.25203200  0.24796800  1
  V  V4  1  0.19444800  0.69444800  0.80555200  1
  V  V5  1  0.30555200  0.30555200  0.30555200  1
  V  V6  1  0.69444800  0.80555200  0.19444800  1
  V  V7  1  0.80555200  0.19444800  0.69444800  1
  Si  Si8  1  0.03091600  0.03091600  0.03091600  1
  Si  Si9  1  0.96908400  0.53091600  0.46908400  1
  Si  Si10  1  0.46908400  0.96908400  0.53091600  1
  Si  Si11  1  0.53091600  0.46908400  0.96908400  1
  O  O12  1  0.97421000  0.61606400  0.67842800  1
  O  O13  1  0.15804300  0.15804300  0.15804300  1
  O  O14  1  0.17842800  0.52579000  0.38393600  1
  O  O15  1  0.11606400  0.82157200  0.02579000  1
  O  O16  1  0.38393600  0.17842800  0.52579000  1
  O  O17  1  0.32157200  0.47421000  0.88393600  1
  O  O18  1  0.34195700  0.84195700  0.65804300  1
  O  O19  1  0.52579000  0.38393600  0.17842800  1
  O  O20  1  0.47421000  0.88393600  0.32157200  1
  O  O21  1  0.65804300  0.34195700  0.84195700  1
  O  O22  1  0.67842800  0.97421000  0.61606400  1
  O  O23  1  0.61606400  0.67842800  0.97421000  1
  O  O24  1  0.88393600  0.32157200  0.47421000  1
  O  O25  1  0.82157200  0.02579000  0.11606400  1
  O  O26  1  0.84195700  0.65804300  0.34195700  1
  O  O27  1  0.02579000  0.11606400  0.82157200  1
