# generated using pymatgen
data_Li4Ti3Cr3(TeO8)2
_symmetry_space_group_name_H-M   'P 1'
_cell_length_a   5.98813410
_cell_length_b   10.63855754
_cell_length_c   11.84667364
_cell_angle_alpha   116.48055276
_cell_angle_beta   104.63911937
_cell_angle_gamma   90.00873928
_symmetry_Int_Tables_number   1
_chemical_formula_structural   Li4Ti3Cr3(TeO8)2
_chemical_formula_sum   'Li8 Ti6 Cr6 Te4 O32'
_cell_volume   648.01410199
_cell_formula_units_Z   2
loop_
 _symmetry_equiv_pos_site_id
 _symmetry_equiv_pos_as_xyz
  1  'x, y, z'
loop_
 _atom_site_type_symbol
 _atom_site_label
 _atom_site_symmetry_multiplicity
 _atom_site_fract_x
 _atom_site_fract_y
 _atom_site_fract_z
 _atom_site_occupancy
  Li  Li0  1  0.45001000  0.78557100  0.89984500  1
  Li  Li1  1  0.95002700  0.28557200  0.89988100  1
  Li  Li2  1  0.99505300  0.98886500  0.99004400  1
  Li  Li3  1  0.49500500  0.48873100  0.98996700  1
  Li  Li4  1  0.24590800  0.24767900  0.49178400  1
  Li  Li5  1  0.74589700  0.74758300  0.49175700  1
  Li  Li6  1  0.70189300  0.36757900  0.40396100  1
  Li  Li7  1  0.20185800  0.86750600  0.40387000  1
  Ti  Ti8  1  0.86289200  0.68720300  0.72555600  1
  Ti  Ti9  1  0.36286000  0.18714800  0.72547500  1
  Ti  Ti10  1  0.36378100  0.51718100  0.22331300  1
  Ti  Ti11  1  0.86376800  0.01711500  0.22323800  1
  Ti  Ti12  1  0.85950500  0.51729800  0.22341100  1
  Ti  Ti13  1  0.35945600  0.01722500  0.22333900  1
  Cr  Cr14  1  0.10550600  0.44340900  0.71214700  1
  Cr  Cr15  1  0.60553400  0.94338000  0.71209700  1
  Cr  Cr16  1  0.60674400  0.44339800  0.71213700  1
  Cr  Cr17  1  0.10666800  0.94338000  0.71210000  1
  Cr  Cr18  1  0.10581600  0.27425600  0.21206000  1
  Cr  Cr19  1  0.60581300  0.77397300  0.21185200  1
  Te  Te20  1  0.25031700  0.59081900  0.50058300  1
  Te  Te21  1  0.75025600  0.09082800  0.50043700  1
  Te  Te22  1  0.99729700  0.64269800  0.99465700  1
  Te  Te23  1  0.49728700  0.14259200  0.99464100  1
  O  O24  1  0.16840500  0.65202300  0.33672600  1
  O  O25  1  0.66847600  0.15204600  0.33685600  1
  O  O26  1  0.05767300  0.39648400  0.11542600  1
  O  O27  1  0.55768200  0.89636200  0.11541600  1
  O  O28  1  0.15441000  0.15625500  0.30884800  1
  O  O29  1  0.65442600  0.65628500  0.30886500  1
  O  O30  1  0.90228800  0.89796500  0.80449700  1
  O  O31  1  0.40224700  0.39787600  0.80442000  1
  O  O32  1  0.55707200  0.40752900  0.11420400  1
  O  O33  1  0.05709200  0.90754900  0.11425100  1
  O  O34  1  0.30053000  0.45606100  0.60096100  1
  O  O35  1  0.80054000  0.95587100  0.60097200  1
  O  O36  1  0.80560800  0.47947600  0.61109800  1
  O  O37  1  0.30556900  0.97942500  0.61103000  1
  O  O38  1  0.91978900  0.44080100  0.83946300  1
  O  O39  1  0.41969800  0.94062600  0.83926600  1
  O  O40  1  0.55536200  0.72540300  0.60037700  1
  O  O41  1  0.05525100  0.22545900  0.60028000  1
  O  O42  1  0.04507200  0.72541600  0.60035900  1
  O  O43  1  0.54508800  0.22545900  0.60025600  1
  O  O44  1  0.41524600  0.43581300  0.33431800  1
  O  O45  1  0.91476800  0.93552300  0.33412200  1
  O  O46  1  0.91879200  0.43604400  0.33446500  1
  O  O47  1  0.41912200  0.93573500  0.33425300  1
  O  O48  1  0.14243800  0.65923500  0.82004100  1
  O  O49  1  0.64242100  0.15916600  0.81993000  1
  O  O50  1  0.67782900  0.65921700  0.82007400  1
  O  O51  1  0.17774600  0.15916300  0.81997400  1
  O  O52  1  0.79117700  0.11058500  0.08921000  1
  O  O53  1  0.29143600  0.61080900  0.08925600  1
  O  O54  1  0.29813100  0.11047800  0.08913200  1
  O  O55  1  0.79789500  0.61070700  0.08918200  1
