# generated using pymatgen
data_Li2FeO2F
_symmetry_space_group_name_H-M   'P 1'
_cell_length_a   5.18057437
_cell_length_b   5.18057762
_cell_length_c   9.84950552
_cell_angle_alpha   85.11539704
_cell_angle_beta   94.88481065
_cell_angle_gamma   60.16508908
_symmetry_Int_Tables_number   1
_chemical_formula_structural   Li2FeO2F
_chemical_formula_sum   'Li8 Fe4 O8 F4'
_cell_volume   225.97607232
_cell_formula_units_Z   4
loop_
 _symmetry_equiv_pos_site_id
 _symmetry_equiv_pos_as_xyz
  1  'x, y, z'
loop_
 _atom_site_type_symbol
 _atom_site_label
 _atom_site_symmetry_multiplicity
 _atom_site_fract_x
 _atom_site_fract_y
 _atom_site_fract_z
 _atom_site_occupancy
  Li  Li0  1  0.59970400  0.59972100  0.75000000  1
  Li  Li1  1  0.40026500  0.40028300  0.25000100  1
  Li  Li2  1  0.22551800  0.22552700  0.75000100  1
  Li  Li3  1  0.77446400  0.77447800  0.25000000  1
  Li  Li4  1  0.90799100  0.90801300  0.75000100  1
  Li  Li5  1  0.09196300  0.09197500  0.25000000  1
  Li  Li6  1  0.99996600  0.50003000  0.99999900  1
  Li  Li7  1  0.50001200  0.99998400  0.50000100  1
  Fe  Fe8  1  0.31260800  0.87465400  0.00149300  1
  Fe  Fe9  1  0.87472700  0.31254400  0.49850500  1
  Fe  Fe10  1  0.12557900  0.68725300  0.50150400  1
  Fe  Fe11  1  0.68731700  0.12551500  0.99849300  1
  O  O12  1  0.19501100  0.94930000  0.61657900  1
  O  O13  1  0.05062100  0.80504200  0.11656600  1
  O  O14  1  0.94928800  0.19502900  0.88342000  1
  O  O15  1  0.80501900  0.05063700  0.38343100  1
  O  O16  1  0.60495700  0.88178300  0.88187000  1
  O  O17  1  0.11827800  0.39501500  0.38185000  1
  O  O18  1  0.88175900  0.60496900  0.61813600  1
  O  O19  1  0.39500200  0.11829000  0.11814900  1
  F  F20  1  0.30467300  0.53815000  0.88065400  1
  F  F21  1  0.46182300  0.69531200  0.38065600  1
  F  F22  1  0.53814600  0.30467800  0.61934700  1
  F  F23  1  0.69531000  0.46182000  0.11934600  1
