# generated using pymatgen
data_Li4Ti3Ni3(SbO8)2
_symmetry_space_group_name_H-M   'P 1'
_cell_length_a   5.98651864
_cell_length_b   5.98651864
_cell_length_c   9.70472983
_cell_angle_alpha   89.48284370
_cell_angle_beta   89.48284370
_cell_angle_gamma   59.76107250
_symmetry_Int_Tables_number   1
_chemical_formula_structural   Li4Ti3Ni3(SbO8)2
_chemical_formula_sum   'Li4 Ti3 Ni3 Sb2 O16'
_cell_volume   300.46132663
_cell_formula_units_Z   1
loop_
 _symmetry_equiv_pos_site_id
 _symmetry_equiv_pos_as_xyz
  1  'x, y, z'
loop_
 _atom_site_type_symbol
 _atom_site_label
 _atom_site_symmetry_multiplicity
 _atom_site_fract_x
 _atom_site_fract_y
 _atom_site_fract_z
 _atom_site_occupancy
  Li  Li0  1  0.66338400  0.66338400  0.10497200  1
  Li  Li1  1  0.99220500  0.99220500  0.01816300  1
  Li  Li2  1  0.99929800  0.99929800  0.50450700  1
  Li  Li3  1  0.33227300  0.33227300  0.59297700  1
  Ti  Ti4  1  0.34064400  0.83467100  0.78597100  1
  Ti  Ti5  1  0.83467100  0.34064400  0.78597100  1
  Ti  Ti6  1  0.17327600  0.17327600  0.28256400  1
  Ni  Ni7  1  0.82811000  0.82811000  0.78852500  1
  Ni  Ni8  1  0.17063300  0.65750900  0.28849800  1
  Ni  Ni9  1  0.65750900  0.17063300  0.28849800  1
  Sb  Sb10  1  0.67186000  0.67186000  0.50599100  1
  Sb  Sb11  1  0.34207100  0.34207100  0.01766100  1
  O  O12  1  0.33972300  0.83829000  0.40493100  1
  O  O13  1  0.52049300  0.52049300  0.66056700  1
  O  O14  1  0.65286000  0.65286000  0.89470900  1
  O  O15  1  0.00553600  0.00553600  0.69688800  1
  O  O16  1  0.00837500  0.00837500  0.20211600  1
  O  O17  1  0.83829000  0.33972300  0.40493100  1
  O  O18  1  0.50723200  0.95818000  0.65749500  1
  O  O19  1  0.95818000  0.50723200  0.65749500  1
  O  O20  1  0.17218300  0.17218300  0.89445000  1
  O  O21  1  0.83771600  0.83771600  0.41195000  1
  O  O22  1  0.03444200  0.47192000  0.14680000  1
  O  O23  1  0.47192000  0.03444200  0.14680000  1
  O  O24  1  0.31917100  0.31917100  0.39624600  1
  O  O25  1  0.17460500  0.66932100  0.90053300  1
  O  O26  1  0.48367100  0.48367100  0.15138800  1
  O  O27  1  0.66932100  0.17460500  0.90053300  1
