# generated using pymatgen
data_LiBi2PO6
_symmetry_space_group_name_H-M   'P 1'
_cell_length_a   5.67074700
_cell_length_b   9.95570800
_cell_length_c   14.17738245
_cell_angle_alpha   45.45368220
_cell_angle_beta   90.00000000
_cell_angle_gamma   90.00000000
_symmetry_Int_Tables_number   1
_chemical_formula_structural   LiBi2PO6
_chemical_formula_sum   'Li4 Bi8 P4 O24'
_cell_volume   570.43379060
_cell_formula_units_Z   4
loop_
 _symmetry_equiv_pos_site_id
 _symmetry_equiv_pos_as_xyz
  1  'x, y, z'
loop_
 _atom_site_type_symbol
 _atom_site_label
 _atom_site_symmetry_multiplicity
 _atom_site_fract_x
 _atom_site_fract_y
 _atom_site_fract_z
 _atom_site_occupancy
  Li  Li0  1  0.24381700  0.88859700  0.00075900  1
  Li  Li1  1  0.25618300  0.88859700  0.50075900  1
  Li  Li2  1  0.74381700  0.11140300  0.49924100  1
  Li  Li3  1  0.75618300  0.11140300  0.99924100  1
  Bi  Bi4  1  0.23383600  0.85723400  0.75042200  1
  Bi  Bi5  1  0.73425600  0.64087200  0.74948400  1
  Bi  Bi6  1  0.23425600  0.35912800  0.75051600  1
  Bi  Bi7  1  0.73383600  0.14276600  0.74957800  1
  Bi  Bi8  1  0.26616400  0.85723400  0.25042200  1
  Bi  Bi9  1  0.76574400  0.64087200  0.24948400  1
  Bi  Bi10  1  0.26574400  0.35912800  0.25051600  1
  Bi  Bi11  1  0.76616400  0.14276600  0.24957800  1
  P  P12  1  0.74778100  0.65907200  0.99863600  1
  P  P13  1  0.75221900  0.65907200  0.49863600  1
  P  P14  1  0.24778100  0.34092800  0.50136400  1
  P  P15  1  0.25221900  0.34092800  0.00136400  1
  O  O16  1  0.05891400  0.31361900  0.93773400  1
  O  O17  1  0.55135700  0.81208900  0.93362200  1
  O  O18  1  0.86390400  0.67846800  0.88959100  1
  O  O19  1  0.36525300  0.54051500  0.89089400  1
  O  O20  1  0.55222000  0.19601500  0.85163200  1
  O  O21  1  0.04984100  0.10368500  0.85223000  1
  O  O22  1  0.05222000  0.80398500  0.64836800  1
  O  O23  1  0.54984100  0.89631500  0.64777000  1
  O  O24  1  0.86525300  0.45948500  0.60910600  1
  O  O25  1  0.36390400  0.32153200  0.61040900  1
  O  O26  1  0.05135700  0.18791100  0.56637800  1
  O  O27  1  0.55891400  0.68638100  0.56226600  1
  O  O28  1  0.44108600  0.31361900  0.43773400  1
  O  O29  1  0.94864300  0.81208900  0.43362200  1
  O  O30  1  0.63609600  0.67846800  0.38959100  1
  O  O31  1  0.13474700  0.54051500  0.39089400  1
  O  O32  1  0.45015900  0.10368500  0.35223000  1
  O  O33  1  0.94778000  0.19601500  0.35163200  1
  O  O34  1  0.95015900  0.89631500  0.14777000  1
  O  O35  1  0.44778000  0.80398500  0.14836800  1
  O  O36  1  0.63474700  0.45948500  0.10910600  1
  O  O37  1  0.13609600  0.32153200  0.11040900  1
  O  O38  1  0.44864300  0.18791100  0.06637800  1
  O  O39  1  0.94108600  0.68638100  0.06226600  1
