# generated using pymatgen
data_Li2NiSnO4
_symmetry_space_group_name_H-M   'P 1'
_cell_length_a   5.98818842
_cell_length_b   5.98816700
_cell_length_c   9.85296215
_cell_angle_alpha   72.30954786
_cell_angle_beta   107.69047143
_cell_angle_gamma   89.99880530
_symmetry_Int_Tables_number   1
_chemical_formula_structural   Li2NiSnO4
_chemical_formula_sum   'Li8 Ni4 Sn4 O16'
_cell_volume   319.02106682
_cell_formula_units_Z   4
loop_
 _symmetry_equiv_pos_site_id
 _symmetry_equiv_pos_as_xyz
  1  'x, y, z'
loop_
 _atom_site_type_symbol
 _atom_site_label
 _atom_site_symmetry_multiplicity
 _atom_site_fract_x
 _atom_site_fract_y
 _atom_site_fract_z
 _atom_site_occupancy
  Li  Li0  1  0.87499800  0.62500100  0.25000000  1
  Li  Li1  1  0.37499800  0.12500100  0.25000000  1
  Li  Li2  1  0.62499900  0.37500100  0.75000000  1
  Li  Li3  1  0.12499800  0.87500100  0.75000000  1
  Li  Li4  1  0.50000000  0.00000000  0.00000100  1
  Li  Li5  1  0.99999900  0.50000000  0.00000100  1
  Li  Li6  1  0.24999900  0.75000000  0.50000100  1
  Li  Li7  1  0.74999900  0.25000000  0.50000000  1
  Ni  Ni8  1  0.74999500  0.75000000  0.50000300  1
  Ni  Ni9  1  0.49999500  0.49999800  0.99999900  1
  Ni  Ni10  1  0.25000200  0.25000000  0.49999900  1
  Ni  Ni11  1  0.00001700  0.00000400  0.99999900  1
  Sn  Sn12  1  0.37500700  0.62499800  0.25000000  1
  Sn  Sn13  1  0.87500500  0.12499600  0.24999900  1
  Sn  Sn14  1  0.12500200  0.37499500  0.75000100  1
  Sn  Sn15  1  0.62500800  0.87499400  0.75000100  1
  O  O16  1  0.48968200  0.51032000  0.47935700  1
  O  O17  1  0.98967400  0.01032200  0.47935700  1
  O  O18  1  0.23967700  0.26032500  0.97935700  1
  O  O19  1  0.73967900  0.76031700  0.97935600  1
  O  O20  1  0.26032400  0.73968100  0.02064300  1
  O  O21  1  0.76031600  0.23967900  0.02064200  1
  O  O22  1  0.01032000  0.48968400  0.52064200  1
  O  O23  1  0.51031900  0.98967600  0.52064300  1
  O  O24  1  0.63154400  0.86845500  0.26309300  1
  O  O25  1  0.13154300  0.36845500  0.26309100  1
  O  O26  1  0.38154400  0.61845600  0.76309300  1
  O  O27  1  0.88154400  0.11845500  0.76309200  1
  O  O28  1  0.61845300  0.38154700  0.23690700  1
  O  O29  1  0.11845300  0.88154700  0.23690800  1
  O  O30  1  0.36845400  0.13154600  0.73690900  1
  O  O31  1  0.86845300  0.63154600  0.73690700  1
