# generated using pymatgen
data_Li2VO2F
_symmetry_space_group_name_H-M   'P 1'
_cell_length_a   13.14855669
_cell_length_b   13.14855669
_cell_length_c   7.36353257
_cell_angle_alpha   89.82557003
_cell_angle_beta   89.82557003
_cell_angle_gamma   13.11664290
_symmetry_Int_Tables_number   1
_chemical_formula_structural   Li2VO2F
_chemical_formula_sum   'Li10 V5 O10 F5'
_cell_volume   288.89519166
_cell_formula_units_Z   5
loop_
 _symmetry_equiv_pos_site_id
 _symmetry_equiv_pos_as_xyz
  1  'x, y, z'
loop_
 _atom_site_type_symbol
 _atom_site_label
 _atom_site_symmetry_multiplicity
 _atom_site_fract_x
 _atom_site_fract_y
 _atom_site_fract_z
 _atom_site_occupancy
  Li  Li0  1  0.47277600  0.47277600  0.14106300  1
  Li  Li1  1  0.07278500  0.07278500  0.13592300  1
  Li  Li2  1  0.25893800  0.25893800  0.15998300  1
  Li  Li3  1  0.32396100  0.32396100  0.84796300  1
  Li  Li4  1  0.12398800  0.12398800  0.86812500  1
  Li  Li5  1  0.65683300  0.65683300  0.14329000  1
  Li  Li6  1  0.85901000  0.85901000  0.15247500  1
  Li  Li7  1  0.92851500  0.92851500  0.84615000  1
  Li  Li8  1  0.53935300  0.53935300  0.85547700  1
  Li  Li9  1  0.72345900  0.72345900  0.84095100  1
  V  V10  1  0.99745900  0.99745900  0.50741500  1
  V  V11  1  0.19608100  0.19608100  0.49789000  1
  V  V12  1  0.39079200  0.39079200  0.51805300  1
  V  V13  1  0.59720000  0.59720000  0.49775300  1
  V  V14  1  0.79405700  0.79405700  0.50106100  1
  O  O15  1  0.45808900  0.45808900  0.63878800  1
  O  O16  1  0.26329800  0.26329800  0.65315900  1
  O  O17  1  0.06212300  0.06212300  0.64789500  1
  O  O18  1  0.12975900  0.12975900  0.35168500  1
  O  O19  1  0.33084200  0.33084200  0.35043800  1
  O  O20  1  0.66425800  0.66425800  0.64340800  1
  O  O21  1  0.86085400  0.86085400  0.66002300  1
  O  O22  1  0.73141400  0.73141400  0.34566200  1
  O  O23  1  0.52583500  0.52583500  0.35405500  1
  O  O24  1  0.59656100  0.59656100  0.00150600  1
  F  F25  1  0.99052300  0.99052300  0.99256400  1
  F  F26  1  0.20016600  0.20016600  0.99878700  1
  F  F27  1  0.39449900  0.39449900  0.00453700  1
  F  F28  1  0.92604000  0.92604000  0.34104400  1
  F  F29  1  0.79657000  0.79657000  0.00287300  1
