# generated using pymatgen
data_Li3MnV(PO4)3
_symmetry_space_group_name_H-M   'P 1'
_cell_length_a   8.47626184
_cell_length_b   8.47626184
_cell_length_c   8.67556347
_cell_angle_alpha   61.73388549
_cell_angle_beta   61.73388549
_cell_angle_gamma   63.47523218
_symmetry_Int_Tables_number   1
_chemical_formula_structural   Li3MnV(PO4)3
_chemical_formula_sum   'Li6 Mn2 V2 P6 O24'
_cell_volume   463.24283703
_cell_formula_units_Z   2
loop_
 _symmetry_equiv_pos_site_id
 _symmetry_equiv_pos_as_xyz
  1  'x, y, z'
loop_
 _atom_site_type_symbol
 _atom_site_label
 _atom_site_symmetry_multiplicity
 _atom_site_fract_x
 _atom_site_fract_y
 _atom_site_fract_z
 _atom_site_occupancy
  Li  Li0  1  0.74656000  0.87215600  0.90714100  1
  Li  Li1  1  0.00446000  0.49871800  0.75100500  1
  Li  Li2  1  0.87232900  0.74415300  0.40678600  1
  Li  Li3  1  0.12784400  0.25344000  0.09285900  1
  Li  Li4  1  0.50128200  0.99554000  0.24899500  1
  Li  Li5  1  0.25584700  0.12767100  0.59321400  1
  Mn  Mn6  1  0.14302800  0.63803700  0.90038800  1
  Mn  Mn7  1  0.36196300  0.85697200  0.09961200  1
  V  V8  1  0.63786500  0.14445500  0.39414800  1
  V  V9  1  0.85554500  0.36213500  0.60585200  1
  P  P10  1  0.44998000  0.24704700  0.78498900  1
  P  P11  1  0.04826600  0.95173400  0.50000000  1
  P  P12  1  0.75295300  0.55002000  0.21501100  1
  P  P13  1  0.25166500  0.45008000  0.28622800  1
  P  P14  1  0.94338600  0.05661400  0.00000000  1
  P  P15  1  0.54992000  0.74833500  0.71377200  1
  O  O16  1  0.54171200  0.80952600  0.85999200  1
  O  O17  1  0.96795000  0.89284300  0.95044100  1
  O  O18  1  0.38334400  0.67896200  0.77779500  1
  O  O19  1  0.23369300  0.94443400  0.33100100  1
  O  O20  1  0.25357900  0.38715200  0.82501700  1
  O  O21  1  0.61284800  0.74642100  0.17498300  1
  O  O22  1  0.91913100  0.54163300  0.02457300  1
  O  O23  1  0.88297300  0.98011500  0.44892200  1
  O  O24  1  0.93180100  0.24284700  0.83221400  1
  O  O25  1  0.32103800  0.61665600  0.22220500  1
  O  O26  1  0.54607200  0.91096900  0.52457600  1
  O  O27  1  0.19047400  0.45828800  0.14000800  1
  O  O28  1  0.81935900  0.52953000  0.36260000  1
  O  O29  1  0.45836700  0.08086900  0.97542700  1
  O  O30  1  0.68201300  0.38788000  0.27389900  1
  O  O31  1  0.05556600  0.76630700  0.66899900  1
  O  O32  1  0.10715700  0.03205000  0.04955900  1
  O  O33  1  0.08903100  0.45392800  0.47542400  1
  O  O34  1  0.39750300  0.25613400  0.32891600  1
  O  O35  1  0.74386600  0.60249700  0.67108400  1
  O  O36  1  0.75715300  0.06819900  0.16778600  1
  O  O37  1  0.61211900  0.31798700  0.72610100  1
  O  O38  1  0.01988500  0.11702700  0.55107800  1
  O  O39  1  0.47047000  0.18064100  0.63740000  1
