# generated using pymatgen
data_Li3Mn4(BO3)4
_symmetry_space_group_name_H-M   'P 1'
_cell_length_a   9.08967300
_cell_length_b   9.12175508
_cell_length_c   10.38581839
_cell_angle_alpha   88.45017295
_cell_angle_beta   88.66351661
_cell_angle_gamma   60.34795743
_symmetry_Int_Tables_number   1
_chemical_formula_structural   Li3Mn4(BO3)4
_chemical_formula_sum   'Li9 Mn12 B12 O36'
_cell_volume   748.03645450
_cell_formula_units_Z   3
loop_
 _symmetry_equiv_pos_site_id
 _symmetry_equiv_pos_as_xyz
  1  'x, y, z'
loop_
 _atom_site_type_symbol
 _atom_site_label
 _atom_site_symmetry_multiplicity
 _atom_site_fract_x
 _atom_site_fract_y
 _atom_site_fract_z
 _atom_site_occupancy
  Li  Li0  1  0.61506400  0.60940200  0.09390000  1
  Li  Li1  1  0.71289600  0.72940900  0.31959200  1
  Li  Li2  1  0.74806500  0.69086200  0.85065900  1
  Li  Li3  1  0.94131900  0.94779400  0.60332300  1
  Li  Li4  1  0.03563700  0.07811300  0.35454900  1
  Li  Li5  1  0.05754900  0.04261200  0.82160600  1
  Li  Li6  1  0.28687400  0.27940200  0.58554200  1
  Li  Li7  1  0.36578200  0.40193300  0.32483300  1
  Li  Li8  1  0.40294700  0.38030200  0.84122500  1
  Mn  Mn9  1  0.25686100  0.96322800  0.11943900  1
  Mn  Mn10  1  0.39443200  0.72716000  0.86528600  1
  Mn  Mn11  1  0.60988900  0.90592900  0.61528800  1
  Mn  Mn12  1  0.69126300  0.39925800  0.37536600  1
  Mn  Mn13  1  0.98035200  0.59995700  0.11636200  1
  Mn  Mn14  1  0.92708100  0.31316500  0.62171100  1
  Mn  Mn15  1  0.05041700  0.74076900  0.36666900  1
  Mn  Mn16  1  0.07770600  0.36509300  0.87956800  1
  Mn  Mn17  1  0.29976700  0.61052200  0.61216400  1
  Mn  Mn18  1  0.38701900  0.05691200  0.36103700  1
  Mn  Mn19  1  0.60400500  0.26573300  0.11967600  1
  Mn  Mn20  1  0.71300000  0.03863600  0.86712800  1
  B  B21  1  0.26791800  0.96011900  0.62079200  1
  B  B22  1  0.38379300  0.72993600  0.36898500  1
  B  B23  1  0.61466500  0.92995400  0.11152700  1
  B  B24  1  0.72684600  0.38162400  0.86907000  1
  B  B25  1  0.91817600  0.30030100  0.13872700  1
  B  B26  1  0.96597500  0.59941600  0.63207900  1
  B  B27  1  0.04964900  0.40431600  0.37542500  1
  B  B28  1  0.06657200  0.71707100  0.86932200  1
  B  B29  1  0.27834800  0.62296900  0.12231800  1
  B  B30  1  0.39077900  0.05023800  0.87436500  1
  B  B31  1  0.61850100  0.25498400  0.63292300  1
  B  B32  1  0.71677300  0.05369000  0.38199900  1
  O  O33  1  0.27531300  0.90014600  0.34100600  1
  O  O34  1  0.28072100  0.98808200  0.90625600  1
  O  O35  1  0.36121200  0.70820200  0.07782400  1
  O  O36  1  0.36244200  0.79193600  0.66082800  1
  O  O37  1  0.55551300  0.65857900  0.36485500  1
  O  O38  1  0.56158100  0.93391900  0.84290800  1
  O  O39  1  0.64772500  0.94861400  0.40941200  1
  O  O40  1  0.64958500  0.55010500  0.89264100  1
  O  O41  1  0.71269700  0.75837800  0.12540300  1
  O  O42  1  0.71297200  0.32333000  0.57772700  1
  O  O43  1  0.74607600  0.38484300  0.17056600  1
  O  O44  1  0.79903000  0.67360300  0.66361600  1
  O  O45  1  0.88607400  0.99361100  0.40461600  1
  O  O46  1  0.89247900  0.29647900  0.81427800  1
  O  O47  1  0.96655600  0.56291500  0.31097900  1
  O  O48  1  0.98861600  0.62706600  0.92366800  1
  O  O49  1  0.94629300  0.34273600  0.42951700  1
  O  O50  1  0.97209600  0.88758900  0.84877000  1
  O  O51  1  0.01891700  0.13658200  0.17136500  1
  O  O52  1  0.04290300  0.68474400  0.57694600  1
  O  O53  1  0.98478200  0.39034600  0.07198700  1
  O  O54  1  0.06473800  0.42279500  0.65992100  1
  O  O55  1  0.10308300  0.71984400  0.15412100  1
  O  O56  1  0.09339400  0.04623900  0.62932800  1
  O  O57  1  0.22072500  0.31788200  0.38789800  1
  O  O58  1  0.23595700  0.62300600  0.83382400  1
  O  O59  1  0.31255100  0.62677100  0.40270200  1
  O  O60  1  0.33468000  0.21821800  0.87166700  1
  O  O61  1  0.35721700  0.45248100  0.13879500  1
  O  O62  1  0.35544100  0.04197300  0.57733200  1
  O  O63  1  0.45140900  0.01710700  0.15942100  1
  O  O64  1  0.44687000  0.35079700  0.64229800  1
  O  O65  1  0.61123900  0.21740800  0.33453600  1
  O  O66  1  0.64745100  0.28784600  0.90140500  1
  O  O67  1  0.68331300  0.02545300  0.05256100  1
  O  O68  1  0.70348500  0.08447400  0.67558800  1
