# generated using pymatgen
data_Li5V5Cr2O12
_symmetry_space_group_name_H-M   'P 1'
_cell_length_a   5.22586467
_cell_length_b   5.22586467
_cell_length_c   9.98500403
_cell_angle_alpha   84.28063680
_cell_angle_beta   84.28063680
_cell_angle_gamma   120.36476315
_symmetry_Int_Tables_number   1
_chemical_formula_structural   Li5V5Cr2O12
_chemical_formula_sum   'Li5 V5 Cr2 O12'
_cell_volume   230.50740945
_cell_formula_units_Z   1
loop_
 _symmetry_equiv_pos_site_id
 _symmetry_equiv_pos_as_xyz
  1  'x, y, z'
loop_
 _atom_site_type_symbol
 _atom_site_label
 _atom_site_symmetry_multiplicity
 _atom_site_fract_x
 _atom_site_fract_y
 _atom_site_fract_z
 _atom_site_occupancy
  Li  Li0  1  0.84450400  0.67073500  0.76417300  1
  Li  Li1  1  0.67067600  0.83665500  0.23709700  1
  Li  Li2  1  0.32926500  0.15549600  0.23582700  1
  Li  Li3  1  0.16334500  0.32932400  0.76290300  1
  Li  Li4  1  0.08223400  0.91776600  0.00000000  1
  V  V5  1  0.99486300  0.50661500  0.24486600  1
  V  V6  1  0.49338500  0.00513700  0.75513400  1
  V  V7  1  0.58132600  0.41867400  0.50000000  1
  V  V8  1  0.41953300  0.58046700  0.00000000  1
  V  V9  1  0.91767300  0.08232700  0.50000000  1
  Cr  Cr10  1  0.74929700  0.25070300  0.00000000  1
  Cr  Cr11  1  0.24914200  0.75085800  0.50000000  1
  O  O12  1  0.03519900  0.22480500  0.12029600  1
  O  O13  1  0.77519500  0.96480100  0.87970400  1
  O  O14  1  0.87689800  0.37350100  0.61193900  1
  O  O15  1  0.62649900  0.12310200  0.38806100  1
  O  O16  1  0.69907700  0.52213600  0.11830900  1
  O  O17  1  0.47786400  0.30092300  0.88169100  1
  O  O18  1  0.53606500  0.71873800  0.61345600  1
  O  O19  1  0.28126200  0.46393500  0.38654400  1
  O  O20  1  0.38866200  0.86801600  0.11910600  1
  O  O21  1  0.13198400  0.61133800  0.88089400  1
  O  O22  1  0.20577300  0.02972000  0.61506700  1
  O  O23  1  0.97028000  0.79422700  0.38493300  1
