# generated using pymatgen
data_Li3Si2BiO7
_symmetry_space_group_name_H-M   'P 1'
_cell_length_a   9.05586239
_cell_length_b   9.05586239
_cell_length_c   13.86474100
_cell_angle_alpha   90.00000000
_cell_angle_beta   90.00000000
_cell_angle_gamma   120.00000288
_symmetry_Int_Tables_number   1
_chemical_formula_structural   Li3Si2BiO7
_chemical_formula_sum   'Li18 Si12 Bi6 O42'
_cell_volume   984.69562788
_cell_formula_units_Z   6
loop_
 _symmetry_equiv_pos_site_id
 _symmetry_equiv_pos_as_xyz
  1  'x, y, z'
loop_
 _atom_site_type_symbol
 _atom_site_label
 _atom_site_symmetry_multiplicity
 _atom_site_fract_x
 _atom_site_fract_y
 _atom_site_fract_z
 _atom_site_occupancy
  Li  Li0  1  0.31348100  0.98571800  0.08799200  1
  Li  Li1  1  0.31304400  0.98434300  0.41328600  1
  Li  Li2  1  0.01428200  0.32776300  0.08799200  1
  Li  Li3  1  0.01565700  0.32870000  0.41328600  1
  Li  Li4  1  0.00000000  0.00000000  0.49959700  1
  Li  Li5  1  0.00000000  0.00000000  0.99959700  1
  Li  Li6  1  0.33333300  0.66666700  0.25172000  1
  Li  Li7  1  0.33333300  0.66666700  0.76222700  1
  Li  Li8  1  0.32776300  0.31348100  0.58799200  1
  Li  Li9  1  0.32870000  0.31304400  0.91328600  1
  Li  Li10  1  0.67223700  0.68651900  0.08799200  1
  Li  Li11  1  0.67130000  0.68695600  0.41328600  1
  Li  Li12  1  0.66666700  0.33333300  0.26222700  1
  Li  Li13  1  0.66666700  0.33333300  0.75172000  1
  Li  Li14  1  0.98434300  0.67130000  0.91328600  1
  Li  Li15  1  0.98571800  0.67223700  0.58799200  1
  Li  Li16  1  0.68651900  0.01428200  0.58799200  1
  Li  Li17  1  0.68695600  0.01565700  0.91328600  1
  Si  Si18  1  0.32562500  0.98038400  0.85909600  1
  Si  Si19  1  0.32533800  0.97999200  0.64117400  1
  Si  Si20  1  0.02000800  0.34534500  0.64117400  1
  Si  Si21  1  0.01961600  0.34524100  0.85909600  1
  Si  Si22  1  0.34524100  0.32562500  0.35909600  1
  Si  Si23  1  0.34534500  0.32533800  0.14117400  1
  Si  Si24  1  0.65465500  0.67466200  0.64117400  1
  Si  Si25  1  0.65475900  0.67437500  0.85909600  1
  Si  Si26  1  0.98038400  0.65475900  0.35909600  1
  Si  Si27  1  0.97999200  0.65465500  0.14117400  1
  Si  Si28  1  0.67437500  0.01961600  0.35909600  1
  Si  Si29  1  0.67466200  0.02000800  0.14117400  1
  Bi  Bi30  1  0.33333300  0.66666700  0.02208400  1
  Bi  Bi31  1  0.00000000  0.00000000  0.25016500  1
  Bi  Bi32  1  0.00000000  0.00000000  0.75016500  1
  Bi  Bi33  1  0.33333300  0.66666700  0.48058300  1
  Bi  Bi34  1  0.66666700  0.33333300  0.52208400  1
  Bi  Bi35  1  0.66666700  0.33333300  0.98058300  1
  O  O36  1  0.08746200  0.86304200  0.13634100  1
  O  O37  1  0.08647700  0.86315100  0.36469100  1
  O  O38  1  0.09995000  0.56724500  0.12895300  1
  O  O39  1  0.10161800  0.56888900  0.37162200  1
  O  O40  1  0.23376800  0.82573200  0.56184100  1
  O  O41  1  0.23471800  0.82275000  0.93645300  1
  O  O42  1  0.29257900  0.88123300  0.75014800  1
  O  O43  1  0.11876700  0.41134600  0.75014800  1
  O  O44  1  0.17426800  0.40803600  0.56184100  1
  O  O45  1  0.17725000  0.41196800  0.93645300  1
  O  O46  1  0.46729500  0.90005000  0.12895300  1
  O  O47  1  0.46727100  0.89838200  0.37162200  1
  O  O48  1  0.13695800  0.22442000  0.13634100  1
  O  O49  1  0.13684900  0.22332600  0.36469100  1
  O  O50  1  0.43275500  0.53270500  0.12895300  1
  O  O51  1  0.43111100  0.53272900  0.37162200  1
  O  O52  1  0.22332600  0.08647700  0.86469100  1
  O  O53  1  0.22442000  0.08746200  0.63634100  1
  O  O54  1  0.59196400  0.76623200  0.56184100  1
  O  O55  1  0.58803200  0.76528200  0.93645300  1
  O  O56  1  0.58865400  0.70742100  0.75014800  1
  O  O57  1  0.41134600  0.29257900  0.25014800  1
  O  O58  1  0.40803600  0.23376800  0.06184100  1
  O  O59  1  0.41196800  0.23471800  0.43645300  1
  O  O60  1  0.77558000  0.91253800  0.13634100  1
  O  O61  1  0.77667400  0.91352300  0.36469100  1
  O  O62  1  0.56724500  0.46729500  0.62895300  1
  O  O63  1  0.56888900  0.46727100  0.87162200  1
  O  O64  1  0.86304200  0.77558000  0.63634100  1
  O  O65  1  0.86315100  0.77667400  0.86469100  1
  O  O66  1  0.53272900  0.10161800  0.87162200  1
  O  O67  1  0.53270500  0.09995000  0.62895300  1
  O  O68  1  0.82275000  0.58803200  0.43645300  1
  O  O69  1  0.82573200  0.59196400  0.06184100  1
  O  O70  1  0.88123300  0.58865400  0.25014800  1
  O  O71  1  0.70742100  0.11876700  0.25014800  1
  O  O72  1  0.76528200  0.17725000  0.43645300  1
  O  O73  1  0.76623200  0.17426800  0.06184100  1
  O  O74  1  0.90005000  0.43275500  0.62895300  1
  O  O75  1  0.89838200  0.43111100  0.87162200  1
  O  O76  1  0.91253800  0.13695800  0.63634100  1
  O  O77  1  0.91352300  0.13684900  0.86469100  1
