# generated using pymatgen
data_Li8MnFe7(BO3)8
_symmetry_space_group_name_H-M   'P 1'
_cell_length_a   6.01245700
_cell_length_b   8.18898618
_cell_length_c   10.46062503
_cell_angle_alpha   89.90828613
_cell_angle_beta   90.75338881
_cell_angle_gamma   102.87688039
_symmetry_Int_Tables_number   1
_chemical_formula_structural   Li8MnFe7(BO3)8
_chemical_formula_sum   'Li8 Mn1 Fe7 B8 O24'
_cell_volume   502.04209960
_cell_formula_units_Z   1
loop_
 _symmetry_equiv_pos_site_id
 _symmetry_equiv_pos_as_xyz
  1  'x, y, z'
loop_
 _atom_site_type_symbol
 _atom_site_label
 _atom_site_symmetry_multiplicity
 _atom_site_fract_x
 _atom_site_fract_y
 _atom_site_fract_z
 _atom_site_occupancy
  Li  Li0  1  0.95601300  0.28099800  0.32472900  1
  Li  Li1  1  0.95646900  0.27992600  0.82699500  1
  Li  Li2  1  0.54463700  0.21982400  0.42523700  1
  Li  Li3  1  0.54484600  0.22083000  0.92422100  1
  Li  Li4  1  0.45664100  0.78134500  0.07487300  1
  Li  Li5  1  0.45536500  0.77840600  0.57463300  1
  Li  Li6  1  0.04485500  0.71968100  0.17424800  1
  Li  Li7  1  0.04375000  0.71975800  0.67515200  1
  Mn  Mn8  1  0.18535000  0.41957300  0.58588800  1
  Fe  Fe9  1  0.81400000  0.57815000  0.41053700  1
  Fe  Fe10  1  0.81601200  0.57957300  0.91780200  1
  Fe  Fe11  1  0.68687400  0.92368900  0.33679600  1
  Fe  Fe12  1  0.68499300  0.92291400  0.83341900  1
  Fe  Fe13  1  0.31536300  0.07600200  0.16563900  1
  Fe  Fe14  1  0.31545500  0.07491300  0.66483900  1
  Fe  Fe15  1  0.18574000  0.41979200  0.08776400  1
  B  B16  1  0.83245400  0.09232700  0.08639200  1
  B  B17  1  0.83251400  0.09100300  0.58627300  1
  B  B18  1  0.66454500  0.40597300  0.16413100  1
  B  B19  1  0.66868600  0.40670500  0.66456200  1
  B  B20  1  0.33197600  0.59409300  0.33325400  1
  B  B21  1  0.33497500  0.59517000  0.83651600  1
  B  B22  1  0.16619700  0.90748900  0.41486400  1
  B  B23  1  0.16644500  0.90766400  0.91397700  1
  O  O24  1  0.82155000  0.11529400  0.45518700  1
  O  O25  1  0.81951500  0.11451300  0.95589400  1
  O  O26  1  0.98638200  0.81015100  0.34366100  1
  O  O27  1  0.98594100  0.81123500  0.84289500  1
  O  O28  1  0.83642600  0.52150000  0.10322400  1
  O  O29  1  0.83877400  0.52105900  0.60168400  1
  O  O30  1  0.67671700  0.38328600  0.29526600  1
  O  O31  1  0.68148100  0.38426300  0.79477400  1
  O  O32  1  0.48581600  0.30936600  0.09279900  1
  O  O33  1  0.48831700  0.30830300  0.59309100  1
  O  O34  1  0.33664700  0.02340700  0.35351000  1
  O  O35  1  0.66100800  0.97874100  0.14880200  1
  O  O36  1  0.33905600  0.02241500  0.85314800  1
  O  O37  1  0.65982300  0.97586600  0.64615500  1
  O  O38  1  0.51205000  0.68973100  0.40462700  1
  O  O39  1  0.51592900  0.69030000  0.90887800  1
  O  O40  1  0.32204800  0.61666000  0.20153500  1
  O  O41  1  0.32367400  0.62247800  0.70586900  1
  O  O42  1  0.15861900  0.48100900  0.39381700  1
  O  O43  1  0.16264100  0.47960800  0.89630700  1
  O  O44  1  0.01386200  0.18986100  0.15687500  1
  O  O45  1  0.01161000  0.18559700  0.65880300  1
  O  O46  1  0.17926000  0.88529200  0.04519400  1
  O  O47  1  0.17869900  0.88426900  0.54525900  1
