# generated using pymatgen
data_LiLa3MnO7
_symmetry_space_group_name_H-M   'P 1'
_cell_length_a   5.45762300
_cell_length_b   5.47317300
_cell_length_c   20.99160717
_cell_angle_alpha   74.99388987
_cell_angle_beta   90.00000000
_cell_angle_gamma   90.00000000
_symmetry_Int_Tables_number   1
_chemical_formula_structural   LiLa3MnO7
_chemical_formula_sum   'Li4 La12 Mn4 O28'
_cell_volume   605.64727065
_cell_formula_units_Z   4
loop_
 _symmetry_equiv_pos_site_id
 _symmetry_equiv_pos_as_xyz
  1  'x, y, z'
loop_
 _atom_site_type_symbol
 _atom_site_label
 _atom_site_symmetry_multiplicity
 _atom_site_fract_x
 _atom_site_fract_y
 _atom_site_fract_z
 _atom_site_occupancy
  Li  Li0  1  0.24827900  0.34266000  0.40507700  1
  Li  Li1  1  0.25172100  0.34266000  0.90507700  1
  Li  Li2  1  0.74827900  0.65734000  0.09492300  1
  Li  Li3  1  0.75172100  0.65734000  0.59492300  1
  La  La4  1  0.24586100  0.91308000  0.82153400  1
  La  La5  1  0.23954500  0.56833500  0.17926500  1
  La  La6  1  0.25108200  0.75163100  0.00005600  1
  La  La7  1  0.24891800  0.75163100  0.50005600  1
  La  La8  1  0.26045500  0.56833500  0.67926500  1
  La  La9  1  0.25413900  0.91308000  0.32153400  1
  La  La10  1  0.74586100  0.08692000  0.67846600  1
  La  La11  1  0.73954500  0.43166500  0.32073500  1
  La  La12  1  0.75108200  0.24836900  0.49994400  1
  La  La13  1  0.74891800  0.24836900  0.99994400  1
  La  La14  1  0.76045500  0.43166500  0.82073500  1
  La  La15  1  0.75413900  0.08692000  0.17846600  1
  Mn  Mn16  1  0.24719600  0.15132100  0.59579900  1
  Mn  Mn17  1  0.25280400  0.15132100  0.09579900  1
  Mn  Mn18  1  0.74719600  0.84867900  0.90420100  1
  Mn  Mn19  1  0.75280400  0.84867900  0.40420100  1
  O  O20  1  0.99631000  0.09945800  0.39318400  1
  O  O21  1  0.00439200  0.91053800  0.09710200  1
  O  O22  1  0.00369000  0.90054200  0.60681600  1
  O  O23  1  0.00467300  0.39597900  0.59690400  1
  O  O24  1  0.99395100  0.59720700  0.91225900  1
  O  O25  1  0.99560800  0.08946200  0.90289800  1
  O  O26  1  0.00604900  0.40279300  0.08774100  1
  O  O27  1  0.99532700  0.60402100  0.40309600  1
  O  O28  1  0.21951000  0.21399300  0.50462500  1
  O  O29  1  0.22913600  0.07077900  0.19954300  1
  O  O30  1  0.21921000  0.49646000  0.79188900  1
  O  O31  1  0.27086400  0.07077900  0.69954300  1
  O  O32  1  0.28079000  0.49646000  0.29188900  1
  O  O33  1  0.28049000  0.21399300  0.00462500  1
  O  O34  1  0.50369000  0.09945800  0.89318400  1
  O  O35  1  0.49395100  0.40279300  0.58774100  1
  O  O36  1  0.50467300  0.60402100  0.90309600  1
  O  O37  1  0.49560800  0.91053800  0.59710200  1
  O  O38  1  0.49532700  0.39597900  0.09690400  1
  O  O39  1  0.49631000  0.90054200  0.10681600  1
  O  O40  1  0.50439200  0.08946200  0.40289800  1
  O  O41  1  0.50604900  0.59720700  0.41225900  1
  O  O42  1  0.71951000  0.78600700  0.99537500  1
  O  O43  1  0.72913600  0.92922100  0.30045700  1
  O  O44  1  0.71921000  0.50354000  0.70811100  1
  O  O45  1  0.77086400  0.92922100  0.80045700  1
  O  O46  1  0.78079000  0.50354000  0.20811100  1
  O  O47  1  0.78049000  0.78600700  0.49537500  1
