# generated using pymatgen
data_Li8Ti15O32
_symmetry_space_group_name_H-M   'P 1'
_cell_length_a   19.81960309
_cell_length_b   19.81960309
_cell_length_c   19.81960277
_cell_angle_alpha   17.34903214
_cell_angle_beta   17.34903214
_cell_angle_gamma   17.34903085
_symmetry_Int_Tables_number   1
_chemical_formula_structural   Li8Ti15O32
_chemical_formula_sum   'Li8 Ti15 O32'
_cell_volume   604.10445928
_cell_formula_units_Z   1
loop_
 _symmetry_equiv_pos_site_id
 _symmetry_equiv_pos_as_xyz
  1  'x, y, z'
loop_
 _atom_site_type_symbol
 _atom_site_label
 _atom_site_symmetry_multiplicity
 _atom_site_fract_x
 _atom_site_fract_y
 _atom_site_fract_z
 _atom_site_occupancy
  Li  Li0  1  0.43785800  0.43785800  0.43785800  1
  Li  Li1  1  0.68719800  0.68719800  0.68719800  1
  Li  Li2  1  0.74998800  0.74998800  0.74998800  1
  Li  Li3  1  0.18803900  0.18803900  0.18803900  1
  Li  Li4  1  0.84380800  0.84380800  0.84380800  1
  Li  Li5  1  0.24952400  0.24952400  0.24952400  1
  Li  Li6  1  0.49952800  0.49952800  0.49952800  1
  Li  Li7  1  0.93797800  0.93797800  0.93797800  1
  Ti  Ti8  1  0.71995100  0.21787600  0.21787600  1
  Ti  Ti9  1  0.34309900  0.34309900  0.34309900  1
  Ti  Ti10  1  0.21787600  0.71995100  0.21787600  1
  Ti  Ti11  1  0.21787600  0.21787600  0.71995100  1
  Ti  Ti12  1  0.09439100  0.09439100  0.09439100  1
  Ti  Ti13  1  0.96643000  0.96643000  0.47671100  1
  Ti  Ti14  1  0.96643000  0.47671100  0.96643000  1
  Ti  Ti15  1  0.72105800  0.21100200  0.72105800  1
  Ti  Ti16  1  0.21100200  0.72105800  0.72105800  1
  Ti  Ti17  1  0.47671100  0.96643000  0.96643000  1
  Ti  Ti18  1  0.72105800  0.72105800  0.21100200  1
  Ti  Ti19  1  0.46791000  0.46791000  0.97115300  1
  Ti  Ti20  1  0.97115300  0.46791000  0.46791000  1
  Ti  Ti21  1  0.59334800  0.59334800  0.59334800  1
  Ti  Ti22  1  0.46791000  0.97115300  0.46791000  1
  O  O23  1  0.51558500  0.06616900  0.51558500  1
  O  O24  1  0.06616900  0.51558500  0.51558500  1
  O  O25  1  0.40315500  0.40315500  0.40315500  1
  O  O26  1  0.03541900  0.03541900  0.03541900  1
  O  O27  1  0.92210600  0.92210600  0.37208000  1
  O  O28  1  0.66489700  0.13009600  0.66489700  1
  O  O29  1  0.92210600  0.37208000  0.92210600  1
  O  O30  1  0.26338600  0.26338600  0.81985500  1
  O  O31  1  0.51558500  0.51558500  0.06616900  1
  O  O32  1  0.55755700  0.02258400  0.02258400  1
  O  O33  1  0.15343600  0.15343600  0.15343600  1
  O  O34  1  0.81985500  0.26338600  0.26338600  1
  O  O35  1  0.78432600  0.78432600  0.78432600  1
  O  O36  1  0.37208000  0.92210600  0.92210600  1
  O  O37  1  0.13009600  0.66489700  0.66489700  1
  O  O38  1  0.42420900  0.42420900  0.86741200  1
  O  O39  1  0.66489700  0.66489700  0.13009600  1
  O  O40  1  0.02258400  0.02258400  0.55755700  1
  O  O41  1  0.26338600  0.81985500  0.26338600  1
  O  O42  1  0.02258400  0.55755700  0.02258400  1
  O  O43  1  0.90322200  0.90322200  0.90322200  1
  O  O44  1  0.86741200  0.42420900  0.42420900  1
  O  O45  1  0.53407200  0.53407200  0.53407200  1
  O  O46  1  0.28399000  0.28399000  0.28399000  1
  O  O47  1  0.61420900  0.17503500  0.17503500  1
  O  O48  1  0.17503500  0.61420900  0.17503500  1
  O  O49  1  0.42420900  0.86741200  0.42420900  1
  O  O50  1  0.17503500  0.17503500  0.61420900  1
  O  O51  1  0.76455500  0.31723100  0.76455500  1
  O  O52  1  0.76455500  0.76455500  0.31723100  1
  O  O53  1  0.31723100  0.76455500  0.76455500  1
  O  O54  1  0.65297100  0.65297100  0.65297100  1
