# generated using pymatgen
data_Li9Co13O28
_symmetry_space_group_name_H-M   'P 1'
_cell_length_a   7.44119200
_cell_length_b   8.09455058
_cell_length_c   8.53722886
_cell_angle_alpha   101.57677078
_cell_angle_beta   104.39464757
_cell_angle_gamma   105.16889074
_symmetry_Int_Tables_number   1
_chemical_formula_structural   Li9Co13O28
_chemical_formula_sum   'Li9 Co13 O28'
_cell_volume   460.89728134
_cell_formula_units_Z   1
loop_
 _symmetry_equiv_pos_site_id
 _symmetry_equiv_pos_as_xyz
  1  'x, y, z'
loop_
 _atom_site_type_symbol
 _atom_site_label
 _atom_site_symmetry_multiplicity
 _atom_site_fract_x
 _atom_site_fract_y
 _atom_site_fract_z
 _atom_site_occupancy
  Li  Li0  1  0.92521800  0.27339900  0.20809200  1
  Li  Li1  1  0.58466100  0.20246600  0.29340300  1
  Li  Li2  1  0.20735100  0.13562600  0.35150000  1
  Li  Li3  1  0.28807600  0.35445900  0.13161500  1
  Li  Li4  1  0.70135200  0.64986400  0.86403300  1
  Li  Li5  1  0.00014200  0.49930900  0.99631400  1
  Li  Li6  1  0.76962200  0.87104700  0.64276000  1
  Li  Li7  1  0.08676400  0.71984600  0.79286500  1
  Li  Li8  1  0.16144500  0.93300900  0.57094300  1
  Co  Co9  1  0.71698600  0.13973000  0.86008300  1
  Co  Co10  1  0.35510600  0.07388500  0.93292100  1
  Co  Co11  1  0.07093300  0.21360600  0.79028500  1
  Co  Co12  1  0.78266000  0.35018200  0.63910000  1
  Co  Co13  1  0.43215300  0.29197800  0.71992700  1
  Co  Co14  1  0.14360500  0.42909900  0.57241500  1
  Co  Co15  1  0.49959500  0.50051500  0.49990900  1
  Co  Co16  1  0.85560100  0.56877100  0.42608600  1
  Co  Co17  1  0.56972100  0.71137700  0.28127300  1
  Co  Co18  1  0.21759500  0.64951400  0.36204400  1
  Co  Co19  1  0.92720100  0.79042000  0.21106900  1
  Co  Co20  1  0.64152100  0.92397500  0.06517700  1
  Co  Co21  1  0.28065400  0.85964100  0.14105100  1
  O  O22  1  0.90412200  0.00264400  0.20239900  1
  O  O23  1  0.79873500  0.12498500  0.66666500  1
  O  O24  1  0.44245600  0.06799500  0.74341900  1
  O  O25  1  0.98902300  0.24755900  0.97521700  1
  O  O26  1  0.30095800  0.09028300  0.13569600  1
  O  O27  1  0.63136700  0.15431100  0.05701000  1
  O  O28  1  0.70552000  0.37223000  0.83485500  1
  O  O29  1  0.34445700  0.30110300  0.91189800  1
  O  O30  1  0.50536600  0.27164300  0.52030800  1
  O  O31  1  0.86716600  0.34412600  0.44073900  1
  O  O32  1  0.16217800  0.20276200  0.59592200  1
  O  O33  1  0.05323500  0.43767100  0.76375900  1
  O  O34  1  0.41892600  0.51172700  0.69483700  1
  O  O35  1  0.77723900  0.58699200  0.62351600  1
  O  O36  1  0.22387000  0.41317700  0.37282700  1
  O  O37  1  0.58112000  0.48410200  0.30381600  1
  O  O38  1  0.94565300  0.56061700  0.23805000  1
  O  O39  1  0.84270300  0.79332200  0.40728700  1
  O  O40  1  0.12253800  0.65755300  0.55319700  1
  O  O41  1  0.49446100  0.72779000  0.47457800  1
  O  O42  1  0.65559500  0.69947800  0.08860200  1
  O  O43  1  0.29604500  0.63122700  0.16631600  1
  O  O44  1  0.36241700  0.84526900  0.94817400  1
  O  O45  1  0.70661600  0.91794500  0.87004400  1
  O  O46  1  0.01722600  0.75304400  0.02582100  1
  O  O47  1  0.55275400  0.93286700  0.25698800  1
  O  O48  1  0.19866200  0.87843700  0.34020200  1
  O  O49  1  0.09869900  0.99186300  0.79195500  1
