# generated using pymatgen
data_LiFeSiO4
_symmetry_space_group_name_H-M   'P 1'
_cell_length_a   5.80308300
_cell_length_b   7.51740500
_cell_length_c   15.93063600
_cell_angle_alpha   90.00000000
_cell_angle_beta   90.00000000
_cell_angle_gamma   90.00000000
_symmetry_Int_Tables_number   1
_chemical_formula_structural   LiFeSiO4
_chemical_formula_sum   'Li8 Fe8 Si8 O32'
_cell_volume   694.96005874
_cell_formula_units_Z   8
loop_
 _symmetry_equiv_pos_site_id
 _symmetry_equiv_pos_as_xyz
  1  'x, y, z'
loop_
 _atom_site_type_symbol
 _atom_site_label
 _atom_site_symmetry_multiplicity
 _atom_site_fract_x
 _atom_site_fract_y
 _atom_site_fract_z
 _atom_site_occupancy
  Li  Li0  1  0.09069600  0.25224800  0.26756600  1
  Li  Li1  1  0.59069600  0.25224800  0.23243400  1
  Li  Li2  1  0.59069600  0.24775200  0.73243400  1
  Li  Li3  1  0.09069600  0.24775200  0.76756600  1
  Li  Li4  1  0.40930400  0.75224800  0.26756600  1
  Li  Li5  1  0.90930400  0.75224800  0.23243400  1
  Li  Li6  1  0.40930400  0.74775200  0.76756600  1
  Li  Li7  1  0.90930400  0.74775200  0.73243400  1
  Fe  Fe8  1  0.40834800  0.18110100  0.53405800  1
  Fe  Fe9  1  0.90834800  0.18110100  0.96594200  1
  Fe  Fe10  1  0.40834800  0.31889900  0.03405800  1
  Fe  Fe11  1  0.90834800  0.31889900  0.46594200  1
  Fe  Fe12  1  0.09165200  0.68110100  0.53405800  1
  Fe  Fe13  1  0.59165200  0.68110100  0.96594200  1
  Fe  Fe14  1  0.09165200  0.81889900  0.03405800  1
  Fe  Fe15  1  0.59165200  0.81889900  0.46594200  1
  Si  Si16  1  0.90419000  0.04245100  0.61556400  1
  Si  Si17  1  0.40419000  0.04245100  0.88443600  1
  Si  Si18  1  0.90419000  0.45754900  0.11556400  1
  Si  Si19  1  0.40419000  0.45754900  0.38443600  1
  Si  Si20  1  0.59581000  0.54245100  0.61556400  1
  Si  Si21  1  0.09581000  0.54245100  0.88443600  1
  Si  Si22  1  0.59581000  0.95754900  0.11556400  1
  Si  Si23  1  0.09581000  0.95754900  0.38443600  1
  O  O24  1  0.84156000  0.98223300  0.05940700  1
  O  O25  1  0.34156000  0.98223300  0.44059300  1
  O  O26  1  0.36517300  0.12925600  0.79479100  1
  O  O27  1  0.86517300  0.12925600  0.70520900  1
  O  O28  1  0.47135100  0.15393400  0.12319000  1
  O  O29  1  0.97135100  0.15393400  0.37681000  1
  O  O30  1  0.06808400  0.17198700  0.55254100  1
  O  O31  1  0.56808400  0.17198700  0.94745900  1
  O  O32  1  0.06808400  0.32801300  0.05254100  1
  O  O33  1  0.56808400  0.32801300  0.44745900  1
  O  O34  1  0.47135100  0.34606600  0.62319000  1
  O  O35  1  0.97135100  0.34606600  0.87681000  1
  O  O36  1  0.86517300  0.37074400  0.20520900  1
  O  O37  1  0.36517300  0.37074400  0.29479100  1
  O  O38  1  0.84156000  0.51776700  0.55940700  1
  O  O39  1  0.34156000  0.51776700  0.94059300  1
  O  O40  1  0.15844000  0.48223300  0.44059300  1
  O  O41  1  0.65844000  0.48223300  0.05940700  1
  O  O42  1  0.63482700  0.62925600  0.70520900  1
  O  O43  1  0.13482700  0.62925600  0.79479100  1
  O  O44  1  0.02864900  0.65393400  0.12319000  1
  O  O45  1  0.52864900  0.65393400  0.37681000  1
  O  O46  1  0.43191600  0.67198700  0.55254100  1
  O  O47  1  0.93191600  0.67198700  0.94745900  1
  O  O48  1  0.43191600  0.82801300  0.05254100  1
  O  O49  1  0.93191600  0.82801300  0.44745900  1
  O  O50  1  0.02864900  0.84606600  0.62319000  1
  O  O51  1  0.52864900  0.84606600  0.87681000  1
  O  O52  1  0.63482700  0.87074400  0.20520900  1
  O  O53  1  0.13482700  0.87074400  0.29479100  1
  O  O54  1  0.65844000  0.01776700  0.55940700  1
  O  O55  1  0.15844000  0.01776700  0.94059300  1
