# generated using pymatgen
data_Li17Ni11O28
_symmetry_space_group_name_H-M   'P 1'
_cell_length_a   6.43919600
_cell_length_b   7.59454187
_cell_length_c   10.20377543
_cell_angle_alpha   111.48048260
_cell_angle_beta   92.85817608
_cell_angle_gamma   90.45538095
_symmetry_Int_Tables_number   1
_chemical_formula_structural   Li17Ni11O28
_chemical_formula_sum   'Li17 Ni11 O28'
_cell_volume   463.57172861
_cell_formula_units_Z   1
loop_
 _symmetry_equiv_pos_site_id
 _symmetry_equiv_pos_as_xyz
  1  'x, y, z'
loop_
 _atom_site_type_symbol
 _atom_site_label
 _atom_site_symmetry_multiplicity
 _atom_site_fract_x
 _atom_site_fract_y
 _atom_site_fract_z
 _atom_site_occupancy
  Li  Li0  1  0.23920100  0.74762800  0.99648400  1
  Li  Li1  1  0.46642200  0.10979900  0.14442800  1
  Li  Li2  1  0.76079900  0.25237200  0.00351600  1
  Li  Li3  1  0.96819200  0.60411600  0.14638500  1
  Li  Li4  1  0.18121100  0.97035900  0.29036900  1
  Li  Li5  1  0.07218600  0.28828500  0.21530500  1
  Li  Li6  1  0.67672100  0.46650500  0.28567800  1
  Li  Li7  1  0.38867800  0.31262000  0.42544800  1
  Li  Li8  1  0.89705300  0.82010300  0.43122100  1
  Li  Li9  1  0.61132200  0.68738000  0.57455200  1
  Li  Li10  1  0.50000000  0.00000000  0.50000000  1
  Li  Li11  1  0.10294700  0.17989700  0.56877900  1
  Li  Li12  1  0.32327900  0.53349500  0.71432200  1
  Li  Li13  1  0.53357800  0.89020100  0.85557200  1
  Li  Li14  1  0.92781400  0.71171500  0.78469500  1
  Li  Li15  1  0.81878900  0.02964100  0.70963100  1
  Li  Li16  1  0.03180800  0.39588400  0.85361500  1
  Ni  Ni17  1  0.85901000  0.93388800  0.07407500  1
  Ni  Ni18  1  0.35354600  0.42899300  0.07237400  1
  Ni  Ni19  1  0.56882100  0.79083200  0.21639400  1
  Ni  Ni20  1  0.78510500  0.14560700  0.35766500  1
  Ni  Ni21  1  0.28544200  0.64600800  0.35805000  1
  Ni  Ni22  1  0.00000000  0.50000000  0.50000000  1
  Ni  Ni23  1  0.71455800  0.35399200  0.64195000  1
  Ni  Ni24  1  0.21489500  0.85439300  0.64233500  1
  Ni  Ni25  1  0.43117900  0.20916800  0.78360600  1
  Ni  Ni26  1  0.14099000  0.06611200  0.92592500  1
  Ni  Ni27  1  0.64645400  0.57100700  0.92762600  1
  O  O28  1  0.57564600  0.84642700  0.04778400  1
  O  O29  1  0.92383600  0.67734900  0.97543000  1
  O  O30  1  0.42435400  0.15357300  0.95221600  1
  O  O31  1  0.07616400  0.32265100  0.02457000  1
  O  O32  1  0.14288400  0.01146800  0.09125500  1
  O  O33  1  0.36777700  0.39740400  0.24843700  1
  O  O34  1  0.26346700  0.69712900  0.19122500  1
  O  O35  1  0.77500400  0.18250600  0.18273100  1
  O  O36  1  0.64076900  0.52968300  0.10299100  1
  O  O37  1  0.50602800  0.04907100  0.31914900  1
  O  O38  1  0.87337600  0.90186900  0.25029900  1
  O  O39  1  0.06515800  0.24091300  0.39565100  1
  O  O40  1  0.56892800  0.72887100  0.37967200  1
  O  O41  1  0.00309400  0.55861300  0.33280900  1
  O  O42  1  0.30544800  0.60951500  0.53325500  1
  O  O43  1  0.69455200  0.39048500  0.46674500  1
  O  O44  1  0.20351700  0.89326800  0.46953600  1
  O  O45  1  0.43107200  0.27112900  0.62032800  1
  O  O46  1  0.49397200  0.95092900  0.68085100  1
  O  O47  1  0.79648300  0.10673200  0.53046400  1
  O  O48  1  0.63222300  0.60259600  0.75156300  1
  O  O49  1  0.99690600  0.44138700  0.66719100  1
  O  O50  1  0.93484200  0.75908700  0.60434900  1
  O  O51  1  0.12662400  0.09813100  0.74970100  1
  O  O52  1  0.22499600  0.81749400  0.81726900  1
  O  O53  1  0.73653300  0.30287100  0.80877500  1
  O  O54  1  0.35923100  0.47031700  0.89700900  1
  O  O55  1  0.85711600  0.98853200  0.90874500  1
