# generated using pymatgen
data_Li8Mn3Fe5(BO3)8
_symmetry_space_group_name_H-M   'P 1'
_cell_length_a   5.23737900
_cell_length_b   6.06645409
_cell_length_c   16.14968721
_cell_angle_alpha   81.76241133
_cell_angle_beta   89.15731509
_cell_angle_gamma   88.69890099
_symmetry_Int_Tables_number   1
_chemical_formula_structural   Li8Mn3Fe5(BO3)8
_chemical_formula_sum   'Li8 Mn3 Fe5 B8 O24'
_cell_volume   507.65400020
_cell_formula_units_Z   1
loop_
 _symmetry_equiv_pos_site_id
 _symmetry_equiv_pos_as_xyz
  1  'x, y, z'
loop_
 _atom_site_type_symbol
 _atom_site_label
 _atom_site_symmetry_multiplicity
 _atom_site_fract_x
 _atom_site_fract_y
 _atom_site_fract_z
 _atom_site_occupancy
  Li  Li0  1  0.84681300  0.06421900  0.38946900  1
  Li  Li1  1  0.15204700  0.43536700  0.11120500  1
  Li  Li2  1  0.65259900  0.18815000  0.85994200  1
  Li  Li3  1  0.34831700  0.31288500  0.63924800  1
  Li  Li4  1  0.65253100  0.68829300  0.35723400  1
  Li  Li5  1  0.34749200  0.81167300  0.14286700  1
  Li  Li6  1  0.84666400  0.56254700  0.89083300  1
  Li  Li7  1  0.15168200  0.93646900  0.60809800  1
  Mn  Mn8  1  0.16706800  0.02278200  0.78970200  1
  Mn  Mn9  1  0.66777400  0.77211400  0.54116000  1
  Mn  Mn10  1  0.33296600  0.72506900  0.96066600  1
  Fe  Fe11  1  0.66295800  0.27003600  0.04222700  1
  Fe  Fe12  1  0.33706800  0.22880300  0.45820800  1
  Fe  Fe13  1  0.16265400  0.52191100  0.29338000  1
  Fe  Fe14  1  0.83863700  0.47548700  0.70999500  1
  Fe  Fe15  1  0.83736100  0.97726700  0.20700600  1
  B  B16  1  0.32875600  0.03937900  0.29702300  1
  B  B17  1  0.82830300  0.28769400  0.54727200  1
  B  B18  1  0.67070700  0.46125100  0.20301800  1
  B  B19  1  0.17194200  0.21300000  0.95363300  1
  B  B20  1  0.83030900  0.78574700  0.04847100  1
  B  B21  1  0.32907200  0.53740400  0.79659600  1
  B  B22  1  0.16963500  0.71418300  0.45155000  1
  B  B23  1  0.67043000  0.96368700  0.70260100  1
  O  O24  1  0.58889300  0.01350000  0.30745400  1
  O  O25  1  0.18306000  0.16980300  0.34595100  1
  O  O26  1  0.70327800  0.17642200  0.48997900  1
  O  O27  1  0.29630100  0.32628700  0.01063900  1
  O  O28  1  0.78568000  0.08137500  0.75944400  1
  O  O29  1  0.81546300  0.32955200  0.15422500  1
  O  O30  1  0.31816200  0.08196800  0.90554400  1
  O  O31  1  0.08899400  0.26272900  0.55727100  1
  O  O32  1  0.41002700  0.48685800  0.19270500  1
  O  O33  1  0.91193400  0.23807600  0.94268200  1
  O  O34  1  0.68399600  0.41753600  0.59663600  1
  O  O35  1  0.20722000  0.42374200  0.73901200  1
  O  O36  1  0.79675300  0.57489900  0.25897900  1
  O  O37  1  0.31812000  0.58141600  0.40396700  1
  O  O38  1  0.09024200  0.76336900  0.06184700  1
  O  O39  1  0.58902600  0.51324200  0.80813800  1
  O  O40  1  0.90930200  0.73670300  0.43889400  1
  O  O41  1  0.68058600  0.91796300  0.09574300  1
  O  O42  1  0.18133800  0.66750000  0.84443200  1
  O  O43  1  0.20325500  0.92696100  0.24035200  1
  O  O44  1  0.71447600  0.67174700  0.99085600  1
  O  O45  1  0.28760300  0.82785500  0.50866900  1
  O  O46  1  0.82144500  0.82886200  0.65685200  1
  O  O47  1  0.41105700  0.98622400  0.68832300  1
