# generated using pymatgen
data_Li24Mn7Cr5O36
_symmetry_space_group_name_H-M   'P 1'
_cell_length_a   5.01748600
_cell_length_b   9.74538432
_cell_length_c   13.25725851
_cell_angle_alpha   97.14661829
_cell_angle_beta   100.72469616
_cell_angle_gamma   94.88923847
_symmetry_Int_Tables_number   1
_chemical_formula_structural   Li24Mn7Cr5O36
_chemical_formula_sum   'Li24 Mn7 Cr5 O36'
_cell_volume   628.05577009
_cell_formula_units_Z   1
loop_
 _symmetry_equiv_pos_site_id
 _symmetry_equiv_pos_as_xyz
  1  'x, y, z'
loop_
 _atom_site_type_symbol
 _atom_site_label
 _atom_site_symmetry_multiplicity
 _atom_site_fract_x
 _atom_site_fract_y
 _atom_site_fract_z
 _atom_site_occupancy
  Li  Li0  1  0.17131800  0.99988600  0.83230500  1
  Li  Li1  1  0.04873700  0.99998200  0.61424200  1
  Li  Li2  1  0.00016400  0.74990100  0.25043100  1
  Li  Li3  1  0.33656600  0.74942900  0.91713300  1
  Li  Li4  1  0.04741100  0.49944100  0.11215100  1
  Li  Li5  1  0.38391800  0.49970900  0.77862400  1
  Li  Li6  1  0.16379900  0.50040600  0.33326000  1
  Li  Li7  1  0.50319200  0.50045100  0.99994300  1
  Li  Li8  1  0.28468000  0.50096800  0.55519300  1
  Li  Li9  1  0.33279100  0.25002000  0.41630200  1
  Li  Li10  1  0.50170900  0.99958900  0.49992300  1
  Li  Li11  1  0.28329900  0.99976700  0.05352800  1
  Li  Li12  1  0.61559000  0.99865400  0.71934200  1
  Li  Li13  1  0.38426300  0.99921700  0.28007300  1
  Li  Li14  1  0.71447300  0.00156600  0.94725900  1
  Li  Li15  1  0.66588500  0.75064900  0.58420000  1
  Li  Li16  1  0.71498900  0.49942900  0.44417700  1
  Li  Li17  1  0.83481600  0.49923600  0.66671800  1
  Li  Li18  1  0.62054700  0.50113500  0.22201100  1
  Li  Li19  1  0.94597700  0.49975200  0.88794000  1
  Li  Li20  1  0.66675600  0.24997000  0.08301800  1
  Li  Li21  1  0.83229800  0.00024300  0.16660100  1
  Li  Li22  1  0.99790700  0.25013400  0.74858900  1
  Li  Li23  1  0.95036400  0.00022900  0.38644100  1
  Mn  Mn24  1  0.22612000  0.75278600  0.69458100  1
  Mn  Mn25  1  0.55536600  0.25084000  0.86133100  1
  Mn  Mn26  1  0.44313600  0.75020600  0.13899000  1
  Mn  Mn27  1  0.55387000  0.74841000  0.35978900  1
  Mn  Mn28  1  0.77986000  0.25096300  0.30619800  1
  Mn  Mn29  1  0.88729600  0.24916700  0.52763700  1
  Mn  Mn30  1  0.88762100  0.74882200  0.02869700  1
  Cr  Cr31  1  0.10624100  0.24775200  0.96998800  1
  Cr  Cr32  1  0.10451900  0.75020500  0.47312900  1
  Cr  Cr33  1  0.22928300  0.25102300  0.19492300  1
  Cr  Cr34  1  0.43970500  0.24987100  0.63723400  1
  Cr  Cr35  1  0.78378800  0.74972200  0.80743900  1
  O  O36  1  0.99519900  0.86132200  0.92807300  1
  O  O37  1  0.06459100  0.63696800  0.78405400  1
  O  O38  1  0.00239500  0.36177600  0.42924200  1
  O  O39  1  0.13813700  0.36298900  0.64236200  1
  O  O40  1  0.26379800  0.36324100  0.88319600  1
  O  O41  1  0.33821400  0.86351000  0.59758100  1
  O  O42  1  0.06857300  0.13639700  0.28401100  1
  O  O43  1  0.18900500  0.13822100  0.52394500  1
  O  O44  1  0.40872700  0.13418500  0.95059700  1
  O  O45  1  0.14410500  0.86157800  0.14318300  1
  O  O46  1  0.26573800  0.86387400  0.38233900  1
  O  O47  1  0.47808300  0.86124300  0.80937200  1
  O  O48  1  0.33719700  0.13873000  0.73743200  1
  O  O49  1  0.18911300  0.63855700  0.02342900  1
  O  O50  1  0.40235900  0.63625900  0.45090100  1
  O  O51  1  0.52227800  0.63835900  0.69064300  1
  O  O52  1  0.33136600  0.63820200  0.23736200  1
  O  O53  1  0.66509800  0.63716100  0.90702900  1
  O  O54  1  0.32822100  0.36226200  0.09671500  1
  O  O55  1  0.66825100  0.36254700  0.76282000  1
  O  O56  1  0.47904900  0.36194600  0.31078200  1
  O  O57  1  0.59781400  0.36364500  0.55011400  1
  O  O58  1  0.80429000  0.36274100  0.97604100  1
  O  O59  1  0.66725100  0.86146000  0.26187300  1
  O  O60  1  0.52636000  0.13787600  0.19155900  1
  O  O61  1  0.74130300  0.13461900  0.61752200  1
  O  O62  1  0.85734900  0.13850400  0.85726300  1
  O  O63  1  0.59621400  0.86353000  0.04819000  1
  O  O64  1  0.81312200  0.86144500  0.47455300  1
  O  O65  1  0.93452600  0.86533600  0.71339200  1
  O  O66  1  0.66436700  0.13829600  0.40465500  1
  O  O67  1  0.73643700  0.63652300  0.11907500  1
  O  O68  1  0.85073500  0.63677100  0.35520300  1
  O  O69  1  0.00334600  0.63883400  0.57082400  1
  O  O70  1  0.92652200  0.36477700  0.21582100  1
  O  O71  1  0.00261400  0.13678800  0.06951600  1
