# generated using pymatgen
data_Li5FeO4
_symmetry_space_group_name_H-M   'P 1'
_cell_length_a   6.82455100
_cell_length_b   5.53590500
_cell_length_c   11.22348093
_cell_angle_alpha   73.78337784
_cell_angle_beta   90.00000000
_cell_angle_gamma   90.00000000
_symmetry_Int_Tables_number   1
_chemical_formula_structural   Li5FeO4
_chemical_formula_sum   'Li20 Fe4 O16'
_cell_volume   407.15308894
_cell_formula_units_Z   4
loop_
 _symmetry_equiv_pos_site_id
 _symmetry_equiv_pos_as_xyz
  1  'x, y, z'
loop_
 _atom_site_type_symbol
 _atom_site_label
 _atom_site_symmetry_multiplicity
 _atom_site_fract_x
 _atom_site_fract_y
 _atom_site_fract_z
 _atom_site_occupancy
  Li  Li0  1  0.28494300  0.61746400  0.78622600  1
  Li  Li1  1  0.52905500  0.63889300  0.57802500  1
  Li  Li2  1  0.25255200  0.32062700  0.16300600  1
  Li  Li3  1  0.47883200  0.36572900  0.93682800  1
  Li  Li4  1  0.97883200  0.63427100  0.56317200  1
  Li  Li5  1  0.97144300  0.09608600  0.29794400  1
  Li  Li6  1  0.02905500  0.36110700  0.92197500  1
  Li  Li7  1  0.78494300  0.38253600  0.71377400  1
  Li  Li8  1  0.47144300  0.90391400  0.20205600  1
  Li  Li9  1  0.75255200  0.67937300  0.33699400  1
  Li  Li10  1  0.24744800  0.32062700  0.66300600  1
  Li  Li11  1  0.52855700  0.09608600  0.79794400  1
  Li  Li12  1  0.21505700  0.61746400  0.28622600  1
  Li  Li13  1  0.97094500  0.63889300  0.07802500  1
  Li  Li14  1  0.02855700  0.90391400  0.70205600  1
  Li  Li15  1  0.02116800  0.36572900  0.43682800  1
  Li  Li16  1  0.52116800  0.63427100  0.06317200  1
  Li  Li17  1  0.74744800  0.67937300  0.83699400  1
  Li  Li18  1  0.47094500  0.36110700  0.42197500  1
  Li  Li19  1  0.71505700  0.38253600  0.21377400  1
  Fe  Fe20  1  0.25632700  0.89021800  0.43935700  1
  Fe  Fe21  1  0.75632700  0.10978200  0.06064300  1
  Fe  Fe22  1  0.24367300  0.89021800  0.93935700  1
  Fe  Fe23  1  0.74367300  0.10978200  0.56064300  1
  O  O24  1  0.24122300  0.72990700  0.61393400  1
  O  O25  1  0.77082900  0.75894300  0.64575400  1
  O  O26  1  0.52475700  0.25633900  0.11504000  1
  O  O27  1  0.96571300  0.27161400  0.12015600  1
  O  O28  1  0.27082900  0.24105700  0.85424600  1
  O  O29  1  0.74122300  0.27009300  0.88606600  1
  O  O30  1  0.46571300  0.72838600  0.37984400  1
  O  O31  1  0.02475700  0.74366100  0.38496000  1
  O  O32  1  0.97524300  0.25633900  0.61504000  1
  O  O33  1  0.53428700  0.27161400  0.62015600  1
  O  O34  1  0.25877700  0.72990700  0.11393400  1
  O  O35  1  0.72917100  0.75894300  0.14575400  1
  O  O36  1  0.03428700  0.72838600  0.87984400  1
  O  O37  1  0.47524300  0.74366100  0.88496000  1
  O  O38  1  0.22917100  0.24105700  0.35424600  1
  O  O39  1  0.75877700  0.27009300  0.38606600  1
