# generated using pymatgen
data_Li7Mn8(BO3)8
_symmetry_space_group_name_H-M   'P 1'
_cell_length_a   5.29670400
_cell_length_b   9.03783272
_cell_length_c   10.45833371
_cell_angle_alpha   90.20930653
_cell_angle_beta   92.42545608
_cell_angle_gamma   90.08826557
_symmetry_Int_Tables_number   1
_chemical_formula_structural   Li7Mn8(BO3)8
_chemical_formula_sum   'Li7 Mn8 B8 O24'
_cell_volume   500.19543926
_cell_formula_units_Z   1
loop_
 _symmetry_equiv_pos_site_id
 _symmetry_equiv_pos_as_xyz
  1  'x, y, z'
loop_
 _atom_site_type_symbol
 _atom_site_label
 _atom_site_symmetry_multiplicity
 _atom_site_fract_x
 _atom_site_fract_y
 _atom_site_fract_z
 _atom_site_occupancy
  Li  Li0  1  0.15231000  0.97449300  0.66655200  1
  Li  Li1  1  0.16330900  0.01332300  0.16585900  1
  Li  Li2  1  0.33330400  0.50206100  0.91772100  1
  Li  Li3  1  0.35053100  0.49561600  0.41965500  1
  Li  Li4  1  0.66206900  0.51614900  0.15838500  1
  Li  Li5  1  0.83395100  0.00193700  0.90495400  1
  Li  Li6  1  0.84543400  0.00020200  0.42415700  1
  Mn  Mn7  1  0.17028100  0.64763600  0.63488600  1
  Mn  Mn8  1  0.15886600  0.34047200  0.13004100  1
  Mn  Mn9  1  0.33524300  0.15942400  0.88357100  1
  Mn  Mn10  1  0.34010300  0.83154200  0.38464600  1
  Mn  Mn11  1  0.64709900  0.18434500  0.62950200  1
  Mn  Mn12  1  0.66188000  0.84169400  0.12982300  1
  Mn  Mn13  1  0.81948900  0.66205800  0.87074700  1
  Mn  Mn14  1  0.83742400  0.34294000  0.37988500  1
  B  B15  1  0.17948500  0.31330500  0.62074000  1
  B  B16  1  0.16575100  0.67395500  0.12441600  1
  B  B17  1  0.32521700  0.82626600  0.87479200  1
  B  B18  1  0.32672900  0.17514600  0.37859800  1
  B  B19  1  0.66950400  0.83750000  0.62670900  1
  B  B20  1  0.67063400  0.17345000  0.12348800  1
  B  B21  1  0.82690600  0.33123700  0.87331500  1
  B  B22  1  0.83508600  0.67357800  0.37463900  1
  O  O23  1  0.08115400  0.33188500  0.91319500  1
  O  O24  1  0.08674800  0.65774000  0.41722600  1
  O  O25  1  0.17495200  0.95073100  0.85980800  1
  O  O26  1  0.22338800  0.68684700  0.84569000  1
  O  O27  1  0.19077200  0.04668200  0.36107800  1
  O  O28  1  0.22629300  0.31064600  0.33971000  1
  O  O29  1  0.28643700  0.17906800  0.66592500  1
  O  O30  1  0.27584400  0.80704000  0.16759300  1
  O  O31  1  0.32016400  0.43703100  0.60712300  1
  O  O32  1  0.31364100  0.54938600  0.10936200  1
  O  O33  1  0.40773900  0.83294900  0.59553100  1
  O  O34  1  0.41111600  0.16325000  0.09179300  1
  O  O35  1  0.57817900  0.84088900  0.91602100  1
  O  O36  1  0.57605300  0.17364700  0.43391900  1
  O  O37  1  0.67462000  0.44978300  0.88641800  1
  O  O38  1  0.68209600  0.55051200  0.35646500  1
  O  O39  1  0.72188300  0.19537100  0.82145800  1
  O  O40  1  0.73394600  0.81394200  0.34580800  1
  O  O41  1  0.79547900  0.71248200  0.66960400  1
  O  O42  1  0.80012600  0.96948300  0.61105400  1
  O  O43  1  0.77188500  0.30544500  0.17233300  1
  O  O44  1  0.82359900  0.05282600  0.10234100  1
  O  O45  1  0.92552800  0.31007000  0.58233900  1
  O  O46  1  0.90697500  0.66627600  0.09414700  1
