# generated using pymatgen
data_LiTi(PO3)4
_symmetry_space_group_name_H-M   'P 1'
_cell_length_a   9.14944000
_cell_length_b   10.06567000
_cell_length_c   12.09328022
_cell_angle_alpha   54.85248715
_cell_angle_beta   90.00000000
_cell_angle_gamma   90.00000000
_symmetry_Int_Tables_number   1
_chemical_formula_structural   LiTi(PO3)4
_chemical_formula_sum   'Li4 Ti4 P16 O48'
_cell_volume   910.66945071
_cell_formula_units_Z   4
loop_
 _symmetry_equiv_pos_site_id
 _symmetry_equiv_pos_as_xyz
  1  'x, y, z'
loop_
 _atom_site_type_symbol
 _atom_site_label
 _atom_site_symmetry_multiplicity
 _atom_site_fract_x
 _atom_site_fract_y
 _atom_site_fract_z
 _atom_site_occupancy
  Li  Li0  1  0.44926300  0.15481400  0.99042000  1
  Li  Li1  1  0.05073700  0.15481400  0.49042000  1
  Li  Li2  1  0.94926300  0.84518600  0.50958000  1
  Li  Li3  1  0.55073700  0.84518600  0.00958000  1
  Ti  Ti4  1  0.19689300  0.81509100  0.18795600  1
  Ti  Ti5  1  0.69689300  0.18490900  0.31204400  1
  Ti  Ti6  1  0.30310700  0.81509100  0.68795600  1
  Ti  Ti7  1  0.80310700  0.18490900  0.81204400  1
  P  P8  1  0.83429800  0.81676500  0.14139500  1
  P  P9  1  0.88401900  0.29574200  0.02561800  1
  P  P10  1  0.99705600  0.51613800  0.24045700  1
  P  P11  1  0.49705600  0.48386200  0.25954300  1
  P  P12  1  0.10306300  0.09721200  0.24283500  1
  P  P13  1  0.60306300  0.90278800  0.25716500  1
  P  P14  1  0.33429800  0.18323500  0.35860500  1
  P  P15  1  0.61598100  0.29574200  0.52561800  1
  P  P16  1  0.38401900  0.70425800  0.47438200  1
  P  P17  1  0.66570200  0.81676500  0.64139500  1
  P  P18  1  0.39693700  0.09721200  0.74283500  1
  P  P19  1  0.89693700  0.90278800  0.75716500  1
  P  P20  1  0.50294400  0.51613800  0.74045700  1
  P  P21  1  0.00294400  0.48386200  0.75954300  1
  P  P22  1  0.11598100  0.70425800  0.97438200  1
  P  P23  1  0.16570200  0.18323500  0.85860500  1
  O  O24  1  0.75472000  0.91545300  0.00852100  1
  O  O25  1  0.18344200  0.79837200  0.02375400  1
  O  O26  1  0.05709900  0.53408500  0.10553000  1
  O  O27  1  0.85279900  0.63259800  0.18534000  1
  O  O28  1  0.45234000  0.65634200  0.16063200  1
  O  O29  1  0.79852200  0.32624400  0.11464300  1
  O  O30  1  0.04078600  0.21707600  0.09362400  1
  O  O31  1  0.60863600  0.41253300  0.21563100  1
  O  O32  1  0.10863600  0.58746700  0.28436900  1
  O  O33  1  0.22390800  0.21552600  0.24161900  1
  O  O34  1  0.95234000  0.34365800  0.33936800  1
  O  O35  1  0.48609600  0.94867200  0.15396300  1
  O  O36  1  0.35279900  0.36740200  0.31466000  1
  O  O37  1  0.97880600  0.87856400  0.15386700  1
  O  O38  1  0.55709900  0.46591500  0.39447000  1
  O  O39  1  0.68653800  0.03765000  0.24773200  1
  O  O40  1  0.18653800  0.96235000  0.25226800  1
  O  O41  1  0.47880600  0.12143600  0.34613300  1
  O  O42  1  0.98609600  0.05132800  0.34603700  1
  O  O43  1  0.72390800  0.78447400  0.25838100  1
  O  O44  1  0.68344200  0.20162800  0.47624600  1
  O  O45  1  0.25472000  0.08454700  0.49147900  1
  O  O46  1  0.70147800  0.32624400  0.61464300  1
  O  O47  1  0.54078600  0.78292400  0.40637600  1
  O  O48  1  0.45921400  0.21707600  0.59362400  1
  O  O49  1  0.29852200  0.67375600  0.38535700  1
  O  O50  1  0.74528000  0.91545300  0.50852100  1
  O  O51  1  0.31655800  0.79837200  0.52375400  1
  O  O52  1  0.27609200  0.21552600  0.74161900  1
  O  O53  1  0.01390400  0.94867200  0.65396300  1
  O  O54  1  0.52119400  0.87856400  0.65386700  1
  O  O55  1  0.81346200  0.03765000  0.74773200  1
  O  O56  1  0.31346200  0.96235000  0.75226800  1
  O  O57  1  0.44290100  0.53408500  0.60553000  1
  O  O58  1  0.02119400  0.12143600  0.84613300  1
  O  O59  1  0.64720100  0.63259800  0.68534000  1
  O  O60  1  0.51390400  0.05132800  0.84603700  1
  O  O61  1  0.04766000  0.65634200  0.66063200  1
  O  O62  1  0.77609200  0.78447400  0.75838100  1
  O  O63  1  0.89136400  0.41253300  0.71563100  1
  O  O64  1  0.39136400  0.58746700  0.78436900  1
  O  O65  1  0.95921400  0.78292400  0.90637600  1
  O  O66  1  0.20147800  0.67375600  0.88535700  1
  O  O67  1  0.54766000  0.34365800  0.83936800  1
  O  O68  1  0.14720100  0.36740200  0.81466000  1
  O  O69  1  0.94290100  0.46591500  0.89447000  1
  O  O70  1  0.81655800  0.20162800  0.97624600  1
  O  O71  1  0.24528000  0.08454700  0.99147900  1
