# generated using pymatgen
data_LiMn2OF5
_symmetry_space_group_name_H-M   'P 1'
_cell_length_a   4.67435300
_cell_length_b   17.46189700
_cell_length_c   5.02323200
_cell_angle_alpha   90.00000000
_cell_angle_beta   90.00000000
_cell_angle_gamma   90.00000000
_symmetry_Int_Tables_number   1
_chemical_formula_structural   LiMn2OF5
_chemical_formula_sum   'Li4 Mn8 O4 F20'
_cell_volume   410.01162032
_cell_formula_units_Z   4
loop_
 _symmetry_equiv_pos_site_id
 _symmetry_equiv_pos_as_xyz
  1  'x, y, z'
loop_
 _atom_site_type_symbol
 _atom_site_label
 _atom_site_symmetry_multiplicity
 _atom_site_fract_x
 _atom_site_fract_y
 _atom_site_fract_z
 _atom_site_occupancy
  Li  Li0  1  0.00399500  0.38444900  0.24556500  1
  Li  Li1  1  0.00399500  0.61555100  0.74556500  1
  Li  Li2  1  0.49600500  0.88444900  0.24556500  1
  Li  Li3  1  0.49600500  0.11555100  0.74556500  1
  Mn  Mn4  1  0.02756100  0.27823400  0.75554500  1
  Mn  Mn5  1  0.99417800  0.05552000  0.25174300  1
  Mn  Mn6  1  0.02756100  0.72176600  0.25554500  1
  Mn  Mn7  1  0.99417800  0.94448000  0.75174300  1
  Mn  Mn8  1  0.50582200  0.55552000  0.25174300  1
  Mn  Mn9  1  0.47243900  0.77823400  0.75554500  1
  Mn  Mn10  1  0.50582200  0.44448000  0.75174300  1
  Mn  Mn11  1  0.47243900  0.22176600  0.25554500  1
  O  O12  1  0.24501000  0.28963400  0.06589000  1
  O  O13  1  0.24501000  0.71036600  0.56589000  1
  O  O14  1  0.25499000  0.21036600  0.56589000  1
  O  O15  1  0.25499000  0.78963400  0.06589000  1
  F  F16  1  0.23324300  0.62895400  0.08296600  1
  F  F17  1  0.23324300  0.37104600  0.58296600  1
  F  F18  1  0.22362300  0.04015300  0.57262800  1
  F  F19  1  0.22362300  0.95984700  0.07262800  1
  F  F20  1  0.27637700  0.45984700  0.07262800  1
  F  F21  1  0.27637700  0.54015300  0.57262800  1
  F  F22  1  0.26675700  0.87104600  0.58296600  1
  F  F23  1  0.26675700  0.12895400  0.08296600  1
  F  F24  1  0.73573400  0.79135900  0.44016900  1
  F  F25  1  0.73573400  0.20864100  0.94016900  1
  F  F26  1  0.71234100  0.86606800  0.91242200  1
  F  F27  1  0.71234100  0.13393200  0.41242200  1
  F  F28  1  0.72659400  0.46251300  0.42307000  1
  F  F29  1  0.72659400  0.53748700  0.92307000  1
  F  F30  1  0.77340600  0.03748700  0.92307000  1
  F  F31  1  0.77340600  0.96251300  0.42307000  1
  F  F32  1  0.78765900  0.36606800  0.91242200  1
  F  F33  1  0.78765900  0.63393200  0.41242200  1
  F  F34  1  0.76426600  0.29135900  0.44016900  1
  F  F35  1  0.76426600  0.70864100  0.94016900  1
