# generated using pymatgen
data_Na2LiCaVP2O9
_symmetry_space_group_name_H-M   'P 1'
_cell_length_a   6.90739500
_cell_length_b   10.58677600
_cell_length_c   10.64614800
_cell_angle_alpha   90.00000000
_cell_angle_beta   90.00000000
_cell_angle_gamma   90.00000000
_symmetry_Int_Tables_number   1
_chemical_formula_structural   Na2LiCaVP2O9
_chemical_formula_sum   'Na8 Li4 Ca4 V4 P8 O36'
_cell_volume   778.52132906
_cell_formula_units_Z   4
loop_
 _symmetry_equiv_pos_site_id
 _symmetry_equiv_pos_as_xyz
  1  'x, y, z'
loop_
 _atom_site_type_symbol
 _atom_site_label
 _atom_site_symmetry_multiplicity
 _atom_site_fract_x
 _atom_site_fract_y
 _atom_site_fract_z
 _atom_site_occupancy
  Na  Na0  1  0.49157400  0.14495900  0.72922200  1
  Na  Na1  1  0.00769000  0.15403500  0.74097700  1
  Na  Na2  1  0.50769000  0.65403500  0.75902300  1
  Na  Na3  1  0.99157400  0.64495900  0.77077800  1
  Na  Na4  1  0.00769000  0.34596500  0.24097700  1
  Na  Na5  1  0.49157400  0.35504100  0.22922200  1
  Na  Na6  1  0.50769000  0.84596500  0.25902300  1
  Na  Na7  1  0.99157400  0.85504100  0.27077800  1
  Li  Li8  1  0.96718000  0.99760200  0.53157900  1
  Li  Li9  1  0.46718000  0.49760200  0.96842100  1
  Li  Li10  1  0.96718000  0.50239800  0.03157900  1
  Li  Li11  1  0.46718000  0.00239800  0.46842100  1
  Ca  Ca12  1  0.75116000  0.43921500  0.56896900  1
  Ca  Ca13  1  0.25116000  0.93921500  0.93103100  1
  Ca  Ca14  1  0.75116000  0.06078500  0.06896900  1
  Ca  Ca15  1  0.25116000  0.56078500  0.43103100  1
  V  V16  1  0.74377900  0.79232000  0.53192800  1
  V  V17  1  0.24377900  0.29232000  0.96807200  1
  V  V18  1  0.74377900  0.70768000  0.03192800  1
  V  V19  1  0.24377900  0.20768000  0.46807200  1
  P  P20  1  0.24739100  0.85583600  0.59297300  1
  P  P21  1  0.25315000  0.41629900  0.68361000  1
  P  P22  1  0.75315000  0.91629900  0.81639000  1
  P  P23  1  0.74739100  0.35583600  0.90702700  1
  P  P24  1  0.24739100  0.64416400  0.09297300  1
  P  P25  1  0.25315000  0.08370100  0.18361000  1
  P  P26  1  0.75315000  0.58370100  0.31639000  1
  P  P27  1  0.74739100  0.14416400  0.40702700  1
  O  O28  1  0.42970400  0.81661300  0.51285300  1
  O  O29  1  0.06480300  0.81295700  0.51661200  1
  O  O30  1  0.24336000  0.00519700  0.59520400  1
  O  O31  1  0.75144100  0.64761400  0.61665700  1
  O  O32  1  0.42985900  0.48405400  0.62674700  1
  O  O33  1  0.07162400  0.48333000  0.63252900  1
  O  O34  1  0.24974500  0.27432100  0.64721800  1
  O  O35  1  0.76233400  0.92971200  0.66929000  1
  O  O36  1  0.25255000  0.80045200  0.72653400  1
  O  O37  1  0.75255000  0.30045200  0.77346600  1
  O  O38  1  0.26233400  0.42971200  0.83071000  1
  O  O39  1  0.74974500  0.77432100  0.85278200  1
  O  O40  1  0.57162400  0.98333000  0.86747100  1
  O  O41  1  0.92985900  0.98405400  0.87325300  1
  O  O42  1  0.25144100  0.14761400  0.88334300  1
  O  O43  1  0.74336000  0.50519700  0.90479600  1
  O  O44  1  0.92970400  0.31661300  0.98714700  1
  O  O45  1  0.56480300  0.31295700  0.98338800  1
  O  O46  1  0.42970400  0.68338700  0.01285300  1
  O  O47  1  0.06480300  0.68704300  0.01661200  1
  O  O48  1  0.24336000  0.49480300  0.09520400  1
  O  O49  1  0.75144100  0.85238600  0.11665700  1
  O  O50  1  0.42985900  0.01594600  0.12674700  1
  O  O51  1  0.07162400  0.01667000  0.13252900  1
  O  O52  1  0.24974500  0.22567900  0.14721800  1
  O  O53  1  0.76233400  0.57028800  0.16929000  1
  O  O54  1  0.25255000  0.69954800  0.22653400  1
  O  O55  1  0.75255000  0.19954800  0.27346600  1
  O  O56  1  0.26233400  0.07028800  0.33071000  1
  O  O57  1  0.74974500  0.72567900  0.35278200  1
  O  O58  1  0.92985900  0.51594600  0.37325300  1
  O  O59  1  0.57162400  0.51667000  0.36747100  1
  O  O60  1  0.25144100  0.35238600  0.38334300  1
  O  O61  1  0.74336000  0.99480300  0.40479600  1
  O  O62  1  0.92970400  0.18338700  0.48714700  1
  O  O63  1  0.56480300  0.18704300  0.48338800  1
