# generated using pymatgen
data_LiFePO4
_symmetry_space_group_name_H-M   'P 1'
_cell_length_a   10.33747900
_cell_length_b   5.84012600
_cell_length_c   10.08007302
_cell_angle_alpha   86.70015711
_cell_angle_beta   90.00000000
_cell_angle_gamma   90.00000000
_symmetry_Int_Tables_number   1
_chemical_formula_structural   LiFePO4
_chemical_formula_sum   'Li8 Fe8 P8 O32'
_cell_volume   607.54698014
_cell_formula_units_Z   8
loop_
 _symmetry_equiv_pos_site_id
 _symmetry_equiv_pos_as_xyz
  1  'x, y, z'
loop_
 _atom_site_type_symbol
 _atom_site_label
 _atom_site_symmetry_multiplicity
 _atom_site_fract_x
 _atom_site_fract_y
 _atom_site_fract_z
 _atom_site_occupancy
  Li  Li0  1  0.08391000  0.87723200  0.73108200  1
  Li  Li1  1  0.41609000  0.87723200  0.23108200  1
  Li  Li2  1  0.60538800  0.64024100  0.01647600  1
  Li  Li3  1  0.89461200  0.64024100  0.51647600  1
  Li  Li4  1  0.10538800  0.35975900  0.48352400  1
  Li  Li5  1  0.39461200  0.35975900  0.98352400  1
  Li  Li6  1  0.58391000  0.12276800  0.76891800  1
  Li  Li7  1  0.91609000  0.12276800  0.26891800  1
  Fe  Fe8  1  0.84573200  0.87128800  0.85047700  1
  Fe  Fe9  1  0.65426800  0.87128800  0.35047700  1
  Fe  Fe10  1  0.33274600  0.62207800  0.63841100  1
  Fe  Fe11  1  0.16725400  0.62207800  0.13841100  1
  Fe  Fe12  1  0.83274600  0.37792200  0.86158900  1
  Fe  Fe13  1  0.66725400  0.37792200  0.36158900  1
  Fe  Fe14  1  0.34573200  0.12871200  0.64952300  1
  Fe  Fe15  1  0.15426800  0.12871200  0.14952300  1
  P  P16  1  0.35080900  0.87328500  0.90529300  1
  P  P17  1  0.14919100  0.87328500  0.40529300  1
  P  P18  1  0.60415000  0.63130600  0.65103600  1
  P  P19  1  0.89585000  0.63130600  0.15103600  1
  P  P20  1  0.10415000  0.36869400  0.84896400  1
  P  P21  1  0.39585000  0.36869400  0.34896400  1
  P  P22  1  0.85080900  0.12671500  0.59470700  1
  P  P23  1  0.64919100  0.12671500  0.09470700  1
  O  O24  1  0.23298100  0.89814900  0.53187500  1
  O  O25  1  0.92018400  0.89670900  0.63512400  1
  O  O26  1  0.26701900  0.89814900  0.03187500  1
  O  O27  1  0.57981600  0.89670900  0.13512400  1
  O  O28  1  0.26154200  0.83839900  0.78172000  1
  O  O29  1  0.51435900  0.84693000  0.63906700  1
  O  O30  1  0.23845800  0.83839900  0.28172000  1
  O  O31  1  0.98564100  0.84693000  0.13906700  1
  O  O32  1  0.44084100  0.66832700  0.92376200  1
  O  O33  1  0.69806400  0.63834300  0.77180100  1
  O  O34  1  0.05915900  0.66832700  0.42376200  1
  O  O35  1  0.68587600  0.62164500  0.51904000  1
  O  O36  1  0.01280500  0.58159400  0.83450300  1
  O  O37  1  0.80193600  0.63834300  0.27180100  1
  O  O38  1  0.81412400  0.62164500  0.01904000  1
  O  O39  1  0.48719500  0.58159400  0.33450300  1
  O  O40  1  0.51280500  0.41840600  0.66549700  1
  O  O41  1  0.18587600  0.37835500  0.98096000  1
  O  O42  1  0.19806400  0.36165700  0.72819900  1
  O  O43  1  0.98719500  0.41840600  0.16549700  1
  O  O44  1  0.31412400  0.37835500  0.48096000  1
  O  O45  1  0.94084100  0.33167300  0.57623800  1
  O  O46  1  0.30193600  0.36165700  0.22819900  1
  O  O47  1  0.55915900  0.33167300  0.07623800  1
  O  O48  1  0.01435900  0.15307000  0.86093300  1
  O  O49  1  0.76154200  0.16160100  0.71828000  1
  O  O50  1  0.48564100  0.15307000  0.36093300  1
  O  O51  1  0.73845800  0.16160100  0.21828000  1
  O  O52  1  0.42018400  0.10329100  0.86487600  1
  O  O53  1  0.73298100  0.10185100  0.96812500  1
  O  O54  1  0.07981600  0.10329100  0.36487600  1
  O  O55  1  0.76701900  0.10185100  0.46812500  1
