# generated using pymatgen
data_LiVP2O7
_symmetry_space_group_name_H-M   'P 1'
_cell_length_a   8.23185600
_cell_length_b   5.22759400
_cell_length_c   13.94990368
_cell_angle_alpha   71.05356228
_cell_angle_beta   90.00000000
_cell_angle_gamma   90.00000000
_symmetry_Int_Tables_number   1
_chemical_formula_structural   LiVP2O7
_chemical_formula_sum   'Li4 V4 P8 O28'
_cell_volume   567.78050021
_cell_formula_units_Z   4
loop_
 _symmetry_equiv_pos_site_id
 _symmetry_equiv_pos_as_xyz
  1  'x, y, z'
loop_
 _atom_site_type_symbol
 _atom_site_label
 _atom_site_symmetry_multiplicity
 _atom_site_fract_x
 _atom_site_fract_y
 _atom_site_fract_z
 _atom_site_occupancy
  Li  Li0  1  0.74221800  0.07157300  0.73226000  1
  Li  Li1  1  0.24221800  0.92842700  0.76774000  1
  Li  Li2  1  0.75778200  0.07157300  0.23226000  1
  Li  Li3  1  0.25778200  0.92842700  0.26774000  1
  V  V4  1  0.64817700  0.65394600  0.12902600  1
  V  V5  1  0.14817700  0.34605400  0.37097400  1
  V  V6  1  0.85182300  0.65394600  0.62902600  1
  V  V7  1  0.35182300  0.34605400  0.87097400  1
  P  P8  1  0.79544100  0.29347000  0.48195900  1
  P  P9  1  0.54444700  0.45752000  0.32060500  1
  P  P10  1  0.04444700  0.54248000  0.17939500  1
  P  P11  1  0.29544100  0.70653000  0.01804100  1
  P  P12  1  0.70455900  0.29347000  0.98195900  1
  P  P13  1  0.95555300  0.45752000  0.82060500  1
  P  P14  1  0.45555300  0.54248000  0.67939500  1
  P  P15  1  0.20455900  0.70653000  0.51804100  1
  O  O16  1  0.93469500  0.28011100  0.75240500  1
  O  O17  1  0.64147700  0.71887400  0.26602100  1
  O  O18  1  0.17573500  0.43914300  0.49805900  1
  O  O19  1  0.41345700  0.74997700  0.09585000  1
  O  O20  1  0.36801900  0.52789300  0.33424300  1
  O  O21  1  0.27968300  0.94654700  0.92023700  1
  O  O22  1  0.61467800  0.31277200  0.43162300  1
  O  O23  1  0.11467800  0.68722800  0.06837700  1
  O  O24  1  0.77968300  0.05345300  0.57976300  1
  O  O25  1  0.86801900  0.47210700  0.16575700  1
  O  O26  1  0.91345700  0.25002300  0.40415000  1
  O  O27  1  0.67573500  0.56085700  0.00194100  1
  O  O28  1  0.14147700  0.28112600  0.23397900  1
  O  O29  1  0.43469500  0.71988900  0.74759500  1
  O  O30  1  0.56530500  0.28011100  0.25240500  1
  O  O31  1  0.85852300  0.71887400  0.76602100  1
  O  O32  1  0.32426500  0.43914300  0.99805900  1
  O  O33  1  0.08654300  0.74997700  0.59585000  1
  O  O34  1  0.13198100  0.52789300  0.83424300  1
  O  O35  1  0.22031700  0.94654700  0.42023700  1
  O  O36  1  0.88532200  0.31277200  0.93162300  1
  O  O37  1  0.38532200  0.68722800  0.56837700  1
  O  O38  1  0.72031700  0.05345300  0.07976300  1
  O  O39  1  0.63198100  0.47210700  0.66575700  1
  O  O40  1  0.58654300  0.25002300  0.90415000  1
  O  O41  1  0.82426500  0.56085700  0.50194100  1
  O  O42  1  0.35852300  0.28112600  0.73397900  1
  O  O43  1  0.06530500  0.71988900  0.24759500  1
