# generated using pymatgen
data_LiV2S2(O4F3)2
_symmetry_space_group_name_H-M   'P 1'
_cell_length_a   7.18146600
_cell_length_b   7.95278500
_cell_length_c   12.64978843
_cell_angle_alpha   54.00981985
_cell_angle_beta   90.00000000
_cell_angle_gamma   90.00000000
_symmetry_Int_Tables_number   1
_chemical_formula_structural   LiV2S2(O4F3)2
_chemical_formula_sum   'Li2 V4 S4 O16 F12'
_cell_volume   584.55761970
_cell_formula_units_Z   2
loop_
 _symmetry_equiv_pos_site_id
 _symmetry_equiv_pos_as_xyz
  1  'x, y, z'
loop_
 _atom_site_type_symbol
 _atom_site_label
 _atom_site_symmetry_multiplicity
 _atom_site_fract_x
 _atom_site_fract_y
 _atom_site_fract_z
 _atom_site_occupancy
  Li  Li0  1  0.89150800  0.63852800  0.27876600  1
  Li  Li1  1  0.10849200  0.63852800  0.77876600  1
  V  V2  1  0.24630700  0.99579400  0.00010100  1
  V  V3  1  0.25377400  0.00903100  0.48932600  1
  V  V4  1  0.74622600  0.00903100  0.98932600  1
  V  V5  1  0.75369300  0.99579400  0.50010100  1
  S  S6  1  0.51601300  0.32735600  0.50011500  1
  S  S7  1  0.48398700  0.32735600  0.00011500  1
  S  S8  1  0.98838700  0.64912900  0.51363500  1
  S  S9  1  0.01161300  0.64912900  0.01363500  1
  O  O10  1  0.35801500  0.26633000  0.44595800  1
  O  O11  1  0.35216500  0.12655500  0.06790900  1
  O  O12  1  0.37894600  0.49859800  0.89274200  1
  O  O13  1  0.44701800  0.34215000  0.59983800  1
  O  O14  1  0.62105400  0.49859800  0.39274200  1
  O  O15  1  0.55298200  0.34215000  0.09983800  1
  O  O16  1  0.64198500  0.26633000  0.94595800  1
  O  O17  1  0.64783500  0.12655500  0.56790900  1
  O  O18  1  0.85558600  0.72143100  0.05893600  1
  O  O19  1  0.84767800  0.84461000  0.44439300  1
  O  O20  1  0.95409000  0.63770900  0.90835000  1
  O  O21  1  0.89556800  0.47269100  0.62353900  1
  O  O22  1  0.10443200  0.47269100  0.12353900  1
  O  O23  1  0.04591000  0.63770900  0.40835000  1
  O  O24  1  0.14441400  0.72143100  0.55893600  1
  O  O25  1  0.15232200  0.84461000  0.94439300  1
  F  F26  1  0.25900300  0.88694600  0.66521900  1
  F  F27  1  0.26640200  0.22376300  0.83824300  1
  F  F28  1  0.50894200  0.90093400  0.49918300  1
  F  F29  1  0.49105800  0.90093400  0.99918300  1
  F  F30  1  0.74099700  0.88694600  0.16521900  1
  F  F31  1  0.73359800  0.22376300  0.33824300  1
  F  F32  1  0.77196600  0.07939700  0.83008300  1
  F  F33  1  0.82030900  0.78754000  0.66413400  1
  F  F34  1  0.00359400  0.10937600  0.48850000  1
  F  F35  1  0.99640600  0.10937600  0.98850000  1
  F  F36  1  0.17969100  0.78754000  0.16413400  1
  F  F37  1  0.22803400  0.07939700  0.33008300  1
