# generated using pymatgen
data_Li8Mn7Fe(BO3)8
_symmetry_space_group_name_H-M   'P 1'
_cell_length_a   5.24830900
_cell_length_b   9.06044522
_cell_length_c   11.35103976
_cell_angle_alpha   108.14850234
_cell_angle_beta   89.70975029
_cell_angle_gamma   91.22069175
_symmetry_Int_Tables_number   1
_chemical_formula_structural   Li8Mn7Fe(BO3)8
_chemical_formula_sum   'Li8 Mn7 Fe1 B8 O24'
_cell_volume   512.79571654
_cell_formula_units_Z   1
loop_
 _symmetry_equiv_pos_site_id
 _symmetry_equiv_pos_as_xyz
  1  'x, y, z'
loop_
 _atom_site_type_symbol
 _atom_site_label
 _atom_site_symmetry_multiplicity
 _atom_site_fract_x
 _atom_site_fract_y
 _atom_site_fract_z
 _atom_site_occupancy
  Li  Li0  1  0.85025100  0.38213000  0.16351300  1
  Li  Li1  1  0.15045900  0.11774000  0.33546000  1
  Li  Li2  1  0.34975400  0.88260700  0.16413300  1
  Li  Li3  1  0.64998600  0.61747200  0.33561500  1
  Li  Li4  1  0.34888900  0.38164100  0.66462800  1
  Li  Li5  1  0.64926000  0.11747700  0.83577300  1
  Li  Li6  1  0.84969800  0.88260000  0.66426100  1
  Li  Li7  1  0.15119500  0.61680500  0.83627700  1
  Mn  Mn8  1  0.33232000  0.19757500  0.11504000  1
  Mn  Mn9  1  0.83295400  0.69737000  0.11740200  1
  Mn  Mn10  1  0.66673300  0.30243700  0.38230000  1
  Mn  Mn11  1  0.83439600  0.19700300  0.61679900  1
  Mn  Mn12  1  0.16703400  0.80262100  0.38269500  1
  Mn  Mn13  1  0.33312900  0.69772400  0.61732500  1
  Mn  Mn14  1  0.66705400  0.80336900  0.88284800  1
  Fe  Fe15  1  0.16414600  0.30398800  0.88185700  1
  B  B16  1  0.83062900  0.03516000  0.13128600  1
  B  B17  1  0.33022400  0.53480800  0.13022400  1
  B  B18  1  0.16927600  0.46500100  0.36876000  1
  B  B19  1  0.33054200  0.03568600  0.63189500  1
  B  B20  1  0.66926800  0.96496500  0.36868700  1
  B  B21  1  0.83088700  0.53509400  0.63170600  1
  B  B22  1  0.67139500  0.46343700  0.87047900  1
  B  B23  1  0.16870800  0.96622400  0.86817800  1
  O  O24  1  0.08968100  0.02549900  0.14860000  1
  O  O25  1  0.71330800  0.17870400  0.16240300  1
  O  O26  1  0.18047300  0.39883800  0.08472400  1
  O  O27  1  0.58916300  0.52501100  0.14846800  1
  O  O28  1  0.81961900  0.10113100  0.41322600  1
  O  O29  1  0.28556200  0.32130000  0.33759100  1
  O  O30  1  0.21416500  0.67891800  0.16229000  1
  O  O31  1  0.68072500  0.89872200  0.08668900  1
  O  O32  1  0.91036500  0.47492300  0.35110200  1
  O  O33  1  0.58968900  0.02584400  0.64908300  1
  O  O34  1  0.31941600  0.60132200  0.41345000  1
  O  O35  1  0.78570100  0.82111500  0.33742100  1
  O  O36  1  0.21407200  0.17933600  0.66303300  1
  O  O37  1  0.68082800  0.39880100  0.58741400  1
  O  O38  1  0.41039200  0.97494400  0.35125100  1
  O  O39  1  0.09004900  0.52543500  0.64933000  1
  O  O40  1  0.31707000  0.10315100  0.91130200  1
  O  O41  1  0.79230600  0.32066700  0.84101800  1
  O  O42  1  0.71433300  0.67889800  0.66258200  1
  O  O43  1  0.18059600  0.89930500  0.58697400  1
  O  O44  1  0.41144300  0.46885200  0.85311900  1
  O  O45  1  0.81765900  0.60113000  0.91250900  1
  O  O46  1  0.28575300  0.82224900  0.83824000  1
  O  O47  1  0.90944300  0.97496600  0.85103800  1
