# generated using pymatgen
data_Li3La5Ti6Nb2O26
_symmetry_space_group_name_H-M   'P 1'
_cell_length_a   5.53364800
_cell_length_b   5.53132100
_cell_length_c   17.25704310
_cell_angle_alpha   81.00039769
_cell_angle_beta   90.00000000
_cell_angle_gamma   90.00000000
_symmetry_Int_Tables_number   1
_chemical_formula_structural   Li3La5Ti6Nb2O26
_chemical_formula_sum   'Li3 La5 Ti6 Nb2 O26'
_cell_volume   521.70762090
_cell_formula_units_Z   1
loop_
 _symmetry_equiv_pos_site_id
 _symmetry_equiv_pos_as_xyz
  1  'x, y, z'
loop_
 _atom_site_type_symbol
 _atom_site_label
 _atom_site_symmetry_multiplicity
 _atom_site_fract_x
 _atom_site_fract_y
 _atom_site_fract_z
 _atom_site_occupancy
  Li  Li0  1  0.22876500  0.50000000  0.50000000  1
  Li  Li1  1  0.75906600  0.00000000  0.50000000  1
  Li  Li2  1  0.24264800  0.00000000  0.50000000  1
  La  La3  1  0.00214300  0.38203900  0.23418700  1
  La  La4  1  0.49869500  0.11547300  0.76455600  1
  La  La5  1  0.49869500  0.88452700  0.23544400  1
  La  La6  1  0.00104300  0.50000000  0.00000000  1
  La  La7  1  0.00214300  0.61796100  0.76581300  1
  Ti  Ti8  1  0.99969800  0.17980600  0.63837000  1
  Ti  Ti9  1  0.99984900  0.05756700  0.88545400  1
  Ti  Ti10  1  0.50031400  0.44264800  0.11368300  1
  Ti  Ti11  1  0.50031400  0.55735200  0.88631700  1
  Ti  Ti12  1  0.99984900  0.94243300  0.11454600  1
  Ti  Ti13  1  0.99969800  0.82019400  0.36163000  1
  Nb  Nb14  1  0.50293300  0.32280400  0.36302700  1
  Nb  Nb15  1  0.50293300  0.67719600  0.63697300  1
  O  O16  1  0.24945800  0.58318200  0.33973300  1
  O  O17  1  0.75072700  0.58585100  0.33598100  1
  O  O18  1  0.75993700  0.67876800  0.12082800  1
  O  O19  1  0.24050300  0.67891700  0.12090900  1
  O  O20  1  0.00935600  0.21989300  0.53581900  1
  O  O21  1  0.49821000  0.38397200  0.22970900  1
  O  O22  1  0.00261500  0.11190000  0.77100700  1
  O  O23  1  0.99981300  0.00000000  0.00000000  1
  O  O24  1  0.48760000  0.25527500  0.47038400  1
  O  O25  1  0.24011900  0.20069200  0.11999300  1
  O  O26  1  0.75924000  0.19934600  0.12106700  1
  O  O27  1  0.25128800  0.91888100  0.66324900  1
  O  O28  1  0.75117700  0.92020500  0.66024600  1
  O  O29  1  0.75117700  0.07979500  0.33975400  1
  O  O30  1  0.25128800  0.08111900  0.33675100  1
  O  O31  1  0.75924000  0.80065400  0.87893300  1
  O  O32  1  0.24011900  0.79930800  0.88000700  1
  O  O33  1  0.48760000  0.74472500  0.52961600  1
  O  O34  1  0.00261500  0.88810000  0.22899300  1
  O  O35  1  0.49821000  0.61602800  0.77029100  1
  O  O36  1  0.50038100  0.50000000  0.00000000  1
  O  O37  1  0.00935600  0.78010700  0.46418100  1
  O  O38  1  0.24050300  0.32108300  0.87909100  1
  O  O39  1  0.75993700  0.32123200  0.87917200  1
  O  O40  1  0.75072700  0.41414900  0.66401900  1
  O  O41  1  0.24945800  0.41681800  0.66026700  1
