# generated using pymatgen
data_LiMn5O10
_symmetry_space_group_name_H-M   'P 1'
_cell_length_a   5.02582500
_cell_length_b   7.67437827
_cell_length_c   10.16950756
_cell_angle_alpha   74.40899649
_cell_angle_beta   81.97946003
_cell_angle_gamma   71.88313113
_symmetry_Int_Tables_number   1
_chemical_formula_structural   LiMn5O10
_chemical_formula_sum   'Li2 Mn10 O20'
_cell_volume   358.40486614
_cell_formula_units_Z   2
loop_
 _symmetry_equiv_pos_site_id
 _symmetry_equiv_pos_as_xyz
  1  'x, y, z'
loop_
 _atom_site_type_symbol
 _atom_site_label
 _atom_site_symmetry_multiplicity
 _atom_site_fract_x
 _atom_site_fract_y
 _atom_site_fract_z
 _atom_site_occupancy
  Li  Li0  1  0.69185600  0.45952500  0.75210400  1
  Li  Li1  1  0.30814400  0.54047500  0.24789600  1
  Mn  Mn2  1  0.89573800  0.68898600  0.50077500  1
  Mn  Mn3  1  0.99890400  0.99684900  0.75048600  1
  Mn  Mn4  1  0.88607300  0.68674600  0.00277700  1
  Mn  Mn5  1  0.30864400  0.89315600  0.99514900  1
  Mn  Mn6  1  0.00109600  0.00315100  0.24951400  1
  Mn  Mn7  1  0.31263000  0.89143500  0.49597200  1
  Mn  Mn8  1  0.68737000  0.10856500  0.50402800  1
  Mn  Mn9  1  0.69135600  0.10684400  0.00485100  1
  Mn  Mn10  1  0.11392700  0.31325400  0.99722300  1
  Mn  Mn11  1  0.10426200  0.31101400  0.49922500  1
  O  O12  1  0.96632700  0.87041400  0.60774500  1
  O  O13  1  0.88641500  0.53075600  0.89275000  1
  O  O14  1  0.64980500  0.93612400  0.89653600  1
  O  O15  1  0.96915300  0.86769300  0.11042500  1
  O  O16  1  0.91102900  0.53590600  0.38631400  1
  O  O17  1  0.65120600  0.94017900  0.39530400  1
  O  O18  1  0.79429300  0.22447800  0.62303500  1
  O  O19  1  0.55528400  0.67971900  0.59645300  1
  O  O20  1  0.80143200  0.22520600  0.11950300  1
  O  O21  1  0.54266400  0.68263300  0.09989500  1
  O  O22  1  0.45733600  0.31736700  0.90010500  1
  O  O23  1  0.19856800  0.77479400  0.88049700  1
  O  O24  1  0.44471600  0.32028100  0.40354700  1
  O  O25  1  0.20570700  0.77552200  0.37696500  1
  O  O26  1  0.34879400  0.05982100  0.60469600  1
  O  O27  1  0.08897100  0.46409400  0.61368600  1
  O  O28  1  0.03084700  0.13230700  0.88957500  1
  O  O29  1  0.35019500  0.06387600  0.10346400  1
  O  O30  1  0.11358500  0.46924400  0.10725000  1
  O  O31  1  0.03367300  0.12958600  0.39225500  1
