# generated using pymatgen
data_Li2Ni(CO3)2
_symmetry_space_group_name_H-M   'P 1'
_cell_length_a   5.18176368
_cell_length_b   6.43234113
_cell_length_c   15.51463168
_cell_angle_alpha   89.96601453
_cell_angle_beta   90.05744737
_cell_angle_gamma   66.66521915
_symmetry_Int_Tables_number   1
_chemical_formula_structural   Li2Ni(CO3)2
_chemical_formula_sum   'Li8 Ni4 C8 O24'
_cell_volume   474.81873209
_cell_formula_units_Z   4
loop_
 _symmetry_equiv_pos_site_id
 _symmetry_equiv_pos_as_xyz
  1  'x, y, z'
loop_
 _atom_site_type_symbol
 _atom_site_label
 _atom_site_symmetry_multiplicity
 _atom_site_fract_x
 _atom_site_fract_y
 _atom_site_fract_z
 _atom_site_occupancy
  Li  Li0  1  0.33914900  0.26384900  0.46206600  1
  Li  Li1  1  0.33915600  0.26388500  0.96208700  1
  Li  Li2  1  0.15185700  0.24864800  0.21200600  1
  Li  Li3  1  0.15182400  0.24862800  0.71204000  1
  Li  Li4  1  0.82228700  0.79915800  0.28204400  1
  Li  Li5  1  0.82233900  0.79899400  0.78201100  1
  Li  Li6  1  0.65779400  0.73711300  0.03687400  1
  Li  Li7  1  0.65774100  0.73705700  0.53686500  1
  Ni  Ni8  1  0.49799300  0.50156000  0.75087400  1
  Ni  Ni9  1  0.99695600  0.00421100  0.00019000  1
  Ni  Ni10  1  0.49805300  0.50134200  0.25086800  1
  Ni  Ni11  1  0.99696600  0.00456100  0.50021600  1
  C  C12  1  0.70868900  0.13756900  0.13147300  1
  C  C13  1  0.70848600  0.13758100  0.63155000  1
  C  C14  1  0.78791700  0.36596300  0.38113900  1
  C  C15  1  0.78793200  0.36584700  0.88111200  1
  C  C16  1  0.20861300  0.63906900  0.11952200  1
  C  C17  1  0.20857700  0.63905200  0.61951800  1
  C  C18  1  0.28629600  0.86780200  0.36923200  1
  C  C19  1  0.28646700  0.86765100  0.86915000  1
  O  O20  1  0.96509100  0.12352900  0.12806700  1
  O  O21  1  0.96492300  0.12358000  0.62814600  1
  O  O22  1  0.60263500  0.09708800  0.05993900  1
  O  O23  1  0.60243200  0.09726700  0.56001700  1
  O  O24  1  0.56602900  0.18073100  0.20236400  1
  O  O25  1  0.56593700  0.18064400  0.70247900  1
  O  O26  1  0.93213100  0.32074800  0.45171700  1
  O  O27  1  0.93221400  0.32050500  0.95167700  1
  O  O28  1  0.89255300  0.40457900  0.30930200  1
  O  O29  1  0.89248200  0.40450800  0.80928500  1
  O  O30  1  0.52970800  0.38263800  0.37828900  1
  O  O31  1  0.52970500  0.38260600  0.87829000  1
  O  O32  1  0.46666000  0.62132600  0.12290500  1
  O  O33  1  0.46659900  0.62122000  0.62288600  1
  O  O34  1  0.10350900  0.59692300  0.19122200  1
  O  O35  1  0.10347400  0.59683300  0.69123100  1
  O  O36  1  0.43181000  0.81877100  0.29924900  1
  O  O37  1  0.43192400  0.81870600  0.79914900  1
  O  O38  1  0.06262600  0.68837200  0.04954500  1
  O  O39  1  0.06244000  0.68855800  0.54955900  1
  O  O40  1  0.39094500  0.91035800  0.44088000  1
  O  O41  1  0.39116200  0.91015500  0.94078500  1
  O  O42  1  0.02835300  0.88517700  0.37244400  1
  O  O43  1  0.02862000  0.88494600  0.87237500  1
