# generated using pymatgen
data_Li2Mn4OF8
_symmetry_space_group_name_H-M   'P 1'
_cell_length_a   8.27541900
_cell_length_b   10.09071036
_cell_length_c   10.46824604
_cell_angle_alpha   66.76277975
_cell_angle_beta   89.49596340
_cell_angle_gamma   89.35450880
_symmetry_Int_Tables_number   1
_chemical_formula_structural   Li2Mn4OF8
_chemical_formula_sum   'Li8 Mn16 O4 F32'
_cell_volume   803.17772970
_cell_formula_units_Z   4
loop_
 _symmetry_equiv_pos_site_id
 _symmetry_equiv_pos_as_xyz
  1  'x, y, z'
loop_
 _atom_site_type_symbol
 _atom_site_label
 _atom_site_symmetry_multiplicity
 _atom_site_fract_x
 _atom_site_fract_y
 _atom_site_fract_z
 _atom_site_occupancy
  Li  Li0  1  0.53458300  0.77344100  0.71625100  1
  Li  Li1  1  0.02769000  0.72176400  0.76665200  1
  Li  Li2  1  0.93648900  0.89772300  0.26155700  1
  Li  Li3  1  0.53792200  0.41513300  0.77383900  1
  Li  Li4  1  0.46783300  0.59348600  0.23967800  1
  Li  Li5  1  0.02309300  0.06656000  0.72251700  1
  Li  Li6  1  0.96824500  0.25571900  0.21048300  1
  Li  Li7  1  0.47302000  0.22354500  0.28621100  1
  Mn  Mn8  1  0.76060800  0.84119500  0.92736000  1
  Mn  Mn9  1  0.77593400  0.95503000  0.48599600  1
  Mn  Mn10  1  0.51668000  0.92477200  0.19139900  1
  Mn  Mn11  1  0.70212000  0.50545600  0.03299900  1
  Mn  Mn12  1  0.27718000  0.69815600  0.49326600  1
  Mn  Mn13  1  0.63867800  0.68606800  0.44693000  1
  Mn  Mn14  1  0.18285500  0.82146300  0.02710300  1
  Mn  Mn15  1  0.97134800  0.43023100  0.67347800  1
  Mn  Mn16  1  0.04312600  0.55062500  0.30432900  1
  Mn  Mn17  1  0.84332000  0.18398600  0.96782100  1
  Mn  Mn18  1  0.35768800  0.30664900  0.54317500  1
  Mn  Mn19  1  0.75582500  0.30957800  0.46212500  1
  Mn  Mn20  1  0.30984800  0.50099300  0.99214200  1
  Mn  Mn21  1  0.46045000  0.03157500  0.82495400  1
  Mn  Mn22  1  0.17989100  0.01307200  0.49088300  1
  Mn  Mn23  1  0.23818100  0.16230000  0.03255000  1
  O  O24  1  0.61605500  0.91973900  0.76573900  1
  O  O25  1  0.71930800  0.89325300  0.32539000  1
  O  O26  1  0.33954500  0.97927700  0.01155000  1
  O  O27  1  0.42622600  0.72869900  0.32691800  1
  F  F28  1  0.98401200  0.95050100  0.90845900  1
  F  F29  1  0.99270700  0.92111500  0.64622900  1
  F  F30  1  0.20954200  0.71172900  0.89048600  1
  F  F31  1  0.35832200  0.85276600  0.57381700  1
  F  F32  1  0.87911600  0.65088500  0.92095900  1
  F  F33  1  0.71970300  0.73956500  0.61509700  1
  F  F34  1  0.09373200  0.86015000  0.40880200  1
  F  F35  1  0.52703800  0.58639400  0.87289600  1
  F  F36  1  0.10004000  0.60414900  0.67079700  1
  F  F37  1  0.99533900  0.76080200  0.18392500  1
  F  F38  1  0.46351500  0.55108900  0.60704800  1
  F  F39  1  0.76680400  0.38353000  0.80561200  1
  F  F40  1  0.38057200  0.33944600  0.91309900  1
  F  F41  1  0.84534200  0.53050000  0.46888700  1
  F  F42  1  0.16802100  0.46252700  0.49588300  1
  F  F43  1  0.64645100  0.67560500  0.10398400  1
  F  F44  1  0.24263500  0.59015000  0.16773000  1
  F  F45  1  0.54157600  0.42809000  0.40639500  1
  F  F46  1  0.06248500  0.25687200  0.85335600  1
  F  F47  1  0.52639000  0.25134100  0.69916400  1
  F  F48  1  0.88485600  0.41442200  0.26929600  1
  F  F49  1  0.68195100  0.02027700  0.99915700  1
  F  F50  1  0.49103500  0.41566800  0.15107100  1
  F  F51  1  0.91306100  0.24396200  0.62530500  1
  F  F52  1  0.24685200  0.10448300  0.67642600  1
  F  F53  1  0.28921500  0.21884900  0.40167900  1
  F  F54  1  0.13970800  0.34306100  0.08862100  1
  F  F55  1  0.63067900  0.14745300  0.43559100  1
  F  F56  1  0.77944600  0.29262400  0.09460800  1
  F  F57  1  0.95855500  0.12514800  0.39799300  1
  F  F58  1  0.38950400  0.09840500  0.21406800  1
  F  F59  1  0.00805600  0.07896000  0.13026200  1
