# generated using pymatgen
data_LiP2WO8
_symmetry_space_group_name_H-M   'P 1'
_cell_length_a   8.83625500
_cell_length_b   4.89561100
_cell_length_c   15.62125779
_cell_angle_alpha   88.06693671
_cell_angle_beta   90.00000000
_cell_angle_gamma   90.00000000
_symmetry_Int_Tables_number   1
_chemical_formula_structural   LiP2WO8
_chemical_formula_sum   'Li4 P8 W4 O32'
_cell_volume   675.37335363
_cell_formula_units_Z   4
loop_
 _symmetry_equiv_pos_site_id
 _symmetry_equiv_pos_as_xyz
  1  'x, y, z'
loop_
 _atom_site_type_symbol
 _atom_site_label
 _atom_site_symmetry_multiplicity
 _atom_site_fract_x
 _atom_site_fract_y
 _atom_site_fract_z
 _atom_site_occupancy
  Li  Li0  1  0.80526500  0.46153800  0.56975100  1
  Li  Li1  1  0.30526500  0.53846200  0.93024900  1
  Li  Li2  1  0.69473500  0.46153800  0.06975100  1
  Li  Li3  1  0.19473500  0.53846200  0.43024900  1
  P  P4  1  0.21506700  0.10937700  0.57784700  1
  P  P5  1  0.60652200  0.14825900  0.76649300  1
  P  P6  1  0.28493300  0.10937700  0.07784700  1
  P  P7  1  0.89347800  0.14825900  0.26649300  1
  P  P8  1  0.10652200  0.85174100  0.73350700  1
  P  P9  1  0.71506700  0.89062300  0.92215300  1
  P  P10  1  0.39347800  0.85174100  0.23350700  1
  P  P11  1  0.78493300  0.89062300  0.42215300  1
  W  W12  1  0.94077100  0.37667200  0.84371800  1
  W  W13  1  0.55922900  0.37667200  0.34371800  1
  W  W14  1  0.44077100  0.62332800  0.65628200  1
  W  W15  1  0.05922900  0.62332800  0.15628200  1
  O  O16  1  0.57906100  0.00774700  0.85983500  1
  O  O17  1  0.06644200  0.05180900  0.80250700  1
  O  O18  1  0.82141200  0.14035900  0.93400600  1
  O  O19  1  0.92093900  0.00774700  0.35983500  1
  O  O20  1  0.14375000  0.21980500  0.49722300  1
  O  O21  1  0.77367400  0.22901200  0.75803400  1
  O  O22  1  0.43355800  0.05180900  0.30250700  1
  O  O23  1  0.67858800  0.14035900  0.43400600  1
  O  O24  1  0.35625000  0.21980500  0.99722300  1
  O  O25  1  0.72632600  0.22901200  0.25803400  1
  O  O26  1  0.29230200  0.32150400  0.63345400  1
  O  O27  1  0.50059000  0.39872900  0.76645900  1
  O  O28  1  0.59471100  0.50195900  0.59581100  1
  O  O29  1  0.20769800  0.32150400  0.13345400  1
  O  O30  1  0.99941000  0.39872900  0.26645900  1
  O  O31  1  0.09471100  0.49804100  0.90418900  1
  O  O32  1  0.90528900  0.50195900  0.09581100  1
  O  O33  1  0.00059000  0.60127100  0.73354100  1
  O  O34  1  0.79230200  0.67849600  0.86654600  1
  O  O35  1  0.40528900  0.49804100  0.40418900  1
  O  O36  1  0.49941000  0.60127100  0.23354100  1
  O  O37  1  0.70769800  0.67849600  0.36654600  1
  O  O38  1  0.27367400  0.77098800  0.74196600  1
  O  O39  1  0.64375000  0.78019500  0.00277700  1
  O  O40  1  0.32141200  0.85964100  0.56599400  1
  O  O41  1  0.56644200  0.94819100  0.69749300  1
  O  O42  1  0.22632600  0.77098800  0.24196600  1
  O  O43  1  0.85625000  0.78019500  0.50277700  1
  O  O44  1  0.07906100  0.99225300  0.64016500  1
  O  O45  1  0.17858800  0.85964100  0.06599400  1
  O  O46  1  0.93355800  0.94819100  0.19749300  1
  O  O47  1  0.42093900  0.99225300  0.14016500  1
