# generated using pymatgen
data_Li9Cr12Co7O48
_symmetry_space_group_name_H-M   'P 1'
_cell_length_a   5.10606300
_cell_length_b   10.25808401
_cell_length_c   17.34837133
_cell_angle_alpha   90.08517712
_cell_angle_beta   90.09758045
_cell_angle_gamma   90.00301055
_symmetry_Int_Tables_number   1
_chemical_formula_structural   Li9Cr12Co7O48
_chemical_formula_sum   'Li9 Cr12 Co7 O48'
_cell_volume   908.67801278
_cell_formula_units_Z   1
loop_
 _symmetry_equiv_pos_site_id
 _symmetry_equiv_pos_as_xyz
  1  'x, y, z'
loop_
 _atom_site_type_symbol
 _atom_site_label
 _atom_site_symmetry_multiplicity
 _atom_site_fract_x
 _atom_site_fract_y
 _atom_site_fract_z
 _atom_site_occupancy
  Li  Li0  1  0.90587800  0.75136900  0.24881200  1
  Li  Li1  1  0.75398200  0.58038600  0.97201800  1
  Li  Li2  1  0.75129000  0.42062400  0.47276600  1
  Li  Li3  1  0.75132500  0.07936500  0.47281800  1
  Li  Li4  1  0.74261800  0.74833500  0.80331300  1
  Li  Li5  1  0.25378200  0.24683200  0.19456200  1
  Li  Li6  1  0.24588100  0.07654400  0.02886900  1
  Li  Li7  1  0.23492200  0.74849600  0.70001100  1
  Li  Li8  1  0.09444900  0.25032500  0.74841400  1
  Cr  Cr9  1  0.77257600  0.25043800  0.94242400  1
  Cr  Cr10  1  0.77101800  0.97308500  0.65490400  1
  Cr  Cr11  1  0.77151700  0.52805300  0.65451500  1
  Cr  Cr12  1  0.71688100  0.47130700  0.15502900  1
  Cr  Cr13  1  0.72085000  0.02751300  0.15664200  1
  Cr  Cr14  1  0.71838700  0.74981200  0.44507800  1
  Cr  Cr15  1  0.28233200  0.24965100  0.55871600  1
  Cr  Cr16  1  0.28263100  0.52514800  0.84357600  1
  Cr  Cr17  1  0.28394400  0.97392400  0.84545700  1
  Cr  Cr18  1  0.22969600  0.46959200  0.34356400  1
  Cr  Cr19  1  0.22910000  0.03064200  0.34421400  1
  Cr  Cr20  1  0.22537700  0.75072500  0.05552900  1
  Co  Co21  1  0.75665300  0.24917400  0.29997700  1
  Co  Co22  1  0.75491200  0.92843000  0.97514600  1
  Co  Co23  1  0.59108000  0.25148600  0.75077700  1
  Co  Co24  1  0.40694100  0.75017200  0.24783500  1
  Co  Co25  1  0.24629000  0.92931300  0.52689500  1
  Co  Co26  1  0.24539700  0.57017900  0.52682300  1
  Co  Co27  1  0.24295200  0.42881900  0.02523000  1
  O  O28  1  0.95027200  0.75759300  0.00091900  1
  O  O29  1  0.95295200  0.38825700  0.36583800  1
  O  O30  1  0.95206700  0.11148000  0.36692100  1
  O  O31  1  0.88874500  0.37224200  0.21141300  1
  O  O32  1  0.89995800  0.12634600  0.21237500  1
  O  O33  1  0.90164700  0.87855800  0.46697200  1
  O  O34  1  0.90101200  0.62070000  0.46643100  1
  O  O35  1  0.90059700  0.99597600  0.07824400  1
  O  O36  1  0.90581200  0.50099000  0.07860800  1
  O  O37  1  0.82349400  0.25196800  0.84532300  1
  O  O38  1  0.82152100  0.38511600  0.70304900  1
  O  O39  1  0.81676600  0.11707900  0.70387000  1
  O  O40  1  0.65291800  0.88785900  0.20397400  1
  O  O41  1  0.65130900  0.61064900  0.20196300  1
  O  O42  1  0.64762300  0.74989400  0.35130600  1
  O  O43  1  0.58935500  0.50130800  0.57643300  1
  O  O44  1  0.58931000  0.99925700  0.57671100  1
  O  O45  1  0.60836000  0.11683000  0.96544500  1
  O  O46  1  0.58419400  0.37551400  0.96618400  1
  O  O47  1  0.60399800  0.87488000  0.70914200  1
  O  O48  1  0.60231600  0.62607400  0.70882300  1
  O  O49  1  0.55750600  0.89478700  0.87358200  1
  O  O50  1  0.54889100  0.60528800  0.86939400  1
  O  O51  1  0.54313000  0.24988500  0.50250100  1
  O  O52  1  0.43914500  0.74993000  0.50224300  1
  O  O53  1  0.44118500  0.39408500  0.12605600  1
  O  O54  1  0.45116200  0.10479700  0.13060500  1
  O  O55  1  0.42399000  0.37380700  0.29213400  1
  O  O56  1  0.42395900  0.12663100  0.29321100  1
  O  O57  1  0.41733300  0.87534200  0.03293900  1
  O  O58  1  0.39220900  0.61605200  0.03349000  1
  O  O59  1  0.39407700  0.99629700  0.42513500  1
  O  O60  1  0.39298200  0.50348300  0.42476200  1
  O  O61  1  0.35969500  0.24971100  0.65394500  1
  O  O62  1  0.35793800  0.38266200  0.79508200  1
  O  O63  1  0.35416600  0.11468000  0.79730100  1
  O  O64  1  0.17001500  0.89139500  0.29646100  1
  O  O65  1  0.17120800  0.60938600  0.29598400  1
  O  O66  1  0.16665300  0.75154600  0.15092000  1
  O  O67  1  0.10330100  0.49302900  0.92207700  1
  O  O68  1  0.09556900  0.00391700  0.92220600  1
  O  O69  1  0.10076900  0.38062100  0.53751700  1
  O  O70  1  0.10006100  0.11875700  0.53768400  1
  O  O71  1  0.11107100  0.87783800  0.78973800  1
  O  O72  1  0.10023600  0.61878800  0.78929100  1
  O  O73  1  0.05340400  0.89875900  0.62851000  1
  O  O74  1  0.05355900  0.60285100  0.62786100  1
  O  O75  1  0.04989800  0.25736700  0.99551500  1
