# generated using pymatgen
data_Li2Fe5B3O13
_symmetry_space_group_name_H-M   'P 1'
_cell_length_a   3.16669600
_cell_length_b   9.62085800
_cell_length_c   15.69930610
_cell_angle_alpha   72.96869542
_cell_angle_beta   90.00000000
_cell_angle_gamma   90.00000000
_symmetry_Int_Tables_number   1
_chemical_formula_structural   Li2Fe5B3O13
_chemical_formula_sum   'Li4 Fe10 B6 O26'
_cell_volume   457.32435970
_cell_formula_units_Z   2
loop_
 _symmetry_equiv_pos_site_id
 _symmetry_equiv_pos_as_xyz
  1  'x, y, z'
loop_
 _atom_site_type_symbol
 _atom_site_label
 _atom_site_symmetry_multiplicity
 _atom_site_fract_x
 _atom_site_fract_y
 _atom_site_fract_z
 _atom_site_occupancy
  Li  Li0  1  0.25000000  0.51292500  0.76094600  1
  Li  Li1  1  0.75000000  0.43355900  0.95130200  1
  Li  Li2  1  0.25000000  0.56644100  0.04869800  1
  Li  Li3  1  0.75000000  0.48707500  0.23905400  1
  Fe  Fe4  1  0.25000000  0.14274100  0.00058800  1
  Fe  Fe5  1  0.25000000  0.66567600  0.37459900  1
  Fe  Fe6  1  0.75000000  0.99880700  0.19499100  1
  Fe  Fe7  1  0.75000000  0.91849300  0.43744700  1
  Fe  Fe8  1  0.75000000  0.79375300  0.68900700  1
  Fe  Fe9  1  0.25000000  0.20624700  0.31099300  1
  Fe  Fe10  1  0.25000000  0.08150700  0.56255300  1
  Fe  Fe11  1  0.25000000  0.00119300  0.80500900  1
  Fe  Fe12  1  0.75000000  0.33432400  0.62540100  1
  Fe  Fe13  1  0.75000000  0.85725900  0.99941200  1
  B  B14  1  0.75000000  0.26136500  0.81833200  1
  B  B15  1  0.25000000  0.63163900  0.57465400  1
  B  B16  1  0.75000000  0.70221500  0.88008400  1
  B  B17  1  0.25000000  0.29778500  0.11991600  1
  B  B18  1  0.75000000  0.36836100  0.42534600  1
  B  B19  1  0.25000000  0.73863500  0.18166800  1
  O  O20  1  0.75000000  0.26143000  0.90742100  1
  O  O21  1  0.25000000  0.48428400  0.58381300  1
  O  O22  1  0.75000000  0.38444300  0.74776000  1
  O  O23  1  0.25000000  0.87080000  0.20115700  1
  O  O24  1  0.75000000  0.80313600  0.35122700  1
  O  O25  1  0.25000000  0.73564000  0.49204100  1
  O  O26  1  0.25000000  0.67680600  0.65187300  1
  O  O27  1  0.75000000  0.02259500  0.05893800  1
  O  O28  1  0.75000000  0.63076300  0.81656500  1
  O  O29  1  0.75000000  0.63882700  0.97156300  1
  O  O30  1  0.25000000  0.14627400  0.14305500  1
  O  O31  1  0.75000000  0.09453400  0.28953300  1
  O  O32  1  0.75000000  0.94912900  0.56770700  1
  O  O33  1  0.25000000  0.05087100  0.43229300  1
  O  O34  1  0.25000000  0.90546600  0.71046700  1
  O  O35  1  0.75000000  0.85372600  0.85694500  1
  O  O36  1  0.25000000  0.36117300  0.02843700  1
  O  O37  1  0.25000000  0.36923700  0.18343500  1
  O  O38  1  0.25000000  0.97740500  0.94106200  1
  O  O39  1  0.75000000  0.32319400  0.34812700  1
  O  O40  1  0.75000000  0.26436000  0.50795900  1
  O  O41  1  0.25000000  0.19686400  0.64877300  1
  O  O42  1  0.75000000  0.12920000  0.79884300  1
  O  O43  1  0.25000000  0.61555700  0.25224000  1
  O  O44  1  0.75000000  0.51571600  0.41618700  1
  O  O45  1  0.25000000  0.73857000  0.09257900  1
