# generated using pymatgen
data_Li4Ni3Sn(PO4)4
_symmetry_space_group_name_H-M   'P 1'
_cell_length_a   4.79991092
_cell_length_b   12.24479421
_cell_length_c   12.08851434
_cell_angle_alpha   60.42930323
_cell_angle_beta   90.02583761
_cell_angle_gamma   90.77301979
_symmetry_Int_Tables_number   1
_chemical_formula_structural   Li4Ni3Sn(PO4)4
_chemical_formula_sum   'Li8 Ni6 Sn2 P8 O32'
_cell_volume   617.87434930
_cell_formula_units_Z   2
loop_
 _symmetry_equiv_pos_site_id
 _symmetry_equiv_pos_as_xyz
  1  'x, y, z'
loop_
 _atom_site_type_symbol
 _atom_site_label
 _atom_site_symmetry_multiplicity
 _atom_site_fract_x
 _atom_site_fract_y
 _atom_site_fract_z
 _atom_site_occupancy
  Li  Li0  1  0.01193800  0.98661400  0.50751600  1
  Li  Li1  1  0.01181600  0.98666600  0.00753600  1
  Li  Li2  1  0.01189100  0.98655300  0.75586300  1
  Li  Li3  1  0.01177700  0.98668200  0.25574600  1
  Li  Li4  1  0.50128900  0.51845000  0.98763900  1
  Li  Li5  1  0.50130200  0.51839300  0.48765200  1
  Li  Li6  1  0.50120000  0.51842500  0.74382100  1
  Li  Li7  1  0.50122200  0.51838500  0.24387500  1
  Ni  Ni8  1  0.52637800  0.78075300  0.23455900  1
  Ni  Ni9  1  0.01598200  0.73039400  0.00985300  1
  Ni  Ni10  1  0.01606200  0.73046300  0.50963400  1
  Ni  Ni11  1  0.48415300  0.21400500  0.26797800  1
  Ni  Ni12  1  0.48419300  0.21395100  0.76807200  1
  Ni  Ni13  1  0.52683500  0.78071700  0.73458100  1
  Sn  Sn14  1  0.99383800  0.28056300  0.98476500  1
  Sn  Sn15  1  0.99395300  0.28050800  0.48482400  1
  P  P16  1  0.08684500  0.61299100  0.81847400  1
  P  P17  1  0.08678800  0.61313000  0.31843900  1
  P  P18  1  0.43676200  0.07090700  0.08949700  1
  P  P19  1  0.43680900  0.07090100  0.58949400  1
  P  P20  1  0.58986700  0.90455200  0.92279000  1
  P  P21  1  0.58986600  0.90459300  0.42271800  1
  P  P22  1  0.87694200  0.41258300  0.16875200  1
  P  P23  1  0.87694200  0.41258700  0.66876100  1
  O  O24  1  0.21366000  0.47972500  0.88475700  1
  O  O25  1  0.21396600  0.47995600  0.38473000  1
  O  O26  1  0.19021500  0.38865400  0.18080200  1
  O  O27  1  0.19020100  0.38866400  0.68073200  1
  O  O28  1  0.26903300  0.89799000  0.92624500  1
  O  O29  1  0.26905400  0.89801400  0.42619500  1
  O  O30  1  0.29594900  0.93822200  0.65595000  1
  O  O31  1  0.29569500  0.93826500  0.15594800  1
  O  O32  1  0.71463200  0.04059200  0.35454200  1
  O  O33  1  0.71480900  0.04052300  0.85471800  1
  O  O34  1  0.75529200  0.06626600  0.09197700  1
  O  O35  1  0.75541700  0.06631300  0.59194300  1
  O  O36  1  0.76545000  0.61254700  0.81861400  1
  O  O37  1  0.76545900  0.61257500  0.31859900  1
  O  O38  1  0.79517100  0.55381900  0.09814300  1
  O  O39  1  0.79508500  0.55381600  0.59808600  1
  O  O40  1  0.22142600  0.67992200  0.68168100  1
  O  O41  1  0.22129800  0.68023900  0.18162000  1
  O  O42  1  0.22131600  0.67938200  0.88893900  1
  O  O43  1  0.22149100  0.67962400  0.38880900  1
  O  O44  1  0.31657800  0.13978300  0.95037300  1
  O  O45  1  0.31655300  0.13976400  0.45039700  1
  O  O46  1  0.31668300  0.13980500  0.15966300  1
  O  O47  1  0.31669700  0.13980200  0.65965300  1
  O  O48  1  0.72572000  0.83423000  0.85650100  1
  O  O49  1  0.72572600  0.83412400  0.35651700  1
  O  O50  1  0.72680100  0.83395300  0.05936100  1
  O  O51  1  0.72673300  0.83424200  0.55918300  1
  O  O52  1  0.71725000  0.34886500  0.10053900  1
  O  O53  1  0.71720600  0.34876800  0.60063700  1
  O  O54  1  0.71736500  0.34886900  0.30064500  1
  O  O55  1  0.71741200  0.34891800  0.80066700  1
