# generated using pymatgen
data_Li4FeP2O9
_symmetry_space_group_name_H-M   'P 1'
_cell_length_a   6.72058900
_cell_length_b   14.55764400
_cell_length_c   14.76014500
_cell_angle_alpha   90.00000000
_cell_angle_beta   90.00000000
_cell_angle_gamma   90.00000000
_symmetry_Int_Tables_number   1
_chemical_formula_structural   Li4FeP2O9
_chemical_formula_sum   'Li32 Fe8 P16 O72'
_cell_volume   1444.07269208
_cell_formula_units_Z   8
loop_
 _symmetry_equiv_pos_site_id
 _symmetry_equiv_pos_as_xyz
  1  'x, y, z'
loop_
 _atom_site_type_symbol
 _atom_site_label
 _atom_site_symmetry_multiplicity
 _atom_site_fract_x
 _atom_site_fract_y
 _atom_site_fract_z
 _atom_site_occupancy
  Li  Li0  1  0.22401900  0.99878600  0.00487400  1
  Li  Li1  1  0.72401900  0.50121400  0.00487400  1
  Li  Li2  1  0.75306700  0.75246800  0.02755700  1
  Li  Li3  1  0.25306700  0.74753200  0.02755700  1
  Li  Li4  1  0.99853000  0.37267600  0.12470100  1
  Li  Li5  1  0.49853000  0.12732400  0.12470100  1
  Li  Li6  1  0.80085600  0.97834400  0.22835800  1
  Li  Li7  1  0.30085600  0.52165600  0.22835800  1
  Li  Li8  1  0.80085600  0.47834400  0.27164200  1
  Li  Li9  1  0.30085600  0.02165600  0.27164200  1
  Li  Li10  1  0.99853000  0.87267600  0.37529900  1
  Li  Li11  1  0.49853000  0.62732400  0.37529900  1
  Li  Li12  1  0.75306700  0.25246800  0.47244300  1
  Li  Li13  1  0.25306700  0.24753200  0.47244300  1
  Li  Li14  1  0.22401900  0.49878600  0.49512600  1
  Li  Li15  1  0.72401900  0.00121400  0.49512600  1
  Li  Li16  1  0.27598100  0.99878600  0.50487400  1
  Li  Li17  1  0.77598100  0.50121400  0.50487400  1
  Li  Li18  1  0.74693300  0.75246800  0.52755700  1
  Li  Li19  1  0.24693300  0.74753200  0.52755700  1
  Li  Li20  1  0.50147000  0.37267600  0.62470100  1
  Li  Li21  1  0.00147000  0.12732400  0.62470100  1
  Li  Li22  1  0.69914400  0.97834400  0.72835800  1
  Li  Li23  1  0.19914400  0.52165600  0.72835800  1
  Li  Li24  1  0.69914400  0.47834400  0.77164200  1
  Li  Li25  1  0.19914400  0.02165600  0.77164200  1
  Li  Li26  1  0.50147000  0.87267600  0.87529900  1
  Li  Li27  1  0.00147000  0.62732400  0.87529900  1
  Li  Li28  1  0.74693300  0.25246800  0.97244300  1
  Li  Li29  1  0.24693300  0.24753200  0.97244300  1
  Li  Li30  1  0.27598100  0.49878600  0.99512600  1
  Li  Li31  1  0.77598100  0.00121400  0.99512600  1
  Fe  Fe32  1  0.25068100  0.75135300  0.23491000  1
  Fe  Fe33  1  0.75068100  0.74864700  0.23491000  1
  Fe  Fe34  1  0.25068100  0.25135300  0.26509000  1
  Fe  Fe35  1  0.75068100  0.24864700  0.26509000  1
  Fe  Fe36  1  0.24931900  0.75135300  0.73491000  1
  Fe  Fe37  1  0.74931900  0.74864700  0.73491000  1
  Fe  Fe38  1  0.24931900  0.25135300  0.76509000  1
  Fe  Fe39  1  0.74931900  0.24864700  0.76509000  1
  P  P40  1  0.50256800  0.89572500  0.11279200  1
  P  P41  1  0.00256800  0.60427500  0.11279200  1
  P  P42  1  0.99885200  0.13912200  0.11552700  1
  P  P43  1  0.49885200  0.36087800  0.11552700  1
  P  P44  1  0.49885200  0.86087800  0.38447300  1
  P  P45  1  0.99885200  0.63912200  0.38447300  1
  P  P46  1  0.50256800  0.39572500  0.38720800  1
  P  P47  1  0.00256800  0.10427500  0.38720800  1
  P  P48  1  0.99743200  0.89572500  0.61279200  1
  P  P49  1  0.49743200  0.60427500  0.61279200  1
  P  P50  1  0.00114800  0.36087800  0.61552700  1
  P  P51  1  0.50114800  0.13912200  0.61552700  1
  P  P52  1  0.00114800  0.86087800  0.88447300  1
  P  P53  1  0.50114800  0.63912200  0.88447300  1
  P  P54  1  0.99743200  0.39572500  0.88720800  1
  P  P55  1  0.49743200  0.10427500  0.88720800  1
  O  O56  1  0.51222900  0.91297500  0.00965400  1
  O  O57  1  0.01222900  0.58702500  0.00965400  1
  O  O58  1  0.99729500  0.21373400  0.04153300  1
  O  O59  1  0.49729500  0.28626600  0.04153300  1
  O  O60  1  0.48916200  0.46080600  0.08106100  1
  O  O61  1  0.98916200  0.03919400  0.08106100  1
  O  O62  1  0.31291500  0.83711700  0.12991600  1
  O  O63  1  0.81291500  0.66288300  0.12991600  1
  O  O64  1  0.69650500  0.84023700  0.13590300  1
  O  O65  1  0.19650500  0.65976300  0.13590300  1
  O  O66  1  0.50352400  0.98522800  0.17024100  1
  O  O67  1  0.00352400  0.51477200  0.17024100  1
  O  O68  1  0.69443500  0.35290300  0.17340300  1
  O  O69  1  0.19443500  0.14709700  0.17340300  1
  O  O70  1  0.30732600  0.35138400  0.17638300  1
  O  O71  1  0.80732600  0.14861600  0.17638300  1
  O  O72  1  0.99980000  0.79754700  0.24431400  1
  O  O73  1  0.49980000  0.70245300  0.24431400  1
  O  O74  1  0.99980000  0.29754700  0.25568600  1
  O  O75  1  0.49980000  0.20245300  0.25568600  1
  O  O76  1  0.30732600  0.85138400  0.32361700  1
  O  O77  1  0.80732600  0.64861600  0.32361700  1
  O  O78  1  0.69443500  0.85290300  0.32659700  1
  O  O79  1  0.19443500  0.64709700  0.32659700  1
  O  O80  1  0.50352400  0.48522800  0.32975900  1
  O  O81  1  0.00352400  0.01477200  0.32975900  1
  O  O82  1  0.69650500  0.34023700  0.36409700  1
  O  O83  1  0.19650500  0.15976300  0.36409700  1
  O  O84  1  0.31291500  0.33711700  0.37008400  1
  O  O85  1  0.81291500  0.16288300  0.37008400  1
  O  O86  1  0.48916200  0.96080600  0.41893900  1
  O  O87  1  0.98916200  0.53919400  0.41893900  1
  O  O88  1  0.49729500  0.78626600  0.45846700  1
  O  O89  1  0.99729500  0.71373400  0.45846700  1
  O  O90  1  0.51222900  0.41297500  0.49034600  1
  O  O91  1  0.01222900  0.08702500  0.49034600  1
  O  O92  1  0.98777100  0.91297500  0.50965400  1
  O  O93  1  0.48777100  0.58702500  0.50965400  1
  O  O94  1  0.00270500  0.28626600  0.54153300  1
  O  O95  1  0.50270500  0.21373400  0.54153300  1
  O  O96  1  0.01083800  0.46080600  0.58106100  1
  O  O97  1  0.51083800  0.03919400  0.58106100  1
  O  O98  1  0.18708500  0.83711700  0.62991600  1
  O  O99  1  0.68708500  0.66288300  0.62991600  1
  O  O100  1  0.80349500  0.84023700  0.63590300  1
  O  O101  1  0.30349500  0.65976300  0.63590300  1
  O  O102  1  0.99647600  0.98522800  0.67024100  1
  O  O103  1  0.49647600  0.51477200  0.67024100  1
  O  O104  1  0.80556500  0.35290300  0.67340300  1
  O  O105  1  0.30556500  0.14709700  0.67340300  1
  O  O106  1  0.19267400  0.35138400  0.67638300  1
  O  O107  1  0.69267400  0.14861600  0.67638300  1
  O  O108  1  0.50020000  0.79754700  0.74431400  1
  O  O109  1  0.00020000  0.70245300  0.74431400  1
  O  O110  1  0.50020000  0.29754700  0.75568600  1
  O  O111  1  0.00020000  0.20245300  0.75568600  1
  O  O112  1  0.19267400  0.85138400  0.82361700  1
  O  O113  1  0.69267400  0.64861600  0.82361700  1
  O  O114  1  0.80556500  0.85290300  0.82659700  1
  O  O115  1  0.30556500  0.64709700  0.82659700  1
  O  O116  1  0.99647600  0.48522800  0.82975900  1
  O  O117  1  0.49647600  0.01477200  0.82975900  1
  O  O118  1  0.80349500  0.34023700  0.86409700  1
  O  O119  1  0.30349500  0.15976300  0.86409700  1
  O  O120  1  0.18708500  0.33711700  0.87008400  1
  O  O121  1  0.68708500  0.16288300  0.87008400  1
  O  O122  1  0.01083800  0.96080600  0.91893900  1
  O  O123  1  0.51083800  0.53919400  0.91893900  1
  O  O124  1  0.00270500  0.78626600  0.95846700  1
  O  O125  1  0.50270500  0.71373400  0.95846700  1
  O  O126  1  0.98777100  0.41297500  0.99034600  1
  O  O127  1  0.48777100  0.08702500  0.99034600  1
