# generated using pymatgen
data_Li3V(Si2O5)3
_symmetry_space_group_name_H-M   'P 1'
_cell_length_a   11.02754860
_cell_length_b   11.02754860
_cell_length_c   10.19935600
_cell_angle_alpha   90.00000000
_cell_angle_beta   90.00000000
_cell_angle_gamma   99.93961704
_symmetry_Int_Tables_number   1
_chemical_formula_structural   Li3V(Si2O5)3
_chemical_formula_sum   'Li12 V4 Si24 O60'
_cell_volume   1221.69451976
_cell_formula_units_Z   4
loop_
 _symmetry_equiv_pos_site_id
 _symmetry_equiv_pos_as_xyz
  1  'x, y, z'
loop_
 _atom_site_type_symbol
 _atom_site_label
 _atom_site_symmetry_multiplicity
 _atom_site_fract_x
 _atom_site_fract_y
 _atom_site_fract_z
 _atom_site_occupancy
  Li  Li0  1  0.23566600  0.23566600  0.00000000  1
  Li  Li1  1  0.02281200  0.47718800  0.25000000  1
  Li  Li2  1  0.47718800  0.02281200  0.75000000  1
  Li  Li3  1  0.26433400  0.26433400  0.50000000  1
  Li  Li4  1  0.93786300  0.06213700  0.79764800  1
  Li  Li5  1  0.43786300  0.56213700  0.70235200  1
  Li  Li6  1  0.56213700  0.43786300  0.29764800  1
  Li  Li7  1  0.06213700  0.93786300  0.20235200  1
  Li  Li8  1  0.73566600  0.73566600  0.50000000  1
  Li  Li9  1  0.97718800  0.52281200  0.75000000  1
  Li  Li10  1  0.52281200  0.97718800  0.25000000  1
  Li  Li11  1  0.76433400  0.76433400  0.00000000  1
  V  V12  1  0.34453600  0.15546400  0.25000000  1
  V  V13  1  0.15546400  0.34453600  0.75000000  1
  V  V14  1  0.65546400  0.84453600  0.75000000  1
  V  V15  1  0.84453600  0.65546400  0.25000000  1
  Si  Si16  1  0.18908100  0.04110100  0.80639200  1
  Si  Si17  1  0.04110100  0.18908100  0.19360800  1
  Si  Si18  1  0.45889900  0.31091900  0.69360800  1
  Si  Si19  1  0.31091900  0.45889900  0.30639200  1
  Si  Si20  1  0.76462600  0.01743200  0.48379800  1
  Si  Si21  1  0.51743200  0.26462600  0.98379800  1
  Si  Si22  1  0.01743200  0.76462600  0.51620200  1
  Si  Si23  1  0.26462600  0.51743200  0.01620200  1
  Si  Si24  1  0.58039800  0.20115700  0.45442300  1
  Si  Si25  1  0.08039800  0.70115700  0.04557700  1
  Si  Si26  1  0.70115700  0.08039800  0.95442300  1
  Si  Si27  1  0.20115700  0.58039800  0.54557700  1
  Si  Si28  1  0.79884300  0.41960200  0.45442300  1
  Si  Si29  1  0.91960200  0.29884300  0.95442300  1
  Si  Si30  1  0.29884300  0.91960200  0.04557700  1
  Si  Si31  1  0.41960200  0.79884300  0.54557700  1
  Si  Si32  1  0.48256800  0.73537400  0.01620200  1
  Si  Si33  1  0.98256800  0.23537400  0.48379800  1
  Si  Si34  1  0.73537400  0.48256800  0.98379800  1
  Si  Si35  1  0.23537400  0.98256800  0.51620200  1
  Si  Si36  1  0.68908100  0.54110100  0.69360800  1
  Si  Si37  1  0.54110100  0.68908100  0.30639200  1
  Si  Si38  1  0.95889900  0.81091900  0.80639200  1
  Si  Si39  1  0.81091900  0.95889900  0.19360800  1
  O  O40  1  0.01326600  0.28171100  0.07599800  1
  O  O41  1  0.28171100  0.01326600  0.92400200  1
  O  O42  1  0.26612200  0.02983300  0.67007000  1
  O  O43  1  0.02983300  0.26612200  0.32993000  1
  O  O44  1  0.14156900  0.16825600  0.83271000  1
  O  O45  1  0.16825600  0.14156900  0.16729000  1
  O  O46  1  0.25578800  0.09724300  0.41865500  1
  O  O47  1  0.09724300  0.25578800  0.58134500  1
  O  O48  1  0.51190900  0.14037100  0.32630500  1
  O  O49  1  0.64037100  0.01190900  0.82630500  1
  O  O50  1  0.01190900  0.64037100  0.17369500  1
  O  O51  1  0.14037100  0.51190900  0.67369500  1
  O  O52  1  0.40275700  0.24421200  0.08134500  1
  O  O53  1  0.24421200  0.40275700  0.91865500  1
  O  O54  1  0.33174400  0.35843100  0.66729000  1
  O  O55  1  0.35843100  0.33174400  0.33271000  1
  O  O56  1  0.23387800  0.47016700  0.17007000  1
  O  O57  1  0.47016700  0.23387800  0.82993000  1
  O  O58  1  0.48673400  0.21828900  0.57599800  1
  O  O59  1  0.21828900  0.48673400  0.42400200  1
  O  O60  1  0.61539000  0.17262300  0.01556400  1
  O  O61  1  0.67262300  0.11539000  0.51556400  1
  O  O62  1  0.17262300  0.61539000  0.98443600  1
  O  O63  1  0.11539000  0.67262300  0.48443600  1
  O  O64  1  0.40679500  0.59320500  0.00760000  1
  O  O65  1  0.65877100  0.34122900  0.41733400  1
  O  O66  1  0.93655700  0.06344300  0.19487500  1
  O  O67  1  0.90679500  0.09320500  0.49240000  1
  O  O68  1  0.84122900  0.15877100  0.91733400  1
  O  O69  1  0.56344300  0.43655700  0.69487500  1
  O  O70  1  0.15877100  0.84122900  0.08266600  1
  O  O71  1  0.59320500  0.40679500  0.99240000  1
  O  O72  1  0.34122900  0.65877100  0.58266600  1
  O  O73  1  0.06344300  0.93655700  0.80512500  1
  O  O74  1  0.43655700  0.56344300  0.30512500  1
  O  O75  1  0.09320500  0.90679500  0.50760000  1
  O  O76  1  0.88461000  0.32737700  0.51556400  1
  O  O77  1  0.32737700  0.88461000  0.48443600  1
  O  O78  1  0.82737700  0.38461000  0.01556400  1
  O  O79  1  0.38461000  0.82737700  0.98443600  1
  O  O80  1  0.78171100  0.51326600  0.57599800  1
  O  O81  1  0.51326600  0.78171100  0.42400200  1
  O  O82  1  0.76612200  0.52983300  0.82993000  1
  O  O83  1  0.52983300  0.76612200  0.17007000  1
  O  O84  1  0.66825600  0.64156900  0.33271000  1
  O  O85  1  0.64156900  0.66825600  0.66729000  1
  O  O86  1  0.75578800  0.59724300  0.08134500  1
  O  O87  1  0.59724300  0.75578800  0.91865500  1
  O  O88  1  0.98809100  0.35962900  0.82630500  1
  O  O89  1  0.85962900  0.48809100  0.32630500  1
  O  O90  1  0.35962900  0.98809100  0.17369500  1
  O  O91  1  0.48809100  0.85962900  0.67369500  1
  O  O92  1  0.90275700  0.74421200  0.41865500  1
  O  O93  1  0.74421200  0.90275700  0.58134500  1
  O  O94  1  0.83174400  0.85843100  0.83271000  1
  O  O95  1  0.85843100  0.83174400  0.16729000  1
  O  O96  1  0.97016700  0.73387800  0.67007000  1
  O  O97  1  0.73387800  0.97016700  0.32993000  1
  O  O98  1  0.98673400  0.71828900  0.92400200  1
  O  O99  1  0.71828900  0.98673400  0.07599800  1
