# generated using pymatgen
data_Li4V3P8O29
_symmetry_space_group_name_H-M   'P 1'
_cell_length_a   9.77913145
_cell_length_b   9.76418640
_cell_length_c   14.07859742
_cell_angle_alpha   90.25225334
_cell_angle_beta   90.32105298
_cell_angle_gamma   60.06497439
_symmetry_Int_Tables_number   1
_chemical_formula_structural   Li4V3P8O29
_chemical_formula_sum   'Li8 V6 P16 O58'
_cell_volume   1164.93789910
_cell_formula_units_Z   2
loop_
 _symmetry_equiv_pos_site_id
 _symmetry_equiv_pos_as_xyz
  1  'x, y, z'
loop_
 _atom_site_type_symbol
 _atom_site_label
 _atom_site_symmetry_multiplicity
 _atom_site_fract_x
 _atom_site_fract_y
 _atom_site_fract_z
 _atom_site_occupancy
  Li  Li0  1  0.90452000  0.77101200  0.05787500  1
  Li  Li1  1  0.77743700  0.31096000  0.05852900  1
  Li  Li2  1  0.31866300  0.91242400  0.06330400  1
  Li  Li3  1  0.66573600  0.23582900  0.43982700  1
  Li  Li4  1  0.33249200  0.76905800  0.55424900  1
  Li  Li5  1  0.22486400  0.68593100  0.94339600  1
  Li  Li6  1  0.09207000  0.67189500  0.43860800  1
  Li  Li7  1  0.99663500  0.03872600  0.49921000  1
  V  V8  1  0.57046400  0.42964200  0.24821800  1
  V  V9  1  0.43846900  0.56338900  0.75003300  1
  V  V10  1  0.56791000  0.99629000  0.75035000  1
  V  V11  1  0.43194300  0.00648900  0.25562000  1
  V  V12  1  0.99806400  0.56355300  0.25093100  1
  V  V13  1  0.00095100  0.43081300  0.74629600  1
  P  P14  1  0.91285400  0.77006700  0.83852100  1
  P  P15  1  0.77570900  0.91736100  0.34167500  1
  P  P16  1  0.91705500  0.30734400  0.34497000  1
  P  P17  1  0.66252300  0.67046900  0.13041600  1
  P  P18  1  0.66532300  0.66720100  0.63045100  1
  P  P19  1  0.77548600  0.31607200  0.84066600  1
  P  P20  1  0.68621900  0.22295800  0.65929500  1
  P  P21  1  0.31775100  0.91209600  0.84576300  1
  P  P22  1  0.68479600  0.08273000  0.15530000  1
  P  P23  1  0.31702200  0.77189200  0.33978100  1
  P  P24  1  0.23037000  0.67849800  0.15938600  1
  P  P25  1  0.33593800  0.33598700  0.37285200  1
  P  P26  1  0.33208500  0.33450900  0.86788500  1
  P  P27  1  0.08939700  0.68560200  0.65612200  1
  P  P28  1  0.22433500  0.08263100  0.66128400  1
  P  P29  1  0.08555800  0.22821800  0.15974700  1
  O  O30  1  0.01547000  0.76850300  0.56540300  1
  O  O31  1  0.91490800  0.74464200  0.33901100  1
  O  O32  1  0.76427400  0.99089700  0.06916500  1
  O  O33  1  0.74436500  0.91412700  0.83459900  1
  O  O34  1  0.90637600  0.61749600  0.82031800  1
  O  O35  1  0.81276800  0.67146000  0.17078900  1
  O  O36  1  0.91817400  0.46288300  0.33381500  1
  O  O37  1  0.99678000  0.23597900  0.07269300  1
  O  O38  1  0.91814300  0.34214700  0.83147600  1
  O  O39  1  0.66760100  0.81328600  0.67650500  1
  O  O40  1  0.61729100  0.91635100  0.32909200  1
  O  O41  1  0.81302400  0.51836200  0.67279500  1
  O  O42  1  0.65669500  0.67677300  0.02457700  1
  O  O43  1  0.65252700  0.67247400  0.52530400  1
  O  O44  1  0.66919800  0.51513900  0.16829100  1
  O  O45  1  0.47698000  0.90395700  0.82346600  1
  O  O46  1  0.51296300  0.81768900  0.17526700  1
  O  O47  1  0.74236500  0.34070500  0.33421100  1
  O  O48  1  0.79470000  0.20482800  0.75038600  1
  O  O49  1  0.76543400  0.21875800  0.56835200  1
  O  O50  1  0.76199500  0.24901500  0.93159300  1
  O  O51  1  0.62179800  0.47748700  0.81912500  1
  O  O52  1  0.51085700  0.67242300  0.67238100  1
  O  O53  1  0.66301900  0.25155300  0.15756300  1
  O  O54  1  0.47269200  0.61792600  0.32796100  1
  O  O55  1  0.34201300  0.91640900  0.33395800  1
  O  O56  1  0.79481300  0.99768100  0.24721300  1
  O  O57  1  0.78375000  0.00667600  0.42555200  1
  O  O58  1  0.21005000  0.99294500  0.57910500  1
  O  O59  1  0.65466500  0.08364000  0.66855600  1
  O  O60  1  0.52842100  0.38080900  0.67496900  1
  O  O61  1  0.33910800  0.74237700  0.83778200  1
  O  O62  1  0.49067600  0.32334800  0.33212300  1
  O  O63  1  0.38089100  0.51817200  0.17951300  1
  O  O64  1  0.24616000  0.75411100  0.07068600  1
  O  O65  1  0.22743000  0.77875700  0.42835900  1
  O  O66  1  0.20671800  0.79188300  0.24903900  1
  O  O67  1  0.26099200  0.65766200  0.66265400  1
  O  O68  1  0.47498500  0.18448800  0.82306900  1
  O  O69  1  0.52416400  0.09276800  0.17773900  1
  O  O70  1  0.33484300  0.48521100  0.82580600  1
  O  O71  1  0.32750600  0.34478900  0.97291400  1
  O  O72  1  0.34208800  0.32609900  0.47815200  1
  O  O73  1  0.18978400  0.48833300  0.33378400  1
  O  O74  1  0.38311900  0.07978400  0.67100000  1
  O  O75  1  0.33051200  0.18874300  0.32482500  1
  O  O76  1  0.08225200  0.66125000  0.15896100  1
  O  O77  1  0.00264200  0.79295300  0.74868100  1
  O  O78  1  0.00011200  0.76003300  0.92865400  1
  O  O79  1  0.08851000  0.52919200  0.67086500  1
  O  O80  1  0.18242500  0.34109300  0.82072200  1
  O  O81  1  0.09400300  0.38128000  0.17940100  1
  O  O82  1  0.25653100  0.08381400  0.16267500  1
  O  O83  1  0.24884700  0.98662200  0.93818800  1
  O  O84  1  0.20255100  0.00719200  0.75870100  1
  O  O85  1  0.08638200  0.25591700  0.66412400  1
  O  O86  1  0.99074600  0.20999400  0.43009700  1
  O  O87  1  0.00286500  0.20386100  0.25132500  1
