# generated using pymatgen
data_LiAlVO4
_symmetry_space_group_name_H-M   'P 1'
_cell_length_a   8.72828982
_cell_length_b   8.72828982
_cell_length_c   8.72829028
_cell_angle_alpha   107.53585362
_cell_angle_beta   107.53585362
_cell_angle_gamma   107.53586006
_symmetry_Int_Tables_number   1
_chemical_formula_structural   LiAlVO4
_chemical_formula_sum   'Li6 Al6 V6 O24'
_cell_volume   545.47757736
_cell_formula_units_Z   6
loop_
 _symmetry_equiv_pos_site_id
 _symmetry_equiv_pos_as_xyz
  1  'x, y, z'
loop_
 _atom_site_type_symbol
 _atom_site_label
 _atom_site_symmetry_multiplicity
 _atom_site_fract_x
 _atom_site_fract_y
 _atom_site_fract_z
 _atom_site_occupancy
  Li  Li0  1  0.46833600  0.07009400  0.23793200  1
  Li  Li1  1  0.76206800  0.53166400  0.92990600  1
  Li  Li2  1  0.92990600  0.76206800  0.53166400  1
  Li  Li3  1  0.07009400  0.23793200  0.46833600  1
  Li  Li4  1  0.23793200  0.46833600  0.07009400  1
  Li  Li5  1  0.53166400  0.92990600  0.76206800  1
  Al  Al6  1  0.78422500  0.38240800  0.56122300  1
  Al  Al7  1  0.43877700  0.21577500  0.61759200  1
  Al  Al8  1  0.61759200  0.43877700  0.21577500  1
  Al  Al9  1  0.38240800  0.56122300  0.78422500  1
  Al  Al10  1  0.56122300  0.78422500  0.38240800  1
  Al  Al11  1  0.21577500  0.61759200  0.43877700  1
  V  V12  1  0.88887600  0.13323300  0.71940100  1
  V  V13  1  0.86676700  0.28059900  0.11112400  1
  V  V14  1  0.28059900  0.11112400  0.86676700  1
  V  V15  1  0.71940100  0.88887600  0.13323300  1
  V  V16  1  0.13323300  0.71940100  0.88887600  1
  V  V17  1  0.11112400  0.86676700  0.28059900  1
  O  O18  1  0.97455000  0.28229800  0.95485400  1
  O  O19  1  0.71770200  0.04514600  0.02545000  1
  O  O20  1  0.90796900  0.25237000  0.58359000  1
  O  O21  1  0.74763000  0.41641000  0.09203100  1
  O  O22  1  0.94996600  0.61101500  0.66934100  1
  O  O23  1  0.64963600  0.31473000  0.33741300  1
  O  O24  1  0.41641000  0.09203100  0.74763000  1
  O  O25  1  0.66258700  0.35036400  0.68527000  1
  O  O26  1  0.33065900  0.05003400  0.38898500  1
  O  O27  1  0.38898500  0.33065900  0.05003400  1
  O  O28  1  0.68527000  0.66258700  0.35036400  1
  O  O29  1  0.04514600  0.02545000  0.71770200  1
  O  O30  1  0.95485400  0.97455000  0.28229800  1
  O  O31  1  0.31473000  0.33741300  0.64963600  1
  O  O32  1  0.61101500  0.66934100  0.94996600  1
  O  O33  1  0.66934100  0.94996600  0.61101500  1
  O  O34  1  0.33741300  0.64963600  0.31473000  1
  O  O35  1  0.58359000  0.90796900  0.25237000  1
  O  O36  1  0.35036400  0.68527000  0.66258700  1
  O  O37  1  0.05003400  0.38898500  0.33065900  1
  O  O38  1  0.25237000  0.58359000  0.90796900  1
  O  O39  1  0.09203100  0.74763000  0.41641000  1
  O  O40  1  0.28229800  0.95485400  0.97455000  1
  O  O41  1  0.02545000  0.71770200  0.04514600  1
