# generated using pymatgen
data_Li4Cr(PO4)3
_symmetry_space_group_name_H-M   'P 1'
_cell_length_a   6.99017400
_cell_length_b   7.62162681
_cell_length_c   13.49400335
_cell_angle_alpha   94.01607278
_cell_angle_beta   90.09581568
_cell_angle_gamma   103.57792372
_symmetry_Int_Tables_number   1
_chemical_formula_structural   Li4Cr(PO4)3
_chemical_formula_sum   'Li12 Cr3 P9 O36'
_cell_volume   696.98306562
_cell_formula_units_Z   3
loop_
 _symmetry_equiv_pos_site_id
 _symmetry_equiv_pos_as_xyz
  1  'x, y, z'
loop_
 _atom_site_type_symbol
 _atom_site_label
 _atom_site_symmetry_multiplicity
 _atom_site_fract_x
 _atom_site_fract_y
 _atom_site_fract_z
 _atom_site_occupancy
  Li  Li0  1  0.05494800  0.78259500  0.38360600  1
  Li  Li1  1  0.09260700  0.80260000  0.88980800  1
  Li  Li2  1  0.58576200  0.79133900  0.38857200  1
  Li  Li3  1  0.56500800  0.81743100  0.89326500  1
  Li  Li4  1  0.24750900  0.51106000  0.00059300  1
  Li  Li5  1  0.23809500  0.51546400  0.49999900  1
  Li  Li6  1  0.76691900  0.48410300  0.50103400  1
  Li  Li7  1  0.74760400  0.47183200  0.00099800  1
  Li  Li8  1  0.41785000  0.18959900  0.11448300  1
  Li  Li9  1  0.41831800  0.18385600  0.62458400  1
  Li  Li10  1  0.92295500  0.19876800  0.11286400  1
  Li  Li11  1  0.92229900  0.19772400  0.61288600  1
  Cr  Cr12  1  0.73126100  0.40108300  0.26487300  1
  Cr  Cr13  1  0.73098000  0.39747700  0.76930800  1
  Cr  Cr14  1  0.39623300  0.17517900  0.38807800  1
  P  P15  1  0.05040900  0.83381800  0.11251200  1
  P  P16  1  0.04978300  0.83311800  0.61266900  1
  P  P17  1  0.61670900  0.82363100  0.11327400  1
  P  P18  1  0.61645400  0.82397400  0.61330600  1
  P  P19  1  0.27588000  0.61783500  0.22534700  1
  P  P20  1  0.27740800  0.61874300  0.72588600  1
  P  P21  1  0.38507000  0.17522900  0.88662500  1
  P  P22  1  0.93846600  0.15819100  0.38830000  1
  P  P23  1  0.94519000  0.15937000  0.88789300  1
  O  O24  1  0.39766800  0.96161100  0.38993900  1
  O  O25  1  0.37605300  0.97658700  0.89066000  1
  O  O26  1  0.86271400  0.95686100  0.39855000  1
  O  O27  1  0.86776900  0.95833500  0.89441800  1
  O  O28  1  0.14273100  0.76535400  0.20880700  1
  O  O29  1  0.06421900  0.70834500  0.02251000  1
  O  O30  1  0.14227500  0.76351700  0.70796000  1
  O  O31  1  0.06021200  0.70697500  0.52200600  1
  O  O32  1  0.82737700  0.79852000  0.14963800  1
  O  O33  1  0.54448200  0.69854500  0.02212300  1
  O  O34  1  0.49800600  0.74085900  0.20999400  1
  O  O35  1  0.82740600  0.79861600  0.64942500  1
  O  O36  1  0.54435600  0.69829400  0.52256100  1
  O  O37  1  0.49799200  0.74257200  0.70995900  1
  O  O38  1  0.26283900  0.59507900  0.33474000  1
  O  O39  1  0.26698700  0.59813500  0.83543900  1
  O  O40  1  0.22685900  0.46322200  0.14758700  1
  O  O41  1  0.22783800  0.46220200  0.64909100  1
  O  O42  1  0.78229700  0.57273600  0.35057700  1
  O  O43  1  0.78269700  0.56876600  0.85205800  1
  O  O44  1  0.76301400  0.42235000  0.14538100  1
  O  O45  1  0.74474000  0.41993200  0.64933900  1
  O  O46  1  0.48249200  0.27930900  0.27359800  1
  O  O47  1  0.46817500  0.30772300  0.49072000  1
  O  O48  1  0.15635400  0.19785700  0.35283300  1
  O  O49  1  0.48546300  0.25328800  0.78821700  1
  O  O50  1  0.46322300  0.29939300  0.97808200  1
  O  O51  1  0.17165700  0.19896300  0.85921800  1
  O  O52  1  0.92420300  0.28729900  0.47848300  1
  O  O53  1  0.83821000  0.21311800  0.29395100  1
  O  O54  1  0.92838200  0.28696100  0.97736200  1
  O  O55  1  0.86571400  0.22351100  0.79041800  1
  O  O56  1  0.13041600  0.03446900  0.10949600  1
  O  O57  1  0.13253200  0.03339900  0.60988300  1
  O  O58  1  0.62430300  0.02132700  0.11155600  1
  O  O59  1  0.62462900  0.02195500  0.61265800  1
