# generated using pymatgen
data_LiMnSiO4
_symmetry_space_group_name_H-M   'P 1'
_cell_length_a   5.92197900
_cell_length_b   6.31832512
_cell_length_c   9.60046908
_cell_angle_alpha   76.02344310
_cell_angle_beta   86.34554279
_cell_angle_gamma   79.48875095
_symmetry_Int_Tables_number   1
_chemical_formula_structural   LiMnSiO4
_chemical_formula_sum   'Li4 Mn4 Si4 O16'
_cell_volume   342.66330029
_cell_formula_units_Z   4
loop_
 _symmetry_equiv_pos_site_id
 _symmetry_equiv_pos_as_xyz
  1  'x, y, z'
loop_
 _atom_site_type_symbol
 _atom_site_label
 _atom_site_symmetry_multiplicity
 _atom_site_fract_x
 _atom_site_fract_y
 _atom_site_fract_z
 _atom_site_occupancy
  Li  Li0  1  0.57105700  0.84109500  0.73659300  1
  Li  Li1  1  0.43107500  0.65001100  0.33257400  1
  Li  Li2  1  0.56892500  0.34998900  0.66742600  1
  Li  Li3  1  0.42894300  0.15890500  0.26340700  1
  Mn  Mn4  1  0.00248700  0.93371800  0.27563700  1
  Mn  Mn5  1  0.80641000  0.63175900  0.07840200  1
  Mn  Mn6  1  0.19359000  0.36824100  0.92159800  1
  Mn  Mn7  1  0.99751300  0.06628200  0.72436300  1
  Si  Si8  1  0.13612100  0.71764600  0.61493200  1
  Si  Si9  1  0.28806400  0.82556100  0.99859900  1
  Si  Si10  1  0.71193600  0.17443900  0.00140100  1
  Si  Si11  1  0.86387900  0.28235400  0.38506800  1
  O  O12  1  0.54694000  0.74554700  0.94513400  1
  O  O13  1  0.26745800  0.91746700  0.64513300  1
  O  O14  1  0.88067300  0.80525400  0.67725600  1
  O  O15  1  0.81418800  0.92624300  0.10764300  1
  O  O16  1  0.12094200  0.65684000  0.96777200  1
  O  O17  1  0.16122300  0.70648600  0.44754900  1
  O  O18  1  0.27379800  0.83059100  0.16804800  1
  O  O19  1  0.73749100  0.52236200  0.28586300  1
  O  O20  1  0.26250900  0.47763800  0.71413700  1
  O  O21  1  0.72620200  0.16940900  0.83195200  1
  O  O22  1  0.83877700  0.29351400  0.55245100  1
  O  O23  1  0.87905800  0.34316000  0.03222800  1
  O  O24  1  0.18581200  0.07375700  0.89235700  1
  O  O25  1  0.11932700  0.19474600  0.32274400  1
  O  O26  1  0.73254200  0.08253300  0.35486700  1
  O  O27  1  0.45306000  0.25445300  0.05486600  1
