# generated using pymatgen
data_Li8ZrO6
_symmetry_space_group_name_H-M   'P 1'
_cell_length_a   6.11830371
_cell_length_b   6.11830371
_cell_length_c   6.11830396
_cell_angle_alpha   53.81167058
_cell_angle_beta   53.81167058
_cell_angle_gamma   53.81167813
_symmetry_Int_Tables_number   1
_chemical_formula_structural   Li8ZrO6
_chemical_formula_sum   'Li8 Zr1 O6'
_cell_volume   138.52413731
_cell_formula_units_Z   1
loop_
 _symmetry_equiv_pos_site_id
 _symmetry_equiv_pos_as_xyz
  1  'x, y, z'
loop_
 _atom_site_type_symbol
 _atom_site_label
 _atom_site_symmetry_multiplicity
 _atom_site_fract_x
 _atom_site_fract_y
 _atom_site_fract_z
 _atom_site_occupancy
  Li  Li0  1  0.50533100  0.89665400  0.23338400  1
  Li  Li1  1  0.76661600  0.49466900  0.10334600  1
  Li  Li2  1  0.10334600  0.76661600  0.49466900  1
  Li  Li3  1  0.65510500  0.65510500  0.65510500  1
  Li  Li4  1  0.34489500  0.34489500  0.34489500  1
  Li  Li5  1  0.89665400  0.23338400  0.50533100  1
  Li  Li6  1  0.23338400  0.50533100  0.89665400  1
  Li  Li7  1  0.49466900  0.10334600  0.76661600  1
  Zr  Zr8  1  0.00000000  0.00000000  0.00000000  1
  O  O9  1  0.38725200  0.76443200  0.09258100  1
  O  O10  1  0.90741900  0.61274800  0.23556800  1
  O  O11  1  0.23556800  0.90741900  0.61274800  1
  O  O12  1  0.76443200  0.09258100  0.38725200  1
  O  O13  1  0.09258100  0.38725200  0.76443200  1
  O  O14  1  0.61274800  0.23556800  0.90741900  1
