# generated using pymatgen
data_Li3P2WO9
_symmetry_space_group_name_H-M   'P 1'
_cell_length_a   15.98615800
_cell_length_b   5.08590700
_cell_length_c   8.76740277
_cell_angle_alpha   78.04436904
_cell_angle_beta   90.00000000
_cell_angle_gamma   90.00000000
_symmetry_Int_Tables_number   1
_chemical_formula_structural   Li3P2WO9
_chemical_formula_sum   'Li12 P8 W4 O36'
_cell_volume   697.36350695
_cell_formula_units_Z   4
loop_
 _symmetry_equiv_pos_site_id
 _symmetry_equiv_pos_as_xyz
  1  'x, y, z'
loop_
 _atom_site_type_symbol
 _atom_site_label
 _atom_site_symmetry_multiplicity
 _atom_site_fract_x
 _atom_site_fract_y
 _atom_site_fract_z
 _atom_site_occupancy
  Li  Li0  1  0.37269000  0.75238200  0.57185300  1
  Li  Li1  1  0.38523700  0.77486700  0.95907700  1
  Li  Li2  1  0.81904000  0.72886600  0.57609200  1
  Li  Li3  1  0.12731000  0.75238200  0.07185300  1
  Li  Li4  1  0.11476300  0.77486700  0.45907700  1
  Li  Li5  1  0.68096000  0.72886600  0.07609200  1
  Li  Li6  1  0.31904000  0.27113400  0.92390800  1
  Li  Li7  1  0.88523700  0.22513300  0.54092300  1
  Li  Li8  1  0.87269000  0.24761800  0.92814700  1
  Li  Li9  1  0.18096000  0.27113400  0.42390800  1
  Li  Li10  1  0.61476300  0.22513300  0.04092300  1
  Li  Li11  1  0.62731000  0.24761800  0.42814700  1
  P  P12  1  0.22676900  0.81827200  0.75816900  1
  P  P13  1  0.27323100  0.81827200  0.25816900  1
  P  P14  1  0.96029500  0.77773300  0.81019700  1
  P  P15  1  0.53970500  0.77773300  0.31019700  1
  P  P16  1  0.46029500  0.22226700  0.68980300  1
  P  P17  1  0.03970500  0.22226700  0.18980300  1
  P  P18  1  0.72676900  0.18172800  0.74183100  1
  P  P19  1  0.77323100  0.18172800  0.24183100  1
  W  W20  1  0.60198100  0.70556800  0.69020300  1
  W  W21  1  0.89801900  0.70556800  0.19020300  1
  W  W22  1  0.10198100  0.29443200  0.80979700  1
  W  W23  1  0.39801900  0.29443200  0.30979700  1
  O  O24  1  0.21393400  0.08501500  0.82649100  1
  O  O25  1  0.28606600  0.08501500  0.32649100  1
  O  O26  1  0.04105700  0.93885800  0.82852200  1
  O  O27  1  0.45894300  0.93885800  0.32852200  1
  O  O28  1  0.60342200  0.58385100  0.89556600  1
  O  O29  1  0.89657800  0.58385100  0.39556600  1
  O  O30  1  0.92124400  0.86489600  0.65181700  1
  O  O31  1  0.57875600  0.86489600  0.15181700  1
  O  O32  1  0.89892700  0.81647600  0.94277500  1
  O  O33  1  0.60107300  0.81647600  0.44277500  1
  O  O34  1  0.19785100  0.88275100  0.59091300  1
  O  O35  1  0.30214900  0.88275100  0.09091300  1
  O  O36  1  0.31666700  0.70816300  0.77875300  1
  O  O37  1  0.18333300  0.70816300  0.27875300  1
  O  O38  1  0.48503600  0.52931100  0.65772700  1
  O  O39  1  0.17092100  0.60019100  0.86981000  1
  O  O40  1  0.01496400  0.52931100  0.15772700  1
  O  O41  1  0.32907900  0.60019100  0.36981000  1
  O  O42  1  0.67092100  0.39980900  0.63019000  1
  O  O43  1  0.98503600  0.47068900  0.84227300  1
  O  O44  1  0.82907900  0.39980900  0.13019000  1
  O  O45  1  0.51496400  0.47068900  0.34227300  1
  O  O46  1  0.81666700  0.29183700  0.72124700  1
  O  O47  1  0.68333300  0.29183700  0.22124700  1
  O  O48  1  0.69785100  0.11724900  0.90908700  1
  O  O49  1  0.80214900  0.11724900  0.40908700  1
  O  O50  1  0.39892700  0.18352400  0.55722500  1
  O  O51  1  0.10107300  0.18352400  0.05722500  1
  O  O52  1  0.42124400  0.13510400  0.84818300  1
  O  O53  1  0.07875600  0.13510400  0.34818300  1
  O  O54  1  0.10342200  0.41614900  0.60443400  1
  O  O55  1  0.39657800  0.41614900  0.10443400  1
  O  O56  1  0.54105700  0.06114200  0.67147800  1
  O  O57  1  0.95894300  0.06114200  0.17147800  1
  O  O58  1  0.71393400  0.91498500  0.67350900  1
  O  O59  1  0.78606600  0.91498500  0.17350900  1
