# generated using pymatgen
data_Li2VF6
_symmetry_space_group_name_H-M   'P 1'
_cell_length_a   5.05648600
_cell_length_b   8.68750800
_cell_length_c   9.78624300
_cell_angle_alpha   90.00000000
_cell_angle_beta   90.00000000
_cell_angle_gamma   90.00000000
_symmetry_Int_Tables_number   1
_chemical_formula_structural   Li2VF6
_chemical_formula_sum   'Li8 V4 F24'
_cell_volume   429.89265215
_cell_formula_units_Z   4
loop_
 _symmetry_equiv_pos_site_id
 _symmetry_equiv_pos_as_xyz
  1  'x, y, z'
loop_
 _atom_site_type_symbol
 _atom_site_label
 _atom_site_symmetry_multiplicity
 _atom_site_fract_x
 _atom_site_fract_y
 _atom_site_fract_z
 _atom_site_occupancy
  Li  Li0  1  0.49410300  0.45281100  0.10481400  1
  Li  Li1  1  0.01516100  0.86576000  0.11313300  1
  Li  Li2  1  0.51516100  0.36576000  0.38686700  1
  Li  Li3  1  0.99410300  0.95281100  0.39518600  1
  Li  Li4  1  0.49410300  0.04718900  0.60481400  1
  Li  Li5  1  0.01516100  0.63424000  0.61313300  1
  Li  Li6  1  0.51516100  0.13424000  0.88686700  1
  Li  Li7  1  0.99410300  0.54718900  0.89518600  1
  V  V8  1  0.99872200  0.23753600  0.13115600  1
  V  V9  1  0.49872200  0.73753600  0.36884400  1
  V  V10  1  0.99872200  0.26246400  0.63115600  1
  V  V11  1  0.49872200  0.76246400  0.86884400  1
  F  F12  1  0.83810000  0.10105000  0.01221400  1
  F  F13  1  0.30949900  0.25456700  0.01666700  1
  F  F14  1  0.84384500  0.40528600  0.02775400  1
  F  F15  1  0.11784200  0.06086300  0.22682900  1
  F  F16  1  0.70041300  0.24713600  0.24440900  1
  F  F17  1  0.68747700  0.87233700  0.25960700  1
  F  F18  1  0.18747700  0.37233700  0.24039300  1
  F  F19  1  0.20041300  0.74713600  0.25559100  1
  F  F20  1  0.61784200  0.56086300  0.27317100  1
  F  F21  1  0.34384500  0.90528600  0.47224600  1
  F  F22  1  0.80949900  0.75456700  0.48333300  1
  F  F23  1  0.33810000  0.60105000  0.48778600  1
  F  F24  1  0.83810000  0.39895000  0.51221400  1
  F  F25  1  0.30949900  0.24543300  0.51666700  1
  F  F26  1  0.84384500  0.09471400  0.52775400  1
  F  F27  1  0.11784200  0.43913700  0.72682900  1
  F  F28  1  0.70041300  0.25286400  0.74440900  1
  F  F29  1  0.68747700  0.62766300  0.75960700  1
  F  F30  1  0.18747700  0.12766300  0.74039300  1
  F  F31  1  0.20041300  0.75286400  0.75559100  1
  F  F32  1  0.61784200  0.93913700  0.77317100  1
  F  F33  1  0.34384500  0.59471400  0.97224600  1
  F  F34  1  0.80949900  0.74543300  0.98333300  1
  F  F35  1  0.33810000  0.89895000  0.98778600  1
