# generated using pymatgen
data_Li4Ti3CrO8
_symmetry_space_group_name_H-M   'P 1'
_cell_length_a   6.01048402
_cell_length_b   6.01048402
_cell_length_c   6.01048471
_cell_angle_alpha   58.43716025
_cell_angle_beta   58.43716025
_cell_angle_gamma   58.43716138
_symmetry_Int_Tables_number   1
_chemical_formula_structural   Li4Ti3CrO8
_chemical_formula_sum   'Li4 Ti3 Cr1 O8'
_cell_volume   148.04603898
_cell_formula_units_Z   1
loop_
 _symmetry_equiv_pos_site_id
 _symmetry_equiv_pos_as_xyz
  1  'x, y, z'
loop_
 _atom_site_type_symbol
 _atom_site_label
 _atom_site_symmetry_multiplicity
 _atom_site_fract_x
 _atom_site_fract_y
 _atom_site_fract_z
 _atom_site_occupancy
  Li  Li0  1  0.50000000  0.50000000  0.50000000  1
  Li  Li1  1  0.00000000  0.00000000  0.50000000  1
  Li  Li2  1  0.50000000  0.00000000  0.00000000  1
  Li  Li3  1  0.00000000  0.50000000  0.00000000  1
  Ti  Ti4  1  0.50000000  0.50000000  0.00000000  1
  Ti  Ti5  1  0.00000000  0.50000000  0.50000000  1
  Ti  Ti6  1  0.50000000  0.00000000  0.50000000  1
  Cr  Cr7  1  0.00000000  0.00000000  0.00000000  1
  O  O8  1  0.25408600  0.25408600  0.25408600  1
  O  O9  1  0.75637700  0.75637700  0.25343300  1
  O  O10  1  0.25343300  0.75637700  0.75637700  1
  O  O11  1  0.74591400  0.74591400  0.74591400  1
  O  O12  1  0.75637700  0.25343300  0.75637700  1
  O  O13  1  0.24362300  0.24362300  0.74656700  1
  O  O14  1  0.74656700  0.24362300  0.24362300  1
  O  O15  1  0.24362300  0.74656700  0.24362300  1
