# generated using pymatgen
data_Li7Mn11O24
_symmetry_space_group_name_H-M   'P 1'
_cell_length_a   5.93543071
_cell_length_b   5.93543071
_cell_length_c   14.59125733
_cell_angle_alpha   89.04243813
_cell_angle_beta   89.04243813
_cell_angle_gamma   58.21149096
_symmetry_Int_Tables_number   1
_chemical_formula_structural   Li7Mn11O24
_chemical_formula_sum   'Li7 Mn11 O24'
_cell_volume   436.85350668
_cell_formula_units_Z   1
loop_
 _symmetry_equiv_pos_site_id
 _symmetry_equiv_pos_as_xyz
  1  'x, y, z'
loop_
 _atom_site_type_symbol
 _atom_site_label
 _atom_site_symmetry_multiplicity
 _atom_site_fract_x
 _atom_site_fract_y
 _atom_site_fract_z
 _atom_site_occupancy
  Li  Li0  1  0.52070500  0.52070500  0.35622400  1
  Li  Li1  1  0.47929500  0.47929500  0.64377600  1
  Li  Li2  1  0.50000000  0.50000000  0.50000000  1
  Li  Li3  1  0.84222200  0.84222200  0.04437400  1
  Li  Li4  1  0.82803400  0.82803400  0.30122200  1
  Li  Li5  1  0.17196600  0.17196600  0.69877800  1
  Li  Li6  1  0.15777800  0.15777800  0.95562600  1
  Mn  Mn7  1  0.83705600  0.83705600  0.65950000  1
  Mn  Mn8  1  0.50000000  0.00000000  0.50000000  1
  Mn  Mn9  1  0.33459600  0.33459600  0.16786000  1
  Mn  Mn10  1  0.16294400  0.16294400  0.34050000  1
  Mn  Mn11  1  0.33845600  0.83814500  0.16687400  1
  Mn  Mn12  1  0.00000000  0.50000000  0.50000000  1
  Mn  Mn13  1  0.83814500  0.33845600  0.16687400  1
  Mn  Mn14  1  0.66540400  0.66540400  0.83214000  1
  Mn  Mn15  1  0.50000000  0.50000000  0.00000000  1
  Mn  Mn16  1  0.66154400  0.16185500  0.83312600  1
  Mn  Mn17  1  0.16185500  0.66154400  0.83312600  1
  O  O18  1  0.64699700  0.13657700  0.58508000  1
  O  O19  1  0.67818800  0.67818800  0.57896200  1
  O  O20  1  0.32181200  0.32181200  0.42103800  1
  O  O21  1  0.17821100  0.17821100  0.56722800  1
  O  O22  1  0.35300300  0.86342300  0.41492000  1
  O  O23  1  0.86342300  0.35300300  0.41492000  1
  O  O24  1  0.20750600  0.66098200  0.09125700  1
  O  O25  1  0.01458300  0.46163700  0.24408400  1
  O  O26  1  0.13657700  0.64699700  0.58508000  1
  O  O27  1  0.02052800  0.02052800  0.24781400  1
  O  O28  1  0.82178900  0.82178900  0.43277200  1
  O  O29  1  0.15540000  0.15540000  0.09349700  1
  O  O30  1  0.51477000  0.51477000  0.23499500  1
  O  O31  1  0.66130100  0.66130100  0.09459700  1
  O  O32  1  0.84460000  0.84460000  0.90650300  1
  O  O33  1  0.53836300  0.98541700  0.75591600  1
  O  O34  1  0.66098200  0.20750600  0.09125700  1
  O  O35  1  0.33901800  0.79249400  0.90874300  1
  O  O36  1  0.79249400  0.33901800  0.90874300  1
  O  O37  1  0.46163700  0.01458300  0.24408400  1
  O  O38  1  0.33869900  0.33869900  0.90540300  1
  O  O39  1  0.48523000  0.48523000  0.76500500  1
  O  O40  1  0.97947200  0.97947200  0.75218600  1
  O  O41  1  0.98541700  0.53836300  0.75591600  1
