# generated using pymatgen
data_Li4Ti3Fe2Sn3O16
_symmetry_space_group_name_H-M   'P 1'
_cell_length_a   6.11680952
_cell_length_b   19.90347737
_cell_length_c   6.14463081
_cell_angle_alpha   89.73758227
_cell_angle_beta   60.14536633
_cell_angle_gamma   90.23919241
_symmetry_Int_Tables_number   1
_chemical_formula_structural   Li4Ti3Fe2Sn3O16
_chemical_formula_sum   'Li8 Ti6 Fe4 Sn6 O32'
_cell_volume   648.78089835
_cell_formula_units_Z   2
loop_
 _symmetry_equiv_pos_site_id
 _symmetry_equiv_pos_as_xyz
  1  'x, y, z'
loop_
 _atom_site_type_symbol
 _atom_site_label
 _atom_site_symmetry_multiplicity
 _atom_site_fract_x
 _atom_site_fract_y
 _atom_site_fract_z
 _atom_site_occupancy
  Li  Li0  1  0.33211300  0.44336900  0.33785000  1
  Li  Li1  1  0.33207000  0.94318100  0.33871600  1
  Li  Li2  1  0.00972400  0.49813200  0.97881800  1
  Li  Li3  1  0.00907000  0.99821700  0.97736600  1
  Li  Li4  1  0.00513500  0.25061300  0.98683700  1
  Li  Li5  1  0.00509800  0.75070800  0.98752900  1
  Li  Li6  1  0.66641200  0.19592000  0.67098100  1
  Li  Li7  1  0.66515100  0.69620000  0.67044600  1
  Ti  Ti8  1  0.17567900  0.10956400  0.66025900  1
  Ti  Ti9  1  0.16917300  0.60849300  0.66268700  1
  Ti  Ti10  1  0.33622700  0.35763300  0.83246100  1
  Ti  Ti11  1  0.33759600  0.85740600  0.83304200  1
  Ti  Ti12  1  0.83175300  0.35830400  0.83039700  1
  Ti  Ti13  1  0.83168500  0.85851100  0.83143700  1
  Fe  Fe14  1  0.33175700  0.74829800  0.33577300  1
  Fe  Fe15  1  0.66692900  0.99625900  0.67429500  1
  Fe  Fe16  1  0.33349300  0.24851100  0.33537400  1
  Fe  Fe17  1  0.66399200  0.49603000  0.67074000  1
  Sn  Sn18  1  0.82884900  0.35673000  0.34030100  1
  Sn  Sn19  1  0.82956900  0.85702700  0.33982700  1
  Sn  Sn20  1  0.66274400  0.10657100  0.16539000  1
  Sn  Sn21  1  0.66193500  0.60728500  0.16915500  1
  Sn  Sn22  1  0.16661800  0.10731200  0.17026500  1
  Sn  Sn23  1  0.16792400  0.60734000  0.17010900  1
  O  O24  1  0.48413800  0.16787000  0.03121600  1
  O  O25  1  0.48435600  0.66779500  0.03184900  1
  O  O26  1  0.32414600  0.04956200  0.34780900  1
  O  O27  1  0.32513800  0.54934200  0.34847500  1
  O  O28  1  0.00561900  0.15982800  0.98650100  1
  O  O29  1  0.00562800  0.65984400  0.98977400  1
  O  O30  1  0.00411500  0.40748900  0.98991300  1
  O  O31  1  0.00611700  0.90761100  0.98883900  1
  O  O32  1  0.84423700  0.04860000  0.30754400  1
  O  O33  1  0.84307200  0.54837700  0.31203200  1
  O  O34  1  0.15502000  0.30653600  0.68916800  1
  O  O35  1  0.15623900  0.80626200  0.68957700  1
  O  O36  1  0.65518800  0.30174000  0.68813000  1
  O  O37  1  0.65614600  0.80180200  0.68582100  1
  O  O38  1  0.52044300  0.41281300  0.96135100  1
  O  O39  1  0.51750200  0.91120300  0.96630600  1
  O  O40  1  0.68436700  0.30161300  0.15115800  1
  O  O41  1  0.68680600  0.80237700  0.14911100  1
  O  O42  1  0.16203300  0.30254500  0.14784900  1
  O  O43  1  0.16373000  0.80235200  0.14884200  1
  O  O44  1  0.47539300  0.16480500  0.49478500  1
  O  O45  1  0.47264300  0.66576500  0.49467600  1
  O  O46  1  0.03573500  0.16699900  0.49102600  1
  O  O47  1  0.03255700  0.66562600  0.49575800  1
  O  O48  1  0.96608500  0.41434500  0.52925500  1
  O  O49  1  0.96744200  0.91411200  0.52873600  1
  O  O50  1  0.50599500  0.41446600  0.52898500  1
  O  O51  1  0.50932100  0.91629000  0.53174100  1
  O  O52  1  0.85060500  0.05266400  0.82827900  1
  O  O53  1  0.85296100  0.55298600  0.83223300  1
  O  O54  1  0.31283800  0.05344400  0.83109900  1
  O  O55  1  0.31429400  0.55315900  0.83210200  1
