# generated using pymatgen
data_Li4V3P8O29
_symmetry_space_group_name_H-M   'P 1'
_cell_length_a   9.79659200
_cell_length_b   9.80016476
_cell_length_c   13.96723935
_cell_angle_alpha   89.81601783
_cell_angle_beta   89.77230109
_cell_angle_gamma   60.09690428
_symmetry_Int_Tables_number   1
_chemical_formula_structural   Li4V3P8O29
_chemical_formula_sum   'Li8 V6 P16 O58'
_cell_volume   1162.43582915
_cell_formula_units_Z   2
loop_
 _symmetry_equiv_pos_site_id
 _symmetry_equiv_pos_as_xyz
  1  'x, y, z'
loop_
 _atom_site_type_symbol
 _atom_site_label
 _atom_site_symmetry_multiplicity
 _atom_site_fract_x
 _atom_site_fract_y
 _atom_site_fract_z
 _atom_site_occupancy
  Li  Li0  1  0.09202000  0.68066600  0.55889400  1
  Li  Li1  1  0.67679200  0.22742700  0.55808100  1
  Li  Li2  1  0.68015100  0.08922000  0.06173100  1
  Li  Li3  1  0.09538400  0.22844800  0.06088100  1
  Li  Li4  1  0.23042800  0.08927400  0.56012700  1
  Li  Li5  1  0.32243500  0.90334000  0.94217100  1
  Li  Li6  1  0.90687100  0.32209900  0.43894600  1
  Li  Li7  1  0.76916400  0.32256000  0.93992400  1
  V  V8  1  0.56997100  0.99608100  0.25530100  1
  V  V9  1  0.43493100  0.99938400  0.74918900  1
  V  V10  1  0.99737100  0.57263300  0.75482800  1
  V  V11  1  0.00093600  0.43841000  0.24819100  1
  V  V12  1  0.42783800  0.57079600  0.24933200  1
  V  V13  1  0.56259600  0.43571800  0.74900000  1
  P  P14  1  0.22950100  0.68562300  0.84354600  1
  P  P15  1  0.08579000  0.68544300  0.34234200  1
  P  P16  1  0.68046400  0.23213000  0.34110200  1
  P  P17  1  0.33787900  0.32977400  0.12812600  1
  P  P18  1  0.33111100  0.33465900  0.62811900  1
  P  P19  1  0.68165800  0.08764700  0.84344200  1
  P  P20  1  0.77028500  0.91488800  0.65870500  1
  P  P21  1  0.08804100  0.23046300  0.84130500  1
  P  P22  1  0.91508700  0.77323400  0.15573700  1
  P  P23  1  0.22818900  0.08906300  0.34295000  1
  P  P24  1  0.31867600  0.91252600  0.15968300  1
  P  P25  1  0.66525700  0.66314600  0.37195500  1
  P  P26  1  0.66484500  0.66462700  0.87236100  1
  P  P27  1  0.31466900  0.77043000  0.65718100  1
  P  P28  1  0.91138400  0.32085700  0.65867900  1
  P  P29  1  0.76811100  0.32001100  0.15769100  1
  O  O30  1  0.23597100  0.75818800  0.56987300  1
  O  O31  1  0.25527900  0.65976300  0.33208800  1
  O  O32  1  0.99942600  0.76715800  0.06828000  1
  O  O33  1  0.08574400  0.65854600  0.83570200  1
  O  O34  1  0.37966600  0.52413700  0.82378400  1
  O  O35  1  0.33725600  0.47779500  0.17423100  1
  O  O36  1  0.52156500  0.38395400  0.32423600  1
  O  O37  1  0.75837500  0.24093300  0.06848800  1
  O  O38  1  0.66137400  0.25631600  0.83593800  1
  O  O39  1  0.18239400  0.48752800  0.66942800  1
  O  O40  1  0.09740600  0.52170200  0.32108200  1
  O  O41  1  0.48454800  0.33015300  0.66915000  1
  O  O42  1  0.34184000  0.32648500  0.02209300  1
  O  O43  1  0.33576100  0.33585300  0.52122700  1
  O  O44  1  0.48906400  0.18064300  0.17051100  1
  O  O45  1  0.09758100  0.38166000  0.82288600  1
  O  O46  1  0.18680800  0.32762400  0.16698800  1
  O  O47  1  0.65775600  0.08681800  0.33673800  1
  O  O48  1  0.79386100  0.99526900  0.75417000  1
  O  O49  1  0.76449800  0.00580800  0.57235500  1
  O  O50  1  0.75257900  0.01104100  0.93599500  1
  O  O51  1  0.52132300  0.09831200  0.82198100  1
  O  O52  1  0.32583200  0.18723600  0.66723500  1
  O  O53  1  0.74281700  0.91768200  0.16343500  1
  O  O54  1  0.38121200  0.09739400  0.32206300  1
  O  O55  1  0.08182200  0.25661100  0.33757000  1
  O  O56  1  0.99362500  0.79592900  0.25315500  1
  O  O57  1  0.00799000  0.75319200  0.43434100  1
  O  O58  1  0.99978800  0.24192900  0.56849200  1
  O  O59  1  0.91731100  0.74498300  0.66181600  1
  O  O60  1  0.62157800  0.90199100  0.67629900  1
  O  O61  1  0.25248900  0.08276800  0.84067500  1
  O  O62  1  0.66456100  0.81410700  0.32693200  1
  O  O63  1  0.47811400  0.90561300  0.17745500  1
  O  O64  1  0.24203900  0.00016200  0.06971600  1
  O  O65  1  0.23876600  0.00715300  0.43385800  1
  O  O66  1  0.20782600  0.00127800  0.25063100  1
  O  O67  1  0.33650100  0.91684900  0.65998100  1
  O  O68  1  0.81520800  0.66508700  0.82651100  1
  O  O69  1  0.90422500  0.62174200  0.17672300  1
  O  O70  1  0.51501900  0.81304900  0.83362700  1
  O  O71  1  0.67013700  0.65748200  0.97904900  1
  O  O72  1  0.66468600  0.66433400  0.47785000  1
  O  O73  1  0.51851400  0.66427300  0.32530300  1
  O  O74  1  0.90507100  0.47867900  0.67740200  1
  O  O75  1  0.81657900  0.51259900  0.33154000  1
  O  O76  1  0.34183900  0.74482200  0.16335700  1
  O  O77  1  0.20812800  0.79295300  0.75066200  1
  O  O78  1  0.23893200  0.76522300  0.93110600  1
  O  O79  1  0.47657600  0.61935100  0.67769700  1
  O  O80  1  0.67192300  0.51185500  0.83046300  1
  O  O81  1  0.61775000  0.47884200  0.17583500  1
  O  O82  1  0.91723100  0.33751300  0.15851400  1
  O  O83  1  0.99857400  0.24349500  0.93189500  1
  O  O84  1  0.99885500  0.20990800  0.75029900  1
  O  O85  1  0.74546500  0.33894400  0.65922200  1
  O  O86  1  0.75903000  0.24100000  0.43058400  1
  O  O87  1  0.79140400  0.20978100  0.24975800  1
