# generated using pymatgen
data_Li8Mn3Fe5(BO3)8
_symmetry_space_group_name_H-M   'P 1'
_cell_length_a   6.04358700
_cell_length_b   9.71222806
_cell_length_c   9.77455849
_cell_angle_alpha   65.01809172
_cell_angle_beta   79.57425298
_cell_angle_gamma   78.27261999
_symmetry_Int_Tables_number   1
_chemical_formula_structural   Li8Mn3Fe5(BO3)8
_chemical_formula_sum   'Li8 Mn3 Fe5 B8 O24'
_cell_volume   506.26771197
_cell_formula_units_Z   1
loop_
 _symmetry_equiv_pos_site_id
 _symmetry_equiv_pos_as_xyz
  1  'x, y, z'
loop_
 _atom_site_type_symbol
 _atom_site_label
 _atom_site_symmetry_multiplicity
 _atom_site_fract_x
 _atom_site_fract_y
 _atom_site_fract_z
 _atom_site_occupancy
  Li  Li0  1  0.04513300  0.46700800  0.81517100  1
  Li  Li1  1  0.04506700  0.96616800  0.31413500  1
  Li  Li2  1  0.45278200  0.03177700  0.18533800  1
  Li  Li3  1  0.54502900  0.46775900  0.31533800  1
  Li  Li4  1  0.45388600  0.53374600  0.68626600  1
  Li  Li5  1  0.54678600  0.96697300  0.81694300  1
  Li  Li6  1  0.95381700  0.03382000  0.68628000  1
  Li  Li7  1  0.95498500  0.53370900  0.18676800  1
  Mn  Mn8  1  0.31315100  0.29288200  0.62529400  1
  Mn  Mn9  1  0.81260700  0.29250500  0.12550400  1
  Mn  Mn10  1  0.81263800  0.79370900  0.62489000  1
  Fe  Fe11  1  0.18401800  0.20874800  0.37133300  1
  Fe  Fe12  1  0.31514800  0.78961400  0.12435800  1
  Fe  Fe13  1  0.18584100  0.70904100  0.87186200  1
  Fe  Fe14  1  0.68542300  0.20834700  0.87096900  1
  Fe  Fe15  1  0.68131700  0.71033700  0.37003600  1
  B  B16  1  0.33414300  0.36644900  0.03808000  1
  B  B17  1  0.16738000  0.13035300  0.96281300  1
  B  B18  1  0.16446100  0.63417600  0.46028800  1
  B  B19  1  0.33449600  0.86708000  0.53760700  1
  B  B20  1  0.66616700  0.13262900  0.46228900  1
  B  B21  1  0.83452700  0.36775300  0.53739300  1
  B  B22  1  0.83715700  0.86710000  0.03826700  1
  B  B23  1  0.66606700  0.63283300  0.96401300  1
  O  O24  1  0.17621400  0.01234500  0.10512000  1
  O  O25  1  0.01457900  0.24517600  0.56142400  1
  O  O26  1  0.01693100  0.74501900  0.06289200  1
  O  O27  1  0.16434200  0.36157000  0.15701800  1
  O  O28  1  0.17756900  0.51728800  0.60370900  1
  O  O29  1  0.51366900  0.24453300  0.06153800  1
  O  O30  1  0.16656600  0.86283000  0.65751500  1
  O  O31  1  0.34160400  0.13487100  0.84706100  1
  O  O32  1  0.33677000  0.63869400  0.34340600  1
  O  O33  1  0.48482900  0.25395800  0.43314600  1
  O  O34  1  0.32115000  0.48708300  0.89766100  1
  O  O35  1  0.32115600  0.98588500  0.39706300  1
  O  O36  1  0.67474600  0.01657900  0.60622000  1
  O  O37  1  0.67605500  0.51577000  0.10640900  1
  O  O38  1  0.51376400  0.74463700  0.56116600  1
  O  O39  1  0.66620700  0.36315900  0.65700800  1
  O  O40  1  0.66597300  0.86283700  0.15566100  1
  O  O41  1  0.84042200  0.13409800  0.34775500  1
  O  O42  1  0.48397700  0.75423800  0.93758900  1
  O  O43  1  0.82096500  0.48663100  0.39686900  1
  O  O44  1  0.83768700  0.63592100  0.84746200  1
  O  O45  1  0.98619300  0.25208400  0.93476100  1
  O  O46  1  0.98217200  0.75408900  0.43360900  1
  O  O47  1  0.82444000  0.98618200  0.89670700  1
