# generated using pymatgen
data_Li4Cr3Sn3(TeO8)2
_symmetry_space_group_name_H-M   'P 1'
_cell_length_a   6.27617317
_cell_length_b   6.27617317
_cell_length_c   10.14648085
_cell_angle_alpha   88.60007351
_cell_angle_beta   88.60007351
_cell_angle_gamma   59.71959525
_symmetry_Int_Tables_number   1
_chemical_formula_structural   Li4Cr3Sn3(TeO8)2
_chemical_formula_sum   'Li4 Cr3 Sn3 Te2 O16'
_cell_volume   345.00822478
_cell_formula_units_Z   1
loop_
 _symmetry_equiv_pos_site_id
 _symmetry_equiv_pos_as_xyz
  1  'x, y, z'
loop_
 _atom_site_type_symbol
 _atom_site_label
 _atom_site_symmetry_multiplicity
 _atom_site_fract_x
 _atom_site_fract_y
 _atom_site_fract_z
 _atom_site_occupancy
  Li  Li0  1  0.67292400  0.67292400  0.10449500  1
  Li  Li1  1  0.99529100  0.99529100  0.01086000  1
  Li  Li2  1  0.99373100  0.99373100  0.50365900  1
  Li  Li3  1  0.33362700  0.33362700  0.59132700  1
  Cr  Cr4  1  0.83250200  0.83250200  0.79065100  1
  Cr  Cr5  1  0.16663800  0.66430100  0.28672900  1
  Cr  Cr6  1  0.66430100  0.16663800  0.28672900  1
  Sn  Sn7  1  0.33591800  0.83295900  0.78465400  1
  Sn  Sn8  1  0.83295900  0.33591800  0.78465400  1
  Sn  Sn9  1  0.16661500  0.16661500  0.28723500  1
  Te  Te10  1  0.67550800  0.67550800  0.50802100  1
  Te  Te11  1  0.34821100  0.34821100  0.01973500  1
  O  O12  1  0.30286900  0.83776900  0.39567100  1
  O  O13  1  0.51193100  0.51193100  0.66851000  1
  O  O14  1  0.66570500  0.66570500  0.89207800  1
  O  O15  1  0.99701100  0.99701100  0.68728800  1
  O  O16  1  0.99633400  0.99633400  0.19118500  1
  O  O17  1  0.83776900  0.30286900  0.39567100  1
  O  O18  1  0.51052000  0.96018700  0.64778500  1
  O  O19  1  0.96018700  0.51052000  0.64778500  1
  O  O20  1  0.15206000  0.15206000  0.89269300  1
  O  O21  1  0.84408000  0.84408000  0.40115600  1
  O  O22  1  0.03530100  0.49354900  0.16932900  1
  O  O23  1  0.49354900  0.03530100  0.16932900  1
  O  O24  1  0.33497700  0.33497700  0.38805600  1
  O  O25  1  0.17587000  0.68402100  0.91287700  1
  O  O26  1  0.47989400  0.47989400  0.16109400  1
  O  O27  1  0.68402100  0.17587000  0.91287700  1
