# generated using pymatgen
data_Li9V6(P8O29)2
_symmetry_space_group_name_H-M   'P 1'
_cell_length_a   9.77913600
_cell_length_b   9.79751839
_cell_length_c   14.03941908
_cell_angle_alpha   89.79821584
_cell_angle_beta   89.77954033
_cell_angle_gamma   60.20313042
_symmetry_Int_Tables_number   1
_chemical_formula_structural   Li9V6(P8O29)2
_chemical_formula_sum   'Li9 V6 P16 O58'
_cell_volume   1167.28712107
_cell_formula_units_Z   1
loop_
 _symmetry_equiv_pos_site_id
 _symmetry_equiv_pos_as_xyz
  1  'x, y, z'
loop_
 _atom_site_type_symbol
 _atom_site_label
 _atom_site_symmetry_multiplicity
 _atom_site_fract_x
 _atom_site_fract_y
 _atom_site_fract_z
 _atom_site_occupancy
  Li  Li0  1  0.90240800  0.76841800  0.43779600  1
  Li  Li1  1  0.31857800  0.91175600  0.43552600  1
  Li  Li2  1  0.66471700  0.67489800  0.11475800  1
  Li  Li3  1  0.31907100  0.76793300  0.94360000  1
  Li  Li4  1  0.91030000  0.32214800  0.94074900  1
  Li  Li5  1  0.22724900  0.68430000  0.55780600  1
  Li  Li6  1  0.77065400  0.32664100  0.43692200  1
  Li  Li7  1  0.67962600  0.09262400  0.56069200  1
  Li  Li8  1  0.97318100  0.98131600  0.00402300  1
  V  V9  1  0.43775100  0.56434200  0.75343100  1
  V  V10  1  0.56902900  0.43053900  0.24839000  1
  V  V11  1  0.00713100  0.56434800  0.24521400  1
  V  V12  1  0.00346900  0.43255300  0.75107000  1
  V  V13  1  0.56746500  0.99683900  0.75418600  1
  V  V14  1  0.42948000  0.00437000  0.24796200  1
  P  P15  1  0.77796300  0.91330100  0.15819100  1
  P  P16  1  0.91307700  0.76887500  0.65833000  1
  P  P17  1  0.31974200  0.91237300  0.65595800  1
  P  P18  1  0.66924600  0.66374000  0.87281200  1
  P  P19  1  0.66760200  0.66666000  0.37146300  1
  P  P20  1  0.31744500  0.77424000  0.15709100  1
  P  P21  1  0.23211100  0.68040500  0.34035300  1
  P  P22  1  0.91183000  0.31570300  0.15540300  1
  P  P23  1  0.08389800  0.69132500  0.84306900  1
  P  P24  1  0.77095500  0.31977700  0.65826600  1
  P  P25  1  0.69029000  0.22233100  0.84100800  1
  P  P26  1  0.33600500  0.33536200  0.63133100  1
  P  P27  1  0.33653000  0.33066900  0.12678600  1
  P  P28  1  0.68264100  0.08534100  0.34324400  1
  P  P29  1  0.08360900  0.22959400  0.34000700  1
  P  P30  1  0.22499200  0.08309700  0.84015400  1
  O  O31  1  0.75684100  0.99843600  0.43451000  1
  O  O32  1  0.74906700  0.91637400  0.66045800  1
  O  O33  1  0.00416300  0.78825700  0.92682100  1
  O  O34  1  0.91878900  0.74026600  0.16740200  1
  O  O35  1  0.62729800  0.89948700  0.16597300  1
  O  O36  1  0.67621000  0.80398900  0.82931500  1
  O  O37  1  0.47931100  0.90386900  0.67794400  1
  O  O38  1  0.21112600  0.99273700  0.92128600  1
  O  O39  1  0.34152400  0.91855100  0.16553400  1
  O  O40  1  0.81741000  0.66802500  0.32845400  1
  O  O41  1  0.90349500  0.61777400  0.68020500  1
  O  O42  1  0.51442800  0.81395300  0.33228900  1
  O  O43  1  0.66027000  0.65936400  0.97934000  1
  O  O44  1  0.67091800  0.66716300  0.47819900  1
  O  O45  1  0.51378800  0.66773300  0.83236800  1
  O  O46  1  0.89790900  0.48121500  0.17071900  1
  O  O47  1  0.81529900  0.50777700  0.83454500  1
  O  O48  1  0.34159400  0.74255200  0.66617800  1
  O  O49  1  0.20986500  0.78894500  0.24878100  1
  O  O50  1  0.23861800  0.75983100  0.43024900  1
  O  O51  1  0.23316400  0.77835200  0.06786700  1
  O  O52  1  0.48242900  0.62724700  0.17046900  1
  O  O53  1  0.67203700  0.51282000  0.33319700  1
  O  O54  1  0.25945100  0.65439100  0.83701400  1
  O  O55  1  0.61869600  0.47976300  0.67955700  1
  O  O56  1  0.91364400  0.34531400  0.66705400  1
  O  O57  1  0.00876500  0.78749900  0.74509400  1
  O  O58  1  0.00109300  0.75325800  0.56745500  1
  O  O59  1  0.98892000  0.23729700  0.42447100  1
  O  O60  1  0.08313100  0.66158000  0.33979900  1
  O  O61  1  0.38225600  0.52215300  0.32415900  1
  O  O62  1  0.74246600  0.34258200  0.16485600  1
  O  O63  1  0.33483800  0.48610600  0.67566300  1
  O  O64  1  0.53280300  0.38145200  0.82679600  1
  O  O65  1  0.78724900  0.21812000  0.92302000  1
  O  O66  1  0.75596300  0.25017200  0.56741400  1
  O  O67  1  0.78849900  0.20420200  0.74381000  1
  O  O68  1  0.66633400  0.25019000  0.34177400  1
  O  O69  1  0.18223300  0.48194100  0.17430700  1
  O  O70  1  0.08136900  0.53441900  0.82975000  1
  O  O71  1  0.47938000  0.33542700  0.17051100  1
  O  O72  1  0.32194600  0.34536000  0.02143600  1
  O  O73  1  0.32625100  0.34970800  0.52599800  1
  O  O74  1  0.48553300  0.18644000  0.66788700  1
  O  O75  1  0.08897500  0.38314400  0.32047400  1
  O  O76  1  0.18511600  0.34028700  0.67959100  1
  O  O77  1  0.65525700  0.08626900  0.83601800  1
  O  O78  1  0.79579100  0.99230800  0.25553200  1
  O  O79  1  0.79633500  0.99549400  0.07500600  1
  O  O80  1  0.52412000  0.09337500  0.32306000  1
  O  O81  1  0.32594100  0.19194600  0.17202900  1
  O  O82  1  0.37659200  0.09087300  0.82992600  1
  O  O83  1  0.08101400  0.25596900  0.83661800  1
  O  O84  1  0.98660700  0.24005400  0.06369200  1
  O  O85  1  0.00704500  0.20608500  0.24320600  1
  O  O86  1  0.25157400  0.08477200  0.34071100  1
  O  O87  1  0.25047500  0.98414600  0.56313200  1
  O  O88  1  0.20296600  0.00823500  0.74196900  1
