# generated using pymatgen
data_Li6V3P8O29
_symmetry_space_group_name_H-M   'P 1'
_cell_length_a   9.82915400
_cell_length_b   9.83153741
_cell_length_c   13.89647911
_cell_angle_alpha   89.86727311
_cell_angle_beta   89.78329647
_cell_angle_gamma   60.10428125
_symmetry_Int_Tables_number   1
_chemical_formula_structural   Li6V3P8O29
_chemical_formula_sum   'Li12 V6 P16 O58'
_cell_volume   1164.19365400
_cell_formula_units_Z   2
loop_
 _symmetry_equiv_pos_site_id
 _symmetry_equiv_pos_as_xyz
  1  'x, y, z'
loop_
 _atom_site_type_symbol
 _atom_site_label
 _atom_site_symmetry_multiplicity
 _atom_site_fract_x
 _atom_site_fract_y
 _atom_site_fract_z
 _atom_site_occupancy
  Li  Li0  1  0.31779000  0.90745800  0.43845400  1
  Li  Li1  1  0.67133700  0.66749500  0.61603900  1
  Li  Li2  1  0.67081400  0.66929300  0.11683000  1
  Li  Li3  1  0.31532200  0.77446700  0.93806900  1
  Li  Li4  1  0.90990100  0.31654000  0.93871300  1
  Li  Li5  1  0.22540200  0.67649700  0.55860200  1
  Li  Li6  1  0.77280700  0.31486500  0.43812300  1
  Li  Li7  1  0.09112300  0.68066600  0.06121500  1
  Li  Li8  1  0.67960000  0.22367500  0.05780900  1
  Li  Li9  1  0.68210600  0.08965600  0.56122700  1
  Li  Li10  1  0.09433600  0.22690400  0.55970100  1
  Li  Li11  1  0.22900700  0.09685600  0.06027000  1
  V  V12  1  0.43056600  0.56763800  0.75198900  1
  V  V13  1  0.56465100  0.43198200  0.24919200  1
  V  V14  1  0.99882300  0.57252700  0.25413300  1
  V  V15  1  0.00283500  0.43512900  0.74931300  1
  V  V16  1  0.57103100  0.00039600  0.75458000  1
  V  V17  1  0.43303200  0.00274300  0.25232300  1
  P  P18  1  0.77018200  0.91261200  0.15749200  1
  P  P19  1  0.91353300  0.77171500  0.65865400  1
  P  P20  1  0.32207600  0.91006600  0.65836600  1
  P  P21  1  0.66728300  0.66605500  0.87348200  1
  P  P22  1  0.66499800  0.66557600  0.37341300  1
  P  P23  1  0.32032700  0.77112800  0.15859800  1
  P  P24  1  0.23132400  0.68046500  0.34244800  1
  P  P25  1  0.91132200  0.32071500  0.15722000  1
  P  P26  1  0.08525300  0.68225900  0.84486200  1
  P  P27  1  0.76937200  0.32109200  0.65634900  1
  P  P28  1  0.68157700  0.23129400  0.84097700  1
  P  P29  1  0.33440600  0.33187800  0.62641500  1
  P  P30  1  0.33072100  0.33591500  0.12609100  1
  P  P31  1  0.68467700  0.08388500  0.34502700  1
  P  P32  1  0.08633300  0.23356100  0.34181700  1
  P  P33  1  0.23155700  0.08809100  0.84256600  1
  O  O34  1  0.75195800  0.00345400  0.43734800  1
  O  O35  1  0.74643900  0.91893100  0.65912300  1
  O  O36  1  0.00682900  0.75367200  0.93720400  1
  O  O37  1  0.91779100  0.74696300  0.15789500  1
  O  O38  1  0.62541700  0.88956900  0.17355300  1
  O  O39  1  0.67095600  0.80997800  0.83022100  1
  O  O40  1  0.48655300  0.89005600  0.67305400  1
  O  O41  1  0.24491400  0.99738300  0.93302200  1
  O  O42  1  0.33568500  0.92092100  0.15914100  1
  O  O43  1  0.80890300  0.66980400  0.32933400  1
  O  O44  1  0.88974300  0.62668800  0.67318800  1
  O  O45  1  0.51043900  0.81393200  0.33665800  1
  O  O46  1  0.66708900  0.66189600  0.98174100  1
  O  O47  1  0.66431700  0.66001800  0.48135600  1
  O  O48  1  0.51332300  0.67025700  0.83611000  1
  O  O49  1  0.89209600  0.48532700  0.17279300  1
  O  O50  1  0.81676300  0.51331300  0.83353800  1
  O  O51  1  0.33870900  0.74408700  0.65852800  1
  O  O52  1  0.21211100  0.79088400  0.25002400  1
  O  O53  1  0.24271500  0.75924900  0.43217400  1
  O  O54  1  0.24408100  0.75790200  0.06856900  1
  O  O55  1  0.48683200  0.62789600  0.17431100  1
  O  O56  1  0.66842400  0.51274000  0.33274000  1
  O  O57  1  0.25090200  0.66807600  0.83859100  1
  O  O58  1  0.62720200  0.48681400  0.67403500  1
  O  O59  1  0.91913500  0.33374700  0.65524900  1
  O  O60  1  0.99301100  0.79351800  0.75464800  1
  O  O61  1  0.00894600  0.75993300  0.57292800  1
  O  O62  1  0.99700400  0.24390100  0.43228600  1
  O  O63  1  0.08575800  0.66225300  0.33911700  1
  O  O64  1  0.38126600  0.52138200  0.32637900  1
  O  O65  1  0.74762500  0.33547700  0.15564400  1
  O  O66  1  0.32840800  0.48386300  0.66633500  1
  O  O67  1  0.52245500  0.38282800  0.82233200  1
  O  O68  1  0.75673600  0.24679500  0.93127700  1
  O  O69  1  0.75375000  0.24300800  0.56773400  1
  O  O70  1  0.79015800  0.21223200  0.74910400  1
  O  O71  1  0.66507700  0.24977800  0.33971300  1
  O  O72  1  0.18419000  0.48887900  0.16695400  1
  O  O73  1  0.10093100  0.52027300  0.82507500  1
  O  O74  1  0.48456700  0.33306000  0.16838300  1
  O  O75  1  0.33671300  0.33625500  0.01894900  1
  O  O76  1  0.32977500  0.32908300  0.51926000  1
  O  O77  1  0.48360100  0.18458800  0.66801700  1
  O  O78  1  0.10081900  0.37896900  0.32274100  1
  O  O79  1  0.18142700  0.33126400  0.66858000  1
  O  O80  1  0.66011700  0.08755400  0.84001100  1
  O  O81  1  0.79240100  0.99187600  0.25449600  1
  O  O82  1  0.76087400  0.00854700  0.07297400  1
  O  O83  1  0.52310000  0.09386700  0.32255700  1
  O  O84  1  0.32731600  0.18833400  0.16667000  1
  O  O85  1  0.37786700  0.10143000  0.82245200  1
  O  O86  1  0.08189500  0.24964100  0.84209300  1
  O  O87  1  0.00363400  0.24164400  0.06770800  1
  O  O88  1  0.99812900  0.21214300  0.24961200  1
  O  O89  1  0.24943500  0.08294200  0.34155300  1
  O  O90  1  0.24235900  0.99976400  0.56845100  1
  O  O91  1  0.21310200  0.99708300  0.75022500  1
