# generated using pymatgen
data_LiFe(SiO3)2
_symmetry_space_group_name_H-M   'P 1'
_cell_length_a   5.24296400
_cell_length_b   9.07204012
_cell_length_c   18.46535766
_cell_angle_alpha   90.00700533
_cell_angle_beta   90.20090876
_cell_angle_gamma   90.00912611
_symmetry_Int_Tables_number   1
_chemical_formula_structural   LiFe(SiO3)2
_chemical_formula_sum   'Li8 Fe8 Si16 O48'
_cell_volume   878.28786628
_cell_formula_units_Z   8
loop_
 _symmetry_equiv_pos_site_id
 _symmetry_equiv_pos_as_xyz
  1  'x, y, z'
loop_
 _atom_site_type_symbol
 _atom_site_label
 _atom_site_symmetry_multiplicity
 _atom_site_fract_x
 _atom_site_fract_y
 _atom_site_fract_z
 _atom_site_occupancy
  Li  Li0  1  0.61928500  0.00131700  0.87577400  1
  Li  Li1  1  0.11791400  0.50050000  0.87614200  1
  Li  Li2  1  0.11918100  0.34257700  0.62597700  1
  Li  Li3  1  0.11876100  0.01101700  0.62371900  1
  Li  Li4  1  0.38025600  0.51032900  0.37681100  1
  Li  Li5  1  0.38146500  0.84325100  0.37538800  1
  Li  Li6  1  0.38020700  0.35394300  0.12452400  1
  Li  Li7  1  0.88162200  0.14841000  0.12460400  1
  Fe  Fe8  1  0.61278600  0.64174900  0.87473500  1
  Fe  Fe9  1  0.11349900  0.85965700  0.87484400  1
  Fe  Fe10  1  0.61522200  0.13223500  0.62559300  1
  Fe  Fe11  1  0.62285400  0.48707100  0.62577900  1
  Fe  Fe12  1  0.87747400  0.98796200  0.37514600  1
  Fe  Fe13  1  0.88443700  0.63290800  0.37673200  1
  Fe  Fe14  1  0.37785400  0.01920400  0.12445800  1
  Fe  Fe15  1  0.87545500  0.48279400  0.12436900  1
  Si  Si16  1  0.70782500  0.33855800  0.97242000  1
  Si  Si17  1  0.20800700  0.16181300  0.97251300  1
  Si  Si18  1  0.43972700  0.33836000  0.77490500  1
  Si  Si19  1  0.93420300  0.15901200  0.77274800  1
  Si  Si20  1  0.42762900  0.84053000  0.72705900  1
  Si  Si21  1  0.92842000  0.66523100  0.72622400  1
  Si  Si22  1  0.71190300  0.83688500  0.52692700  1
  Si  Si23  1  0.21041900  0.66644300  0.52626500  1
  Si  Si24  1  0.78847900  0.33682400  0.47368200  1
  Si  Si25  1  0.29027800  0.16647400  0.47434900  1
  Si  Si26  1  0.07079800  0.34314800  0.27329300  1
  Si  Si27  1  0.56958700  0.16264000  0.27420400  1
  Si  Si28  1  0.07537600  0.83790100  0.22633800  1
  Si  Si29  1  0.58034200  0.65888300  0.22820000  1
  Si  Si30  1  0.78546200  0.83165300  0.02610700  1
  Si  Si31  1  0.28503400  0.66819300  0.02597500  1
  O  O32  1  0.41528800  0.29040200  0.94826800  1
  O  O33  1  0.91616200  0.21030800  0.94839600  1
  O  O34  1  0.79212800  0.83166500  0.93624500  1
  O  O35  1  0.29134200  0.66802100  0.93604400  1
  O  O36  1  0.78614000  0.49073100  0.93120200  1
  O  O37  1  0.28755600  0.00964600  0.93172100  1
  O  O38  1  0.43745600  0.83025500  0.81648500  1
  O  O39  1  0.93456500  0.67027000  0.81564800  1
  O  O40  1  0.94578600  0.99622300  0.81006000  1
  O  O41  1  0.44325100  0.50337900  0.80953200  1
  O  O42  1  0.66767500  0.23094900  0.80537900  1
  O  O43  1  0.16630700  0.26765700  0.80023300  1
  O  O44  1  0.16070900  0.76816400  0.69649500  1
  O  O45  1  0.65591200  0.73408500  0.69494700  1
  O  O46  1  0.92070000  0.50368500  0.68787600  1
  O  O47  1  0.43744900  0.00444000  0.69288500  1
  O  O48  1  0.45287100  0.33757400  0.68494800  1
  O  O49  1  0.92619700  0.15771100  0.68422100  1
  O  O50  1  0.79711900  0.98919900  0.56578700  1
  O  O51  1  0.32137700  0.52457000  0.57065400  1
  O  O52  1  0.77653300  0.33892500  0.56358300  1
  O  O53  1  0.30966600  0.15238300  0.56254900  1
  O  O54  1  0.41186800  0.80162800  0.54693400  1
  O  O55  1  0.91254500  0.70433200  0.55405800  1
  O  O56  1  0.08829000  0.30133200  0.45346900  1
  O  O57  1  0.58781300  0.20452200  0.44636600  1
  O  O58  1  0.72503600  0.83818000  0.43711800  1
  O  O59  1  0.19206600  0.65304900  0.43824200  1
  O  O60  1  0.70181900  0.48870600  0.43490100  1
  O  O61  1  0.17897700  0.02500300  0.42998400  1
  O  O62  1  0.05083400  0.83917300  0.31526200  1
  O  O63  1  0.57710100  0.65852400  0.31614800  1
  O  O64  1  0.57669600  0.00350100  0.31538900  1
  O  O65  1  0.06215500  0.50499300  0.31033300  1
  O  O66  1  0.33923000  0.26944000  0.30219000  1
  O  O67  1  0.84369200  0.23272100  0.30373300  1
  O  O68  1  0.34678000  0.76551800  0.19932700  1
  O  O69  1  0.84632100  0.73233500  0.19435200  1
  O  O70  1  0.58110500  0.50074800  0.18719000  1
  O  O71  1  0.08429700  0.99848900  0.18779100  1
  O  O72  1  0.06022700  0.34633400  0.18485400  1
  O  O73  1  0.56336300  0.15290900  0.18581600  1
  O  O74  1  0.67323500  0.97583000  0.06674100  1
  O  O75  1  0.17233000  0.52440900  0.06642200  1
  O  O76  1  0.70603300  0.34846200  0.06113600  1
  O  O77  1  0.20634100  0.15171100  0.06135100  1
  O  O78  1  0.08935000  0.80538500  0.05102300  1
  O  O79  1  0.58854200  0.69505500  0.05090800  1
