# generated using pymatgen
data_Li8VNi3(PO4)6
_symmetry_space_group_name_H-M   'P 1'
_cell_length_a   8.54238768
_cell_length_b   8.54238768
_cell_length_c   8.54238789
_cell_angle_alpha   61.95681242
_cell_angle_beta   61.95681242
_cell_angle_gamma   61.95681302
_symmetry_Int_Tables_number   1
_chemical_formula_structural   Li8VNi3(PO4)6
_chemical_formula_sum   'Li8 V1 Ni3 P6 O24'
_cell_volume   460.07961486
_cell_formula_units_Z   1
loop_
 _symmetry_equiv_pos_site_id
 _symmetry_equiv_pos_as_xyz
  1  'x, y, z'
loop_
 _atom_site_type_symbol
 _atom_site_label
 _atom_site_symmetry_multiplicity
 _atom_site_fract_x
 _atom_site_fract_y
 _atom_site_fract_z
 _atom_site_occupancy
  Li  Li0  1  0.29124700  0.84356500  0.64349600  1
  Li  Li1  1  0.84356500  0.64349600  0.29124700  1
  Li  Li2  1  0.64349600  0.29124700  0.84356500  1
  Li  Li3  1  0.49954100  0.49954100  0.49954100  1
  Li  Li4  1  0.98206400  0.98206400  0.98206400  1
  Li  Li5  1  0.35614300  0.69774800  0.15870200  1
  Li  Li6  1  0.15870200  0.35614300  0.69774800  1
  Li  Li7  1  0.69774800  0.15870200  0.35614300  1
  V  V8  1  0.14402900  0.14402900  0.14402900  1
  Ni  Ni9  1  0.64740100  0.64740100  0.64740100  1
  Ni  Ni10  1  0.85349000  0.85349000  0.85349000  1
  Ni  Ni11  1  0.35407700  0.35407700  0.35407700  1
  P  P12  1  0.54637600  0.95523900  0.25178600  1
  P  P13  1  0.25178600  0.54637600  0.95523900  1
  P  P14  1  0.95523900  0.25178600  0.54637600  1
  P  P15  1  0.04712600  0.75387300  0.45282100  1
  P  P16  1  0.75387300  0.45282100  0.04712600  1
  P  P17  1  0.45282100  0.04712600  0.75387300  1
  O  O18  1  0.29260400  0.53173300  0.11837500  1
  O  O19  1  0.11837500  0.29260400  0.53173300  1
  O  O20  1  0.53173300  0.11837500  0.29260400  1
  O  O21  1  0.17501900  0.38602400  0.01666200  1
  O  O22  1  0.01666200  0.17501900  0.38602400  1
  O  O23  1  0.74560000  0.89706300  0.11465700  1
  O  O24  1  0.38602400  0.01666200  0.17501900  1
  O  O25  1  0.52249700  0.77949900  0.42795600  1
  O  O26  1  0.11465700  0.74560000  0.89706300  1
  O  O27  1  0.42795600  0.52249700  0.77949900  1
  O  O28  1  0.00357900  0.82917700  0.60131200  1
  O  O29  1  0.10647100  0.89524900  0.24712200  1
  O  O30  1  0.77949900  0.42795600  0.52249700  1
  O  O31  1  0.82917700  0.60131200  0.00357900  1
  O  O32  1  0.89706300  0.11465700  0.74560000  1
  O  O33  1  0.22603300  0.57780400  0.46064100  1
  O  O34  1  0.57780400  0.46064100  0.22603300  1
  O  O35  1  0.89524900  0.24712200  0.10647100  1
  O  O36  1  0.46064100  0.22603300  0.57780400  1
  O  O37  1  0.60131200  0.00357900  0.82917700  1
  O  O38  1  0.24712200  0.10647100  0.89524900  1
  O  O39  1  0.46235300  0.88146800  0.71850600  1
  O  O40  1  0.88146800  0.71850600  0.46235300  1
  O  O41  1  0.71850600  0.46235300  0.88146800  1
