# generated using pymatgen
data_Li3Mn2P2(CO7)2
_symmetry_space_group_name_H-M   'P 1'
_cell_length_a   8.19872200
_cell_length_b   8.25768987
_cell_length_c   8.34556938
_cell_angle_alpha   92.57031611
_cell_angle_beta   92.47763457
_cell_angle_gamma   103.95225857
_symmetry_Int_Tables_number   1
_chemical_formula_structural   Li3Mn2P2(CO7)2
_chemical_formula_sum   'Li6 Mn4 P4 C4 O28'
_cell_volume   546.94290497
_cell_formula_units_Z   2
loop_
 _symmetry_equiv_pos_site_id
 _symmetry_equiv_pos_as_xyz
  1  'x, y, z'
loop_
 _atom_site_type_symbol
 _atom_site_label
 _atom_site_symmetry_multiplicity
 _atom_site_fract_x
 _atom_site_fract_y
 _atom_site_fract_z
 _atom_site_occupancy
  Li  Li0  1  0.90226900  0.85845000  0.26590200  1
  Li  Li1  1  0.38704100  0.37515200  0.24850900  1
  Li  Li2  1  0.61776000  0.12414700  0.25062200  1
  Li  Li3  1  0.38015900  0.87256400  0.75291300  1
  Li  Li4  1  0.88898700  0.34109300  0.73395900  1
  Li  Li5  1  0.61218700  0.62845100  0.74504100  1
  Mn  Mn6  1  0.98081300  0.23074200  0.33942700  1
  Mn  Mn7  1  0.47141500  0.72850700  0.32911800  1
  Mn  Mn8  1  0.51454400  0.26961100  0.66983100  1
  Mn  Mn9  1  0.02302000  0.77508200  0.66235900  1
  P  P10  1  0.76060700  0.50994600  0.42312700  1
  P  P11  1  0.26353200  0.01505500  0.42103600  1
  P  P12  1  0.73890500  0.98294100  0.57864600  1
  P  P13  1  0.23820800  0.49540700  0.57851600  1
  C  C14  1  0.51846600  0.76426600  0.04624900  1
  C  C15  1  0.01743000  0.27018900  0.05490500  1
  C  C16  1  0.97643700  0.73470300  0.94518100  1
  C  C17  1  0.48740500  0.22776900  0.95324000  1
  O  O18  1  0.40387000  0.64371100  0.09839700  1
  O  O19  1  0.89544700  0.15592000  0.11288800  1
  O  O20  1  0.94140100  0.71895100  0.08665900  1
  O  O21  1  0.60983200  0.86174800  0.16542700  1
  O  O22  1  0.46910900  0.21258900  0.10081800  1
  O  O23  1  0.12409300  0.34917100  0.17386800  1
  O  O24  1  0.61966500  0.55177500  0.31944900  1
  O  O25  1  0.32205800  0.89169900  0.31131100  1
  O  O26  1  0.81127300  0.36598300  0.32661400  1
  O  O27  1  0.11293600  0.05865000  0.32773600  1
  O  O28  1  0.90898100  0.66983700  0.45601700  1
  O  O29  1  0.30335600  0.54690600  0.41246600  1
  O  O30  1  0.79737100  0.04094800  0.40930800  1
  O  O31  1  0.41044400  0.17595800  0.45610700  1
  O  O32  1  0.57926700  0.83420400  0.54655500  1
  O  O33  1  0.70141200  0.45181000  0.59063000  1
  O  O34  1  0.21075000  0.94515300  0.58566300  1
  O  O35  1  0.07830200  0.34702600  0.54535200  1
  O  O36  1  0.87671700  0.92579700  0.67629900  1
  O  O37  1  0.18926900  0.64037900  0.67578200  1
  O  O38  1  0.37540100  0.45079700  0.68468800  1
  O  O39  1  0.70045300  0.12802600  0.67700800  1
  O  O40  1  0.88652600  0.63886000  0.82264500  1
  O  O41  1  0.54214600  0.78937800  0.90092400  1
  O  O42  1  0.40082900  0.12251500  0.84028500  1
  O  O43  1  0.03039600  0.30267100  0.91319300  1
  O  O44  1  0.59500400  0.35265400  0.89422200  1
  O  O45  1  0.10068700  0.84662700  0.89110700  1
