# generated using pymatgen
data_LiP3W2O13
_symmetry_space_group_name_H-M   'P 1'
_cell_length_a   8.93413015
_cell_length_b   8.93413015
_cell_length_c   8.90718895
_cell_angle_alpha   69.17553414
_cell_angle_beta   69.17553414
_cell_angle_gamma   105.28857752
_symmetry_Int_Tables_number   1
_chemical_formula_structural   LiP3W2O13
_chemical_formula_sum   'Li2 P6 W4 O26'
_cell_volume   555.75659089
_cell_formula_units_Z   2
loop_
 _symmetry_equiv_pos_site_id
 _symmetry_equiv_pos_as_xyz
  1  'x, y, z'
loop_
 _atom_site_type_symbol
 _atom_site_label
 _atom_site_symmetry_multiplicity
 _atom_site_fract_x
 _atom_site_fract_y
 _atom_site_fract_z
 _atom_site_occupancy
  Li  Li0  1  0.00000000  0.50000000  0.50000000  1
  Li  Li1  1  0.50000000  0.00000000  0.00000000  1
  P  P2  1  0.48828200  0.51171800  0.25000000  1
  P  P3  1  0.84838800  0.26005500  0.06032500  1
  P  P4  1  0.26005500  0.84838800  0.56032500  1
  P  P5  1  0.73994500  0.15161200  0.43967500  1
  P  P6  1  0.15161200  0.73994500  0.93967500  1
  P  P7  1  0.51171800  0.48828200  0.75000000  1
  W  W8  1  0.17206000  0.33898200  0.17092100  1
  W  W9  1  0.66101800  0.82794000  0.32907900  1
  W  W10  1  0.33898200  0.17206000  0.67092100  1
  W  W11  1  0.82794000  0.66101800  0.82907900  1
  O  O12  1  0.15157900  0.59993900  0.09689000  1
  O  O13  1  0.60322800  0.50137600  0.08229000  1
  O  O14  1  0.03697600  0.29926200  0.03290200  1
  O  O15  1  0.55568300  0.70954600  0.20655900  1
  O  O16  1  0.19772700  0.14362400  0.23223900  1
  O  O17  1  0.74564600  0.07039300  0.09419900  1
  O  O18  1  0.40006100  0.84842100  0.40311000  1
  O  O19  1  0.85637600  0.80227300  0.26776100  1
  O  O20  1  0.07039300  0.74564600  0.59419900  1
  O  O21  1  0.29045400  0.44431700  0.29344100  1
  O  O22  1  0.73889400  0.26110600  0.25000000  1
  O  O23  1  0.50137600  0.60322800  0.58229000  1
  O  O24  1  0.29926200  0.03697600  0.53290200  1
  O  O25  1  0.70073800  0.96302400  0.46709800  1
  O  O26  1  0.49862400  0.39677200  0.41771000  1
  O  O27  1  0.26110600  0.73889400  0.75000000  1
  O  O28  1  0.70954600  0.55568300  0.70655900  1
  O  O29  1  0.92960700  0.25435400  0.40580100  1
  O  O30  1  0.14362400  0.19772700  0.73223900  1
  O  O31  1  0.59993900  0.15157900  0.59689000  1
  O  O32  1  0.25435400  0.92960700  0.90580100  1
  O  O33  1  0.80227300  0.85637600  0.76776100  1
  O  O34  1  0.44431700  0.29045400  0.79344100  1
  O  O35  1  0.96302400  0.70073800  0.96709800  1
  O  O36  1  0.39677200  0.49862400  0.91771000  1
  O  O37  1  0.84842100  0.40006100  0.90311000  1
