# generated using pymatgen
data_Li4MnFe3(PO4)4
_symmetry_space_group_name_H-M   'P 1'
_cell_length_a   4.76272500
_cell_length_b   10.48076500
_cell_length_c   12.21746300
_cell_angle_alpha   90.00000000
_cell_angle_beta   90.00000000
_cell_angle_gamma   90.00000000
_symmetry_Int_Tables_number   1
_chemical_formula_structural   Li4MnFe3(PO4)4
_chemical_formula_sum   'Li8 Mn2 Fe6 P8 O32'
_cell_volume   609.85911871
_cell_formula_units_Z   2
loop_
 _symmetry_equiv_pos_site_id
 _symmetry_equiv_pos_as_xyz
  1  'x, y, z'
loop_
 _atom_site_type_symbol
 _atom_site_label
 _atom_site_symmetry_multiplicity
 _atom_site_fract_x
 _atom_site_fract_y
 _atom_site_fract_z
 _atom_site_occupancy
  Li  Li0  1  0.74981100  0.00041600  0.37485400  1
  Li  Li1  1  0.74981100  0.00041600  0.62514600  1
  Li  Li2  1  0.75033600  0.99974400  0.87453800  1
  Li  Li3  1  0.75033600  0.99974400  0.12546200  1
  Li  Li4  1  0.25018900  0.50041600  0.87485400  1
  Li  Li5  1  0.24966400  0.49974400  0.37453800  1
  Li  Li6  1  0.24966400  0.49974400  0.62546200  1
  Li  Li7  1  0.25018900  0.50041600  0.12514600  1
  Mn  Mn8  1  0.77311500  0.71850900  0.50000000  1
  Mn  Mn9  1  0.22688500  0.21850900  0.00000000  1
  Fe  Fe10  1  0.77595200  0.71839500  0.00000000  1
  Fe  Fe11  1  0.22404800  0.21839500  0.50000000  1
  Fe  Fe12  1  0.27532200  0.78158500  0.24960100  1
  Fe  Fe13  1  0.27532200  0.78158500  0.75039900  1
  Fe  Fe14  1  0.72467800  0.28158500  0.74960100  1
  Fe  Fe15  1  0.72467800  0.28158500  0.25039900  1
  P  P16  1  0.83405700  0.59427100  0.24922800  1
  P  P17  1  0.83405700  0.59427100  0.75077200  1
  P  P18  1  0.16594300  0.09427100  0.25077200  1
  P  P19  1  0.16594300  0.09427100  0.74922800  1
  P  P20  1  0.33206500  0.90731200  0.50000000  1
  P  P21  1  0.33368000  0.90467700  0.00000000  1
  P  P22  1  0.66793500  0.40731200  0.00000000  1
  P  P23  1  0.66632000  0.40467700  0.50000000  1
  O  O24  1  0.95684900  0.45630400  0.24938000  1
  O  O25  1  0.95684900  0.45630400  0.75062000  1
  O  O26  1  0.97150600  0.66417000  0.65042800  1
  O  O27  1  0.96620500  0.66449400  0.85252600  1
  O  O28  1  0.96620500  0.66449400  0.14747400  1
  O  O29  1  0.97150600  0.66417000  0.34957200  1
  O  O30  1  0.99138300  0.40484300  0.00000000  1
  O  O31  1  0.98964500  0.40328400  0.50000000  1
  O  O32  1  0.01035500  0.90328400  0.00000000  1
  O  O33  1  0.00861700  0.90484300  0.50000000  1
  O  O34  1  0.03379500  0.16449400  0.64747400  1
  O  O35  1  0.02849400  0.16417000  0.84957200  1
  O  O36  1  0.03379500  0.16449400  0.35252600  1
  O  O37  1  0.02849400  0.16417000  0.15042800  1
  O  O38  1  0.04315100  0.95630400  0.74938000  1
  O  O39  1  0.04315100  0.95630400  0.25062000  1
  O  O40  1  0.45957700  0.04171300  0.00000000  1
  O  O41  1  0.45827500  0.04403600  0.50000000  1
  O  O42  1  0.46622800  0.83430800  0.89852100  1
  O  O43  1  0.46622800  0.83430800  0.10147900  1
  O  O44  1  0.46280400  0.83629400  0.39851800  1
  O  O45  1  0.46280400  0.83629400  0.60148200  1
  O  O46  1  0.48906800  0.09703100  0.24989900  1
  O  O47  1  0.48906800  0.09703100  0.75010100  1
  O  O48  1  0.51093200  0.59703100  0.74989900  1
  O  O49  1  0.51093200  0.59703100  0.25010100  1
  O  O50  1  0.53719600  0.33629400  0.10148200  1
  O  O51  1  0.53377200  0.33430800  0.39852100  1
  O  O52  1  0.53377200  0.33430800  0.60147900  1
  O  O53  1  0.53719600  0.33629400  0.89851800  1
  O  O54  1  0.54172500  0.54403600  0.00000000  1
  O  O55  1  0.54042300  0.54171300  0.50000000  1
