# generated using pymatgen
data_Li4Mn3Co3(WO8)2
_symmetry_space_group_name_H-M   'P 1'
_cell_length_a   5.99537134
_cell_length_b   5.99537134
_cell_length_c   9.86266800
_cell_angle_alpha   88.52573282
_cell_angle_beta   88.52573282
_cell_angle_gamma   58.95311784
_symmetry_Int_Tables_number   1
_chemical_formula_structural   Li4Mn3Co3(WO8)2
_chemical_formula_sum   'Li4 Mn3 Co3 W2 O16'
_cell_volume   303.59088167
_cell_formula_units_Z   1
loop_
 _symmetry_equiv_pos_site_id
 _symmetry_equiv_pos_as_xyz
  1  'x, y, z'
loop_
 _atom_site_type_symbol
 _atom_site_label
 _atom_site_symmetry_multiplicity
 _atom_site_fract_x
 _atom_site_fract_y
 _atom_site_fract_z
 _atom_site_occupancy
  Li  Li0  1  0.66215300  0.66215300  0.09279900  1
  Li  Li1  1  0.99789000  0.99789000  0.01000100  1
  Li  Li2  1  0.00156000  0.00156000  0.51559300  1
  Li  Li3  1  0.33233800  0.33233800  0.59284000  1
  Mn  Mn4  1  0.83216700  0.83216700  0.78935000  1
  Mn  Mn5  1  0.16819800  0.65823400  0.28561800  1
  Mn  Mn6  1  0.65823400  0.16819800  0.28561800  1
  Co  Co7  1  0.35085400  0.81331500  0.78339200  1
  Co  Co8  1  0.81331500  0.35085400  0.78339200  1
  Co  Co9  1  0.16916800  0.16916800  0.28679800  1
  W  W10  1  0.66656600  0.66656600  0.51416800  1
  W  W11  1  0.32038200  0.32038200  0.01268800  1
  O  O12  1  0.35176200  0.83384600  0.41727100  1
  O  O13  1  0.51730700  0.51730700  0.64478900  1
  O  O14  1  0.66868900  0.66868900  0.88698800  1
  O  O15  1  0.99877100  0.99877100  0.70452500  1
  O  O16  1  0.99671700  0.99671700  0.19895400  1
  O  O17  1  0.83384600  0.35176200  0.41727100  1
  O  O18  1  0.52197400  0.96018300  0.64775800  1
  O  O19  1  0.96018300  0.52197400  0.64775800  1
  O  O20  1  0.17115300  0.17115300  0.91121900  1
  O  O21  1  0.83363200  0.83363200  0.40797500  1
  O  O22  1  0.03282600  0.47973900  0.14263600  1
  O  O23  1  0.47973900  0.03282600  0.14263600  1
  O  O24  1  0.33799900  0.33799900  0.38577000  1
  O  O25  1  0.17540200  0.65198500  0.91361700  1
  O  O26  1  0.47655300  0.47655300  0.15714900  1
  O  O27  1  0.65198500  0.17540200  0.91361700  1
