# generated using pymatgen
data_LiCu2F5
_symmetry_space_group_name_H-M   'P 1'
_cell_length_a   10.03034800
_cell_length_b   10.03034800
_cell_length_c   12.28769200
_cell_angle_alpha   90.00000000
_cell_angle_beta   90.00000000
_cell_angle_gamma   90.00000000
_symmetry_Int_Tables_number   1
_chemical_formula_structural   LiCu2F5
_chemical_formula_sum   'Li8 Cu16 F40'
_cell_volume   1236.23865451
_cell_formula_units_Z   8
loop_
 _symmetry_equiv_pos_site_id
 _symmetry_equiv_pos_as_xyz
  1  'x, y, z'
loop_
 _atom_site_type_symbol
 _atom_site_label
 _atom_site_symmetry_multiplicity
 _atom_site_fract_x
 _atom_site_fract_y
 _atom_site_fract_z
 _atom_site_occupancy
  Li  Li0  1  0.50000000  0.00000000  0.00000000  1
  Li  Li1  1  0.50000000  0.00000000  0.75000000  1
  Li  Li2  1  0.50000000  0.00000000  0.25000000  1
  Li  Li3  1  0.50000000  0.00000000  0.50000000  1
  Li  Li4  1  0.00000000  0.50000000  0.75000000  1
  Li  Li5  1  0.00000000  0.50000000  0.00000000  1
  Li  Li6  1  0.00000000  0.50000000  0.25000000  1
  Li  Li7  1  0.00000000  0.50000000  0.50000000  1
  Cu  Cu8  1  0.28134000  0.79830100  0.14155500  1
  Cu  Cu9  1  0.28134000  0.20169900  0.35844500  1
  Cu  Cu10  1  0.29830100  0.78134000  0.85844500  1
  Cu  Cu11  1  0.29830100  0.21866000  0.64155500  1
  Cu  Cu12  1  0.70169900  0.21866000  0.85844500  1
  Cu  Cu13  1  0.70169900  0.78134000  0.64155500  1
  Cu  Cu14  1  0.71866000  0.20169900  0.14155500  1
  Cu  Cu15  1  0.71866000  0.79830100  0.35844500  1
  Cu  Cu16  1  0.78134000  0.70169900  0.14155500  1
  Cu  Cu17  1  0.78134000  0.29830100  0.35844500  1
  Cu  Cu18  1  0.79830100  0.28134000  0.64155500  1
  Cu  Cu19  1  0.79830100  0.71866000  0.85844500  1
  Cu  Cu20  1  0.20169900  0.71866000  0.64155500  1
  Cu  Cu21  1  0.20169900  0.28134000  0.85844500  1
  Cu  Cu22  1  0.21866000  0.29830100  0.14155500  1
  Cu  Cu23  1  0.21866000  0.70169900  0.35844500  1
  F  F24  1  0.26315000  0.76315000  0.50000000  1
  F  F25  1  0.26315000  0.23685000  0.00000000  1
  F  F26  1  0.30542700  0.14616000  0.78788200  1
  F  F27  1  0.30542700  0.85384000  0.71211800  1
  F  F28  1  0.35384000  0.80542700  0.28788200  1
  F  F29  1  0.35384000  0.19457300  0.21211800  1
  F  F30  1  0.38107600  0.94680300  0.10965800  1
  F  F31  1  0.38107600  0.05319700  0.39034200  1
  F  F32  1  0.44680300  0.88107600  0.89034200  1
  F  F33  1  0.44680300  0.11892400  0.60965800  1
  F  F34  1  0.55319700  0.88107600  0.60965800  1
  F  F35  1  0.55319700  0.11892400  0.89034200  1
  F  F36  1  0.61892400  0.94680300  0.39034200  1
  F  F37  1  0.61892400  0.05319700  0.10965800  1
  F  F38  1  0.64616000  0.80542700  0.21211800  1
  F  F39  1  0.64616000  0.19457300  0.28788200  1
  F  F40  1  0.69457300  0.85384000  0.78788200  1
  F  F41  1  0.69457300  0.14616000  0.71211800  1
  F  F42  1  0.73685000  0.76315000  0.00000000  1
  F  F43  1  0.73685000  0.23685000  0.50000000  1
  F  F44  1  0.76315000  0.26315000  0.00000000  1
  F  F45  1  0.76315000  0.73685000  0.50000000  1
  F  F46  1  0.80542700  0.35384000  0.78788200  1
  F  F47  1  0.80542700  0.64616000  0.71211800  1
  F  F48  1  0.85384000  0.30542700  0.21211800  1
  F  F49  1  0.85384000  0.69457300  0.28788200  1
  F  F50  1  0.88107600  0.44680300  0.39034200  1
  F  F51  1  0.88107600  0.55319700  0.10965800  1
  F  F52  1  0.94680300  0.38107600  0.60965800  1
  F  F53  1  0.94680300  0.61892400  0.89034200  1
  F  F54  1  0.05319700  0.38107600  0.89034200  1
  F  F55  1  0.05319700  0.61892400  0.60965800  1
  F  F56  1  0.11892400  0.44680300  0.10965800  1
  F  F57  1  0.11892400  0.55319700  0.39034200  1
  F  F58  1  0.14616000  0.30542700  0.28788200  1
  F  F59  1  0.14616000  0.69457300  0.21211800  1
  F  F60  1  0.19457300  0.35384000  0.71211800  1
  F  F61  1  0.19457300  0.64616000  0.78788200  1
  F  F62  1  0.23685000  0.26315000  0.50000000  1
  F  F63  1  0.23685000  0.73685000  0.00000000  1
