# generated using pymatgen
data_Li4FeF8
_symmetry_space_group_name_H-M   'P 1'
_cell_length_a   5.65480200
_cell_length_b   9.62650900
_cell_length_c   9.87156900
_cell_angle_alpha   90.00000000
_cell_angle_beta   90.00000000
_cell_angle_gamma   90.00000000
_symmetry_Int_Tables_number   1
_chemical_formula_structural   Li4FeF8
_chemical_formula_sum   'Li16 Fe4 F32'
_cell_volume   537.36875324
_cell_formula_units_Z   4
loop_
 _symmetry_equiv_pos_site_id
 _symmetry_equiv_pos_as_xyz
  1  'x, y, z'
loop_
 _atom_site_type_symbol
 _atom_site_label
 _atom_site_symmetry_multiplicity
 _atom_site_fract_x
 _atom_site_fract_y
 _atom_site_fract_z
 _atom_site_occupancy
  Li  Li0  1  0.12331600  0.11719700  0.92372500  1
  Li  Li1  1  0.12331600  0.11719700  0.57627500  1
  Li  Li2  1  0.62473500  0.13057400  0.94480900  1
  Li  Li3  1  0.62473500  0.13057400  0.55519100  1
  Li  Li4  1  0.12473500  0.36942600  0.05519100  1
  Li  Li5  1  0.12473500  0.36942600  0.44480900  1
  Li  Li6  1  0.62331600  0.38280300  0.07627500  1
  Li  Li7  1  0.62331600  0.38280300  0.42372500  1
  Li  Li8  1  0.37668400  0.61719700  0.92372500  1
  Li  Li9  1  0.37668400  0.61719700  0.57627500  1
  Li  Li10  1  0.87526500  0.63057400  0.55519100  1
  Li  Li11  1  0.87526500  0.63057400  0.94480900  1
  Li  Li12  1  0.37526500  0.86942600  0.05519100  1
  Li  Li13  1  0.37526500  0.86942600  0.44480900  1
  Li  Li14  1  0.87668400  0.88280300  0.07627500  1
  Li  Li15  1  0.87668400  0.88280300  0.42372500  1
  Fe  Fe16  1  0.36492800  0.10881400  0.25000000  1
  Fe  Fe17  1  0.86492800  0.39118600  0.75000000  1
  Fe  Fe18  1  0.13507200  0.60881400  0.25000000  1
  Fe  Fe19  1  0.63507200  0.89118600  0.75000000  1
  F  F20  1  0.15005900  0.01708000  0.11692500  1
  F  F21  1  0.15005900  0.01708000  0.38307500  1
  F  F22  1  0.59669300  0.01665600  0.12396600  1
  F  F23  1  0.59669300  0.01665600  0.37603400  1
  F  F24  1  0.08696700  0.23174700  0.75000000  1
  F  F25  1  0.64599800  0.23389900  0.75000000  1
  F  F26  1  0.37201900  0.24413600  0.00758800  1
  F  F27  1  0.37201900  0.24413600  0.49241200  1
  F  F28  1  0.87201900  0.25586400  0.50758800  1
  F  F29  1  0.87201900  0.25586400  0.99241200  1
  F  F30  1  0.14599800  0.26610100  0.25000000  1
  F  F31  1  0.58696700  0.26825300  0.25000000  1
  F  F32  1  0.09669300  0.48334400  0.62396600  1
  F  F33  1  0.09669300  0.48334400  0.87603400  1
  F  F34  1  0.65005900  0.48292000  0.61692500  1
  F  F35  1  0.65005900  0.48292000  0.88307500  1
  F  F36  1  0.34994100  0.51708000  0.11692500  1
  F  F37  1  0.34994100  0.51708000  0.38307500  1
  F  F38  1  0.90330700  0.51665600  0.12396600  1
  F  F39  1  0.90330700  0.51665600  0.37603400  1
  F  F40  1  0.41303300  0.73174700  0.75000000  1
  F  F41  1  0.85400200  0.73389900  0.75000000  1
  F  F42  1  0.12798100  0.74413600  0.00758800  1
  F  F43  1  0.12798100  0.74413600  0.49241200  1
  F  F44  1  0.62798100  0.75586400  0.50758800  1
  F  F45  1  0.62798100  0.75586400  0.99241200  1
  F  F46  1  0.35400200  0.76610100  0.25000000  1
  F  F47  1  0.91303300  0.76825300  0.25000000  1
  F  F48  1  0.40330700  0.98334400  0.62396600  1
  F  F49  1  0.40330700  0.98334400  0.87603400  1
  F  F50  1  0.84994100  0.98292000  0.61692500  1
  F  F51  1  0.84994100  0.98292000  0.88307500  1
