# generated using pymatgen
data_Li2Cr(Si2O5)2
_symmetry_space_group_name_H-M   'P 1'
_cell_length_a   7.71906600
_cell_length_b   11.15650200
_cell_length_c   11.22045559
_cell_angle_alpha   68.65075432
_cell_angle_beta   90.00000000
_cell_angle_gamma   90.00000000
_symmetry_Int_Tables_number   1
_chemical_formula_structural   Li2Cr(Si2O5)2
_chemical_formula_sum   'Li8 Cr4 Si16 O40'
_cell_volume   899.97320760
_cell_formula_units_Z   4
loop_
 _symmetry_equiv_pos_site_id
 _symmetry_equiv_pos_as_xyz
  1  'x, y, z'
loop_
 _atom_site_type_symbol
 _atom_site_label
 _atom_site_symmetry_multiplicity
 _atom_site_fract_x
 _atom_site_fract_y
 _atom_site_fract_z
 _atom_site_occupancy
  Li  Li0  1  0.75000000  0.91157200  0.39407900  1
  Li  Li1  1  0.75000000  0.97540600  0.10290900  1
  Li  Li2  1  0.75000000  0.63794200  0.86813200  1
  Li  Li3  1  0.75000000  0.61896600  0.45967000  1
  Li  Li4  1  0.25000000  0.38103400  0.54033000  1
  Li  Li5  1  0.25000000  0.36205800  0.13186800  1
  Li  Li6  1  0.25000000  0.02459400  0.89709100  1
  Li  Li7  1  0.25000000  0.08842800  0.60592100  1
  Cr  Cr8  1  0.98296300  0.78895800  0.27946300  1
  Cr  Cr9  1  0.51703700  0.78895800  0.27946300  1
  Cr  Cr10  1  0.48296300  0.21104200  0.72053700  1
  Cr  Cr11  1  0.01703700  0.21104200  0.72053700  1
  Si  Si12  1  0.54869800  0.90996800  0.74139700  1
  Si  Si13  1  0.95130200  0.90996800  0.74139700  1
  Si  Si14  1  0.04594200  0.73937700  0.58947200  1
  Si  Si15  1  0.45405800  0.73937700  0.58947200  1
  Si  Si16  1  0.44989200  0.75806000  0.01026900  1
  Si  Si17  1  0.05010800  0.75806000  0.01026900  1
  Si  Si18  1  0.44772800  0.47040000  0.77547300  1
  Si  Si19  1  0.05227200  0.47040000  0.77547300  1
  Si  Si20  1  0.94772800  0.52960000  0.22452700  1
  Si  Si21  1  0.55227200  0.52960000  0.22452700  1
  Si  Si22  1  0.94989200  0.24194000  0.98973100  1
  Si  Si23  1  0.55010800  0.24194000  0.98973100  1
  Si  Si24  1  0.95405800  0.26062300  0.41052800  1
  Si  Si25  1  0.54594200  0.26062300  0.41052800  1
  Si  Si26  1  0.45130200  0.09003200  0.25860300  1
  Si  Si27  1  0.04869800  0.09003200  0.25860300  1
  O  O28  1  0.75000000  0.95298200  0.70103600  1
  O  O29  1  0.94276500  0.77875500  0.87512900  1
  O  O30  1  0.55723500  0.77875500  0.87512900  1
  O  O31  1  0.25000000  0.80943300  0.96661500  1
  O  O32  1  0.46417000  0.86780000  0.62824900  1
  O  O33  1  0.03583000  0.86780000  0.62824900  1
  O  O34  1  0.93423900  0.97698000  0.24383700  1
  O  O35  1  0.56576100  0.97698000  0.24383700  1
  O  O36  1  0.25000000  0.71218600  0.56592000  1
  O  O37  1  0.92974300  0.75718300  0.46586900  1
  O  O38  1  0.57025700  0.75718300  0.46586900  1
  O  O39  1  0.96275400  0.83514100  0.08983100  1
  O  O40  1  0.53724600  0.83514100  0.08983100  1
  O  O41  1  0.52980400  0.61823400  0.71597400  1
  O  O42  1  0.97019600  0.61823400  0.71597400  1
  O  O43  1  0.25000000  0.48087300  0.82523000  1
  O  O44  1  0.94235500  0.39937800  0.90997500  1
  O  O45  1  0.55764500  0.39937800  0.90997500  1
  O  O46  1  0.95971700  0.59865000  0.32699700  1
  O  O47  1  0.54028300  0.59865000  0.32699700  1
  O  O48  1  0.45971700  0.40135000  0.67300300  1
  O  O49  1  0.04028300  0.40135000  0.67300300  1
  O  O50  1  0.44235500  0.60062200  0.09002500  1
  O  O51  1  0.05764500  0.60062200  0.09002500  1
  O  O52  1  0.75000000  0.51912700  0.17477000  1
  O  O53  1  0.47019600  0.38176600  0.28402600  1
  O  O54  1  0.02980400  0.38176600  0.28402600  1
  O  O55  1  0.03724600  0.16485900  0.91016900  1
  O  O56  1  0.46275400  0.16485900  0.91016900  1
  O  O57  1  0.42974300  0.24281700  0.53413100  1
  O  O58  1  0.07025700  0.24281700  0.53413100  1
  O  O59  1  0.75000000  0.28781400  0.43408000  1
  O  O60  1  0.43423900  0.02302000  0.75616300  1
  O  O61  1  0.06576100  0.02302000  0.75616300  1
  O  O62  1  0.96417000  0.13220000  0.37175100  1
  O  O63  1  0.53583000  0.13220000  0.37175100  1
  O  O64  1  0.75000000  0.19056700  0.03338500  1
  O  O65  1  0.44276500  0.22124500  0.12487100  1
  O  O66  1  0.05723500  0.22124500  0.12487100  1
  O  O67  1  0.25000000  0.04701800  0.29896400  1
