# generated using pymatgen
data_Li13Ni15O28
_symmetry_space_group_name_H-M   'P 1'
_cell_length_a   7.66995500
_cell_length_b   8.15507783
_cell_length_c   8.76603250
_cell_angle_alpha   103.33173826
_cell_angle_beta   105.16129647
_cell_angle_gamma   105.13737420
_symmetry_Int_Tables_number   1
_chemical_formula_structural   Li13Ni15O28
_chemical_formula_sum   'Li13 Ni15 O28'
_cell_volume   483.86035267
_cell_formula_units_Z   1
loop_
 _symmetry_equiv_pos_site_id
 _symmetry_equiv_pos_as_xyz
  1  'x, y, z'
loop_
 _atom_site_type_symbol
 _atom_site_label
 _atom_site_symmetry_multiplicity
 _atom_site_fract_x
 _atom_site_fract_y
 _atom_site_fract_z
 _atom_site_occupancy
  Li  Li0  1  0.85728900  0.07358700  0.92736700  1
  Li  Li1  1  0.78847900  0.85547200  0.14226300  1
  Li  Li2  1  0.57019900  0.21581600  0.78383000  1
  Li  Li3  1  0.71182300  0.64323600  0.35656600  1
  Li  Li4  1  0.42980100  0.78418400  0.21617000  1
  Li  Li5  1  0.64574400  0.42847800  0.57362100  1
  Li  Li6  1  0.21152100  0.14452800  0.85773700  1
  Li  Li7  1  0.92823200  0.28713700  0.71535500  1
  Li  Li8  1  0.14271100  0.92641300  0.07263300  1
  Li  Li9  1  0.35425600  0.57152200  0.42637900  1
  Li  Li10  1  0.28817700  0.35676400  0.64343400  1
  Li  Li11  1  0.07176800  0.71286300  0.28464500  1
  Li  Li12  1  0.00000000  0.50000000  0.50000000  1
  Ni  Ni13  1  0.85377500  0.56916500  0.92558700  1
  Ni  Ni14  1  0.78706100  0.35720200  0.14221300  1
  Ni  Ni15  1  0.56827500  0.71503800  0.78302500  1
  Ni  Ni16  1  0.50000000  0.00000000  0.00000000  1
  Ni  Ni17  1  0.71880900  0.14155400  0.35547500  1
  Ni  Ni18  1  0.50000000  0.50000000  0.00000000  1
  Ni  Ni19  1  0.63800500  0.92896800  0.57212200  1
  Ni  Ni20  1  0.43172500  0.28496200  0.21697500  1
  Ni  Ni21  1  0.21293900  0.64279800  0.85778700  1
  Ni  Ni22  1  0.36199500  0.07103200  0.42787800  1
  Ni  Ni23  1  0.14622500  0.43083500  0.07441300  1
  Ni  Ni24  1  0.92476000  0.78352900  0.71388400  1
  Ni  Ni25  1  0.07524000  0.21647100  0.28611600  1
  Ni  Ni26  1  0.28119100  0.85844600  0.64452500  1
  Ni  Ni27  1  0.00000000  0.00000000  0.50000000  1
  O  O28  1  0.84348500  0.80525600  0.90788800  1
  O  O29  1  0.86522500  0.33562100  0.94411700  1
  O  O30  1  0.57237800  0.46741500  0.80356900  1
  O  O31  1  0.77106900  0.58587300  0.13632100  1
  O  O32  1  0.54881700  0.96256400  0.77835800  1
  O  O33  1  0.78866800  0.12383700  0.13941500  1
  O  O34  1  0.70534400  0.37221700  0.34158100  1
  O  O35  1  0.73571300  0.91142300  0.36376700  1
  O  O36  1  0.91001400  0.01757000  0.70402400  1
  O  O37  1  0.50779100  0.75055300  0.98308400  1
  O  O38  1  0.49220900  0.24944700  0.01691600  1
  O  O39  1  0.45118300  0.03743600  0.22164200  1
  O  O40  1  0.22893100  0.41412700  0.86367900  1
  O  O41  1  0.42762200  0.53258500  0.19643100  1
  O  O42  1  0.21133200  0.87616300  0.86058500  1
  O  O43  1  0.63187000  0.15909000  0.56216800  1
  O  O44  1  0.63056500  0.69460300  0.58063000  1
  O  O45  1  0.36943500  0.30539700  0.41937000  1
  O  O46  1  0.36813000  0.84091000  0.43783200  1
  O  O47  1  0.13477500  0.66437900  0.05588300  1
  O  O48  1  0.92782400  0.54786900  0.71501000  1
  O  O49  1  0.15651500  0.19474400  0.09211200  1
  O  O50  1  0.29465600  0.62778300  0.65841900  1
  O  O51  1  0.08998600  0.98243000  0.29597600  1
  O  O52  1  0.26428700  0.08857700  0.63623300  1
  O  O53  1  0.07217600  0.45213100  0.28499000  1
  O  O54  1  0.99460500  0.23818000  0.48076500  1
  O  O55  1  0.00539500  0.76182000  0.51923500  1
