# generated using pymatgen
data_Li4Fe3Co3(SbO8)2
_symmetry_space_group_name_H-M   'P 1'
_cell_length_a   5.88316019
_cell_length_b   5.88316019
_cell_length_c   9.59533722
_cell_angle_alpha   88.96520674
_cell_angle_beta   88.96520674
_cell_angle_gamma   60.03139795
_symmetry_Int_Tables_number   1
_chemical_formula_structural   Li4Fe3Co3(SbO8)2
_chemical_formula_sum   'Li4 Fe3 Co3 Sb2 O16'
_cell_volume   287.64382803
_cell_formula_units_Z   1
loop_
 _symmetry_equiv_pos_site_id
 _symmetry_equiv_pos_as_xyz
  1  'x, y, z'
loop_
 _atom_site_type_symbol
 _atom_site_label
 _atom_site_symmetry_multiplicity
 _atom_site_fract_x
 _atom_site_fract_y
 _atom_site_fract_z
 _atom_site_occupancy
  Li  Li0  1  0.66150100  0.66150100  0.09476900  1
  Li  Li1  1  0.00572000  0.00572000  0.00766300  1
  Li  Li2  1  0.00753100  0.00753100  0.50964400  1
  Li  Li3  1  0.32897500  0.32897500  0.60122500  1
  Fe  Fe4  1  0.83099100  0.83099100  0.78586500  1
  Fe  Fe5  1  0.17049800  0.66141500  0.28576800  1
  Fe  Fe6  1  0.66141500  0.17049800  0.28576800  1
  Co  Co7  1  0.34213800  0.82998400  0.78589100  1
  Co  Co8  1  0.82998400  0.34213800  0.78589100  1
  Co  Co9  1  0.17343700  0.17343700  0.28505400  1
  Sb  Sb10  1  0.66547600  0.66547600  0.51488700  1
  Sb  Sb11  1  0.33227600  0.33227600  0.00848400  1
  O  O12  1  0.33277400  0.83776100  0.40251300  1
  O  O13  1  0.51690600  0.51690600  0.66790900  1
  O  O14  1  0.66136500  0.66136500  0.88853600  1
  O  O15  1  0.00634900  0.00634900  0.69636200  1
  O  O16  1  0.00822300  0.00822300  0.19553800  1
  O  O17  1  0.83776100  0.33277400  0.40251300  1
  O  O18  1  0.50740900  0.96301700  0.65807900  1
  O  O19  1  0.96301700  0.50740900  0.65807900  1
  O  O20  1  0.16430700  0.16430700  0.89725700  1
  O  O21  1  0.83609100  0.83609100  0.40945600  1
  O  O22  1  0.03273000  0.47297200  0.15673500  1
  O  O23  1  0.47297200  0.03273000  0.15673500  1
  O  O24  1  0.33050100  0.33050100  0.39374100  1
  O  O25  1  0.16529600  0.67422300  0.90392600  1
  O  O26  1  0.47996700  0.47996700  0.14999000  1
  O  O27  1  0.67422300  0.16529600  0.90392600  1
