# generated using pymatgen
data_LiNiPO4
_symmetry_space_group_name_H-M   'P 1'
_cell_length_a   5.43684052
_cell_length_b   8.05958121
_cell_length_c   7.61422633
_cell_angle_alpha   66.96226397
_cell_angle_beta   105.80755190
_cell_angle_gamma   95.76071265
_symmetry_Int_Tables_number   1
_chemical_formula_structural   LiNiPO4
_chemical_formula_sum   'Li4 Ni4 P4 O16'
_cell_volume   295.41730689
_cell_formula_units_Z   4
loop_
 _symmetry_equiv_pos_site_id
 _symmetry_equiv_pos_as_xyz
  1  'x, y, z'
loop_
 _atom_site_type_symbol
 _atom_site_label
 _atom_site_symmetry_multiplicity
 _atom_site_fract_x
 _atom_site_fract_y
 _atom_site_fract_z
 _atom_site_occupancy
  Li  Li0  1  0.73936500  0.76068400  0.73935200  1
  Li  Li1  1  0.23934300  0.26071900  0.23925100  1
  Li  Li2  1  0.48324100  0.51679600  0.48325200  1
  Li  Li3  1  0.98325100  0.01678300  0.98326700  1
  Ni  Ni4  1  0.91773600  0.52301400  0.18542700  1
  Ni  Ni5  1  0.61084300  0.94845800  0.34303900  1
  Ni  Ni6  1  0.41759300  0.02315000  0.68538200  1
  Ni  Ni7  1  0.11073600  0.44865200  0.84279800  1
  P  P8  1  0.09403400  0.77073800  0.45359400  1
  P  P9  1  0.59399500  0.27069900  0.95364700  1
  P  P10  1  0.90910800  0.22625400  0.54939900  1
  P  P11  1  0.40919300  0.72623800  0.04940900  1
  O  O12  1  0.14848600  0.21243500  0.47756600  1
  O  O13  1  0.64865900  0.71238300  0.97767500  1
  O  O14  1  0.95200100  0.68711200  0.62271100  1
  O  O15  1  0.45202500  0.18702400  0.12278200  1
  O  O16  1  0.36749100  0.84000400  0.53633800  1
  O  O17  1  0.86746400  0.33999700  0.03631700  1
  O  O18  1  0.74443400  0.04807200  0.57568400  1
  O  O19  1  0.24429400  0.54812400  0.07550900  1
  O  O20  1  0.12254000  0.62217700  0.38293300  1
  O  O21  1  0.62248900  0.12220600  0.88287900  1
  O  O22  1  0.00793300  0.24703600  0.74769600  1
  O  O23  1  0.50787600  0.74706500  0.24769700  1
  O  O24  1  0.95099100  0.93952200  0.28597300  1
  O  O25  1  0.45088800  0.43944900  0.78601700  1
  O  O26  1  0.72785500  0.38170200  0.39311200  1
  O  O27  1  0.22796100  0.88167800  0.89311900  1
