# generated using pymatgen
data_Li6V3P8O29
_symmetry_space_group_name_H-M   'P 1'
_cell_length_a   9.80608400
_cell_length_b   9.81848863
_cell_length_c   13.92500987
_cell_angle_alpha   89.97839618
_cell_angle_beta   89.97160106
_cell_angle_gamma   60.18166121
_symmetry_Int_Tables_number   1
_chemical_formula_structural   Li6V3P8O29
_chemical_formula_sum   'Li12 V6 P16 O58'
_cell_volume   1163.21078916
_cell_formula_units_Z   2
loop_
 _symmetry_equiv_pos_site_id
 _symmetry_equiv_pos_as_xyz
  1  'x, y, z'
loop_
 _atom_site_type_symbol
 _atom_site_label
 _atom_site_symmetry_multiplicity
 _atom_site_fract_x
 _atom_site_fract_y
 _atom_site_fract_z
 _atom_site_occupancy
  Li  Li0  1  0.22922400  0.09428900  0.56043500  1
  Li  Li1  1  0.09330500  0.67861300  0.55871800  1
  Li  Li2  1  0.33069000  0.32771700  0.88589400  1
  Li  Li3  1  0.23551600  0.67260500  0.06358800  1
  Li  Li4  1  0.67084900  0.09697100  0.06369100  1
  Li  Li5  1  0.32356500  0.77235300  0.43858700  1
  Li  Li6  1  0.67964400  0.22819000  0.55830800  1
  Li  Li7  1  0.76878200  0.33473400  0.94345600  1
  Li  Li8  1  0.90515500  0.32536800  0.43552700  1
  Li  Li9  1  0.77122500  0.90538100  0.43807200  1
  Li  Li10  1  0.90029900  0.76424900  0.94090100  1
  Li  Li11  1  0.04050900  0.01711200  0.00008000  1
  V  V12  1  0.43268900  0.56787100  0.25037200  1
  V  V13  1  0.56634400  0.43550300  0.75134600  1
  V  V14  1  0.43007100  0.99706600  0.75346400  1
  V  V15  1  0.56493400  0.99891800  0.24889900  1
  V  V16  1  0.00332700  0.42862600  0.24538200  1
  V  V17  1  0.99592300  0.56845900  0.74803100  1
  P  P18  1  0.08742400  0.22467800  0.84152700  1
  P  P19  1  0.23198700  0.08645000  0.34202000  1
  P  P20  1  0.08686000  0.67990000  0.34183500  1
  P  P21  1  0.33391200  0.33435400  0.12654100  1
  P  P22  1  0.33371200  0.33342700  0.62832100  1
  P  P23  1  0.22488400  0.68345200  0.84335900  1
  P  P24  1  0.31884300  0.76800700  0.65861300  1
  P  P25  1  0.68466400  0.08882200  0.84420600  1
  P  P26  1  0.31025300  0.91429400  0.15666500  1
  P  P27  1  0.67920100  0.23155200  0.34127800  1
  P  P28  1  0.77168900  0.31595200  0.15825400  1
  P  P29  1  0.66928400  0.66489600  0.37119900  1
  P  P30  1  0.66500700  0.66784800  0.87297300  1
  P  P31  1  0.91370900  0.31681500  0.65534400  1
  P  P32  1  0.76555200  0.91490800  0.65838800  1
  P  P33  1  0.91247800  0.77141100  0.15822300  1
  O  O34  1  0.00235900  0.24686900  0.56381300  1
  O  O35  1  0.08484200  0.25091300  0.34116800  1
  O  O36  1  0.21103500  0.99469600  0.07221600  1
  O  O37  1  0.25723100  0.08414100  0.83925700  1
  O  O38  1  0.09907300  0.37569600  0.83267300  1
  O  O39  1  0.19298600  0.32468600  0.16961700  1
  O  O40  1  0.09442200  0.52239200  0.32339900  1
  O  O41  1  0.99880600  0.77354200  0.06847700  1
  O  O42  1  0.07733200  0.66168000  0.83767600  1
  O  O43  1  0.32733200  0.18767600  0.66881200  1
  O  O44  1  0.38170400  0.09772300  0.32245100  1
  O  O45  1  0.18568100  0.48765600  0.66735000  1
  O  O46  1  0.33535100  0.33765900  0.01808900  1
  O  O47  1  0.34102600  0.33425500  0.52130700  1
  O  O48  1  0.32328600  0.49004700  0.16501400  1
  O  O49  1  0.51966200  0.10802000  0.83047200  1
  O  O50  1  0.48991100  0.18918300  0.16396800  1
  O  O51  1  0.25228000  0.66291000  0.34314500  1
  O  O52  1  0.20841200  0.78856400  0.75078500  1
  O  O53  1  0.24039500  0.75694200  0.56832200  1
  O  O54  1  0.21836000  0.76714900  0.93425200  1
  O  O55  1  0.37264400  0.51881000  0.83099400  1
  O  O56  1  0.48519400  0.33132800  0.67344500  1
  O  O57  1  0.33961300  0.74245300  0.16311100  1
  O  O58  1  0.51990500  0.38050100  0.32225400  1
  O  O59  1  0.66216900  0.08372300  0.34232300  1
  O  O60  1  0.21047200  0.99361300  0.25458200  1
  O  O61  1  0.24675300  0.99907000  0.43403300  1
  O  O62  1  0.75502600  0.00346800  0.56788100  1
  O  O63  1  0.33108200  0.91902800  0.65957000  1
  O  O64  1  0.47922500  0.62111500  0.67501200  1
  O  O65  1  0.66982600  0.25230800  0.84522500  1
  O  O66  1  0.51315200  0.67363200  0.33239300  1
  O  O67  1  0.61895800  0.47113200  0.16970900  1
  O  O68  1  0.77669000  0.22549900  0.06864200  1
  O  O69  1  0.75611800  0.24578800  0.43139900  1
  O  O70  1  0.79135100  0.20695300  0.25048200  1
  O  O71  1  0.74993600  0.33308400  0.65643200  1
  O  O72  1  0.51648700  0.80782900  0.82849300  1
  O  O73  1  0.46594400  0.91403800  0.16737900  1
  O  O74  1  0.66951500  0.51241900  0.83058800  1
  O  O75  1  0.67195700  0.65668300  0.97969300  1
  O  O76  1  0.66808700  0.66899500  0.47872300  1
  O  O77  1  0.81468800  0.51199600  0.33142300  1
  O  O78  1  0.61493600  0.90806500  0.67813500  1
  O  O79  1  0.67454900  0.81303300  0.32958200  1
  O  O80  1  0.91555500  0.33934500  0.16247100  1
  O  O81  1  0.00853400  0.20484800  0.74386700  1
  O  O82  1  0.99422000  0.21533800  0.92390400  1
  O  O83  1  0.90287000  0.47680100  0.67782300  1
  O  O84  1  0.81159600  0.67370800  0.83191100  1
  O  O85  1  0.90400500  0.62213300  0.17137700  1
  O  O86  1  0.74592100  0.91882900  0.16017800  1
  O  O87  1  0.77031700  0.99595100  0.93253800  1
  O  O88  1  0.78981500  0.00161500  0.75020000  1
  O  O89  1  0.91357900  0.74962300  0.65738300  1
  O  O90  1  0.99713700  0.75896800  0.43207800  1
  O  O91  1  0.99983800  0.79286200  0.25084200  1
