# generated using pymatgen
data_Li3Mn(PO4)2
_symmetry_space_group_name_H-M   'P 1'
_cell_length_a   9.90254000
_cell_length_b   8.66785800
_cell_length_c   16.39237727
_cell_angle_alpha   64.04134755
_cell_angle_beta   90.00000000
_cell_angle_gamma   90.00000000
_symmetry_Int_Tables_number   1
_chemical_formula_structural   Li3Mn(PO4)2
_chemical_formula_sum   'Li24 Mn8 P16 O64'
_cell_volume   1265.06616612
_cell_formula_units_Z   8
loop_
 _symmetry_equiv_pos_site_id
 _symmetry_equiv_pos_as_xyz
  1  'x, y, z'
loop_
 _atom_site_type_symbol
 _atom_site_label
 _atom_site_symmetry_multiplicity
 _atom_site_fract_x
 _atom_site_fract_y
 _atom_site_fract_z
 _atom_site_occupancy
  Li  Li0  1  0.40040700  0.98080200  0.44668400  1
  Li  Li1  1  0.90401800  0.60545300  0.80241400  1
  Li  Li2  1  0.62258100  0.59203300  0.72473100  1
  Li  Li3  1  0.07808200  0.28136200  0.00924500  1
  Li  Li4  1  0.11499500  0.03960100  0.24465800  1
  Li  Li5  1  0.58855600  0.25252300  0.00079500  1
  Li  Li6  1  0.08855600  0.74747700  0.49920500  1
  Li  Li7  1  0.61499500  0.96039900  0.25534200  1
  Li  Li8  1  0.57808200  0.71863800  0.49075500  1
  Li  Li9  1  0.12258100  0.40796700  0.77526900  1
  Li  Li10  1  0.40401800  0.39454700  0.69758600  1
  Li  Li11  1  0.90040700  0.01919800  0.05331600  1
  Li  Li12  1  0.09959300  0.98080200  0.94668400  1
  Li  Li13  1  0.59598200  0.60545300  0.30241400  1
  Li  Li14  1  0.87741900  0.59203300  0.22473100  1
  Li  Li15  1  0.42191800  0.28136200  0.50924500  1
  Li  Li16  1  0.38500500  0.03960100  0.74465800  1
  Li  Li17  1  0.91144400  0.25252300  0.50079500  1
  Li  Li18  1  0.41144400  0.74747700  0.99920500  1
  Li  Li19  1  0.88500500  0.96039900  0.75534200  1
  Li  Li20  1  0.92191800  0.71863800  0.99075500  1
  Li  Li21  1  0.37741900  0.40796700  0.27526900  1
  Li  Li22  1  0.09598200  0.39454700  0.19758600  1
  Li  Li23  1  0.59959300  0.01919800  0.55331600  1
  Mn  Mn24  1  0.85796500  0.02176700  0.38773900  1
  Mn  Mn25  1  0.37907600  0.55285100  0.86409400  1
  Mn  Mn26  1  0.87907600  0.44714900  0.63590600  1
  Mn  Mn27  1  0.35796500  0.97823300  0.11226100  1
  Mn  Mn28  1  0.64203500  0.02176700  0.88773900  1
  Mn  Mn29  1  0.12092400  0.55285100  0.36409400  1
  Mn  Mn30  1  0.62092400  0.44714900  0.13590600  1
  Mn  Mn31  1  0.14203500  0.97823300  0.61226100  1
  P  P32  1  0.86254700  0.25881700  0.15783300  1
  P  P33  1  0.35925300  0.78364600  0.64146000  1
  P  P34  1  0.84533900  0.82764500  0.60011300  1
  P  P35  1  0.33053300  0.36106200  0.08918500  1
  P  P36  1  0.83053300  0.63893800  0.41081500  1
  P  P37  1  0.34533900  0.17235500  0.89988700  1
  P  P38  1  0.85925300  0.21635400  0.85854000  1
  P  P39  1  0.36254700  0.74118300  0.34216700  1
  P  P40  1  0.63745300  0.25881700  0.65783300  1
  P  P41  1  0.14074700  0.78364600  0.14146000  1
  P  P42  1  0.65466100  0.82764500  0.10011300  1
  P  P43  1  0.16946700  0.36106200  0.58918500  1
  P  P44  1  0.66946700  0.63893800  0.91081500  1
  P  P45  1  0.15466100  0.17235500  0.39988700  1
  P  P46  1  0.64074700  0.21635400  0.35854000  1
  P  P47  1  0.13745300  0.74118300  0.84216700  1
  O  O48  1  0.05772400  0.01990800  0.41793100  1
  O  O49  1  0.59591000  0.58546900  0.84477100  1
  O  O50  1  0.77378400  0.76585500  0.69219400  1
  O  O51  1  0.18061400  0.32111300  0.11085800  1
  O  O52  1  0.35078100  0.51165900  0.99183200  1
  O  O53  1  0.93173100  0.13635700  0.24843500  1
  O  O54  1  0.74363500  0.88716000  0.52070300  1
  O  O55  1  0.65907600  0.05512700  0.34086700  1
  O  O56  1  0.11449000  0.55254300  0.85569600  1
  O  O57  1  0.39127400  0.61058700  0.72672300  1
  O  O58  1  0.91155100  0.21795500  0.08127100  1
  O  O59  1  0.70328700  0.22872200  0.16561100  1
  O  O60  1  0.47283600  0.81637700  0.57289800  1
  O  O61  1  0.21338400  0.77070400  0.60608000  1
  O  O62  1  0.93595200  0.68040200  0.59961300  1
  O  O63  1  0.41022200  0.20172100  0.09456100  1
  O  O64  1  0.91022200  0.79827900  0.40543900  1
  O  O65  1  0.43595200  0.31959800  0.90038700  1
  O  O66  1  0.71338400  0.22929600  0.89392000  1
  O  O67  1  0.20328700  0.77127800  0.33438900  1
  O  O68  1  0.97283600  0.18362300  0.92710200  1
  O  O69  1  0.41155100  0.78204500  0.41872900  1
  O  O70  1  0.89127400  0.38941300  0.77327700  1
  O  O71  1  0.61449000  0.44745700  0.64430400  1
  O  O72  1  0.15907600  0.94487300  0.15913300  1
  O  O73  1  0.24363500  0.11284000  0.97929700  1
  O  O74  1  0.43173100  0.86364300  0.25156500  1
  O  O75  1  0.68061400  0.67888700  0.38914200  1
  O  O76  1  0.85078100  0.48834100  0.50816800  1
  O  O77  1  0.27378400  0.23414500  0.80780600  1
  O  O78  1  0.55772400  0.98009200  0.08206900  1
  O  O79  1  0.09591000  0.41453100  0.65522900  1
  O  O80  1  0.90409000  0.58546900  0.34477100  1
  O  O81  1  0.44227600  0.01990800  0.91793100  1
  O  O82  1  0.72621600  0.76585500  0.19219400  1
  O  O83  1  0.14921900  0.51165900  0.49183200  1
  O  O84  1  0.31938600  0.32111300  0.61085800  1
  O  O85  1  0.56826900  0.13635700  0.74843500  1
  O  O86  1  0.75636500  0.88716000  0.02070300  1
  O  O87  1  0.84092400  0.05512700  0.84086700  1
  O  O88  1  0.38551000  0.55254300  0.35569600  1
  O  O89  1  0.10872600  0.61058700  0.22672300  1
  O  O90  1  0.58844900  0.21795500  0.58127100  1
  O  O91  1  0.02716400  0.81637700  0.07289800  1
  O  O92  1  0.79671300  0.22872200  0.66561100  1
  O  O93  1  0.28661600  0.77070400  0.10608000  1
  O  O94  1  0.56404800  0.68040200  0.09961300  1
  O  O95  1  0.08977800  0.20172100  0.59456100  1
  O  O96  1  0.58977800  0.79827900  0.90543900  1
  O  O97  1  0.06404800  0.31959800  0.40038700  1
  O  O98  1  0.78661600  0.22929600  0.39392000  1
  O  O99  1  0.52716400  0.18362300  0.42710200  1
  O  O100  1  0.29671300  0.77127800  0.83438900  1
  O  O101  1  0.08844900  0.78204500  0.91872900  1
  O  O102  1  0.60872600  0.38941300  0.27327700  1
  O  O103  1  0.88551000  0.44745700  0.14430400  1
  O  O104  1  0.34092400  0.94487300  0.65913300  1
  O  O105  1  0.25636500  0.11284000  0.47929700  1
  O  O106  1  0.06826900  0.86364300  0.75156500  1
  O  O107  1  0.64921900  0.48834100  0.00816800  1
  O  O108  1  0.81938600  0.67888700  0.88914200  1
  O  O109  1  0.22621600  0.23414500  0.30780600  1
  O  O110  1  0.40409000  0.41453100  0.15522900  1
  O  O111  1  0.94227600  0.98009200  0.58206900  1
