# generated using pymatgen
data_K8Li3(FeO4)4
_symmetry_space_group_name_H-M   'P 1'
_cell_length_a   5.55322800
_cell_length_b   8.45075587
_cell_length_c   10.94827275
_cell_angle_alpha   86.27140274
_cell_angle_beta   84.78058377
_cell_angle_gamma   89.05727873
_symmetry_Int_Tables_number   1
_chemical_formula_structural   K8Li3(FeO4)4
_chemical_formula_sum   'K8 Li3 Fe4 O16'
_cell_volume   510.54909572
_cell_formula_units_Z   1
loop_
 _symmetry_equiv_pos_site_id
 _symmetry_equiv_pos_as_xyz
  1  'x, y, z'
loop_
 _atom_site_type_symbol
 _atom_site_label
 _atom_site_symmetry_multiplicity
 _atom_site_fract_x
 _atom_site_fract_y
 _atom_site_fract_z
 _atom_site_occupancy
  K  K0  1  0.20551500  0.98328700  0.16762000  1
  K  K1  1  0.20071800  0.25794700  0.63218800  1
  K  K2  1  0.29051400  0.49299600  0.34163800  1
  K  K3  1  0.32339200  0.76934300  0.86499300  1
  K  K4  1  0.67977000  0.26027300  0.11014800  1
  K  K5  1  0.72120600  0.50144400  0.69887900  1
  K  K6  1  0.80338400  0.73786200  0.36839700  1
  K  K7  1  0.79335700  0.01377000  0.82735400  1
  Li  Li8  1  0.21648800  0.02444200  0.43166400  1
  Li  Li9  1  0.27918300  0.51614000  0.06125400  1
  Li  Li10  1  0.78980700  0.97327100  0.56654500  1
  Fe  Fe11  1  0.20071600  0.27986300  0.93356800  1
  Fe  Fe12  1  0.29390700  0.77442100  0.56704700  1
  Fe  Fe13  1  0.71422700  0.22302700  0.43179200  1
  Fe  Fe14  1  0.79326600  0.71396300  0.06286300  1
  O  O15  1  0.16590900  0.30082800  0.09185500  1
  O  O16  1  0.06880600  0.68834600  0.12043700  1
  O  O17  1  0.12038600  0.94030400  0.61506800  1
  O  O18  1  0.19253400  0.58290200  0.58961700  1
  O  O19  1  0.44037300  0.19005100  0.37154600  1
  O  O20  1  0.31499300  0.80081600  0.40608200  1
  O  O21  1  0.30860400  0.09246700  0.90340900  1
  O  O22  1  0.37615500  0.44363600  0.89398600  1
  O  O23  1  0.58563000  0.57960600  0.12261600  1
  O  O24  1  0.70553700  0.89929600  0.09400200  1
  O  O25  1  0.68930600  0.19726000  0.59273400  1
  O  O26  1  0.56684700  0.80701600  0.62886000  1
  O  O27  1  0.80843500  0.41654300  0.40938100  1
  O  O28  1  0.88636300  0.05421800  0.38704000  1
  O  O29  1  0.93376700  0.28866000  0.86816000  1
  O  O30  1  0.83190200  0.70534800  0.91041200  1
