# generated using pymatgen
data_LiFeSiO4
_symmetry_space_group_name_H-M   'P 1'
_cell_length_a   5.89427500
_cell_length_b   6.50212069
_cell_length_c   9.47359611
_cell_angle_alpha   76.34276882
_cell_angle_beta   87.28017982
_cell_angle_gamma   79.11277290
_symmetry_Int_Tables_number   1
_chemical_formula_structural   LiFeSiO4
_chemical_formula_sum   'Li4 Fe4 Si4 O16'
_cell_volume   346.46060803
_cell_formula_units_Z   4
loop_
 _symmetry_equiv_pos_site_id
 _symmetry_equiv_pos_as_xyz
  1  'x, y, z'
loop_
 _atom_site_type_symbol
 _atom_site_label
 _atom_site_symmetry_multiplicity
 _atom_site_fract_x
 _atom_site_fract_y
 _atom_site_fract_z
 _atom_site_occupancy
  Li  Li0  1  0.57241300  0.84497100  0.74043400  1
  Li  Li1  1  0.43396600  0.65295400  0.32855700  1
  Li  Li2  1  0.56603400  0.34704600  0.67144300  1
  Li  Li3  1  0.42758700  0.15502900  0.25956600  1
  Fe  Fe4  1  0.00641600  0.93409000  0.28784400  1
  Fe  Fe5  1  0.80417000  0.63852200  0.07531800  1
  Fe  Fe6  1  0.19583000  0.36147800  0.92468200  1
  Fe  Fe7  1  0.99358400  0.06591000  0.71215600  1
  Si  Si8  1  0.13912000  0.71265800  0.61784300  1
  Si  Si9  1  0.27949200  0.82723400  0.99995300  1
  Si  Si10  1  0.72050800  0.17276600  0.00004700  1
  Si  Si11  1  0.86088000  0.28734200  0.38215700  1
  O  O12  1  0.54192500  0.73260700  0.95135800  1
  O  O13  1  0.28002200  0.89858000  0.64390800  1
  O  O14  1  0.88108200  0.81089700  0.67421000  1
  O  O15  1  0.81135500  0.93549000  0.11262300  1
  O  O16  1  0.11115300  0.65644300  0.98001700  1
  O  O17  1  0.15271000  0.69996800  0.44622400  1
  O  O18  1  0.27912600  0.84773200  0.16852600  1
  O  O19  1  0.74419500  0.52545700  0.28032400  1
  O  O20  1  0.25580500  0.47454300  0.71967600  1
  O  O21  1  0.72087400  0.15226800  0.83147400  1
  O  O22  1  0.84729000  0.30003200  0.55377600  1
  O  O23  1  0.88884700  0.34355700  0.01998300  1
  O  O24  1  0.18864500  0.06451000  0.88737700  1
  O  O25  1  0.11891800  0.18910300  0.32579000  1
  O  O26  1  0.71997800  0.10142000  0.35609200  1
  O  O27  1  0.45807500  0.26739300  0.04864200  1
