# generated using pymatgen
data_Li2Mn4P4O15
_symmetry_space_group_name_H-M   'P 1'
_cell_length_a   8.99570087
_cell_length_b   8.99570087
_cell_length_c   18.55982611
_cell_angle_alpha   83.39899749
_cell_angle_beta   83.39899749
_cell_angle_gamma   107.19805013
_symmetry_Int_Tables_number   1
_chemical_formula_structural   Li2Mn4P4O15
_chemical_formula_sum   'Li8 Mn16 P16 O60'
_cell_volume   1407.58094391
_cell_formula_units_Z   4
loop_
 _symmetry_equiv_pos_site_id
 _symmetry_equiv_pos_as_xyz
  1  'x, y, z'
loop_
 _atom_site_type_symbol
 _atom_site_label
 _atom_site_symmetry_multiplicity
 _atom_site_fract_x
 _atom_site_fract_y
 _atom_site_fract_z
 _atom_site_occupancy
  Li  Li0  1  0.48841200  0.97508000  0.75756600  1
  Li  Li1  1  0.31481700  0.46801300  0.94351700  1
  Li  Li2  1  0.53198700  0.68518300  0.55648300  1
  Li  Li3  1  0.97508000  0.48841200  0.25756600  1
  Li  Li4  1  0.02492000  0.51158800  0.74243400  1
  Li  Li5  1  0.46801300  0.31481700  0.44351700  1
  Li  Li6  1  0.68518300  0.53198700  0.05648300  1
  Li  Li7  1  0.51158800  0.02492000  0.24243400  1
  Mn  Mn8  1  0.95270300  0.84923200  0.56932800  1
  Mn  Mn9  1  0.90586400  0.27996600  0.93736900  1
  Mn  Mn10  1  0.00000000  0.50000000  0.50000000  1
  Mn  Mn11  1  0.84923200  0.95270300  0.06932800  1
  Mn  Mn12  1  0.82349400  0.17650600  0.75000000  1
  Mn  Mn13  1  0.52234000  0.47766000  0.75000000  1
  Mn  Mn14  1  0.05102100  0.94897900  0.75000000  1
  Mn  Mn15  1  0.27996600  0.90586400  0.43736900  1
  Mn  Mn16  1  0.72003400  0.09413600  0.56263100  1
  Mn  Mn17  1  0.47766000  0.52234000  0.25000000  1
  Mn  Mn18  1  0.17650600  0.82349400  0.25000000  1
  Mn  Mn19  1  0.94897900  0.05102100  0.25000000  1
  Mn  Mn20  1  0.15076800  0.04729700  0.93067200  1
  Mn  Mn21  1  0.09413600  0.72003400  0.06263100  1
  Mn  Mn22  1  0.04729700  0.15076800  0.43067200  1
  Mn  Mn23  1  0.50000000  0.00000000  0.00000000  1
  P  P24  1  0.77211800  0.89074700  0.90071600  1
  P  P25  1  0.97720300  0.68643600  0.89980300  1
  P  P26  1  0.69938900  0.84319600  0.67981400  1
  P  P27  1  0.89074800  0.77211800  0.40071600  1
  P  P28  1  0.68643600  0.97720300  0.39980300  1
  P  P29  1  0.78010600  0.45304400  0.62592400  1
  P  P30  1  0.84319600  0.69938900  0.17981400  1
  P  P31  1  0.54695600  0.21989400  0.87407600  1
  P  P32  1  0.45304400  0.78010600  0.12592400  1
  P  P33  1  0.15680400  0.30061100  0.82018600  1
  P  P34  1  0.21989400  0.54695600  0.37407600  1
  P  P35  1  0.31356400  0.02279700  0.60019700  1
  P  P36  1  0.10925300  0.22788200  0.59928400  1
  P  P37  1  0.30061100  0.15680400  0.32018600  1
  P  P38  1  0.02279700  0.31356400  0.10019700  1
  P  P39  1  0.22788200  0.10925200  0.09928400  1
  O  O40  1  0.83135400  0.95797000  0.81928900  1
  O  O41  1  0.86773100  0.83421300  0.68550300  1
  O  O42  1  0.80745700  0.72254300  0.91553700  1
  O  O43  1  0.59772900  0.85384200  0.92660400  1
  O  O44  1  0.93303600  0.51605800  0.93303400  1
  O  O45  1  0.95797000  0.83135400  0.31928900  1
  O  O46  1  0.68228200  0.83074000  0.59614200  1
  O  O47  1  0.90411800  0.60817300  0.58288600  1
  O  O48  1  0.98906700  0.31448900  0.81292600  1
  O  O49  1  0.83421300  0.86773100  0.18550300  1
  O  O50  1  0.56764600  0.72228000  0.73469600  1
  O  O51  1  0.72254300  0.80745700  0.41553700  1
  O  O52  1  0.85384200  0.59772900  0.42660400  1
  O  O53  1  0.51605800  0.93303600  0.43303400  1
  O  O54  1  0.84027500  0.40927600  0.69792000  1
  O  O55  1  0.27243600  0.96058900  0.68304200  1
  O  O56  1  0.87913300  0.99950400  0.94829700  1
  O  O57  1  0.08894300  0.79271200  0.94462300  1
  O  O58  1  0.66701400  0.21539000  0.92838900  1
  O  O59  1  0.83074000  0.68228200  0.09614200  1
  O  O60  1  0.53021600  0.38603600  0.85792400  1
  O  O61  1  0.60817300  0.90411800  0.08288600  1
  O  O62  1  0.61396400  0.46978400  0.64207600  1
  O  O63  1  0.78461000  0.33298600  0.57161100  1
  O  O64  1  0.20728800  0.91105700  0.55537700  1
  O  O65  1  0.00049600  0.12086700  0.55170300  1
  O  O66  1  0.31448900  0.98906700  0.31292600  1
  O  O67  1  0.72228000  0.56764600  0.23469600  1
  O  O68  1  0.03941100  0.72756400  0.81695800  1
  O  O69  1  0.59072400  0.15972500  0.80208000  1
  O  O70  1  0.40927600  0.84027500  0.19792000  1
  O  O71  1  0.96058900  0.27243600  0.18304200  1
  O  O72  1  0.27772000  0.43235400  0.76530400  1
  O  O73  1  0.68551100  0.01093300  0.68707400  1
  O  O74  1  0.99950400  0.87913300  0.44829700  1
  O  O75  1  0.79271200  0.08894300  0.44462300  1
  O  O76  1  0.21539000  0.66701400  0.42838900  1
  O  O77  1  0.38603600  0.53021600  0.35792400  1
  O  O78  1  0.39182700  0.09588200  0.91711400  1
  O  O79  1  0.46978400  0.61396400  0.14207600  1
  O  O80  1  0.16926000  0.31771800  0.90385800  1
  O  O81  1  0.33298600  0.78461000  0.07161100  1
  O  O82  1  0.91105700  0.20728800  0.05537700  1
  O  O83  1  0.12086700  0.00049600  0.05170300  1
  O  O84  1  0.72756400  0.03941100  0.31695800  1
  O  O85  1  0.15972500  0.59072400  0.30208000  1
  O  O86  1  0.48394200  0.06696400  0.56696600  1
  O  O87  1  0.14615800  0.40227100  0.57339600  1
  O  O88  1  0.27745700  0.19254300  0.58446300  1
  O  O89  1  0.43235400  0.27772000  0.26530400  1
  O  O90  1  0.16578700  0.13226900  0.81449700  1
  O  O91  1  0.01093300  0.68551100  0.18707400  1
  O  O92  1  0.09588200  0.39182700  0.41711400  1
  O  O93  1  0.31771800  0.16926000  0.40385800  1
  O  O94  1  0.04203000  0.16864600  0.68071100  1
  O  O95  1  0.06696400  0.48394200  0.06696600  1
  O  O96  1  0.40227100  0.14615800  0.07339600  1
  O  O97  1  0.19254300  0.27745700  0.08446300  1
  O  O98  1  0.13226900  0.16578700  0.31449700  1
  O  O99  1  0.16864600  0.04203000  0.18071100  1
