# generated using pymatgen
data_Li2CuAsO4
_symmetry_space_group_name_H-M   'P 1'
_cell_length_a   5.17407900
_cell_length_b   6.97969800
_cell_length_c   10.90902802
_cell_angle_alpha   88.53106668
_cell_angle_beta   90.00000000
_cell_angle_gamma   90.00000000
_symmetry_Int_Tables_number   1
_chemical_formula_structural   Li2CuAsO4
_chemical_formula_sum   'Li8 Cu4 As4 O16'
_cell_volume   393.83381227
_cell_formula_units_Z   4
loop_
 _symmetry_equiv_pos_site_id
 _symmetry_equiv_pos_as_xyz
  1  'x, y, z'
loop_
 _atom_site_type_symbol
 _atom_site_label
 _atom_site_symmetry_multiplicity
 _atom_site_fract_x
 _atom_site_fract_y
 _atom_site_fract_z
 _atom_site_occupancy
  Li  Li0  1  0.23159800  0.98860600  0.84628500  1
  Li  Li1  1  0.26840200  0.98860600  0.34628500  1
  Li  Li2  1  0.26993400  0.32199200  0.69958500  1
  Li  Li3  1  0.23006600  0.32199200  0.19958500  1
  Li  Li4  1  0.76993400  0.67800800  0.80041500  1
  Li  Li5  1  0.73006600  0.67800800  0.30041500  1
  Li  Li6  1  0.73159800  0.01139400  0.65371500  1
  Li  Li7  1  0.76840200  0.01139400  0.15371500  1
  Cu  Cu8  1  0.30462500  0.50007400  0.91374600  1
  Cu  Cu9  1  0.80462500  0.49992600  0.58625400  1
  Cu  Cu10  1  0.19537500  0.50007400  0.41374600  1
  Cu  Cu11  1  0.69537500  0.49992600  0.08625400  1
  As  As12  1  0.75073100  0.23539800  0.88786500  1
  As  As13  1  0.74926900  0.23539800  0.38786500  1
  As  As14  1  0.25073100  0.76460200  0.61213500  1
  As  As15  1  0.24926900  0.76460200  0.11213500  1
  O  O16  1  0.85101500  0.02259100  0.82963700  1
  O  O17  1  0.64898500  0.02259100  0.32963700  1
  O  O18  1  0.41603900  0.24934100  0.86461200  1
  O  O19  1  0.70199600  0.24704200  0.54523000  1
  O  O20  1  0.08396100  0.24934100  0.36461200  1
  O  O21  1  0.91423300  0.41625300  0.80954300  1
  O  O22  1  0.79800400  0.24704200  0.04523000  1
  O  O23  1  0.58576700  0.41625300  0.30954300  1
  O  O24  1  0.41423300  0.58374700  0.69045700  1
  O  O25  1  0.20199600  0.75295800  0.95477000  1
  O  O26  1  0.08576700  0.58374700  0.19045700  1
  O  O27  1  0.91603900  0.75065900  0.63538800  1
  O  O28  1  0.29800400  0.75295800  0.45477000  1
  O  O29  1  0.58396100  0.75065900  0.13538800  1
  O  O30  1  0.35101500  0.97740900  0.67036300  1
  O  O31  1  0.14898500  0.97740900  0.17036300  1
