# generated using pymatgen
data_Na2LiTi3Al(PO4)6
_symmetry_space_group_name_H-M   'P 1'
_cell_length_a   8.56462400
_cell_length_b   8.57556563
_cell_length_c   8.77630184
_cell_angle_alpha   61.14090065
_cell_angle_beta   61.12160907
_cell_angle_gamma   60.23985053
_symmetry_Int_Tables_number   1
_chemical_formula_structural   Na2LiTi3Al(PO4)6
_chemical_formula_sum   'Na2 Li1 Ti3 Al1 P6 O24'
_cell_volume   464.29350339
_cell_formula_units_Z   1
loop_
 _symmetry_equiv_pos_site_id
 _symmetry_equiv_pos_as_xyz
  1  'x, y, z'
loop_
 _atom_site_type_symbol
 _atom_site_label
 _atom_site_symmetry_multiplicity
 _atom_site_fract_x
 _atom_site_fract_y
 _atom_site_fract_z
 _atom_site_occupancy
  Na  Na0  1  0.98935400  0.99771100  0.99854600  1
  Na  Na1  1  0.50317000  0.51202300  0.49708000  1
  Li  Li2  1  0.34607600  0.15226900  0.74382500  1
  Ti  Ti3  1  0.35255300  0.36078900  0.93863300  1
  Ti  Ti4  1  0.85674400  0.85778000  0.42895500  1
  Ti  Ti5  1  0.64246800  0.64697900  0.06865700  1
  Al  Al6  1  0.13953900  0.14705100  0.56289300  1
  P  P7  1  0.45741800  0.75844900  0.74721300  1
  P  P8  1  0.75438800  0.03951500  0.74753200  1
  P  P9  1  0.03354900  0.46172600  0.74804800  1
  P  P10  1  0.96213800  0.53188200  0.25723600  1
  P  P11  1  0.24857400  0.96673400  0.25171500  1
  P  P12  1  0.52979100  0.25034600  0.26091800  1
  O  O13  1  0.27977800  0.93962000  0.73546200  1
  O  O14  1  0.42838000  0.58684700  0.76216300  1
  O  O15  1  0.62997100  0.78782500  0.57545200  1
  O  O16  1  0.71770100  0.86935800  0.92189100  1
  O  O17  1  0.92403300  0.06858800  0.73230800  1
  O  O18  1  0.57023200  0.21756300  0.75914800  1
  O  O19  1  0.86443000  0.49585600  0.92076500  1
  O  O20  1  0.22349300  0.42947700  0.76075000  1
  O  O21  1  0.99646000  0.36504800  0.42623400  1
  O  O22  1  0.94028700  0.71954900  0.26215900  1
  O  O23  1  0.49226600  0.72087600  0.92160800  1
  O  O24  1  0.21489800  0.00275900  0.42063200  1
  O  O25  1  0.78512900  0.00456600  0.57627500  1
  O  O26  1  0.49507900  0.28740200  0.08530200  1
  O  O27  1  0.06757200  0.27386800  0.73434300  1
  O  O28  1  0.00203200  0.63346900  0.57725400  1
  O  O29  1  0.77886100  0.55883200  0.23892400  1
  O  O30  1  0.13038800  0.50197100  0.07926600  1
  O  O31  1  0.42236400  0.78211700  0.23740400  1
  O  O32  1  0.07661400  0.94108000  0.26171000  1
  O  O33  1  0.28670400  0.13076400  0.06949100  1
  O  O34  1  0.36485800  0.21383000  0.43601700  1
  O  O35  1  0.55679800  0.42531600  0.24088500  1
  O  O36  1  0.71690900  0.07916200  0.26330800  1
