# generated using pymatgen
data_Li3V3P8O29
_symmetry_space_group_name_H-M   'P 1'
_cell_length_a   9.76463600
_cell_length_b   9.78122778
_cell_length_c   14.49893183
_cell_angle_alpha   90.25668948
_cell_angle_beta   90.07867885
_cell_angle_gamma   119.88004735
_symmetry_Int_Tables_number   1
_chemical_formula_structural   Li3V3P8O29
_chemical_formula_sum   'Li6 V6 P16 O58'
_cell_volume   1200.69204089
_cell_formula_units_Z   2
loop_
 _symmetry_equiv_pos_site_id
 _symmetry_equiv_pos_as_xyz
  1  'x, y, z'
loop_
 _atom_site_type_symbol
 _atom_site_label
 _atom_site_symmetry_multiplicity
 _atom_site_fract_x
 _atom_site_fract_y
 _atom_site_fract_z
 _atom_site_occupancy
  Li  Li0  1  0.92030700  0.69512600  0.44017100  1
  Li  Li1  1  0.77716100  0.69718500  0.94508500  1
  Li  Li2  1  0.08887800  0.30303000  0.54635600  1
  Li  Li3  1  0.92206000  0.21729300  0.95117700  1
  Li  Li4  1  0.77294300  0.08457800  0.43630900  1
  Li  Li5  1  0.30102600  0.08066300  0.94920800  1
  V  V6  1  0.43358300  0.00080300  0.74630400  1
  V  V7  1  0.56319400  0.56537700  0.74813600  1
  V  V8  1  0.00202200  0.57084800  0.24649800  1
  V  V9  1  0.99882400  0.43417900  0.75370600  1
  V  V10  1  0.43467100  0.43043400  0.25446100  1
  V  V11  1  0.56223800  0.99667300  0.25033700  1
  P  P12  1  0.68585300  0.91485500  0.83373700  1
  P  P13  1  0.68699100  0.77276700  0.33691200  1
  P  P14  1  0.22693000  0.91495900  0.34085100  1
  P  P15  1  0.32867000  0.66283100  0.63476300  1
  P  P16  1  0.33480300  0.66321100  0.13439800  1
  P  P17  1  0.08823700  0.77525500  0.83476100  1
  P  P18  1  0.90993500  0.67862200  0.65838200  1
  P  P19  1  0.23030700  0.31465100  0.84081000  1
  P  P20  1  0.76623200  0.68139500  0.15817200  1
  P  P21  1  0.08923700  0.32115200  0.33737600  1
  P  P22  1  0.90768300  0.22825500  0.16212100  1
  P  P23  1  0.66538100  0.33262000  0.86704700  1
  P  P24  1  0.67390700  0.33701100  0.36965100  1
  P  P25  1  0.77057900  0.08954800  0.65616500  1
  P  P26  1  0.31255500  0.22826500  0.66003500  1
  P  P27  1  0.31671400  0.08799100  0.16254700  1
  O  O28  1  0.76495900  0.02247800  0.56374100  1
  O  O29  1  0.65849100  0.91599800  0.33896400  1
  O  O30  1  0.78040000  0.79816100  0.24034500  1
  O  O31  1  0.76436800  0.74839300  0.06718800  1
  O  O32  1  0.52474300  0.90839600  0.81846000  1
  O  O33  1  0.65914200  0.74449700  0.83626300  1
  O  O34  1  0.48023700  0.81646600  0.17844300  1
  O  O35  1  0.38164400  0.90746100  0.32248000  1
  O  O36  1  0.25226900  0.01406500  0.07160800  1
  O  O37  1  0.25789000  0.91988300  0.83673800  1
  O  O38  1  0.47745500  0.66288800  0.67907700  1
  O  O39  1  0.33262300  0.81436500  0.67672100  1
  O  O40  1  0.52676300  0.61805400  0.32500400  1
  O  O41  1  0.32550000  0.65444100  0.53292300  1
  O  O42  1  0.33326900  0.66618500  0.03240100  1
  O  O43  1  0.38271400  0.47509400  0.82297900  1
  O  O44  1  0.18325000  0.66175300  0.17703300  1
  O  O45  1  0.33882200  0.52044200  0.17891800  1
  O  O46  1  0.08333600  0.74249000  0.33569900  1
  O  O47  1  0.01767000  0.79819500  0.73852000  1
  O  O48  1  0.99035500  0.76728000  0.91442900  1
  O  O49  1  0.97655100  0.73580700  0.56653500  1
  O  O50  1  0.09772400  0.62091900  0.82117800  1
  O  O51  1  0.18046200  0.51375900  0.67736900  1
  O  O52  1  0.25761300  0.34481900  0.33494400  1
  O  O53  1  0.91341300  0.66040600  0.17215000  1
  O  O54  1  0.09625600  0.48013600  0.32185700  1
  O  O55  1  0.78275400  0.77363200  0.41645500  1
  O  O56  1  0.23199000  0.23426600  0.57547100  1
  O  O57  1  0.90094000  0.51876700  0.68401100  1
  O  O58  1  0.08464900  0.34038700  0.83957500  1
  O  O59  1  0.20631100  0.21079400  0.74901800  1
  O  O60  1  0.74371100  0.65852600  0.67506000  1
  O  O61  1  0.82204500  0.48631700  0.32774500  1
  O  O62  1  0.90035100  0.38172700  0.18018800  1
  O  O63  1  0.98408400  0.23135700  0.07349100  1
  O  O64  1  0.00052500  0.24015900  0.42341900  1
  O  O65  1  0.00218200  0.21205300  0.24881100  1
  O  O66  1  0.92003900  0.25581800  0.66834600  1
  O  O67  1  0.66521200  0.48185200  0.82759100  1
  O  O68  1  0.61659100  0.52154200  0.17946600  1
  O  O69  1  0.81649700  0.33110200  0.82509900  1
  O  O70  1  0.67864300  0.34514800  0.47214100  1
  O  O71  1  0.67320800  0.33222300  0.96928500  1
  O  O72  1  0.47506700  0.38206700  0.67836000  1
  O  O73  1  0.67186000  0.18441900  0.33181900  1
  O  O74  1  0.52546300  0.33891200  0.32591800  1
  O  O75  1  0.74018600  0.08427800  0.17333600  1
  O  O76  1  0.78188400  0.98514200  0.73777400  1
  O  O77  1  0.77635800  0.01179900  0.91392500  1
  O  O78  1  0.61828200  0.09877100  0.67857500  1
  O  O79  1  0.51604800  0.18324600  0.82577900  1
  O  O80  1  0.34045400  0.25577900  0.17428800  1
  O  O81  1  0.47952100  0.09851800  0.18336800  1
  O  O82  1  0.23585500  0.22921300  0.92331600  1
  O  O83  1  0.34157700  0.08661700  0.66883400  1
  O  O84  1  0.22828500  0.00025900  0.42460900  1
  O  O85  1  0.20372300  0.98982100  0.24569800  1
