# generated using pymatgen
data_BaLi4O3
_symmetry_space_group_name_H-M   'P 1'
_cell_length_a   5.43535615
_cell_length_b   5.43535615
_cell_length_c   13.69117200
_cell_angle_alpha   90.00000000
_cell_angle_beta   90.00000000
_cell_angle_gamma   115.52632102
_symmetry_Int_Tables_number   1
_chemical_formula_structural   BaLi4O3
_chemical_formula_sum   'Ba4 Li16 O12'
_cell_volume   364.99731578
_cell_formula_units_Z   4
loop_
 _symmetry_equiv_pos_site_id
 _symmetry_equiv_pos_as_xyz
  1  'x, y, z'
loop_
 _atom_site_type_symbol
 _atom_site_label
 _atom_site_symmetry_multiplicity
 _atom_site_fract_x
 _atom_site_fract_y
 _atom_site_fract_z
 _atom_site_occupancy
  Ba  Ba0  1  0.72883400  0.27116600  0.34224800  1
  Ba  Ba1  1  0.27116600  0.72883400  0.84224800  1
  Ba  Ba2  1  0.77333200  0.22666800  0.65556500  1
  Ba  Ba3  1  0.22666800  0.77333200  0.15556500  1
  Li  Li4  1  0.91625500  0.08374500  0.17678900  1
  Li  Li5  1  0.08374500  0.91625500  0.67678900  1
  Li  Li6  1  0.54866300  0.45133700  0.15824400  1
  Li  Li7  1  0.45133700  0.54866300  0.65824400  1
  Li  Li8  1  0.21088900  0.43570900  0.49200100  1
  Li  Li9  1  0.43570900  0.21088900  0.99200100  1
  Li  Li10  1  0.05489400  0.30038500  0.00543200  1
  Li  Li11  1  0.30038500  0.05489400  0.50543200  1
  Li  Li12  1  0.94510600  0.69961500  0.50543200  1
  Li  Li13  1  0.69961500  0.94510600  0.00543200  1
  Li  Li14  1  0.78911100  0.56429100  0.99200100  1
  Li  Li15  1  0.56429100  0.78911100  0.49200100  1
  Li  Li16  1  0.41647000  0.58353000  0.32086300  1
  Li  Li17  1  0.58353000  0.41647000  0.82086300  1
  Li  Li18  1  0.04980500  0.95019500  0.34226800  1
  Li  Li19  1  0.95019500  0.04980500  0.84226800  1
  O  O20  1  0.74550700  0.76022600  0.24949000  1
  O  O21  1  0.76022600  0.74550700  0.74949000  1
  O  O22  1  0.06165400  0.93834600  0.98984100  1
  O  O23  1  0.93834600  0.06165400  0.48984100  1
  O  O24  1  0.24705200  0.75294800  0.39751600  1
  O  O25  1  0.75294800  0.24705200  0.89751600  1
  O  O26  1  0.23977400  0.25449300  0.24949000  1
  O  O27  1  0.25449300  0.23977400  0.74949000  1
  O  O28  1  0.56909700  0.43090300  0.50825400  1
  O  O29  1  0.43090300  0.56909700  0.00825400  1
  O  O30  1  0.74325500  0.25674500  0.10229900  1
  O  O31  1  0.25674500  0.74325500  0.60229900  1
