# generated using pymatgen
data_Li3Sn2(PO4)3
_symmetry_space_group_name_H-M   'P 1'
_cell_length_a   9.12966300
_cell_length_b   8.94112300
_cell_length_c   15.59645757
_cell_angle_alpha   57.32860377
_cell_angle_beta   90.00000000
_cell_angle_gamma   90.00000000
_symmetry_Int_Tables_number   1
_chemical_formula_structural   Li3Sn2(PO4)3
_chemical_formula_sum   'Li12 Sn8 P12 O48'
_cell_volume   1071.69593662
_cell_formula_units_Z   4
loop_
 _symmetry_equiv_pos_site_id
 _symmetry_equiv_pos_as_xyz
  1  'x, y, z'
loop_
 _atom_site_type_symbol
 _atom_site_label
 _atom_site_symmetry_multiplicity
 _atom_site_fract_x
 _atom_site_fract_y
 _atom_site_fract_z
 _atom_site_occupancy
  Li  Li0  1  0.07524900  0.20143200  0.71216200  1
  Li  Li1  1  0.77688000  0.60724100  0.17440300  1
  Li  Li2  1  0.74577900  0.99763800  0.80714400  1
  Li  Li3  1  0.27688000  0.39275900  0.32559700  1
  Li  Li4  1  0.24577900  0.00236200  0.69285600  1
  Li  Li5  1  0.57524900  0.79856800  0.78783800  1
  Li  Li6  1  0.42475100  0.20143200  0.21216200  1
  Li  Li7  1  0.72312000  0.60724100  0.67440300  1
  Li  Li8  1  0.75422100  0.99763800  0.30714400  1
  Li  Li9  1  0.25422100  0.00236200  0.19285600  1
  Li  Li10  1  0.22312000  0.39275900  0.82559700  1
  Li  Li11  1  0.92475100  0.79856800  0.28783800  1
  Sn  Sn12  1  0.05073800  0.82482500  0.91277200  1
  Sn  Sn13  1  0.44187300  0.64896800  0.10499500  1
  Sn  Sn14  1  0.94187300  0.35103200  0.39500500  1
  Sn  Sn15  1  0.55073800  0.17517500  0.58722800  1
  Sn  Sn16  1  0.44926200  0.82482500  0.41277200  1
  Sn  Sn17  1  0.05812700  0.64896800  0.60499500  1
  Sn  Sn18  1  0.94926200  0.17517500  0.08722800  1
  Sn  Sn19  1  0.55812700  0.35103200  0.89500500  1
  P  P20  1  0.23534800  0.42276700  0.51005000  1
  P  P21  1  0.09333600  0.71258700  0.17016900  1
  P  P22  1  0.40185100  0.03174000  0.86061500  1
  P  P23  1  0.59333600  0.28741300  0.32983100  1
  P  P24  1  0.90185100  0.96826000  0.63938500  1
  P  P25  1  0.73534800  0.57723300  0.98995000  1
  P  P26  1  0.26465200  0.42276700  0.01005000  1
  P  P27  1  0.09814900  0.03174000  0.36061500  1
  P  P28  1  0.40666400  0.71258700  0.67016900  1
  P  P29  1  0.59814900  0.96826000  0.13938500  1
  P  P30  1  0.90666400  0.28741300  0.82983100  1
  P  P31  1  0.76465200  0.57723300  0.48995000  1
  O  O32  1  0.87117600  0.54582400  0.42171900  1
  O  O33  1  0.65102500  0.43149200  0.54613200  1
  O  O34  1  0.57741400  0.78870600  0.14373000  1
  O  O35  1  0.89435200  0.15161800  0.79944600  1
  O  O36  1  0.30529600  0.23991300  0.58124500  1
  O  O37  1  0.14729800  0.41516600  0.42562400  1
  O  O38  1  0.03109000  0.78761000  0.06377900  1
  O  O39  1  0.36904900  0.87585400  0.97522100  1
  O  O40  1  0.24510500  0.61704300  0.18575200  1
  O  O41  1  0.26124800  0.06166100  0.79917600  1
  O  O42  1  0.97557400  0.57092900  0.24388100  1
  O  O43  1  0.53603600  0.98697700  0.82039900  1
  O  O44  1  0.47557400  0.42907100  0.25611900  1
  O  O45  1  0.03603600  0.01302300  0.67960100  1
  O  O46  1  0.76124800  0.93833900  0.70082400  1
  O  O47  1  0.74510500  0.38295700  0.31424800  1
  O  O48  1  0.53109000  0.21239000  0.43622100  1
  O  O49  1  0.86904900  0.12414600  0.52477900  1
  O  O50  1  0.64729800  0.58483400  0.07437600  1
  O  O51  1  0.80529600  0.76008700  0.91875500  1
  O  O52  1  0.07741400  0.21129400  0.35627000  1
  O  O53  1  0.39435200  0.84838200  0.70055400  1
  O  O54  1  0.37117600  0.45417600  0.07828100  1
  O  O55  1  0.15102500  0.56850800  0.95386800  1
  O  O56  1  0.62882400  0.54582400  0.92171900  1
  O  O57  1  0.84897500  0.43149200  0.04613200  1
  O  O58  1  0.60564800  0.15161800  0.29944600  1
  O  O59  1  0.92258600  0.78870600  0.64373000  1
  O  O60  1  0.19470400  0.23991300  0.08124500  1
  O  O61  1  0.35270200  0.41516600  0.92562400  1
  O  O62  1  0.13095100  0.87585400  0.47522100  1
  O  O63  1  0.46891000  0.78761000  0.56377900  1
  O  O64  1  0.23875200  0.06166100  0.29917600  1
  O  O65  1  0.25489500  0.61704300  0.68575200  1
  O  O66  1  0.96396400  0.98697700  0.32039900  1
  O  O67  1  0.52442600  0.57092900  0.74388100  1
  O  O68  1  0.46396400  0.01302300  0.17960100  1
  O  O69  1  0.02442600  0.42907100  0.75611900  1
  O  O70  1  0.73875200  0.93833900  0.20082400  1
  O  O71  1  0.75489500  0.38295700  0.81424800  1
  O  O72  1  0.63095100  0.12414600  0.02477900  1
  O  O73  1  0.96891000  0.21239000  0.93622100  1
  O  O74  1  0.69470400  0.76008700  0.41875500  1
  O  O75  1  0.85270200  0.58483400  0.57437600  1
  O  O76  1  0.42258600  0.21129400  0.85627000  1
  O  O77  1  0.10564800  0.84838200  0.20055400  1
  O  O78  1  0.34897500  0.56850800  0.45386800  1
  O  O79  1  0.12882400  0.45417600  0.57828100  1
