# generated using pymatgen
data_Li3Co3SbO8
_symmetry_space_group_name_H-M   'P 1'
_cell_length_a   6.06364489
_cell_length_b   6.00554740
_cell_length_c   8.62755382
_cell_angle_alpha   90.08461366
_cell_angle_beta   89.78543145
_cell_angle_gamma   90.20837925
_symmetry_Int_Tables_number   1
_chemical_formula_structural   Li3Co3SbO8
_chemical_formula_sum   'Li6 Co6 Sb2 O16'
_cell_volume   314.17212744
_cell_formula_units_Z   2
loop_
 _symmetry_equiv_pos_site_id
 _symmetry_equiv_pos_as_xyz
  1  'x, y, z'
loop_
 _atom_site_type_symbol
 _atom_site_label
 _atom_site_symmetry_multiplicity
 _atom_site_fract_x
 _atom_site_fract_y
 _atom_site_fract_z
 _atom_site_occupancy
  Li  Li0  1  0.50001100  0.99999200  0.99999900  1
  Li  Li1  1  0.99999000  0.50000400  0.50000300  1
  Li  Li2  1  0.75031100  0.24963600  0.75040100  1
  Li  Li3  1  0.24969000  0.75036600  0.24960100  1
  Li  Li4  1  0.25160100  0.24915000  0.24946000  1
  Li  Li5  1  0.74839600  0.75084800  0.75054300  1
  Co  Co6  1  0.99999900  0.49999900  0.00000000  1
  Co  Co7  1  0.49999900  0.00000300  0.50000300  1
  Co  Co8  1  0.75056100  0.25157600  0.25035400  1
  Co  Co9  1  0.24943200  0.74841800  0.74964300  1
  Co  Co10  1  0.25214500  0.24728500  0.74864000  1
  Co  Co11  1  0.74786300  0.75271100  0.25135800  1
  Sb  Sb12  1  0.00001600  0.99999500  0.99999600  1
  Sb  Sb13  1  0.49999100  0.50000500  0.49999800  1
  O  O14  1  0.53522300  0.00054100  0.25116200  1
  O  O15  1  0.03919100  0.49940100  0.75535200  1
  O  O16  1  0.46477900  0.99945900  0.74884200  1
  O  O17  1  0.96080300  0.50060100  0.24464800  1
  O  O18  1  0.50564100  0.49973600  0.26642800  1
  O  O19  1  0.00713200  0.99856700  0.76597500  1
  O  O20  1  0.99287300  0.00143300  0.23403100  1
  O  O21  1  0.49435300  0.50026400  0.73356400  1
  O  O22  1  0.26824700  0.26323000  0.50670600  1
  O  O23  1  0.77029000  0.76149200  0.00710500  1
  O  O24  1  0.22971900  0.23851300  0.99289800  1
  O  O25  1  0.73174300  0.73677300  0.49329000  1
  O  O26  1  0.76994700  0.23768500  0.00632900  1
  O  O27  1  0.26895500  0.73663100  0.50658800  1
  O  O28  1  0.73104000  0.26337600  0.49341100  1
  O  O29  1  0.23006300  0.76230800  0.99367400  1
