# generated using pymatgen
data_Li2CrFe3O8
_symmetry_space_group_name_H-M   'P 1'
_cell_length_a   8.45085208
_cell_length_b   8.45085208
_cell_length_c   8.38566500
_cell_angle_alpha   90.00000000
_cell_angle_beta   90.00000000
_cell_angle_gamma   90.15282638
_symmetry_Int_Tables_number   1
_chemical_formula_structural   Li2CrFe3O8
_chemical_formula_sum   'Li8 Cr4 Fe12 O32'
_cell_volume   598.87607606
_cell_formula_units_Z   4
loop_
 _symmetry_equiv_pos_site_id
 _symmetry_equiv_pos_as_xyz
  1  'x, y, z'
loop_
 _atom_site_type_symbol
 _atom_site_label
 _atom_site_symmetry_multiplicity
 _atom_site_fract_x
 _atom_site_fract_y
 _atom_site_fract_z
 _atom_site_occupancy
  Li  Li0  1  0.99942800  0.75181900  0.37876400  1
  Li  Li1  1  0.75181900  0.99942800  0.62123600  1
  Li  Li2  1  0.24818100  0.00057200  0.12123600  1
  Li  Li3  1  0.00057200  0.24818100  0.87876400  1
  Li  Li4  1  0.50087200  0.25059200  0.37732500  1
  Li  Li5  1  0.74940800  0.49912800  0.12267500  1
  Li  Li6  1  0.25059200  0.50087200  0.62267500  1
  Li  Li7  1  0.49912800  0.74940800  0.87732500  1
  Cr  Cr8  1  0.12373200  0.87626800  0.75000000  1
  Cr  Cr9  1  0.87626800  0.12373200  0.25000000  1
  Cr  Cr10  1  0.37319400  0.37319400  0.00000000  1
  Cr  Cr11  1  0.62680600  0.62680600  0.50000000  1
  Fe  Fe12  1  0.87669400  0.87669400  0.00000000  1
  Fe  Fe13  1  0.62517600  0.87490800  0.25253500  1
  Fe  Fe14  1  0.37477700  0.87368200  0.49953600  1
  Fe  Fe15  1  0.62522300  0.12631800  0.99953600  1
  Fe  Fe16  1  0.37482400  0.12509200  0.75253500  1
  Fe  Fe17  1  0.12330600  0.12330600  0.50000000  1
  Fe  Fe18  1  0.62569700  0.37430300  0.75000000  1
  Fe  Fe19  1  0.87368200  0.37477700  0.50046400  1
  Fe  Fe20  1  0.12509200  0.37482400  0.24746500  1
  Fe  Fe21  1  0.87490800  0.62517600  0.74746500  1
  Fe  Fe22  1  0.12631800  0.62522300  0.00046400  1
  Fe  Fe23  1  0.37430300  0.62569700  0.25000000  1
  O  O24  1  0.88816000  0.86513000  0.76007200  1
  O  O25  1  0.10995700  0.86389000  0.98550900  1
  O  O26  1  0.38646600  0.86636300  0.26056100  1
  O  O27  1  0.86513000  0.88816000  0.23992800  1
  O  O28  1  0.61619100  0.86705100  0.48139900  1
  O  O29  1  0.63642800  0.88559700  0.01943300  1
  O  O30  1  0.36007000  0.88881500  0.74067100  1
  O  O31  1  0.13611000  0.89004300  0.51449100  1
  O  O32  1  0.86389000  0.10995700  0.01449100  1
  O  O33  1  0.63993000  0.11118500  0.24067100  1
  O  O34  1  0.36357200  0.11440300  0.51943300  1
  O  O35  1  0.38380900  0.13294900  0.98139900  1
  O  O36  1  0.13487000  0.11184000  0.73992800  1
  O  O37  1  0.61353400  0.13363700  0.76056100  1
  O  O38  1  0.89004300  0.13611000  0.48550900  1
  O  O39  1  0.11184000  0.13487000  0.26007200  1
  O  O40  1  0.61022100  0.35897000  0.99016700  1
  O  O41  1  0.38528100  0.35876800  0.76116200  1
  O  O42  1  0.11440300  0.36357200  0.48056700  1
  O  O43  1  0.64103000  0.38977900  0.50983300  1
  O  O44  1  0.88881500  0.36007000  0.25932900  1
  O  O45  1  0.86636300  0.38646600  0.73943900  1
  O  O46  1  0.13294900  0.38380900  0.01860100  1
  O  O47  1  0.35876800  0.38528100  0.23883800  1
  O  O48  1  0.64123200  0.61471900  0.73883800  1
  O  O49  1  0.86705100  0.61619100  0.51860100  1
  O  O50  1  0.13363700  0.61353400  0.23943900  1
  O  O51  1  0.11118500  0.63993000  0.75932900  1
  O  O52  1  0.35897000  0.61022100  0.00983300  1
  O  O53  1  0.88559700  0.63642800  0.98056700  1
  O  O54  1  0.61471900  0.64123200  0.26116200  1
  O  O55  1  0.38977900  0.64103000  0.49016700  1
