# generated using pymatgen
data_Li2VCr(P2O7)2
_symmetry_space_group_name_H-M   'P 1'
_cell_length_a   4.87931773
_cell_length_b   10.84721681
_cell_length_c   10.80258903
_cell_angle_alpha   99.09234577
_cell_angle_beta   101.78686070
_cell_angle_gamma   102.06207997
_symmetry_Int_Tables_number   1
_chemical_formula_structural   Li2VCr(P2O7)2
_chemical_formula_sum   'Li4 V2 Cr2 P8 O28'
_cell_volume   535.17048951
_cell_formula_units_Z   2
loop_
 _symmetry_equiv_pos_site_id
 _symmetry_equiv_pos_as_xyz
  1  'x, y, z'
loop_
 _atom_site_type_symbol
 _atom_site_label
 _atom_site_symmetry_multiplicity
 _atom_site_fract_x
 _atom_site_fract_y
 _atom_site_fract_z
 _atom_site_occupancy
  Li  Li0  1  0.17998100  0.76812000  0.90619900  1
  Li  Li1  1  0.17983300  0.26807300  0.40615100  1
  Li  Li2  1  0.82191800  0.34397800  0.98241700  1
  Li  Li3  1  0.82204600  0.84403100  0.48248400  1
  V  V4  1  0.21584600  0.11489800  0.61535100  1
  V  V5  1  0.21599200  0.61489600  0.11533200  1
  Cr  Cr6  1  0.78622500  0.63633300  0.63645500  1
  Cr  Cr7  1  0.78603900  0.13637400  0.13660500  1
  P  P8  1  0.39911500  0.35039000  0.17074800  1
  P  P9  1  0.39925200  0.85044400  0.67076300  1
  P  P10  1  0.21316300  0.43668400  0.64976600  1
  P  P11  1  0.21300400  0.93669000  0.14976500  1
  P  P12  1  0.78428100  0.59763600  0.31661200  1
  P  P13  1  0.78428700  0.09770300  0.81670800  1
  P  P14  1  0.60031700  0.57831000  0.89728000  1
  P  P15  1  0.60014700  0.07825300  0.39729900  1
  O  O16  1  0.04904900  0.58736200  0.26543800  1
  O  O17  1  0.04884000  0.08740400  0.76537500  1
  O  O18  1  0.13440200  0.79188400  0.09312300  1
  O  O19  1  0.13465300  0.29189400  0.59315800  1
  O  O20  1  0.18542200  0.25931400  0.22203800  1
  O  O21  1  0.18542200  0.75934500  0.72198400  1
  O  O22  1  0.24798700  0.42539400  0.08120500  1
  O  O23  1  0.24813400  0.92548900  0.58126400  1
  O  O24  1  0.40086300  0.64262800  0.96339300  1
  O  O25  1  0.40065100  0.14255500  0.46337000  1
  O  O26  1  0.60145400  0.67494900  0.24353600  1
  O  O27  1  0.60133500  0.17504700  0.74377700  1
  O  O28  1  0.59248600  0.45186700  0.30115900  1
  O  O29  1  0.59260900  0.95188400  0.80116900  1
  O  O30  1  0.40356000  0.44967600  0.79664500  1
  O  O31  1  0.40334500  0.94961500  0.29659000  1
  O  O32  1  0.40186200  0.51122200  0.57509500  1
  O  O33  1  0.40182400  0.01121500  0.07510900  1
  O  O34  1  0.60256400  0.28625100  0.10787400  1
  O  O35  1  0.60256800  0.78625300  0.60784300  1
  O  O36  1  0.75290600  0.66773900  0.82151500  1
  O  O37  1  0.75273700  0.16775400  0.32158600  1
  O  O38  1  0.81495800  0.52829100  0.98871200  1
  O  O39  1  0.81475200  0.02817700  0.48863600  1
  O  O40  1  0.86490300  0.15381200  0.96217100  1
  O  O41  1  0.86447100  0.65386500  0.46202600  1
  O  O42  1  0.94744700  0.48591300  0.66034700  1
  O  O43  1  0.94735100  0.98596900  0.16035100  1
