# generated using pymatgen
data_Li8Mn7Nb(PO4)12
_symmetry_space_group_name_H-M   'P 1'
_cell_length_a   8.56229500
_cell_length_b   8.78615605
_cell_length_c   12.26730095
_cell_angle_alpha   90.06534199
_cell_angle_beta   90.46961642
_cell_angle_gamma   90.90212654
_symmetry_Int_Tables_number   1
_chemical_formula_structural   Li8Mn7Nb(PO4)12
_chemical_formula_sum   'Li8 Mn7 Nb1 P12 O48'
_cell_volume   922.71875084
_cell_formula_units_Z   1
loop_
 _symmetry_equiv_pos_site_id
 _symmetry_equiv_pos_as_xyz
  1  'x, y, z'
loop_
 _atom_site_type_symbol
 _atom_site_label
 _atom_site_symmetry_multiplicity
 _atom_site_fract_x
 _atom_site_fract_y
 _atom_site_fract_z
 _atom_site_occupancy
  Li  Li0  1  0.21770800  0.72203400  0.18147400  1
  Li  Li1  1  0.21955000  0.78097800  0.81882400  1
  Li  Li2  1  0.27876100  0.22290100  0.31654500  1
  Li  Li3  1  0.27970400  0.27570200  0.68398600  1
  Li  Li4  1  0.71929700  0.72757300  0.31481900  1
  Li  Li5  1  0.72173800  0.78491700  0.68303300  1
  Li  Li6  1  0.77944200  0.22223400  0.18255500  1
  Li  Li7  1  0.78369400  0.27624100  0.82724000  1
  Mn  Mn8  1  0.25024700  0.96258800  0.61234800  1
  Mn  Mn9  1  0.25090700  0.53841500  0.38693900  1
  Mn  Mn10  1  0.25147500  0.03813800  0.11261700  1
  Mn  Mn11  1  0.25170100  0.46290500  0.88893300  1
  Mn  Mn12  1  0.74884800  0.53916500  0.11280600  1
  Mn  Mn13  1  0.74971100  0.96377300  0.88890700  1
  Mn  Mn14  1  0.74796600  0.03571400  0.38606500  1
  Nb  Nb15  1  0.75312500  0.46040600  0.61407900  1
  P  P16  1  0.04049100  0.24380300  0.49549800  1
  P  P17  1  0.46479400  0.75055300  0.00112700  1
  P  P18  1  0.53391300  0.25432400  0.00109900  1
  P  P19  1  0.97075700  0.75029500  0.49679600  1
  P  P20  1  0.10504500  0.39484500  0.14251700  1
  P  P21  1  0.10601000  0.10467800  0.85743300  1
  P  P22  1  0.39074100  0.60606600  0.65109900  1
  P  P23  1  0.39501600  0.89735300  0.35080400  1
  P  P24  1  0.60263500  0.09847400  0.64699900  1
  P  P25  1  0.60026000  0.39648600  0.35082500  1
  P  P26  1  0.90037200  0.60598000  0.85317000  1
  P  P27  1  0.89467000  0.89664600  0.14465400  1
  O  O28  1  0.06411000  0.63966900  0.42806400  1
  O  O29  1  0.06244700  0.85629800  0.57363300  1
  O  O30  1  0.07770600  0.89735600  0.15529900  1
  O  O31  1  0.08105400  0.60149900  0.84019000  1
  O  O32  1  0.14131700  0.16544600  0.58161600  1
  O  O33  1  0.14232900  0.33428900  0.41625000  1
  O  O34  1  0.15267800  0.43408400  0.02489800  1
  O  O35  1  0.15505600  0.06458600  0.97424900  1
  O  O36  1  0.15882600  0.23149000  0.17624500  1
  O  O37  1  0.16009600  0.26913300  0.82374300  1
  O  O38  1  0.17743600  0.51389200  0.21990300  1
  O  O39  1  0.17396900  0.98771100  0.77900500  1
  O  O40  1  0.32468800  0.01744300  0.27018000  1
  O  O41  1  0.32503700  0.48312200  0.73112000  1
  O  O42  1  0.34170100  0.76663700  0.68370000  1
  O  O43  1  0.34185300  0.73540300  0.31796800  1
  O  O44  1  0.34412000  0.55885600  0.53681200  1
  O  O45  1  0.34422000  0.94260600  0.46430500  1
  O  O46  1  0.35591700  0.83862300  0.08055400  1
  O  O47  1  0.35422400  0.66088700  0.92017300  1
  O  O48  1  0.42185900  0.10128000  0.65752200  1
  O  O49  1  0.41941300  0.39898700  0.34605900  1
  O  O50  1  0.43909200  0.14477000  0.07425500  1
  O  O51  1  0.43857100  0.36008300  0.92611000  1
  O  O52  1  0.55802600  0.64389400  0.07386800  1
  O  O53  1  0.55849500  0.85753100  0.92722300  1
  O  O54  1  0.57567200  0.60128000  0.65953400  1
  O  O55  1  0.57724100  0.89955800  0.34172500  1
  O  O56  1  0.63946000  0.34272400  0.08404700  1
  O  O57  1  0.63958200  0.17082300  0.92139800  1
  O  O58  1  0.65435500  0.06122900  0.53290700  1
  O  O59  1  0.65129200  0.42903300  0.47416600  1
  O  O60  1  0.65358200  0.23768700  0.31929700  1
  O  O61  1  0.65839600  0.26574800  0.67889300  1
  O  O62  1  0.67424200  0.52188400  0.28310100  1
  O  O63  1  0.67451100  0.98605100  0.72882000  1
  O  O64  1  0.82546400  0.01435600  0.22323100  1
  O  O65  1  0.83149200  0.48064500  0.77061300  1
  O  O66  1  0.84189100  0.73290200  0.17749800  1
  O  O67  1  0.84565300  0.76181700  0.81500900  1
  O  O68  1  0.84736800  0.56101300  0.96494100  1
  O  O69  1  0.84703000  0.93543600  0.02818100  1
  O  O70  1  0.86027600  0.65664400  0.57856800  1
  O  O71  1  0.85694700  0.83016100  0.42094800  1
  O  O72  1  0.92386400  0.10474900  0.84735100  1
  O  O73  1  0.92392800  0.39533200  0.15269000  1
  O  O74  1  0.93833800  0.13703500  0.42675200  1
  O  O75  1  0.93659300  0.35513100  0.56419900  1
