# generated using pymatgen
data_Li4Ti3Mn4(CoO9)2
_symmetry_space_group_name_H-M   'P 1'
_cell_length_a   2.90734400
_cell_length_b   8.91336000
_cell_length_c   25.07124400
_cell_angle_alpha   90.00000000
_cell_angle_beta   90.00000000
_cell_angle_gamma   90.00000000
_symmetry_Int_Tables_number   1
_chemical_formula_structural   Li4Ti3Mn4(CoO9)2
_chemical_formula_sum   'Li8 Ti6 Mn8 Co4 O36'
_cell_volume   649.70132443
_cell_formula_units_Z   2
loop_
 _symmetry_equiv_pos_site_id
 _symmetry_equiv_pos_as_xyz
  1  'x, y, z'
loop_
 _atom_site_type_symbol
 _atom_site_label
 _atom_site_symmetry_multiplicity
 _atom_site_fract_x
 _atom_site_fract_y
 _atom_site_fract_z
 _atom_site_occupancy
  Li  Li0  1  0.50000000  0.93799400  0.99051000  1
  Li  Li1  1  0.50000000  0.95072400  0.21272900  1
  Li  Li2  1  0.50000000  0.04927600  0.71272900  1
  Li  Li3  1  0.50000000  0.06200600  0.49051000  1
  Li  Li4  1  0.50000000  0.43134700  0.50070300  1
  Li  Li5  1  0.50000000  0.43614400  0.29872900  1
  Li  Li6  1  0.50000000  0.56385600  0.79872900  1
  Li  Li7  1  0.50000000  0.56865300  0.00070300  1
  Ti  Ti8  1  0.50000000  0.75547900  0.10361400  1
  Ti  Ti9  1  0.50000000  0.24452100  0.60361400  1
  Ti  Ti10  1  0.50000000  0.24318300  0.39160500  1
  Ti  Ti11  1  0.00000000  0.39049700  0.69590600  1
  Ti  Ti12  1  0.00000000  0.60950300  0.19590600  1
  Ti  Ti13  1  0.50000000  0.75681700  0.89160500  1
  Mn  Mn14  1  0.50000000  0.79004400  0.31476200  1
  Mn  Mn15  1  0.00000000  0.88373600  0.58509800  1
  Mn  Mn16  1  0.00000000  0.11626400  0.08509800  1
  Mn  Mn17  1  0.50000000  0.20995600  0.81476200  1
  Mn  Mn18  1  0.50000000  0.26613800  0.19088600  1
  Mn  Mn19  1  0.00000000  0.38539400  0.91500500  1
  Mn  Mn20  1  0.00000000  0.61460600  0.41500500  1
  Mn  Mn21  1  0.50000000  0.73386200  0.69088600  1
  Co  Co22  1  0.50000000  0.74718300  0.50052600  1
  Co  Co23  1  0.00000000  0.89459800  0.80615000  1
  Co  Co24  1  0.00000000  0.10540200  0.30615000  1
  Co  Co25  1  0.50000000  0.25281700  0.00052600  1
  O  O26  1  0.50000000  0.75511500  0.42450900  1
  O  O27  1  0.50000000  0.74326200  0.57727300  1
  O  O28  1  0.00000000  0.79803800  0.94027600  1
  O  O29  1  0.00000000  0.80651900  0.15944600  1
  O  O30  1  0.00000000  0.85696700  0.66181700  1
  O  O31  1  0.50000000  0.85545100  0.75937500  1
  O  O32  1  0.00000000  0.89146700  0.50769400  1
  O  O33  1  0.00000000  0.90304300  0.28096100  1
  O  O34  1  0.50000000  0.94203500  0.85573900  1
  O  O35  1  0.50000000  0.97271800  0.08452700  1
  O  O36  1  0.50000000  0.02728200  0.58452700  1
  O  O37  1  0.50000000  0.05796500  0.35573900  1
  O  O38  1  0.00000000  0.09695700  0.78096100  1
  O  O39  1  0.00000000  0.10853300  0.00769400  1
  O  O40  1  0.50000000  0.14454900  0.25937500  1
  O  O41  1  0.00000000  0.14303300  0.16181700  1
  O  O42  1  0.00000000  0.19348100  0.65944600  1
  O  O43  1  0.00000000  0.20196200  0.44027600  1
  O  O44  1  0.50000000  0.25673800  0.07727300  1
  O  O45  1  0.50000000  0.24488500  0.92450900  1
  O  O46  1  0.00000000  0.28985300  0.55701100  1
  O  O47  1  0.00000000  0.30629000  0.33870300  1
  O  O48  1  0.00000000  0.34191200  0.84002300  1
  O  O49  1  0.50000000  0.35450900  0.74347200  1
  O  O50  1  0.00000000  0.39730300  0.99251300  1
  O  O51  1  0.00000000  0.39615200  0.21468300  1
  O  O52  1  0.50000000  0.43042900  0.64247200  1
  O  O53  1  0.50000000  0.47129400  0.41341400  1
  O  O54  1  0.50000000  0.52870600  0.91341400  1
  O  O55  1  0.50000000  0.56957100  0.14247200  1
  O  O56  1  0.00000000  0.60384800  0.71468300  1
  O  O57  1  0.00000000  0.60269700  0.49251300  1
  O  O58  1  0.50000000  0.64549100  0.24347200  1
  O  O59  1  0.00000000  0.65808800  0.34002300  1
  O  O60  1  0.00000000  0.69371000  0.83870300  1
  O  O61  1  0.00000000  0.71014700  0.05701100  1
