# generated using pymatgen
data_LiMn3(BO3)3
_symmetry_space_group_name_H-M   'P 1'
_cell_length_a   5.23071400
_cell_length_b   6.19389478
_cell_length_c   11.80758943
_cell_angle_alpha   81.83779705
_cell_angle_beta   77.62453545
_cell_angle_gamma   88.02249018
_symmetry_Int_Tables_number   1
_chemical_formula_structural   LiMn3(BO3)3
_chemical_formula_sum   'Li2 Mn6 B6 O18'
_cell_volume   369.87083977
_cell_formula_units_Z   2
loop_
 _symmetry_equiv_pos_site_id
 _symmetry_equiv_pos_as_xyz
  1  'x, y, z'
loop_
 _atom_site_type_symbol
 _atom_site_label
 _atom_site_symmetry_multiplicity
 _atom_site_fract_x
 _atom_site_fract_y
 _atom_site_fract_z
 _atom_site_occupancy
  Li  Li0  1  0.85710400  0.13093000  0.46139200  1
  Li  Li1  1  0.19059600  0.46324500  0.79495900  1
  Mn  Mn2  1  0.00330000  0.03189900  0.78929800  1
  Mn  Mn3  1  0.64669400  0.61356500  0.88202300  1
  Mn  Mn4  1  0.31982100  0.29033000  0.54628600  1
  Mn  Mn5  1  0.68390400  0.70803900  0.45085200  1
  Mn  Mn6  1  0.33188800  0.37758700  0.12830500  1
  Mn  Mn7  1  0.00021800  0.95321200  0.20206400  1
  B  B8  1  0.74889500  0.41198800  0.66344600  1
  B  B9  1  0.07063600  0.72665200  0.99920500  1
  B  B10  1  0.41819900  0.09299500  0.33105000  1
  B  B11  1  0.58195300  0.92449700  0.67157300  1
  B  B12  1  0.91878400  0.26021000  0.00100100  1
  B  B13  1  0.25688200  0.58855500  0.33424700  1
  O  O14  1  0.67405200  0.35318000  0.99523800  1
  O  O15  1  0.09060100  0.20954000  0.90701100  1
  O  O16  1  0.00023800  0.35908200  0.67754900  1
  O  O17  1  0.56133700  0.47731300  0.75227400  1
  O  O18  1  0.68278800  0.38475800  0.55665000  1
  O  O19  1  0.01095000  0.70847100  0.89007200  1
  O  O20  1  0.66819400  0.02749700  0.34098400  1
  O  O21  1  0.63297900  0.89451100  0.78578200  1
  O  O22  1  0.22957200  0.14414900  0.42365700  1
  O  O23  1  0.76017800  0.87477500  0.57845500  1
  O  O24  1  0.33815100  0.09048000  0.22397400  1
  O  O25  1  0.34525200  0.02893200  0.65958400  1
  O  O26  1  0.99211400  0.24208200  0.11066900  1
  O  O27  1  0.31252600  0.57258000  0.44641100  1
  O  O28  1  0.43302500  0.50893300  0.24832200  1
  O  O29  1  0.02633600  0.69504300  0.31682300  1
  O  O30  1  0.89989500  0.81875500  0.08164600  1
  O  O31  1  0.31174200  0.64005800  0.01601300  1
