# generated using pymatgen
data_LiP3(WO6)2
_symmetry_space_group_name_H-M   'P 1'
_cell_length_a   9.06222300
_cell_length_b   9.22159800
_cell_length_c   12.49177000
_cell_angle_alpha   90.00000000
_cell_angle_beta   90.00000000
_cell_angle_gamma   90.00000000
_symmetry_Int_Tables_number   1
_chemical_formula_structural   LiP3(WO6)2
_chemical_formula_sum   'Li4 P12 W8 O48'
_cell_volume   1043.91445255
_cell_formula_units_Z   4
loop_
 _symmetry_equiv_pos_site_id
 _symmetry_equiv_pos_as_xyz
  1  'x, y, z'
loop_
 _atom_site_type_symbol
 _atom_site_label
 _atom_site_symmetry_multiplicity
 _atom_site_fract_x
 _atom_site_fract_y
 _atom_site_fract_z
 _atom_site_occupancy
  Li  Li0  1  0.14643900  0.76900900  0.25000000  1
  Li  Li1  1  0.14643900  0.73099100  0.75000000  1
  Li  Li2  1  0.85356100  0.26900900  0.25000000  1
  Li  Li3  1  0.85356100  0.23099100  0.75000000  1
  P  P4  1  0.03385900  0.75000000  0.00000000  1
  P  P5  1  0.03385900  0.75000000  0.50000000  1
  P  P6  1  0.39886300  0.37332700  0.13205000  1
  P  P7  1  0.39886300  0.12667300  0.63205000  1
  P  P8  1  0.39886300  0.37332700  0.36795000  1
  P  P9  1  0.39886300  0.12667300  0.86795000  1
  P  P10  1  0.60113700  0.62667300  0.86795000  1
  P  P11  1  0.60113700  0.62667300  0.63205000  1
  P  P12  1  0.60113700  0.87332700  0.13205000  1
  P  P13  1  0.60113700  0.87332700  0.36795000  1
  P  P14  1  0.96614100  0.25000000  0.00000000  1
  P  P15  1  0.96614100  0.25000000  0.50000000  1
  W  W16  1  0.24658400  0.02294900  0.09920100  1
  W  W17  1  0.24658400  0.02294900  0.40079900  1
  W  W18  1  0.24658400  0.47705100  0.59920100  1
  W  W19  1  0.24658400  0.47705100  0.90079900  1
  W  W20  1  0.75341600  0.52294900  0.09920100  1
  W  W21  1  0.75341600  0.52294900  0.40079900  1
  W  W22  1  0.75341600  0.97705100  0.90079900  1
  W  W23  1  0.75341600  0.97705100  0.59920100  1
  O  O24  1  0.05593900  0.13713000  0.43829100  1
  O  O25  1  0.05593900  0.36287000  0.56170900  1
  O  O26  1  0.05593900  0.36287000  0.93829100  1
  O  O27  1  0.05593900  0.13713000  0.06170900  1
  O  O28  1  0.13249200  0.82189800  0.08825900  1
  O  O29  1  0.13249200  0.82189800  0.41174100  1
  O  O30  1  0.13249200  0.67810200  0.91174100  1
  O  O31  1  0.13249200  0.67810200  0.58825900  1
  O  O32  1  0.20678000  0.01471700  0.25000000  1
  O  O33  1  0.20678000  0.48528300  0.75000000  1
  O  O34  1  0.30450000  0.02704500  0.56117300  1
  O  O35  1  0.30450000  0.47295500  0.06117300  1
  O  O36  1  0.30450000  0.47295500  0.43882700  1
  O  O37  1  0.30450000  0.02704500  0.93882700  1
  O  O38  1  0.34368700  0.07723000  0.75000000  1
  O  O39  1  0.34368700  0.42277000  0.25000000  1
  O  O40  1  0.36656700  0.21332200  0.38159100  1
  O  O41  1  0.36656700  0.28667800  0.61840900  1
  O  O42  1  0.36656700  0.28667800  0.88159100  1
  O  O43  1  0.36656700  0.21332200  0.11840900  1
  O  O44  1  0.43624000  0.89777400  0.12399000  1
  O  O45  1  0.43624000  0.60222600  0.62399000  1
  O  O46  1  0.43624000  0.89777400  0.37601000  1
  O  O47  1  0.43624000  0.60222600  0.87601000  1
  O  O48  1  0.56376000  0.10222600  0.87601000  1
  O  O49  1  0.56376000  0.39777400  0.12399000  1
  O  O50  1  0.56376000  0.39777400  0.37601000  1
  O  O51  1  0.56376000  0.10222600  0.62399000  1
  O  O52  1  0.63343300  0.71332200  0.11840900  1
  O  O53  1  0.63343300  0.71332200  0.38159100  1
  O  O54  1  0.63343300  0.78667800  0.88159100  1
  O  O55  1  0.63343300  0.78667800  0.61840900  1
  O  O56  1  0.65631300  0.57723000  0.75000000  1
  O  O57  1  0.65631300  0.92277000  0.25000000  1
  O  O58  1  0.69550000  0.52704500  0.56117300  1
  O  O59  1  0.69550000  0.52704500  0.93882700  1
  O  O60  1  0.69550000  0.97295500  0.06117300  1
  O  O61  1  0.69550000  0.97295500  0.43882700  1
  O  O62  1  0.79322000  0.51471700  0.25000000  1
  O  O63  1  0.79322000  0.98528300  0.75000000  1
  O  O64  1  0.86750800  0.17810200  0.58825900  1
  O  O65  1  0.86750800  0.32189800  0.41174100  1
  O  O66  1  0.86750800  0.32189800  0.08825900  1
  O  O67  1  0.86750800  0.17810200  0.91174100  1
  O  O68  1  0.94406100  0.86287000  0.93829100  1
  O  O69  1  0.94406100  0.63713000  0.06170900  1
  O  O70  1  0.94406100  0.63713000  0.43829100  1
  O  O71  1  0.94406100  0.86287000  0.56170900  1
