# generated using pymatgen
data_Li3Nb7O19
_symmetry_space_group_name_H-M   'P 1'
_cell_length_a   6.34289817
_cell_length_b   6.34289817
_cell_length_c   20.33741100
_cell_angle_alpha   90.00000000
_cell_angle_beta   90.00000000
_cell_angle_gamma   120.00000179
_symmetry_Int_Tables_number   1
_chemical_formula_structural   Li3Nb7O19
_chemical_formula_sum   'Li6 Nb14 O38'
_cell_volume   708.60101149
_cell_formula_units_Z   2
loop_
 _symmetry_equiv_pos_site_id
 _symmetry_equiv_pos_as_xyz
  1  'x, y, z'
loop_
 _atom_site_type_symbol
 _atom_site_label
 _atom_site_symmetry_multiplicity
 _atom_site_fract_x
 _atom_site_fract_y
 _atom_site_fract_z
 _atom_site_occupancy
  Li  Li0  1  0.00000000  0.50000000  0.00000000  1
  Li  Li1  1  0.00000000  0.50000000  0.50000000  1
  Li  Li2  1  0.50000000  0.50000000  0.00000000  1
  Li  Li3  1  0.50000000  0.50000000  0.50000000  1
  Li  Li4  1  0.50000000  0.00000000  0.50000000  1
  Li  Li5  1  0.50000000  0.00000000  0.00000000  1
  Nb  Nb6  1  0.30514300  0.97042400  0.65532700  1
  Nb  Nb7  1  0.30514300  0.97042400  0.84467300  1
  Nb  Nb8  1  0.02957600  0.33471900  0.65532700  1
  Nb  Nb9  1  0.02957600  0.33471900  0.84467300  1
  Nb  Nb10  1  0.00000000  0.00000000  0.00000000  1
  Nb  Nb11  1  0.00000000  0.00000000  0.50000000  1
  Nb  Nb12  1  0.33471900  0.30514300  0.15532700  1
  Nb  Nb13  1  0.33471900  0.30514300  0.34467300  1
  Nb  Nb14  1  0.66528100  0.69485700  0.65532700  1
  Nb  Nb15  1  0.66528100  0.69485700  0.84467300  1
  Nb  Nb16  1  0.97042400  0.66528100  0.15532700  1
  Nb  Nb17  1  0.97042400  0.66528100  0.34467300  1
  Nb  Nb18  1  0.69485700  0.02957600  0.15532700  1
  Nb  Nb19  1  0.69485700  0.02957600  0.34467300  1
  O  O20  1  0.24541700  0.96319200  0.55509900  1
  O  O21  1  0.24541700  0.96319200  0.94490100  1
  O  O22  1  0.29114500  0.92717500  0.75000000  1
  O  O23  1  0.08581500  0.42039500  0.15187000  1
  O  O24  1  0.08581500  0.42039500  0.34813000  1
  O  O25  1  0.07282500  0.36397000  0.75000000  1
  O  O26  1  0.33458000  0.91418500  0.15187000  1
  O  O27  1  0.33458000  0.91418500  0.34813000  1
  O  O28  1  0.03680800  0.28222500  0.55509900  1
  O  O29  1  0.03680800  0.28222500  0.94490100  1
  O  O30  1  0.00000000  0.00000000  0.16432500  1
  O  O31  1  0.00000000  0.00000000  0.33567500  1
  O  O32  1  0.00000000  0.00000000  0.66432500  1
  O  O33  1  0.00000000  0.00000000  0.83567500  1
  O  O34  1  0.33333300  0.66666700  0.63704500  1
  O  O35  1  0.33333300  0.66666700  0.86295500  1
  O  O36  1  0.28222500  0.24541700  0.05509900  1
  O  O37  1  0.28222500  0.24541700  0.44490100  1
  O  O38  1  0.36397000  0.29114500  0.25000000  1
  O  O39  1  0.42039500  0.33458000  0.65187000  1
  O  O40  1  0.42039500  0.33458000  0.84813000  1
  O  O41  1  0.57960500  0.66542000  0.34813000  1
  O  O42  1  0.57960500  0.66542000  0.15187000  1
  O  O43  1  0.63603000  0.70885500  0.75000000  1
  O  O44  1  0.71777500  0.75458300  0.55509900  1
  O  O45  1  0.71777500  0.75458300  0.94490100  1
  O  O46  1  0.66666700  0.33333300  0.36295500  1
  O  O47  1  0.66666700  0.33333300  0.13704500  1
  O  O48  1  0.96319200  0.71777500  0.05509900  1
  O  O49  1  0.96319200  0.71777500  0.44490100  1
  O  O50  1  0.66542000  0.08581500  0.65187000  1
  O  O51  1  0.66542000  0.08581500  0.84813000  1
  O  O52  1  0.92717500  0.63603000  0.25000000  1
  O  O53  1  0.91418500  0.57960500  0.65187000  1
  O  O54  1  0.91418500  0.57960500  0.84813000  1
  O  O55  1  0.70885500  0.07282500  0.25000000  1
  O  O56  1  0.75458300  0.03680800  0.05509900  1
  O  O57  1  0.75458300  0.03680800  0.44490100  1
