# generated using pymatgen
data_Li3SbS4
_symmetry_space_group_name_H-M   'P 1'
_cell_length_a   6.85568108
_cell_length_b   6.85568108
_cell_length_c   6.85568108
_cell_angle_alpha   131.16008064
_cell_angle_beta   131.16008064
_cell_angle_gamma   71.55886764
_symmetry_Int_Tables_number   1
_chemical_formula_structural   Li3SbS4
_chemical_formula_sum   'Li3 Sb1 S4'
_cell_volume   178.71691686
_cell_formula_units_Z   1
loop_
 _symmetry_equiv_pos_site_id
 _symmetry_equiv_pos_as_xyz
  1  'x, y, z'
loop_
 _atom_site_type_symbol
 _atom_site_label
 _atom_site_symmetry_multiplicity
 _atom_site_fract_x
 _atom_site_fract_y
 _atom_site_fract_z
 _atom_site_occupancy
  Li  Li0  1  0.50000000  0.50000000  0.00000000  1
  Li  Li1  1  0.75000000  0.25000000  0.50000000  1
  Li  Li2  1  0.25000000  0.75000000  0.50000000  1
  Sb  Sb3  1  0.00000000  0.00000000  0.00000000  1
  S  S4  1  0.63468400  0.11570600  0.00000000  1
  S  S5  1  0.11570600  0.63468400  0.00000000  1
  S  S6  1  0.36531600  0.36531600  0.48102100  1
  S  S7  1  0.88429400  0.88429400  0.51897900  1
