# generated using pymatgen
data_Li5BO4
_symmetry_space_group_name_H-M   'P 1'
_cell_length_a   8.50412900
_cell_length_b   8.78947800
_cell_length_c   8.87783800
_cell_angle_alpha   90.00000000
_cell_angle_beta   90.00000000
_cell_angle_gamma   90.00000000
_symmetry_Int_Tables_number   1
_chemical_formula_structural   Li5BO4
_chemical_formula_sum   'Li40 B8 O32'
_cell_volume   663.59046752
_cell_formula_units_Z   8
loop_
 _symmetry_equiv_pos_site_id
 _symmetry_equiv_pos_as_xyz
  1  'x, y, z'
loop_
 _atom_site_type_symbol
 _atom_site_label
 _atom_site_symmetry_multiplicity
 _atom_site_fract_x
 _atom_site_fract_y
 _atom_site_fract_z
 _atom_site_occupancy
  Li  Li0  1  0.85027900  0.38331200  0.10399700  1
  Li  Li1  1  0.35027900  0.11668800  0.10399700  1
  Li  Li2  1  0.15994300  0.89188200  0.11166600  1
  Li  Li3  1  0.65994300  0.60811800  0.11166600  1
  Li  Li4  1  0.63869900  0.15350100  0.12112700  1
  Li  Li5  1  0.13869900  0.34649900  0.12112700  1
  Li  Li6  1  0.91431900  0.11926100  0.14249900  1
  Li  Li7  1  0.41431900  0.38073900  0.14249900  1
  Li  Li8  1  0.59858400  0.87919700  0.15974800  1
  Li  Li9  1  0.09858400  0.62080300  0.15974800  1
  Li  Li10  1  0.09858400  0.12080300  0.34025200  1
  Li  Li11  1  0.59858400  0.37919700  0.34025200  1
  Li  Li12  1  0.41431900  0.88073900  0.35750100  1
  Li  Li13  1  0.91431900  0.61926100  0.35750100  1
  Li  Li14  1  0.13869900  0.84649900  0.37887300  1
  Li  Li15  1  0.63869900  0.65350100  0.37887300  1
  Li  Li16  1  0.15994300  0.39188200  0.38833400  1
  Li  Li17  1  0.65994300  0.10811800  0.38833400  1
  Li  Li18  1  0.85027900  0.88331200  0.39600300  1
  Li  Li19  1  0.35027900  0.61668800  0.39600300  1
  Li  Li20  1  0.64972100  0.38331200  0.60399700  1
  Li  Li21  1  0.14972100  0.11668800  0.60399700  1
  Li  Li22  1  0.34005700  0.89188200  0.61166600  1
  Li  Li23  1  0.84005700  0.60811800  0.61166600  1
  Li  Li24  1  0.36130100  0.34649900  0.62112700  1
  Li  Li25  1  0.86130100  0.15350100  0.62112700  1
  Li  Li26  1  0.08568100  0.38073900  0.64249900  1
  Li  Li27  1  0.58568100  0.11926100  0.64249900  1
  Li  Li28  1  0.90141600  0.87919700  0.65974800  1
  Li  Li29  1  0.40141600  0.62080300  0.65974800  1
  Li  Li30  1  0.90141600  0.37919700  0.84025200  1
  Li  Li31  1  0.40141600  0.12080300  0.84025200  1
  Li  Li32  1  0.58568100  0.61926100  0.85750100  1
  Li  Li33  1  0.08568100  0.88073900  0.85750100  1
  Li  Li34  1  0.36130100  0.84649900  0.87887300  1
  Li  Li35  1  0.86130100  0.65350100  0.87887300  1
  Li  Li36  1  0.34005700  0.39188200  0.88833400  1
  Li  Li37  1  0.84005700  0.10811800  0.88833400  1
  Li  Li38  1  0.64972100  0.88331200  0.89600300  1
  Li  Li39  1  0.14972100  0.61668800  0.89600300  1
  B  B40  1  0.88273600  0.85688700  0.13342800  1
  B  B41  1  0.38273600  0.64311300  0.13342800  1
  B  B42  1  0.88273600  0.35688700  0.36657200  1
  B  B43  1  0.38273600  0.14311300  0.36657200  1
  B  B44  1  0.61726400  0.85688700  0.63342800  1
  B  B45  1  0.11726400  0.64311300  0.63342800  1
  B  B46  1  0.61726400  0.35688700  0.86657200  1
  B  B47  1  0.11726400  0.14311300  0.86657200  1
  O  O48  1  0.48334700  0.73282000  0.02577900  1
  O  O49  1  0.98334700  0.76718000  0.02577900  1
  O  O50  1  0.77516000  0.97066800  0.05144400  1
  O  O51  1  0.27516000  0.52933200  0.05144400  1
  O  O52  1  0.99134600  0.94768700  0.24119400  1
  O  O53  1  0.49134600  0.55231300  0.24119400  1
  O  O54  1  0.78166000  0.75631600  0.23142200  1
  O  O55  1  0.28166000  0.74368400  0.23142200  1
  O  O56  1  0.78166000  0.25631600  0.26857800  1
  O  O57  1  0.28166000  0.24368400  0.26857800  1
  O  O58  1  0.99134600  0.44768700  0.25880600  1
  O  O59  1  0.49134600  0.05231300  0.25880600  1
  O  O60  1  0.77516000  0.47066800  0.44855600  1
  O  O61  1  0.27516000  0.02933200  0.44855600  1
  O  O62  1  0.48334700  0.23282000  0.47422100  1
  O  O63  1  0.98334700  0.26718000  0.47422100  1
  O  O64  1  0.01665300  0.73282000  0.52577900  1
  O  O65  1  0.51665300  0.76718000  0.52577900  1
  O  O66  1  0.72484000  0.97066800  0.55144400  1
  O  O67  1  0.22484000  0.52933200  0.55144400  1
  O  O68  1  0.50865400  0.94768700  0.74119400  1
  O  O69  1  0.00865400  0.55231300  0.74119400  1
  O  O70  1  0.71834000  0.75631600  0.73142200  1
  O  O71  1  0.21834000  0.74368400  0.73142200  1
  O  O72  1  0.71834000  0.25631600  0.76857800  1
  O  O73  1  0.21834000  0.24368400  0.76857800  1
  O  O74  1  0.50865400  0.44768700  0.75880600  1
  O  O75  1  0.00865400  0.05231300  0.75880600  1
  O  O76  1  0.22484000  0.02933200  0.94855600  1
  O  O77  1  0.72484000  0.47066800  0.94855600  1
  O  O78  1  0.01665300  0.23282000  0.97422100  1
  O  O79  1  0.51665300  0.26718000  0.97422100  1
