# generated using pymatgen
data_Li3Bi(PO4)2
_symmetry_space_group_name_H-M   'P 1'
_cell_length_a   5.20425907
_cell_length_b   5.20425907
_cell_length_c   15.14421391
_cell_angle_alpha   83.44138098
_cell_angle_beta   83.44138098
_cell_angle_gamma   54.37259545
_symmetry_Int_Tables_number   1
_chemical_formula_structural   Li3Bi(PO4)2
_chemical_formula_sum   'Li6 Bi2 P4 O16'
_cell_volume   330.63588433
_cell_formula_units_Z   2
loop_
 _symmetry_equiv_pos_site_id
 _symmetry_equiv_pos_as_xyz
  1  'x, y, z'
loop_
 _atom_site_type_symbol
 _atom_site_label
 _atom_site_symmetry_multiplicity
 _atom_site_fract_x
 _atom_site_fract_y
 _atom_site_fract_z
 _atom_site_occupancy
  Li  Li0  1  0.35371200  0.29386900  0.17967400  1
  Li  Li1  1  0.29386900  0.35371200  0.67967400  1
  Li  Li2  1  0.70613100  0.64628800  0.32032600  1
  Li  Li3  1  0.64628800  0.70613100  0.82032600  1
  Li  Li4  1  0.04915300  0.95084700  0.25000000  1
  Li  Li5  1  0.95084700  0.04915300  0.75000000  1
  Bi  Bi6  1  0.00000000  0.00000000  0.00000000  1
  Bi  Bi7  1  0.00000000  0.00000000  0.50000000  1
  P  P8  1  0.37615400  0.31158600  0.37404300  1
  P  P9  1  0.31158600  0.37615400  0.87404300  1
  P  P10  1  0.68841400  0.62384600  0.12595700  1
  P  P11  1  0.62384600  0.68841400  0.62595700  1
  O  O12  1  0.72607300  0.21248500  0.35232400  1
  O  O13  1  0.21248500  0.72607300  0.85232400  1
  O  O14  1  0.25329200  0.49326500  0.45926300  1
  O  O15  1  0.49326500  0.25329200  0.95926300  1
  O  O16  1  0.16529500  0.51115100  0.29482900  1
  O  O17  1  0.99468500  0.61594300  0.10721200  1
  O  O18  1  0.51115100  0.16529500  0.79482900  1
  O  O19  1  0.61594300  0.99468500  0.60721200  1
  O  O20  1  0.38405700  0.00531500  0.39278800  1
  O  O21  1  0.48884900  0.83470500  0.20517100  1
  O  O22  1  0.00531500  0.38405700  0.89278800  1
  O  O23  1  0.83470500  0.48884900  0.70517100  1
  O  O24  1  0.50673500  0.74670800  0.04073700  1
  O  O25  1  0.74670800  0.50673500  0.54073700  1
  O  O26  1  0.78751500  0.27392700  0.14767600  1
  O  O27  1  0.27392700  0.78751500  0.64767600  1
