# generated using pymatgen
data_Li4Mn2Co3Sb3O16
_symmetry_space_group_name_H-M   'P 1'
_cell_length_a   6.05962000
_cell_length_b   6.10976182
_cell_length_c   9.76103788
_cell_angle_alpha   89.88298661
_cell_angle_beta   91.99200447
_cell_angle_gamma   119.39420901
_symmetry_Int_Tables_number   1
_chemical_formula_structural   Li4Mn2Co3Sb3O16
_chemical_formula_sum   'Li4 Mn2 Co3 Sb3 O16'
_cell_volume   314.62122101
_cell_formula_units_Z   1
loop_
 _symmetry_equiv_pos_site_id
 _symmetry_equiv_pos_as_xyz
  1  'x, y, z'
loop_
 _atom_site_type_symbol
 _atom_site_label
 _atom_site_symmetry_multiplicity
 _atom_site_fract_x
 _atom_site_fract_y
 _atom_site_fract_z
 _atom_site_occupancy
  Li  Li0  1  0.33048600  0.65607700  0.88183900  1
  Li  Li1  1  0.96419900  0.99202200  0.98756200  1
  Li  Li2  1  0.97453900  0.99041900  0.50262400  1
  Li  Li3  1  0.65608300  0.32983300  0.40163000  1
  Mn  Mn4  1  0.34631200  0.67810000  0.50060400  1
  Mn  Mn5  1  0.68912500  0.34181700  0.98015700  1
  Co  Co6  1  0.66653200  0.83908500  0.21625600  1
  Co  Co7  1  0.83154900  0.65626700  0.70947500  1
  Co  Co8  1  0.83849400  0.17151900  0.71785300  1
  Sb  Sb9  1  0.17549300  0.84337700  0.21335200  1
  Sb  Sb10  1  0.17613200  0.34975800  0.21426000  1
  Sb  Sb11  1  0.33869100  0.15735100  0.71455700  1
  O  O12  1  0.16757400  0.83990000  0.59638200  1
  O  O13  1  0.03972900  0.52759700  0.33710600  1
  O  O14  1  0.31733200  0.66415500  0.09935400  1
  O  O15  1  0.02184100  0.02218800  0.31729100  1
  O  O16  1  0.01001700  0.99593700  0.80867900  1
  O  O17  1  0.16234500  0.31206000  0.60481200  1
  O  O18  1  0.48295800  0.97886400  0.32978300  1
  O  O19  1  0.48013400  0.51791200  0.33692200  1
  O  O20  1  0.31575700  0.16720700  0.09967000  1
  O  O21  1  0.66540800  0.83622900  0.60409200  1
  O  O22  1  0.51908300  0.46076300  0.84976500  1
  O  O23  1  0.51247500  0.02085100  0.83943200  1
  O  O24  1  0.65095900  0.31520800  0.60466800  1
  O  O25  1  0.85453200  0.69537300  0.10291600  1
  O  O26  1  0.96118500  0.45672700  0.83643500  1
  O  O27  1  0.85104000  0.18370400  0.10036600  1
