# generated using pymatgen
data_Li32Mn5Cr11O48
_symmetry_space_group_name_H-M   'P 1'
_cell_length_a   5.01568712
_cell_length_b   5.01568712
_cell_length_c   38.45336428
_cell_angle_alpha   89.00863152
_cell_angle_beta   89.00863152
_cell_angle_gamma   119.60585959
_symmetry_Int_Tables_number   1
_chemical_formula_structural   Li32Mn5Cr11O48
_chemical_formula_sum   'Li32 Mn5 Cr11 O48'
_cell_volume   840.58171449
_cell_formula_units_Z   1
loop_
 _symmetry_equiv_pos_site_id
 _symmetry_equiv_pos_as_xyz
  1  'x, y, z'
loop_
 _atom_site_type_symbol
 _atom_site_label
 _atom_site_symmetry_multiplicity
 _atom_site_fract_x
 _atom_site_fract_y
 _atom_site_fract_z
 _atom_site_occupancy
  Li  Li0  1  0.90890000  0.46657600  0.93749900  1
  Li  Li1  1  0.00600600  0.87883100  0.68760300  1
  Li  Li2  1  0.93508000  0.80666900  0.87501000  1
  Li  Li3  1  0.87722100  0.74658600  0.06253600  1
  Li  Li4  1  0.81884600  0.69218600  0.24996600  1
  Li  Li5  1  0.75120600  0.62567600  0.43757200  1
  Li  Li6  1  0.68728900  0.56251500  0.62506000  1
  Li  Li7  1  0.95924000  0.16010300  0.81240500  1
  Li  Li8  1  0.63417800  0.50029200  0.81251700  1
  Li  Li9  1  0.83989700  0.04076000  0.18759500  1
  Li  Li10  1  0.72023200  0.91357600  0.56237200  1
  Li  Li11  1  0.56251200  0.43748800  0.00000000  1
  Li  Li12  1  0.49970800  0.36582200  0.18748300  1
  Li  Li13  1  0.58801600  0.78471600  0.93737100  1
  Li  Li14  1  0.46758800  0.66663700  0.31233700  1
  Li  Li15  1  0.78551200  0.33938600  0.31246800  1
  Li  Li16  1  0.66061400  0.21448800  0.68753200  1
  Li  Li17  1  0.33336300  0.53241200  0.68766300  1
  Li  Li18  1  0.21528400  0.41198400  0.06262900  1
  Li  Li19  1  0.53342400  0.09110000  0.06250100  1
  Li  Li20  1  0.41309300  0.96843100  0.43748900  1
  Li  Li21  1  0.43748500  0.31271100  0.37494000  1
  Li  Li22  1  0.28298700  0.83948300  0.81260100  1
  Li  Li23  1  0.16051700  0.71701300  0.18739900  1
  Li  Li24  1  0.37432400  0.24879400  0.56242800  1
  Li  Li25  1  0.03156900  0.58690700  0.56251100  1
  Li  Li26  1  0.30781400  0.18115400  0.75003400  1
  Li  Li27  1  0.25341400  0.12277900  0.93746400  1
  Li  Li28  1  0.19333100  0.06492000  0.12499000  1
  Li  Li29  1  0.12116900  0.99399400  0.31239700  1
  Li  Li30  1  0.06015900  0.93984100  0.50000000  1
  Li  Li31  1  0.08642400  0.27976800  0.43762800  1
  Mn  Mn32  1  0.97882600  0.52084800  0.74991900  1
  Mn  Mn33  1  0.85470700  0.39498700  0.12496900  1
  Mn  Mn34  1  0.72982600  0.27017400  0.50000000  1
  Mn  Mn35  1  0.60501300  0.14529300  0.87503100  1
  Mn  Mn36  1  0.47915200  0.02117400  0.25008100  1
  Cr  Cr37  1  0.89216800  0.10783200  0.00000000  1
  Cr  Cr38  1  0.76663300  0.98357200  0.37498400  1
  Cr  Cr39  1  0.63934400  0.84809000  0.75006700  1
  Cr  Cr40  1  0.52679500  0.73296900  0.12500300  1
  Cr  Cr41  1  0.39143400  0.60856600  0.50000000  1
  Cr  Cr42  1  0.26703100  0.47320500  0.87499700  1
  Cr  Cr43  1  0.35856800  0.89117300  0.62500600  1
  Cr  Cr44  1  0.23339500  0.76660500  0.00000000  1
  Cr  Cr45  1  0.10882700  0.64143200  0.37499400  1
  Cr  Cr46  1  0.15191000  0.36065600  0.24993300  1
  Cr  Cr47  1  0.01642800  0.23336700  0.62501600  1
  O  O48  1  0.90705600  0.41887700  0.02822900  1
  O  O49  1  0.93847800  0.46133800  0.84668600  1
  O  O50  1  0.93006400  0.80501700  0.97150100  1
  O  O51  1  0.80367400  0.67906800  0.34667100  1
  O  O52  1  0.95125400  0.82018600  0.77896000  1
  O  O53  1  0.81620600  0.69355300  0.15347600  1
  O  O54  1  0.69441200  0.56943900  0.52841400  1
  O  O55  1  0.68131300  0.56066800  0.72157600  1
  O  O56  1  0.55537300  0.42357900  0.09608700  1
  O  O57  1  0.93338000  0.16703600  0.90291900  1
  O  O58  1  0.57642100  0.44462700  0.90391300  1
  O  O59  1  0.80335100  0.03691100  0.27795500  1
  O  O60  1  0.66737400  0.90574800  0.65348200  1
  O  O61  1  0.96308900  0.19664900  0.72204500  1
  O  O62  1  0.83296400  0.06662000  0.09708100  1
  O  O63  1  0.71886300  0.95235100  0.47168800  1
  O  O64  1  0.78115500  0.29299300  0.40334200  1
  O  O65  1  0.82115600  0.33701500  0.22220700  1
  O  O66  1  0.70700700  0.21884500  0.59665800  1
  O  O67  1  0.54388900  0.78199900  0.02831900  1
  O  O68  1  0.41716300  0.65560600  0.40338700  1
  O  O69  1  0.58573900  0.82009600  0.84699700  1
  O  O70  1  0.46008100  0.69355800  0.22214300  1
  O  O71  1  0.34439400  0.58283700  0.59661300  1
  O  O72  1  0.66298500  0.17884400  0.77779300  1
  O  O73  1  0.53866200  0.06152200  0.15331400  1
  O  O74  1  0.41401500  0.92747000  0.52791300  1
  O  O75  1  0.58112300  0.09294400  0.97177100  1
  O  O76  1  0.45763400  0.97035600  0.34666400  1
  O  O77  1  0.30644200  0.53991900  0.77785700  1
  O  O78  1  0.17990400  0.41426100  0.15300300  1
  O  O79  1  0.21800100  0.45611100  0.97168100  1
  O  O80  1  0.28855300  0.80513000  0.90295500  1
  O  O81  1  0.16341600  0.68740100  0.27831200  1
  O  O82  1  0.02964400  0.54236600  0.65333600  1
  O  O83  1  0.31259900  0.83658400  0.72168800  1
  O  O84  1  0.19487000  0.71144700  0.09704500  1
  O  O85  1  0.43056100  0.30558800  0.47158600  1
  O  O86  1  0.07253000  0.58598500  0.47208700  1
  O  O87  1  0.43933200  0.31868700  0.27842400  1
  O  O88  1  0.32093200  0.19632600  0.65332900  1
  O  O89  1  0.30644700  0.18379400  0.84652400  1
  O  O90  1  0.17981400  0.04874600  0.22104000  1
  O  O91  1  0.05469700  0.92947500  0.59669200  1
  O  O92  1  0.19498300  0.06993600  0.02849900  1
  O  O93  1  0.07052500  0.94530300  0.40330800  1
  O  O94  1  0.04764900  0.28113700  0.52831200  1
  O  O95  1  0.09425200  0.33262600  0.34651800  1
