# generated using pymatgen
data_LiMnV(P2O7)2
_symmetry_space_group_name_H-M   'P 1'
_cell_length_a   8.15058800
_cell_length_b   9.97549253
_cell_length_c   13.66357936
_cell_angle_alpha   109.05206319
_cell_angle_beta   91.70900671
_cell_angle_gamma   90.45208771
_symmetry_Int_Tables_number   1
_chemical_formula_structural   LiMnV(P2O7)2
_chemical_formula_sum   'Li4 Mn4 V4 P16 O56'
_cell_volume   1049.42872072
_cell_formula_units_Z   4
loop_
 _symmetry_equiv_pos_site_id
 _symmetry_equiv_pos_as_xyz
  1  'x, y, z'
loop_
 _atom_site_type_symbol
 _atom_site_label
 _atom_site_symmetry_multiplicity
 _atom_site_fract_x
 _atom_site_fract_y
 _atom_site_fract_z
 _atom_site_occupancy
  Li  Li0  1  0.13656200  0.87141200  0.45697100  1
  Li  Li1  1  0.13655700  0.12189400  0.20681800  1
  Li  Li2  1  0.64212000  0.87947100  0.79183500  1
  Li  Li3  1  0.13713300  0.37229400  0.95638600  1
  Mn  Mn4  1  0.99249200  0.67074800  0.06174400  1
  Mn  Mn5  1  0.99337100  0.42148600  0.31358300  1
  Mn  Mn6  1  0.00714600  0.91274800  0.80825000  1
  Mn  Mn7  1  0.99372100  0.17216600  0.56297000  1
  V  V8  1  0.50525000  0.83849000  0.44115900  1
  V  V9  1  0.50494500  0.08973600  0.19334800  1
  V  V10  1  0.49542200  0.58255200  0.69035000  1
  V  V11  1  0.50569100  0.34035400  0.94160700  1
  P  P12  1  0.21942900  0.90009300  0.00959500  1
  P  P13  1  0.71265100  0.84606600  0.23890200  1
  P  P14  1  0.82385800  0.38829000  0.09094000  1
  P  P15  1  0.21790100  0.64986200  0.25857700  1
  P  P16  1  0.32117500  0.35686400  0.15842700  1
  P  P17  1  0.82239900  0.88738400  0.58985200  1
  P  P18  1  0.71140000  0.59556000  0.49041100  1
  P  P19  1  0.31822600  0.85839800  0.65796100  1
  P  P20  1  0.82365900  0.13839800  0.34089100  1
  P  P21  1  0.21765500  0.40087000  0.50946700  1
  P  P22  1  0.32063500  0.10705700  0.40901800  1
  P  P23  1  0.82483500  0.64076200  0.84073700  1
  P  P24  1  0.71297600  0.34694600  0.73911200  1
  P  P25  1  0.32179200  0.60652100  0.90812500  1
  P  P26  1  0.21875500  0.14981800  0.75903300  1
  P  P27  1  0.71064900  0.09826800  0.99105100  1
  O  O28  1  0.06675400  0.85874000  0.05657200  1
  O  O29  1  0.56024900  0.90313900  0.19601700  1
  O  O30  1  0.85015100  0.97335800  0.27528500  1
  O  O31  1  0.79790600  0.72413900  0.16555800  1
  O  O32  1  0.17374100  0.69271300  0.16358800  1
  O  O33  1  0.96196400  0.46236900  0.05341900  1
  O  O34  1  0.65274900  0.42498300  0.05791900  1
  O  O35  1  0.32870800  0.34975600  0.04367500  1
  O  O36  1  0.66380600  0.81622300  0.33845000  1
  O  O37  1  0.31284300  0.77083600  0.34072700  1
  O  O38  1  0.85059700  0.22208600  0.02490400  1
  O  O39  1  0.34722700  0.52214400  0.22643200  1
  O  O40  1  0.06657400  0.60832400  0.30682200  1
  O  O41  1  0.82734100  0.40541700  0.20549900  1
  O  O42  1  0.96154300  0.96376200  0.55571800  1
  O  O43  1  0.65156300  0.92597600  0.55781400  1
  O  O44  1  0.15570500  0.30694600  0.18287400  1
  O  O45  1  0.46517700  0.28068200  0.19022700  1
  O  O46  1  0.32969100  0.84961200  0.54305800  1
  O  O47  1  0.56053400  0.65312500  0.44622700  1
  O  O48  1  0.66581900  0.06631700  0.08975100  1
  O  O49  1  0.84945200  0.72299100  0.52576700  1
  O  O50  1  0.31402400  0.02063700  0.09205000  1
  O  O51  1  0.79688100  0.47378200  0.41709100  1
  O  O52  1  0.82256800  0.90479500  0.70559900  1
  O  O53  1  0.17315800  0.44364700  0.41417000  1
  O  O54  1  0.96163000  0.21323900  0.30370000  1
  O  O55  1  0.15215000  0.81304200  0.68042700  1
  O  O56  1  0.65233100  0.17597500  0.30835500  1
  O  O57  1  0.46349800  0.78660500  0.69440900  1
  O  O58  1  0.32811200  0.09986600  0.29395800  1
  O  O59  1  0.65886000  0.56803600  0.59024500  1
  O  O60  1  0.31969300  0.52044800  0.58636200  1
  O  O61  1  0.78766400  0.97430100  0.91192400  1
  O  O62  1  0.34662100  0.27151100  0.47606300  1
  O  O63  1  0.17921900  0.94567800  0.91542700  1
  O  O64  1  0.06698700  0.35576700  0.55531700  1
  O  O65  1  0.82684900  0.15575800  0.45562400  1
  O  O66  1  0.96228100  0.72036200  0.80900800  1
  O  O67  1  0.65496400  0.68118000  0.80572000  1
  O  O68  1  0.15531700  0.05598600  0.43280200  1
  O  O69  1  0.46476700  0.03031900  0.44032500  1
  O  O70  1  0.33763000  0.59937700  0.79422700  1
  O  O71  1  0.55907400  0.39825000  0.69421400  1
  O  O72  1  0.84788900  0.47561100  0.77541600  1
  O  O73  1  0.34768600  0.77197900  0.97614300  1
  O  O74  1  0.79966700  0.22425800  0.66717100  1
  O  O75  1  0.82487400  0.65441300  0.95519000  1
  O  O76  1  0.17388800  0.19238100  0.66415600  1
  O  O77  1  0.15618200  0.55706200  0.93205700  1
  O  O78  1  0.46518500  0.53153800  0.94212600  1
  O  O79  1  0.66277300  0.31610300  0.83866100  1
  O  O80  1  0.31076600  0.27177200  0.84183800  1
  O  O81  1  0.35112600  0.02462800  0.72662000  1
  O  O82  1  0.06822000  0.10323500  0.80591600  1
  O  O83  1  0.55845200  0.15170400  0.94563400  1
