# generated using pymatgen
data_Li4(CuO2)3
_symmetry_space_group_name_H-M   'P 1'
_cell_length_a   6.53804468
_cell_length_b   6.53804468
_cell_length_c   7.36004837
_cell_angle_alpha   69.92550569
_cell_angle_beta   69.92550569
_cell_angle_gamma   78.81180737
_symmetry_Int_Tables_number   1
_chemical_formula_structural   Li4(CuO2)3
_chemical_formula_sum   'Li8 Cu6 O12'
_cell_volume   276.50899965
_cell_formula_units_Z   2
loop_
 _symmetry_equiv_pos_site_id
 _symmetry_equiv_pos_as_xyz
  1  'x, y, z'
loop_
 _atom_site_type_symbol
 _atom_site_label
 _atom_site_symmetry_multiplicity
 _atom_site_fract_x
 _atom_site_fract_y
 _atom_site_fract_z
 _atom_site_occupancy
  Li  Li0  1  0.01962900  0.69198200  0.47456800  1
  Li  Li1  1  0.69284600  0.69284600  0.86444100  1
  Li  Li2  1  0.69198200  0.01962900  0.47456800  1
  Li  Li3  1  0.64727300  0.29305000  0.12685800  1
  Li  Li4  1  0.34849800  0.02450800  0.88375200  1
  Li  Li5  1  0.30919500  0.30919500  0.52066100  1
  Li  Li6  1  0.29305000  0.64727300  0.12685800  1
  Li  Li7  1  0.02450800  0.34849800  0.88375200  1
  Cu  Cu8  1  0.82708800  0.15757200  0.72789700  1
  Cu  Cu9  1  0.84185400  0.51523200  0.27036800  1
  Cu  Cu10  1  0.48352100  0.48352100  0.73844000  1
  Cu  Cu11  1  0.51523200  0.84185400  0.27036800  1
  Cu  Cu12  1  0.15757200  0.82708800  0.72789700  1
  Cu  Cu13  1  0.18015700  0.18015700  0.26306200  1
  O  O14  1  0.73422900  0.39861200  0.83169900  1
  O  O15  1  0.89659600  0.89659600  0.65501500  1
  O  O16  1  0.92387800  0.26875000  0.18132700  1
  O  O17  1  0.55723100  0.21822700  0.66967200  1
  O  O18  1  0.59666800  0.59666800  0.17331400  1
  O  O19  1  0.21822700  0.55723100  0.66967200  1
  O  O20  1  0.75012600  0.75012600  0.37564600  1
  O  O21  1  0.39861200  0.73422900  0.83169900  1
  O  O22  1  0.44373900  0.10313400  0.33932100  1
  O  O23  1  0.10421500  0.10421500  0.76848200  1
  O  O24  1  0.10313400  0.44373900  0.33932100  1
  O  O25  1  0.26875000  0.92387800  0.18132700  1
