# generated using pymatgen
data_Li4Mn3V3(SbO8)2
_symmetry_space_group_name_H-M   'P 1'
_cell_length_a   6.06822200
_cell_length_b   5.93637047
_cell_length_c   9.79082322
_cell_angle_alpha   90.06542179
_cell_angle_beta   91.61344245
_cell_angle_gamma   119.27948799
_symmetry_Int_Tables_number   1
_chemical_formula_structural   Li4Mn3V3(SbO8)2
_chemical_formula_sum   'Li4 Mn3 V3 Sb2 O16'
_cell_volume   307.47097155
_cell_formula_units_Z   1
loop_
 _symmetry_equiv_pos_site_id
 _symmetry_equiv_pos_as_xyz
  1  'x, y, z'
loop_
 _atom_site_type_symbol
 _atom_site_label
 _atom_site_symmetry_multiplicity
 _atom_site_fract_x
 _atom_site_fract_y
 _atom_site_fract_z
 _atom_site_occupancy
  Li  Li0  1  0.31930200  0.65900100  0.90224000  1
  Li  Li1  1  0.00541600  0.00508200  0.98903200  1
  Li  Li2  1  0.01305100  0.00744500  0.48775400  1
  Li  Li3  1  0.66221300  0.32931700  0.40304000  1
  Mn  Mn4  1  0.66714300  0.83401300  0.21012100  1
  Mn  Mn5  1  0.82921900  0.66154400  0.71196300  1
  Mn  Mn6  1  0.82892000  0.16775300  0.71197300  1
  V  V7  1  0.17445900  0.82824100  0.21355400  1
  V  V8  1  0.17455500  0.35027100  0.21746100  1
  V  V9  1  0.34107200  0.17077800  0.71717500  1
  Sb  Sb10  1  0.33737700  0.66881500  0.48823300  1
  Sb  Sb11  1  0.66185700  0.33235900  0.98808700  1
  O  O12  1  0.17910400  0.84034500  0.59230900  1
  O  O13  1  0.03439600  0.50864000  0.34490100  1
  O  O14  1  0.30772500  0.63832600  0.10631500  1
  O  O15  1  0.02796300  0.02375600  0.30025800  1
  O  O16  1  0.99886300  0.99963800  0.79959000  1
  O  O17  1  0.18083000  0.33973600  0.59332100  1
  O  O18  1  0.46661900  0.95972200  0.34864600  1
  O  O19  1  0.46603800  0.50424900  0.34929000  1
  O  O20  1  0.33835200  0.17345300  0.09844000  1
  O  O21  1  0.67972900  0.84010500  0.59024100  1
  O  O22  1  0.50136300  0.47341600  0.85227800  1
  O  O23  1  0.49939600  0.02794600  0.85343700  1
  O  O24  1  0.66373900  0.33191400  0.61511600  1
  O  O25  1  0.84692500  0.67112100  0.08969700  1
  O  O26  1  0.94929200  0.47440400  0.84266600  1
  O  O27  1  0.84508200  0.17891200  0.09070100  1
