# generated using pymatgen
data_Li9Cr4C8(SO16)2
_symmetry_space_group_name_H-M   'P 1'
_cell_length_a   9.50280090
_cell_length_b   9.50280090
_cell_length_c   9.28047835
_cell_angle_alpha   61.09972852
_cell_angle_beta   61.09972852
_cell_angle_gamma   93.02746797
_symmetry_Int_Tables_number   1
_chemical_formula_structural   Li9Cr4C8(SO16)2
_chemical_formula_sum   'Li9 Cr4 C8 S2 O32'
_cell_volume   595.79168642
_cell_formula_units_Z   1
loop_
 _symmetry_equiv_pos_site_id
 _symmetry_equiv_pos_as_xyz
  1  'x, y, z'
loop_
 _atom_site_type_symbol
 _atom_site_label
 _atom_site_symmetry_multiplicity
 _atom_site_fract_x
 _atom_site_fract_y
 _atom_site_fract_z
 _atom_site_occupancy
  Li  Li0  1  0.81427200  0.57305100  0.59242200  1
  Li  Li1  1  0.42694900  0.18572800  0.40757800  1
  Li  Li2  1  0.42353000  0.18061500  0.98874200  1
  Li  Li3  1  0.16677600  0.41004400  0.50496800  1
  Li  Li4  1  0.81938500  0.57647000  0.01125800  1
  Li  Li5  1  0.58995600  0.83322400  0.49503200  1
  Li  Li6  1  0.58824300  0.83315800  0.08132000  1
  Li  Li7  1  0.16684200  0.41175700  0.91868000  1
  Li  Li8  1  0.16341100  0.83658900  0.50000000  1
  Cr  Cr9  1  0.00026500  0.99878000  0.75253600  1
  Cr  Cr10  1  0.50194200  0.99950500  0.74880500  1
  Cr  Cr11  1  0.00122000  0.99973500  0.24746400  1
  Cr  Cr12  1  0.00049500  0.49805800  0.25119500  1
  C  C13  1  0.78991100  0.21611800  0.68890400  1
  C  C14  1  0.83871400  0.76701700  0.19379400  1
  C  C15  1  0.78388200  0.21008900  0.31109600  1
  C  C16  1  0.77113900  0.83847000  0.69382000  1
  C  C17  1  0.21771000  0.78603000  0.19186500  1
  C  C18  1  0.23298300  0.16128600  0.80620600  1
  C  C19  1  0.16153000  0.22886100  0.30618000  1
  C  C20  1  0.21397000  0.78229000  0.80813500  1
  S  S21  1  0.36787000  0.63213000  0.50000000  1
  S  S22  1  0.62473400  0.37526600  0.00000000  1
  O  O23  1  0.17324400  0.56356000  0.62808400  1
  O  O24  1  0.42441100  0.57077100  0.63663300  1
  O  O25  1  0.43644000  0.82675600  0.37191600  1
  O  O26  1  0.22423800  0.17555900  0.66476700  1
  O  O27  1  0.42922900  0.57558900  0.36336700  1
  O  O28  1  0.82444100  0.77576200  0.33523300  1
  O  O29  1  0.36080600  0.91325600  0.67881600  1
  O  O30  1  0.83070600  0.89024800  0.05610400  1
  O  O31  1  0.80441900  0.36115800  0.54884800  1
  O  O32  1  0.63884200  0.19558100  0.45115200  1
  O  O33  1  0.10975200  0.16929400  0.94389600  1
  O  O34  1  0.91736300  0.20073400  0.70104100  1
  O  O35  1  0.86072200  0.63583300  0.18792100  1
  O  O36  1  0.63875900  0.85560400  0.69010900  1
  O  O37  1  0.20253700  0.90872500  0.21803000  1
  O  O38  1  0.08674400  0.63919400  0.32118400  1
  O  O39  1  0.91426900  0.35870400  0.17926300  1
  O  O40  1  0.79926600  0.08263700  0.29895900  1
  O  O41  1  0.36416700  0.13927800  0.81207900  1
  O  O42  1  0.09127500  0.79746300  0.78197000  1
  O  O43  1  0.14439600  0.36124100  0.30989100  1
  O  O44  1  0.89909400  0.83502100  0.55265800  1
  O  O45  1  0.35963000  0.80521300  0.04680800  1
  O  O46  1  0.19478700  0.64037000  0.95319200  1
  O  O47  1  0.16497900  0.10090600  0.44734200  1
  O  O48  1  0.64129600  0.08573100  0.82073700  1
  O  O49  1  0.17565000  0.22063100  0.16521200  1
  O  O50  1  0.56418200  0.43290500  0.13707500  1
  O  O51  1  0.77936900  0.82435000  0.83478800  1
  O  O52  1  0.56709500  0.43581800  0.86292500  1
  O  O53  1  0.54807900  0.18195100  0.13260300  1
  O  O54  1  0.81804900  0.45192100  0.86739700  1
