# generated using pymatgen
data_Li6V3Ni(PO4)6
_symmetry_space_group_name_H-M   'P 1'
_cell_length_a   8.50818300
_cell_length_b   8.52907853
_cell_length_c   8.56631521
_cell_angle_alpha   62.06990599
_cell_angle_beta   62.05328126
_cell_angle_gamma   62.31360544
_symmetry_Int_Tables_number   1
_chemical_formula_structural   Li6V3Ni(PO4)6
_chemical_formula_sum   'Li6 V3 Ni1 P6 O24'
_cell_volume   460.62712010
_cell_formula_units_Z   1
loop_
 _symmetry_equiv_pos_site_id
 _symmetry_equiv_pos_as_xyz
  1  'x, y, z'
loop_
 _atom_site_type_symbol
 _atom_site_label
 _atom_site_symmetry_multiplicity
 _atom_site_fract_x
 _atom_site_fract_y
 _atom_site_fract_z
 _atom_site_occupancy
  Li  Li0  1  0.98233600  0.01257900  0.00151200  1
  Li  Li1  1  0.23618000  0.65235700  0.85850900  1
  Li  Li2  1  0.51950300  0.50458600  0.48529600  1
  Li  Li3  1  0.79042600  0.33662800  0.14739200  1
  Li  Li4  1  0.33057000  0.14900800  0.79488300  1
  Li  Li5  1  0.15202900  0.79086700  0.33102000  1
  V  V6  1  0.85939900  0.86290000  0.85751000  1
  V  V7  1  0.64192900  0.64563200  0.63636500  1
  V  V8  1  0.35667200  0.35539900  0.35345300  1
  Ni  Ni9  1  0.14542100  0.14675900  0.14932000  1
  P  P10  1  0.94972400  0.54753100  0.25036200  1
  P  P11  1  0.54988600  0.25122200  0.94640100  1
  P  P12  1  0.25050900  0.94917400  0.54536600  1
  P  P13  1  0.74904000  0.04047800  0.45797200  1
  P  P14  1  0.45608700  0.75015100  0.03528800  1
  P  P15  1  0.04313100  0.46224800  0.74944700  1
  O  O16  1  0.87928500  0.52589100  0.67960200  1
  O  O17  1  0.66994200  0.88474200  0.51039800  1
  O  O18  1  0.95666000  0.73039600  0.08285500  1
  O  O19  1  0.48264800  0.68207300  0.88225800  1
  O  O20  1  0.75620300  0.58176600  0.40647000  1
  O  O21  1  0.96510600  0.38944200  0.19971600  1
  O  O22  1  0.73822300  0.09102100  0.93484900  1
  O  O23  1  0.57281300  0.41595900  0.75571000  1
  O  O24  1  0.40569200  0.75088800  0.57729900  1
  O  O25  1  0.80351500  0.00769000  0.61760900  1
  O  O26  1  0.91374700  0.03833700  0.27116300  1
  O  O27  1  0.62763200  0.79255400  0.99585700  1
  O  O28  1  0.38737400  0.20192300  0.96737300  1
  O  O29  1  0.09807300  0.93060900  0.74128300  1
  O  O30  1  0.19329900  0.96825900  0.39130200  1
  O  O31  1  0.60182100  0.24023300  0.41844600  1
  O  O32  1  0.42027100  0.60252600  0.23541900  1
  O  O33  1  0.27222700  0.91936000  0.04093800  1
  O  O34  1  0.03051400  0.61834600  0.80201900  1
  O  O35  1  0.24004500  0.41804700  0.60075900  1
  O  O36  1  0.50887100  0.31398800  0.10663000  1
  O  O37  1  0.03548600  0.27729000  0.91607200  1
  O  O38  1  0.31492400  0.10839900  0.50282600  1
  O  O39  1  0.11278600  0.50174100  0.31405300  1
