# generated using pymatgen
data_Li4AlCr3O8
_symmetry_space_group_name_H-M   'P 1'
_cell_length_a   5.10998200
_cell_length_b   7.75798252
_cell_length_c   7.76484246
_cell_angle_alpha   81.76656288
_cell_angle_beta   71.03584347
_cell_angle_gamma   83.80274951
_symmetry_Int_Tables_number   1
_chemical_formula_structural   Li4AlCr3O8
_chemical_formula_sum   'Li8 Al2 Cr6 O16'
_cell_volume   287.49340239
_cell_formula_units_Z   2
loop_
 _symmetry_equiv_pos_site_id
 _symmetry_equiv_pos_as_xyz
  1  'x, y, z'
loop_
 _atom_site_type_symbol
 _atom_site_label
 _atom_site_symmetry_multiplicity
 _atom_site_fract_x
 _atom_site_fract_y
 _atom_site_fract_z
 _atom_site_occupancy
  Li  Li0  1  0.00000000  0.00000000  0.00000000  1
  Li  Li1  1  0.99954200  0.25064000  0.25108300  1
  Li  Li2  1  0.99963000  0.62477000  0.12630100  1
  Li  Li3  1  0.00003500  0.12586400  0.62457400  1
  Li  Li4  1  0.00000000  0.50000000  0.50000000  1
  Li  Li5  1  0.99996500  0.87413600  0.37542600  1
  Li  Li6  1  0.00037000  0.37523000  0.87369900  1
  Li  Li7  1  0.00045800  0.74936000  0.74891700  1
  Al  Al8  1  0.49998600  0.31452100  0.56167100  1
  Al  Al9  1  0.50001400  0.68547900  0.43832900  1
  Cr  Cr10  1  0.50024300  0.06152100  0.31446100  1
  Cr  Cr11  1  0.50062700  0.43784000  0.19060000  1
  Cr  Cr12  1  0.50036000  0.81161700  0.06428500  1
  Cr  Cr13  1  0.49964000  0.18838300  0.93571500  1
  Cr  Cr14  1  0.49937300  0.56216000  0.80940000  1
  Cr  Cr15  1  0.49975700  0.93847900  0.68553900  1
  O  O16  1  0.27268900  0.03059600  0.15180000  1
  O  O17  1  0.72696300  0.21945600  0.09876300  1
  O  O18  1  0.27275800  0.40609800  0.02729500  1
  O  O19  1  0.72187100  0.10405900  0.47597300  1
  O  O20  1  0.28005100  0.28088300  0.40831100  1
  O  O21  1  0.27975200  0.65626600  0.28365900  1
  O  O22  1  0.71716200  0.47175000  0.35851300  1
  O  O23  1  0.27830600  0.16231700  0.76786500  1
  O  O24  1  0.28283800  0.52825000  0.64148700  1
  O  O25  1  0.72169400  0.83768300  0.23213500  1
  O  O26  1  0.72024800  0.34373400  0.71634100  1
  O  O27  1  0.27812900  0.89594100  0.52402700  1
  O  O28  1  0.71994900  0.71911700  0.59168900  1
  O  O29  1  0.27303700  0.78054400  0.90123700  1
  O  O30  1  0.72724200  0.59390200  0.97270500  1
  O  O31  1  0.72731100  0.96940400  0.84820000  1
