# generated using pymatgen
data_LiV3P2(HO3)4
_symmetry_space_group_name_H-M   'P 1'
_cell_length_a   10.51452300
_cell_length_b   7.46668900
_cell_length_c   13.04708575
_cell_angle_alpha   63.79922532
_cell_angle_beta   90.00000000
_cell_angle_gamma   90.00000000
_symmetry_Int_Tables_number   1
_chemical_formula_structural   LiV3P2(HO3)4
_chemical_formula_sum   'Li4 V12 P8 H16 O48'
_cell_volume   919.06405985
_cell_formula_units_Z   4
loop_
 _symmetry_equiv_pos_site_id
 _symmetry_equiv_pos_as_xyz
  1  'x, y, z'
loop_
 _atom_site_type_symbol
 _atom_site_label
 _atom_site_symmetry_multiplicity
 _atom_site_fract_x
 _atom_site_fract_y
 _atom_site_fract_z
 _atom_site_occupancy
  Li  Li0  1  0.38537200  0.22543900  0.16561400  1
  Li  Li1  1  0.88537200  0.77456100  0.33438600  1
  Li  Li2  1  0.11462800  0.22543900  0.66561400  1
  Li  Li3  1  0.61462800  0.77456100  0.83438600  1
  V  V4  1  0.78236600  0.51481800  0.04453400  1
  V  V5  1  0.23817100  0.01586800  0.04538000  1
  V  V6  1  0.43355700  0.76034600  0.23469500  1
  V  V7  1  0.93355700  0.23965400  0.26530500  1
  V  V8  1  0.28236600  0.48518200  0.45546600  1
  V  V9  1  0.73817100  0.98413200  0.45462000  1
  V  V10  1  0.26182900  0.01586800  0.54538000  1
  V  V11  1  0.71763400  0.51481800  0.54453400  1
  V  V12  1  0.06644300  0.76034600  0.73469500  1
  V  V13  1  0.56644300  0.23965400  0.76530500  1
  V  V14  1  0.76182900  0.98413200  0.95462000  1
  V  V15  1  0.21763400  0.48518200  0.95546600  1
  P  P16  1  0.17964100  0.54193500  0.19575300  1
  P  P17  1  0.68867000  0.05563300  0.17739400  1
  P  P18  1  0.67964100  0.45806500  0.30424700  1
  P  P19  1  0.18867000  0.94436700  0.32260600  1
  P  P20  1  0.81133000  0.05563300  0.67739400  1
  P  P21  1  0.32035900  0.54193500  0.69575300  1
  P  P22  1  0.31133000  0.94436700  0.82260600  1
  P  P23  1  0.82035900  0.45806500  0.80424700  1
  H  H24  1  0.39143200  0.77052400  0.03004400  1
  H  H25  1  0.95468000  0.76445900  0.06239900  1
  H  H26  1  0.59839900  0.70427700  0.06619500  1
  H  H27  1  0.99409700  0.28962900  0.06142900  1
  H  H28  1  0.09839900  0.29572300  0.43380500  1
  H  H29  1  0.45468000  0.23554100  0.43760100  1
  H  H30  1  0.89143200  0.22947600  0.46995600  1
  H  H31  1  0.49409700  0.71037100  0.43857100  1
  H  H32  1  0.50590300  0.28962900  0.56142900  1
  H  H33  1  0.10856800  0.77052400  0.53004400  1
  H  H34  1  0.54532000  0.76445900  0.56239900  1
  H  H35  1  0.90160100  0.70427700  0.56619500  1
  H  H36  1  0.00590300  0.71037100  0.93857100  1
  H  H37  1  0.40160100  0.29572300  0.93380500  1
  H  H38  1  0.04532000  0.23554100  0.93760100  1
  H  H39  1  0.60856800  0.22947600  0.96995600  1
  O  O40  1  0.64665200  0.72991800  0.99632100  1
  O  O41  1  0.10388300  0.22989700  0.99766900  1
  O  O42  1  0.39466400  0.85311000  0.07164700  1
  O  O43  1  0.13430800  0.75752000  0.11505400  1
  O  O44  1  0.23603900  0.43827900  0.12609100  1
  O  O45  1  0.93101000  0.34508800  0.09808700  1
  O  O46  1  0.66664200  0.27858200  0.09160500  1
  O  O47  1  0.75960300  0.94381600  0.12078500  1
  O  O48  1  0.78788100  0.45493500  0.22150900  1
  O  O49  1  0.56706900  0.57307700  0.22753700  1
  O  O50  1  0.27596900  0.96833100  0.21798500  1
  O  O51  1  0.06706900  0.42692300  0.27246300  1
  O  O52  1  0.28788100  0.54506500  0.27849100  1
  O  O53  1  0.55396500  0.97621700  0.22219300  1
  O  O54  1  0.05396500  0.02378300  0.27780700  1
  O  O55  1  0.77596900  0.03166900  0.28201500  1
  O  O56  1  0.73603900  0.56172100  0.37390900  1
  O  O57  1  0.63430800  0.24248000  0.38494600  1
  O  O58  1  0.25960300  0.05618400  0.37921500  1
  O  O59  1  0.89466400  0.14689000  0.42835300  1
  O  O60  1  0.16664200  0.72141800  0.40839500  1
  O  O61  1  0.43101000  0.65491200  0.40191300  1
  O  O62  1  0.14665200  0.27008200  0.50367900  1
  O  O63  1  0.39611700  0.22989700  0.49766900  1
  O  O64  1  0.60388300  0.77010300  0.50233100  1
  O  O65  1  0.85334800  0.72991800  0.49632100  1
  O  O66  1  0.56899000  0.34508800  0.59808700  1
  O  O67  1  0.83335800  0.27858200  0.59160500  1
  O  O68  1  0.10533600  0.85311000  0.57164700  1
  O  O69  1  0.74039700  0.94381600  0.62078500  1
  O  O70  1  0.36569200  0.75752000  0.61505400  1
  O  O71  1  0.26396100  0.43827900  0.62609100  1
  O  O72  1  0.22403100  0.96833100  0.71798500  1
  O  O73  1  0.94603500  0.97621700  0.72219300  1
  O  O74  1  0.44603500  0.02378300  0.77780700  1
  O  O75  1  0.71211900  0.45493500  0.72150900  1
  O  O76  1  0.93293100  0.57307700  0.72753700  1
  O  O77  1  0.72403100  0.03166900  0.78201500  1
  O  O78  1  0.43293100  0.42692300  0.77246300  1
  O  O79  1  0.21211900  0.54506500  0.77849100  1
  O  O80  1  0.24039700  0.05618400  0.87921500  1
  O  O81  1  0.33335800  0.72141800  0.90839500  1
  O  O82  1  0.06899000  0.65491200  0.90191300  1
  O  O83  1  0.76396100  0.56172100  0.87390900  1
  O  O84  1  0.86569200  0.24248000  0.88494600  1
  O  O85  1  0.60533600  0.14689000  0.92835300  1
  O  O86  1  0.89611700  0.77010300  0.00233100  1
  O  O87  1  0.35334800  0.27008200  0.00367900  1
