# generated using pymatgen
data_LiFeBO3
_symmetry_space_group_name_H-M   'P 1'
_cell_length_a   6.29092111
_cell_length_b   8.20653314
_cell_length_c   8.78659216
_cell_angle_alpha   117.81344174
_cell_angle_beta   68.97265207
_cell_angle_gamma   89.98851110
_symmetry_Int_Tables_number   1
_chemical_formula_structural   LiFeBO3
_chemical_formula_sum   'Li6 Fe6 B6 O18'
_cell_volume   366.69848411
_cell_formula_units_Z   6
loop_
 _symmetry_equiv_pos_site_id
 _symmetry_equiv_pos_as_xyz
  1  'x, y, z'
loop_
 _atom_site_type_symbol
 _atom_site_label
 _atom_site_symmetry_multiplicity
 _atom_site_fract_x
 _atom_site_fract_y
 _atom_site_fract_z
 _atom_site_occupancy
  Li  Li0  1  0.75802600  0.28261300  0.98379500  1
  Li  Li1  1  0.25828600  0.28270300  0.98365500  1
  Li  Li2  1  0.10130800  0.01581500  0.29854800  1
  Li  Li3  1  0.60022000  0.01580400  0.29843700  1
  Li  Li4  1  0.88871300  0.70123700  0.71748400  1
  Li  Li5  1  0.39345800  0.70109400  0.71760700  1
  Fe  Fe6  1  0.49319600  0.63195000  0.01448000  1
  Fe  Fe7  1  0.68444100  0.99243200  0.62985700  1
  Fe  Fe8  1  0.18568100  0.99207900  0.62819000  1
  Fe  Fe9  1  0.81934900  0.37033200  0.36174900  1
  Fe  Fe10  1  0.31940200  0.36970300  0.36134400  1
  Fe  Fe11  1  0.99693200  0.63804500  0.00714600  1
  B  B12  1  0.91686900  0.33400500  0.66642000  1
  B  B13  1  0.41618900  0.33393100  0.66623600  1
  B  B14  1  0.00015100  0.00008600  0.99959700  1
  B  B15  1  0.50010200  0.99781000  0.99958800  1
  B  B16  1  0.08328200  0.66711500  0.33360800  1
  B  B17  1  0.58373000  0.66725600  0.33374300  1
  O  O18  1  0.54311500  0.10840500  0.91407500  1
  O  O19  1  0.04333100  0.10938100  0.91373200  1
  O  O20  1  0.90259200  0.08607600  0.19510600  1
  O  O21  1  0.40207900  0.08626500  0.19569200  1
  O  O22  1  0.55397400  0.80340900  0.89110500  1
  O  O23  1  0.05429400  0.80493400  0.89037900  1
  O  O24  1  0.96082100  0.13891500  0.57878400  1
  O  O25  1  0.46065000  0.13878000  0.57846200  1
  O  O26  1  0.81915300  0.44104800  0.86194700  1
  O  O27  1  0.31738800  0.44071300  0.86163400  1
  O  O28  1  0.97008900  0.42180800  0.55928200  1
  O  O29  1  0.47064000  0.42171800  0.55906800  1
  O  O30  1  0.12341700  0.47232600  0.25369300  1
  O  O31  1  0.62329800  0.47244400  0.25377100  1
  O  O32  1  0.98506300  0.78320000  0.52824500  1
  O  O33  1  0.48568900  0.78316800  0.52851400  1
  O  O34  1  0.14283700  0.74646900  0.21725700  1
  O  O35  1  0.64223400  0.74692900  0.21777200  1
