# generated using pymatgen
data_LiCrPO4
_symmetry_space_group_name_H-M   'P 1'
_cell_length_a   5.02936800
_cell_length_b   8.30133500
_cell_length_c   16.71032300
_cell_angle_alpha   90.00000000
_cell_angle_beta   90.00000000
_cell_angle_gamma   90.00000000
_symmetry_Int_Tables_number   1
_chemical_formula_structural   LiCrPO4
_chemical_formula_sum   'Li8 Cr8 P8 O32'
_cell_volume   697.66381581
_cell_formula_units_Z   8
loop_
 _symmetry_equiv_pos_site_id
 _symmetry_equiv_pos_as_xyz
  1  'x, y, z'
loop_
 _atom_site_type_symbol
 _atom_site_label
 _atom_site_symmetry_multiplicity
 _atom_site_fract_x
 _atom_site_fract_y
 _atom_site_fract_z
 _atom_site_occupancy
  Li  Li0  1  0.94130600  0.03071900  0.94353300  1
  Li  Li1  1  0.46650400  0.14049900  0.36335000  1
  Li  Li2  1  0.96650400  0.35950100  0.86335000  1
  Li  Li3  1  0.44130600  0.46928100  0.44353300  1
  Li  Li4  1  0.94130600  0.53071900  0.55646700  1
  Li  Li5  1  0.46650400  0.64049900  0.13665000  1
  Li  Li6  1  0.96650400  0.85950100  0.63665000  1
  Li  Li7  1  0.44130600  0.96928100  0.05646700  1
  Cr  Cr8  1  0.52307800  0.13118600  0.74895300  1
  Cr  Cr9  1  0.47747200  0.14994900  0.55296100  1
  Cr  Cr10  1  0.97747200  0.35005100  0.05296100  1
  Cr  Cr11  1  0.02307800  0.36881400  0.24895300  1
  Cr  Cr12  1  0.52307800  0.63118600  0.75104700  1
  Cr  Cr13  1  0.47747200  0.64994900  0.94703900  1
  Cr  Cr14  1  0.97747200  0.85005100  0.44703900  1
  Cr  Cr15  1  0.02307800  0.86881400  0.25104700  1
  P  P16  1  0.94881000  0.22826900  0.67684300  1
  P  P17  1  0.43606200  0.24058600  0.93447100  1
  P  P18  1  0.93606200  0.25941400  0.43447100  1
  P  P19  1  0.44881000  0.27173100  0.17684300  1
  P  P20  1  0.94881000  0.72826900  0.82315700  1
  P  P21  1  0.43606200  0.74058600  0.56552900  1
  P  P22  1  0.93606200  0.75941400  0.06552900  1
  P  P23  1  0.44881000  0.77173100  0.32315700  1
  O  O24  1  0.75689000  0.08668000  0.64470500  1
  O  O25  1  0.31864400  0.08222900  0.96378500  1
  O  O26  1  0.77385700  0.11303600  0.46917400  1
  O  O27  1  0.36694500  0.11217900  0.14255600  1
  O  O28  1  0.23985100  0.17551600  0.65749900  1
  O  O29  1  0.73948300  0.25699300  0.95651900  1
  O  O30  1  0.90483900  0.21603600  0.76891800  1
  O  O31  1  0.89743000  0.24113100  0.34271800  1
  O  O32  1  0.39743000  0.25886900  0.84271800  1
  O  O33  1  0.40483900  0.28396400  0.26891800  1
  O  O34  1  0.23948300  0.24300700  0.45651900  1
  O  O35  1  0.73985100  0.32448400  0.15749900  1
  O  O36  1  0.86694500  0.38782100  0.64255600  1
  O  O37  1  0.27385700  0.38696400  0.96917400  1
  O  O38  1  0.81864400  0.41777100  0.46378500  1
  O  O39  1  0.25689000  0.41332000  0.14470500  1
  O  O40  1  0.75689000  0.58668000  0.85529500  1
  O  O41  1  0.31864400  0.58222900  0.53621500  1
  O  O42  1  0.77385700  0.61303600  0.03082600  1
  O  O43  1  0.36694500  0.61217900  0.35744400  1
  O  O44  1  0.23985100  0.67551600  0.84250100  1
  O  O45  1  0.73948300  0.75699300  0.54348100  1
  O  O46  1  0.90483900  0.71603600  0.73108200  1
  O  O47  1  0.89743000  0.74113100  0.15728200  1
  O  O48  1  0.39743000  0.75886900  0.65728200  1
  O  O49  1  0.40483900  0.78396400  0.23108200  1
  O  O50  1  0.23948300  0.74300700  0.04348100  1
  O  O51  1  0.73985100  0.82448400  0.34250100  1
  O  O52  1  0.86694500  0.88782100  0.85744400  1
  O  O53  1  0.27385700  0.88696400  0.53082600  1
  O  O54  1  0.81864400  0.91777100  0.03621500  1
  O  O55  1  0.25689000  0.91332000  0.35529500  1
