# generated using pymatgen
data_Li5Ni2O2F5
_symmetry_space_group_name_H-M   'P 1'
_cell_length_a   2.92716893
_cell_length_b   14.60959648
_cell_length_c   5.85424383
_cell_angle_alpha   95.74249986
_cell_angle_beta   90.00087890
_cell_angle_gamma   84.25044456
_symmetry_Int_Tables_number   1
_chemical_formula_structural   Li5Ni2O2F5
_chemical_formula_sum   'Li10 Ni4 O4 F10'
_cell_volume   247.83312767
_cell_formula_units_Z   2
loop_
 _symmetry_equiv_pos_site_id
 _symmetry_equiv_pos_as_xyz
  1  'x, y, z'
loop_
 _atom_site_type_symbol
 _atom_site_label
 _atom_site_symmetry_multiplicity
 _atom_site_fract_x
 _atom_site_fract_y
 _atom_site_fract_z
 _atom_site_occupancy
  Li  Li0  1  0.71428400  0.57142900  0.64285800  1
  Li  Li1  1  0.71428400  0.57142900  0.14285800  1
  Li  Li2  1  0.85558700  0.28882200  0.57220400  1
  Li  Li3  1  0.85558700  0.28882200  0.07220600  1
  Li  Li4  1  0.57298400  0.85403700  0.71351000  1
  Li  Li5  1  0.57298400  0.85403800  0.21350800  1
  Li  Li6  1  0.28412600  0.43175200  0.35793700  1
  Li  Li7  1  0.28412700  0.43175200  0.85793600  1
  Li  Li8  1  0.14445200  0.71110600  0.42777400  1
  Li  Li9  1  0.14445300  0.71110500  0.92777400  1
  Ni  Ni10  1  0.99996400  0.00008300  0.49995100  1
  Ni  Ni11  1  0.42864000  0.14277300  0.78574700  1
  Ni  Ni12  1  0.99996600  0.00008500  0.99995100  1
  Ni  Ni13  1  0.42864100  0.14277100  0.28574600  1
  O  O14  1  0.50143800  0.99711600  0.74928800  1
  O  O15  1  0.50145000  0.99709900  0.24923000  1
  O  O16  1  0.92712300  0.14574300  0.53643200  1
  O  O17  1  0.92711100  0.14576000  0.03649000  1
  F  F18  1  0.21426900  0.57142500  0.39286500  1
  F  F19  1  0.21426900  0.57142500  0.89286500  1
  F  F20  1  0.35353000  0.29292800  0.32323600  1
  F  F21  1  0.35353200  0.29292500  0.82321200  1
  F  F22  1  0.07503000  0.84993400  0.46250800  1
  F  F23  1  0.07503200  0.84993200  0.96248300  1
  F  F24  1  0.78437700  0.43121100  0.60781200  1
  F  F25  1  0.78437700  0.43121100  0.10781000  1
  F  F26  1  0.64418900  0.71164500  0.67790500  1
  F  F27  1  0.64418900  0.71164600  0.17790700  1
