# generated using pymatgen
data_Li6MnV3(PO4)6
_symmetry_space_group_name_H-M   'P 1'
_cell_length_a   8.50629900
_cell_length_b   8.84884663
_cell_length_c   12.38912693
_cell_angle_alpha   89.99577998
_cell_angle_beta   87.74725008
_cell_angle_gamma   89.89581811
_symmetry_Int_Tables_number   1
_chemical_formula_structural   Li6MnV3(PO4)6
_chemical_formula_sum   'Li12 Mn2 V6 P12 O48'
_cell_volume   931.81891629
_cell_formula_units_Z   2
loop_
 _symmetry_equiv_pos_site_id
 _symmetry_equiv_pos_as_xyz
  1  'x, y, z'
loop_
 _atom_site_type_symbol
 _atom_site_label
 _atom_site_symmetry_multiplicity
 _atom_site_fract_x
 _atom_site_fract_y
 _atom_site_fract_z
 _atom_site_occupancy
  Li  Li0  1  0.99556200  0.99743400  0.00025300  1
  Li  Li1  1  0.00073600  0.09964200  0.75115400  1
  Li  Li2  1  0.99929700  0.99874600  0.49922000  1
  Li  Li3  1  0.99055400  0.89706000  0.24913000  1
  Li  Li4  1  0.71062500  0.80683800  0.95511800  1
  Li  Li5  1  0.70766100  0.19339800  0.45140600  1
  Li  Li6  1  0.49398200  0.50390700  0.00029300  1
  Li  Li7  1  0.50060700  0.40299700  0.74976000  1
  Li  Li8  1  0.49993900  0.50110400  0.49925600  1
  Li  Li9  1  0.49527300  0.60120600  0.24819300  1
  Li  Li10  1  0.29324100  0.80601800  0.54859800  1
  Li  Li11  1  0.29012100  0.19520300  0.05001200  1
  Mn  Mn12  1  0.71090300  0.00761000  0.14285800  1
  Mn  Mn13  1  0.21013700  0.49678500  0.14750900  1
  V  V14  1  0.78720300  0.49946200  0.85646700  1
  V  V15  1  0.78553800  0.50031200  0.35582400  1
  V  V16  1  0.71617500  0.99658700  0.64196600  1
  V  V17  1  0.28409400  0.99724500  0.85824900  1
  V  V18  1  0.28267800  0.00264600  0.35848400  1
  V  V19  1  0.21386800  0.50025600  0.64432500  1
  P  P20  1  0.99964000  0.79645700  0.75042100  1
  P  P21  1  0.99569200  0.19887100  0.24949300  1
  P  P22  1  0.84437200  0.35496500  0.60439000  1
  P  P23  1  0.84862400  0.64294000  0.10486100  1
  P  P24  1  0.65133200  0.14694600  0.89522000  1
  P  P25  1  0.65068600  0.85225500  0.39760500  1
  P  P26  1  0.50099700  0.70753500  0.75014100  1
  P  P27  1  0.49533400  0.29571700  0.25196900  1
  P  P28  1  0.35052700  0.14711300  0.60299900  1
  P  P29  1  0.35515000  0.85495500  0.10322600  1
  P  P30  1  0.15700500  0.35515900  0.89430900  1
  P  P31  1  0.15613200  0.64552500  0.39639600  1
  O  O32  1  0.98926100  0.41452100  0.89520700  1
  O  O33  1  0.98890100  0.58716700  0.39358500  1
  O  O34  1  0.93246600  0.90632000  0.66469900  1
  O  O35  1  0.92188600  0.08940700  0.16422800  1
  O  O36  1  0.87313300  0.70227200  0.81109000  1
  O  O37  1  0.87184400  0.29605800  0.31030700  1
  O  O38  1  0.85508100  0.17858300  0.58987500  1
  O  O39  1  0.86227100  0.81814400  0.09095100  1
  O  O40  1  0.75047400  0.40409100  0.70748600  1
  O  O41  1  0.75124500  0.05993300  0.97753700  1
  O  O42  1  0.74701500  0.40861700  0.50706000  1
  O  O43  1  0.75545100  0.59437200  0.20854100  1
  O  O44  1  0.74700600  0.93686500  0.48372500  1
  O  O45  1  0.72518600  0.09778500  0.78452700  1
  O  O46  1  0.75075600  0.58855800  0.00887800  1
  O  O47  1  0.72907000  0.90170100  0.28927600  1
  O  O48  1  0.65559400  0.32157000  0.90940900  1
  O  O49  1  0.65366500  0.67751300  0.41204900  1
  O  O50  1  0.61909800  0.80520300  0.68727500  1
  O  O51  1  0.61373700  0.20414400  0.18397100  1
  O  O52  1  0.57196800  0.60076300  0.83674300  1
  O  O53  1  0.56680600  0.40439200  0.33612900  1
  O  O54  1  0.52625800  0.10652700  0.59054100  1
  O  O55  1  0.53299700  0.89802800  0.09115400  1
  O  O56  1  0.47451000  0.10812800  0.90740600  1
  O  O57  1  0.47382500  0.89341000  0.40872500  1
  O  O58  1  0.42992500  0.60007100  0.66453800  1
  O  O59  1  0.41925600  0.40308100  0.16557200  1
  O  O60  1  0.38112900  0.80567500  0.81275000  1
  O  O61  1  0.37943600  0.19619300  0.31540900  1
  O  O62  1  0.34658000  0.32159200  0.58956300  1
  O  O63  1  0.35677600  0.68182000  0.08952400  1
  O  O64  1  0.27472600  0.09558800  0.71265000  1
  O  O65  1  0.25815200  0.40689000  0.98965800  1
  O  O66  1  0.27939300  0.90611800  0.21267400  1
  O  O67  1  0.25157700  0.06271200  0.51813800  1
  O  O68  1  0.24849300  0.40327800  0.78985900  1
  O  O69  1  0.25228400  0.59099700  0.49373400  1
  O  O70  1  0.25683500  0.94106000  0.01868800  1
  O  O71  1  0.25359200  0.60084000  0.29360100  1
  O  O72  1  0.14257800  0.17875000  0.90696800  1
  O  O73  1  0.14443800  0.82173900  0.41168200  1
  O  O74  1  0.12684700  0.70250500  0.68991800  1
  O  O75  1  0.12331300  0.28482600  0.18465100  1
  O  O76  1  0.06748800  0.90592000  0.83662100  1
  O  O77  1  0.06277000  0.08811300  0.33509500  1
  O  O78  1  0.01261300  0.41182200  0.60480500  1
  O  O79  1  0.01861500  0.58344300  0.10442700  1
