# generated using pymatgen
data_LiMnP2(HO4)2
_symmetry_space_group_name_H-M   'P 1'
_cell_length_a   8.74056700
_cell_length_b   5.22199800
_cell_length_c   14.38386783
_cell_angle_alpha   81.20043149
_cell_angle_beta   90.00000000
_cell_angle_gamma   90.00000000
_symmetry_Int_Tables_number   1
_chemical_formula_structural   LiMnP2(HO4)2
_chemical_formula_sum   'Li4 Mn4 P8 H8 O32'
_cell_volume   648.79847444
_cell_formula_units_Z   4
loop_
 _symmetry_equiv_pos_site_id
 _symmetry_equiv_pos_as_xyz
  1  'x, y, z'
loop_
 _atom_site_type_symbol
 _atom_site_label
 _atom_site_symmetry_multiplicity
 _atom_site_fract_x
 _atom_site_fract_y
 _atom_site_fract_z
 _atom_site_occupancy
  Li  Li0  1  0.49530900  0.62457700  0.66933100  1
  Li  Li1  1  0.00469100  0.62457700  0.16933100  1
  Li  Li2  1  0.99530900  0.37542300  0.83066900  1
  Li  Li3  1  0.50469100  0.37542300  0.33066900  1
  Mn  Mn4  1  0.96401900  0.73276000  0.64853500  1
  Mn  Mn5  1  0.53598100  0.73276000  0.14853500  1
  Mn  Mn6  1  0.46401900  0.26724000  0.85146500  1
  Mn  Mn7  1  0.03598100  0.26724000  0.35146500  1
  P  P8  1  0.23624300  0.78023400  0.80829700  1
  P  P9  1  0.66153100  0.73420200  0.94416100  1
  P  P10  1  0.26375700  0.78023400  0.30829700  1
  P  P11  1  0.83846900  0.73420200  0.44416100  1
  P  P12  1  0.16153100  0.26579800  0.55583900  1
  P  P13  1  0.73624300  0.21976600  0.69170300  1
  P  P14  1  0.33846900  0.26579800  0.05583900  1
  P  P15  1  0.76375700  0.21976600  0.19170300  1
  H  H16  1  0.81279500  0.85558800  0.82887500  1
  H  H17  1  0.27812400  0.71259600  0.96384300  1
  H  H18  1  0.68720500  0.85558800  0.32887500  1
  H  H19  1  0.22187600  0.71259600  0.46384300  1
  H  H20  1  0.77812400  0.28740400  0.53615700  1
  H  H21  1  0.31279500  0.14441200  0.67112500  1
  H  H22  1  0.72187600  0.28740400  0.03615700  1
  H  H23  1  0.18720500  0.14441200  0.17112500  1
  O  O24  1  0.77242900  0.93409200  0.72505200  1
  O  O25  1  0.53998100  0.91852600  0.89463500  1
  O  O26  1  0.72757100  0.93409200  0.22505200  1
  O  O27  1  0.96001900  0.91852600  0.39463500  1
  O  O28  1  0.82553700  0.80931700  0.90050600  1
  O  O29  1  0.19419600  0.73403600  0.91599500  1
  O  O30  1  0.08567300  0.69131000  0.76511700  1
  O  O31  1  0.67446300  0.80931700  0.40050600  1
  O  O32  1  0.81722100  0.76215900  0.54909000  1
  O  O33  1  0.30580400  0.73403600  0.41599500  1
  O  O34  1  0.41432700  0.69131000  0.26511700  1
  O  O35  1  0.68277900  0.76215900  0.04909000  1
  O  O36  1  0.36919200  0.60369000  0.78400600  1
  O  O37  1  0.12685900  0.54847600  0.56706200  1
  O  O38  1  0.13080800  0.60369000  0.28400600  1
  O  O39  1  0.62685900  0.45152400  0.93293800  1
  O  O40  1  0.37314100  0.54847600  0.06706200  1
  O  O41  1  0.86919200  0.39631000  0.71599400  1
  O  O42  1  0.87314100  0.45152400  0.43293800  1
  O  O43  1  0.63080800  0.39631000  0.21599400  1
  O  O44  1  0.31722100  0.23784100  0.95091000  1
  O  O45  1  0.58567300  0.30869000  0.73488300  1
  O  O46  1  0.69419600  0.26596400  0.58400500  1
  O  O47  1  0.18277900  0.23784100  0.45091000  1
  O  O48  1  0.32553700  0.19068300  0.59949400  1
  O  O49  1  0.91432700  0.30869000  0.23488300  1
  O  O50  1  0.80580400  0.26596400  0.08400500  1
  O  O51  1  0.17446300  0.19068300  0.09949400  1
  O  O52  1  0.03998100  0.08147400  0.60536500  1
  O  O53  1  0.27242900  0.06590800  0.77494800  1
  O  O54  1  0.46001900  0.08147400  0.10536500  1
  O  O55  1  0.22757100  0.06590800  0.27494800  1
