# generated using pymatgen
data_Li2B5SbO10
_symmetry_space_group_name_H-M   'P 1'
_cell_length_a   16.31032000
_cell_length_b   6.95551200
_cell_length_c   7.10775267
_cell_angle_alpha   84.41304939
_cell_angle_beta   90.00000000
_cell_angle_gamma   90.00000000
_symmetry_Int_Tables_number   1
_chemical_formula_structural   Li2B5SbO10
_chemical_formula_sum   'Li8 B20 Sb4 O40'
_cell_volume   802.52007439
_cell_formula_units_Z   4
loop_
 _symmetry_equiv_pos_site_id
 _symmetry_equiv_pos_as_xyz
  1  'x, y, z'
loop_
 _atom_site_type_symbol
 _atom_site_label
 _atom_site_symmetry_multiplicity
 _atom_site_fract_x
 _atom_site_fract_y
 _atom_site_fract_z
 _atom_site_occupancy
  Li  Li0  1  0.84305700  0.96804900  0.10594200  1
  Li  Li1  1  0.65694300  0.46804900  0.10594200  1
  Li  Li2  1  0.09124000  0.41565800  0.32365200  1
  Li  Li3  1  0.40876000  0.91565800  0.32365200  1
  Li  Li4  1  0.59124000  0.08434200  0.67634800  1
  Li  Li5  1  0.90876000  0.58434200  0.67634800  1
  Li  Li6  1  0.34305700  0.53195100  0.89405800  1
  Li  Li7  1  0.15694300  0.03195100  0.89405800  1
  B  B8  1  0.97492000  0.10362400  0.19770300  1
  B  B9  1  0.52508000  0.60362400  0.19770300  1
  B  B10  1  0.23603700  0.52323500  0.22510100  1
  B  B11  1  0.26396300  0.02323500  0.22510100  1
  B  B12  1  0.48328100  0.26381400  0.25992600  1
  B  B13  1  0.01671900  0.76381400  0.25992600  1
  B  B14  1  0.38446700  0.52498800  0.31721100  1
  B  B15  1  0.11553300  0.02498800  0.31721100  1
  B  B16  1  0.72701800  0.42479400  0.45287000  1
  B  B17  1  0.77298200  0.92479400  0.45287000  1
  B  B18  1  0.22701800  0.07520600  0.54713000  1
  B  B19  1  0.27298200  0.57520600  0.54713000  1
  B  B20  1  0.88446700  0.97501200  0.68278900  1
  B  B21  1  0.61553300  0.47501200  0.68278900  1
  B  B22  1  0.98328100  0.23618600  0.74007400  1
  B  B23  1  0.51671900  0.73618600  0.74007400  1
  B  B24  1  0.73603700  0.97676500  0.77489900  1
  B  B25  1  0.76396300  0.47676500  0.77489900  1
  B  B26  1  0.47492000  0.39637600  0.80229700  1
  B  B27  1  0.02508000  0.89637600  0.80229700  1
  Sb  Sb28  1  0.86698600  0.49066800  0.16835200  1
  Sb  Sb29  1  0.63301400  0.99066800  0.16835200  1
  Sb  Sb30  1  0.36698600  0.00933200  0.83164800  1
  Sb  Sb31  1  0.13301400  0.50933200  0.83164800  1
  O  O32  1  0.17032700  0.51192300  0.10809000  1
  O  O33  1  0.32967300  0.01192300  0.10809000  1
  O  O34  1  0.90596000  0.21618700  0.15613800  1
  O  O35  1  0.59404000  0.71618700  0.15613800  1
  O  O36  1  0.18369000  0.03849300  0.16838900  1
  O  O37  1  0.53863200  0.40729500  0.17569000  1
  O  O38  1  0.31631000  0.53849300  0.16838900  1
  O  O39  1  0.96136800  0.90729500  0.17569000  1
  O  O40  1  0.50029700  0.07418500  0.25499600  1
  O  O41  1  0.99970300  0.57418500  0.25499600  1
  O  O42  1  0.75032200  0.38207100  0.27539600  1
  O  O43  1  0.04957700  0.16557400  0.25146500  1
  O  O44  1  0.74967800  0.88207100  0.27539600  1
  O  O45  1  0.45042300  0.66557400  0.25146500  1
  O  O46  1  0.41454600  0.32853200  0.34513700  1
  O  O47  1  0.08545400  0.82853200  0.34513700  1
  O  O48  1  0.21479100  0.51462700  0.41871100  1
  O  O49  1  0.28520900  0.01462700  0.41871100  1
  O  O50  1  0.64723000  0.40710900  0.50764000  1
  O  O51  1  0.14723000  0.09289100  0.49236000  1
  O  O52  1  0.85277000  0.90710900  0.50764000  1
  O  O53  1  0.35277000  0.59289100  0.49236000  1
  O  O54  1  0.71479100  0.98537300  0.58128900  1
  O  O55  1  0.78520900  0.48537300  0.58128900  1
  O  O56  1  0.91454600  0.17146800  0.65486300  1
  O  O57  1  0.58545400  0.67146800  0.65486300  1
  O  O58  1  0.54957700  0.33442600  0.74853500  1
  O  O59  1  0.25032200  0.11792900  0.72460400  1
  O  O60  1  0.95042300  0.83442600  0.74853500  1
  O  O61  1  0.24967800  0.61792900  0.72460400  1
  O  O62  1  0.00029700  0.42581500  0.74500400  1
  O  O63  1  0.49970300  0.92581500  0.74500400  1
  O  O64  1  0.03863200  0.09270500  0.82431000  1
  O  O65  1  0.68369000  0.46150700  0.83161100  1
  O  O66  1  0.46136800  0.59270500  0.82431000  1
  O  O67  1  0.81631000  0.96150700  0.83161100  1
  O  O68  1  0.40596000  0.28381300  0.84386200  1
  O  O69  1  0.09404000  0.78381300  0.84386200  1
  O  O70  1  0.67032700  0.98807700  0.89191000  1
  O  O71  1  0.82967300  0.48807700  0.89191000  1
