# generated using pymatgen
data_LiCoPO4
_symmetry_space_group_name_H-M   'P 1'
_cell_length_a   4.72232400
_cell_length_b   10.33990700
_cell_length_c   6.23001801
_cell_angle_alpha   90.00310943
_cell_angle_beta   89.99598948
_cell_angle_gamma   89.99903819
_symmetry_Int_Tables_number   1
_chemical_formula_structural   LiCoPO4
_chemical_formula_sum   'Li4 Co4 P4 O16'
_cell_volume   304.20175412
_cell_formula_units_Z   4
loop_
 _symmetry_equiv_pos_site_id
 _symmetry_equiv_pos_as_xyz
  1  'x, y, z'
loop_
 _atom_site_type_symbol
 _atom_site_label
 _atom_site_symmetry_multiplicity
 _atom_site_fract_x
 _atom_site_fract_y
 _atom_site_fract_z
 _atom_site_occupancy
  Li  Li0  1  0.49441100  0.21499700  0.74998300  1
  Li  Li1  1  0.99440800  0.28502900  0.24998700  1
  Li  Li2  1  0.00559100  0.71497100  0.75001200  1
  Li  Li3  1  0.50558800  0.78500300  0.25001600  1
  Co  Co4  1  0.00000000  0.00000000  0.50000000  1
  Co  Co5  1  0.50000000  0.50000000  0.00000000  1
  Co  Co6  1  0.00000000  0.00000000  0.00000000  1
  Co  Co7  1  0.50000000  0.50000000  0.50000000  1
  P  P8  1  0.41716900  0.09323500  0.25013800  1
  P  P9  1  0.91717400  0.40677600  0.75013200  1
  P  P10  1  0.08282600  0.59322400  0.24986800  1
  P  P11  1  0.58283100  0.90676500  0.74986200  1
  O  O12  1  0.72194200  0.04749600  0.74987800  1
  O  O13  1  0.22193800  0.45249000  0.24985600  1
  O  O14  1  0.77806200  0.54751000  0.75014400  1
  O  O15  1  0.27805900  0.95250400  0.25012200  1
  O  O16  1  0.74700100  0.08567300  0.25006900  1
  O  O17  1  0.24701000  0.41433300  0.75008600  1
  O  O18  1  0.75298900  0.58566700  0.24991400  1
  O  O19  1  0.25300000  0.91432700  0.74993100  1
  O  O20  1  0.29690500  0.15782700  0.04526000  1
  O  O21  1  0.29652900  0.15788500  0.45501400  1
  O  O22  1  0.79692600  0.34219000  0.54525700  1
  O  O23  1  0.79652000  0.34212100  0.95500800  1
  O  O24  1  0.20348000  0.65787900  0.04499200  1
  O  O25  1  0.20307400  0.65781000  0.45474300  1
  O  O26  1  0.70347100  0.84211400  0.54498600  1
  O  O27  1  0.70309500  0.84217300  0.95474000  1
