# generated using pymatgen
data_Li3V3P8O29
_symmetry_space_group_name_H-M   'P 1'
_cell_length_a   9.75641000
_cell_length_b   9.77127110
_cell_length_c   14.23165197
_cell_angle_alpha   90.31589400
_cell_angle_beta   89.97658513
_cell_angle_gamma   119.86465860
_symmetry_Int_Tables_number   1
_chemical_formula_structural   Li3V3P8O29
_chemical_formula_sum   'Li6 V6 P16 O58'
_cell_volume   1176.54772028
_cell_formula_units_Z   2
loop_
 _symmetry_equiv_pos_site_id
 _symmetry_equiv_pos_as_xyz
  1  'x, y, z'
loop_
 _atom_site_type_symbol
 _atom_site_label
 _atom_site_symmetry_multiplicity
 _atom_site_fract_x
 _atom_site_fract_y
 _atom_site_fract_z
 _atom_site_occupancy
  Li  Li0  1  0.30755300  0.08379400  0.94408200  1
  Li  Li1  1  0.91439500  0.22245700  0.94379000  1
  Li  Li2  1  0.77686900  0.69256400  0.94212700  1
  Li  Li3  1  0.90289000  0.67222100  0.44081600  1
  Li  Li4  1  0.33780100  0.66689800  0.39400300  1
  Li  Li5  1  0.02017800  0.05090300  0.49345800  1
  V  V6  1  0.00098100  0.43472000  0.74692100  1
  V  V7  1  0.99920700  0.56904300  0.24619000  1
  V  V8  1  0.43098900  0.42523400  0.25024600  1
  V  V9  1  0.56063500  0.56273100  0.74636400  1
  V  V10  1  0.43767800  0.99942600  0.74430200  1
  V  V11  1  0.57223500  0.00414000  0.25308800  1
  P  P12  1  0.31423300  0.08131300  0.15927800  1
  P  P13  1  0.30543300  0.22197800  0.65658000  1
  P  P14  1  0.77855100  0.08218100  0.65596600  1
  P  P15  1  0.66700300  0.33326500  0.86752200  1
  P  P16  1  0.66953600  0.33726800  0.37082500  1
  P  P17  1  0.91344500  0.22881200  0.15944800  1
  P  P18  1  0.08870400  0.31125100  0.34072000  1
  P  P19  1  0.76591800  0.68283300  0.15681200  1
  P  P20  1  0.22834400  0.31436400  0.84103100  1
  P  P21  1  0.91160800  0.68454800  0.65721900  1
  P  P22  1  0.08864700  0.77306100  0.83778400  1
  P  P23  1  0.33177100  0.66534100  0.63071200  1
  P  P24  1  0.33726000  0.66736900  0.13264600  1
  P  P25  1  0.22035600  0.91186200  0.34227500  1
  P  P26  1  0.68947000  0.77705800  0.33915500  1
  P  P27  1  0.68513500  0.91341700  0.84003900  1
  O  O28  1  0.19889200  0.99362000  0.42369100  1
  O  O29  1  0.34658400  0.08823300  0.67022900  1
  O  O30  1  0.23929800  0.23253500  0.92545400  1
  O  O31  1  0.33907000  0.25155400  0.17027400  1
  O  O32  1  0.47456000  0.09181500  0.18335700  1
  O  O33  1  0.52010700  0.18231000  0.82450300  1
  O  O34  1  0.61796900  0.08193900  0.67021800  1
  O  O35  1  0.76779500  0.00592500  0.92497700  1
  O  O36  1  0.74385000  0.08509000  0.17062600  1
  O  O37  1  0.52269300  0.33847900  0.32463500  1
  O  O38  1  0.46434500  0.38238600  0.67134300  1
  O  O39  1  0.66557900  0.18672300  0.32719500  1
  O  O40  1  0.66730200  0.33497800  0.97199300  1
  O  O41  1  0.66995400  0.34407200  0.47479500  1
  O  O42  1  0.81880600  0.33574700  0.82655200  1
  O  O43  1  0.61716400  0.52360900  0.18011000  1
  O  O44  1  0.66262700  0.48011600  0.82458500  1
  O  O45  1  0.91282500  0.25666900  0.67131500  1
  O  O46  1  0.01152600  0.21287300  0.24405200  1
  O  O47  1  0.00729300  0.21205900  0.42258900  1
  O  O48  1  0.98749800  0.23994500  0.06719700  1
  O  O49  1  0.90328800  0.38024600  0.18268500  1
  O  O50  1  0.81925200  0.48676500  0.32965500  1
  O  O51  1  0.08416800  0.34120500  0.83965800  1
  O  O52  1  0.90814500  0.52483400  0.67519500  1
  O  O53  1  0.74127200  0.65504900  0.67184300  1
  O  O54  1  0.20265600  0.20816900  0.74821300  1
  O  O55  1  0.21606400  0.20703500  0.57022600  1
  O  O56  1  0.79442200  0.78708400  0.41770100  1
  O  O57  1  0.26432100  0.34873000  0.33362400  1
  O  O58  1  0.09650200  0.47355100  0.33203100  1
  O  O59  1  0.91195200  0.65805000  0.16972400  1
  O  O60  1  0.18463800  0.51656700  0.67336900  1
  O  O61  1  0.09505300  0.61877100  0.82014200  1
  O  O62  1  0.99214500  0.76389500  0.92032300  1
  O  O63  1  0.97914100  0.75438300  0.56483800  1
  O  O64  1  0.01236600  0.79860200  0.74190900  1
  O  O65  1  0.08068500  0.73505200  0.33794900  1
  O  O66  1  0.34265000  0.52411900  0.17813700  1
  O  O67  1  0.38106900  0.47525500  0.82141700  1
  O  O68  1  0.18273600  0.65833400  0.17898900  1
  O  O69  1  0.33349200  0.66835800  0.02896400  1
  O  O70  1  0.33064800  0.66479300  0.52630000  1
  O  O71  1  0.33033100  0.81346200  0.67329400  1
  O  O72  1  0.52554100  0.62453700  0.33262600  1
  O  O73  1  0.48137900  0.66765400  0.67374600  1
  O  O74  1  0.25859100  0.91692800  0.83789300  1
  O  O75  1  0.19913700  0.98346600  0.24369700  1
  O  O76  1  0.24962700  0.00817800  0.06679700  1
  O  O77  1  0.37521000  0.90276400  0.33380800  1
  O  O78  1  0.47717200  0.81818600  0.18039600  1
  O  O79  1  0.52498600  0.90720600  0.81994200  1
  O  O80  1  0.65706000  0.74217600  0.83855900  1
  O  O81  1  0.76054200  0.74841000  0.06463500  1
  O  O82  1  0.78282200  0.79970900  0.24065800  1
  O  O83  1  0.65563700  0.91737500  0.33764100  1
  O  O84  1  0.79549900  0.01003800  0.56890500  1
  O  O85  1  0.79162200  0.99336700  0.74767900  1
