# generated using pymatgen
data_Li3Fe2(PO4)3
_symmetry_space_group_name_H-M   'P 1'
_cell_length_a   9.05010383
_cell_length_b   8.41317454
_cell_length_c   8.41728415
_cell_angle_alpha   59.80761329
_cell_angle_beta   117.69662449
_cell_angle_gamma   117.68348244
_symmetry_Int_Tables_number   1
_chemical_formula_structural   Li3Fe2(PO4)3
_chemical_formula_sum   'Li6 Fe4 P6 O24'
_cell_volume   467.63482105
_cell_formula_units_Z   2
loop_
 _symmetry_equiv_pos_site_id
 _symmetry_equiv_pos_as_xyz
  1  'x, y, z'
loop_
 _atom_site_type_symbol
 _atom_site_label
 _atom_site_symmetry_multiplicity
 _atom_site_fract_x
 _atom_site_fract_y
 _atom_site_fract_z
 _atom_site_occupancy
  Li  Li0  1  0.85173379  0.66164196  0.91880758  1
  Li  Li1  1  0.85805393  0.26486812  0.67080186  1
  Li  Li2  1  0.61983817  0.80770165  0.25470281  1
  Li  Li3  1  0.13551927  0.07674205  0.73284844  1
  Li  Li4  1  0.13549559  0.73766336  0.32866529  1
  Li  Li5  1  0.13683362  0.32612478  0.07758080  1
  Fe  Fe6  1  0.95323903  0.65440034  0.64266365  1
  Fe  Fe7  1  0.55879808  0.85623693  0.84955429  1
  Fe  Fe8  1  0.43890651  0.14938589  0.14274199  1
  Fe  Fe9  1  0.04385088  0.34673500  0.34684345  1
  P  P10  1  0.75559044  0.25016676  0.96070882  1
  P  P11  1  0.74639786  0.95350338  0.54174311  1
  P  P12  1  0.74854562  0.54246397  0.24916001  1
  P  P13  1  0.24679146  0.45871902  0.74716319  1
  P  P14  1  0.25100933  0.04160720  0.46217936  1
  P  P15  1  0.24218764  0.75126811  0.03984865  1
  O  O16  1  0.80420667  0.46640712  0.82651807  1
  O  O17  1  0.73918385  0.12222662  0.86655239  1
  O  O18  1  0.58625553  0.19043993  0.00235357  1
  O  O19  1  0.89844377  0.15008181  0.53840537  1
  O  O20  1  0.72912756  0.85811918  0.74750510  1
  O  O21  1  0.79694510  0.82269793  0.50744754  1
  O  O22  1  0.80420098  0.50415804  0.46668148  1
  O  O23  1  0.90507629  0.55298825  0.20450985  1
  O  O24  1  0.91076285  0.22200410  0.15307587  1
  O  O25  1  0.41358491  0.61410462  0.80178899  1
  O  O26  1  0.26852958  0.25413200  0.87314024  1
  O  O27  1  0.42538316  0.01493489  0.61502427  1
  O  O28  1  0.57567604  0.98212114  0.38297045  1
  O  O29  1  0.71325612  0.74000054  0.12863066  1
  O  O30  1  0.58634751  0.38134123  0.20003636  1
  O  O31  1  0.09233349  0.79149356  0.84241262  1
  O  O32  1  0.09168610  0.45519648  0.78952200  1
  O  O33  1  0.19012310  0.49255871  0.53077070  1
  O  O34  1  0.19055205  0.16477672  0.49574151  1
  O  O35  1  0.26883138  0.13982908  0.25650698  1
  O  O36  1  0.10999770  0.83848987  0.47695378  1
  O  O37  1  0.41826741  0.80509356  0.01240826  1
  O  O38  1  0.25906664  0.87752859  0.13551524  1
  O  O39  1  0.19145102  0.53485052  0.16700036  1
