# generated using pymatgen
data_LiVF5
_symmetry_space_group_name_H-M   'P 1'
_cell_length_a   6.24420100
_cell_length_b   6.38413300
_cell_length_c   9.04962300
_cell_angle_alpha   90.00000000
_cell_angle_beta   90.00000000
_cell_angle_gamma   90.00000000
_symmetry_Int_Tables_number   1
_chemical_formula_structural   LiVF5
_chemical_formula_sum   'Li4 V4 F20'
_cell_volume   360.75244879
_cell_formula_units_Z   4
loop_
 _symmetry_equiv_pos_site_id
 _symmetry_equiv_pos_as_xyz
  1  'x, y, z'
loop_
 _atom_site_type_symbol
 _atom_site_label
 _atom_site_symmetry_multiplicity
 _atom_site_fract_x
 _atom_site_fract_y
 _atom_site_fract_z
 _atom_site_occupancy
  Li  Li0  1  0.54350900  0.77899900  0.14821300  1
  Li  Li1  1  0.04350900  0.27899900  0.35178700  1
  Li  Li2  1  0.95649100  0.77899900  0.64821300  1
  Li  Li3  1  0.45649100  0.27899900  0.85178700  1
  V  V4  1  0.07896100  0.00027600  0.00556600  1
  V  V5  1  0.57896100  0.50027600  0.49443400  1
  V  V6  1  0.42103900  0.00027600  0.50556600  1
  V  V7  1  0.92103900  0.50027600  0.99443400  1
  F  F8  1  0.37298400  0.00053000  0.00843100  1
  F  F9  1  0.82875200  0.19208700  0.00358200  1
  F  F10  1  0.82709300  0.80734300  0.04298400  1
  F  F11  1  0.98637300  0.47338800  0.19425300  1
  F  F12  1  0.06575100  0.04117800  0.20948500  1
  F  F13  1  0.56575100  0.54117800  0.29051500  1
  F  F14  1  0.48637300  0.97338800  0.30574700  1
  F  F15  1  0.32709300  0.30734300  0.45701600  1
  F  F16  1  0.32875200  0.69208700  0.49641800  1
  F  F17  1  0.87298400  0.50053000  0.49156900  1
  F  F18  1  0.12701600  0.00053000  0.50843100  1
  F  F19  1  0.67124800  0.19208700  0.50358200  1
  F  F20  1  0.67290700  0.80734300  0.54298400  1
  F  F21  1  0.51362700  0.47338800  0.69425300  1
  F  F22  1  0.43424900  0.04117800  0.70948500  1
  F  F23  1  0.93424900  0.54117800  0.79051500  1
  F  F24  1  0.01362700  0.97338800  0.80574700  1
  F  F25  1  0.17290700  0.30734300  0.95701600  1
  F  F26  1  0.17124800  0.69208700  0.99641800  1
  F  F27  1  0.62701600  0.50053000  0.99156900  1
