# generated using pymatgen
data_Na3Li3Fe2P2(CO7)2
_symmetry_space_group_name_H-M   'P 1'
_cell_length_a   6.63083600
_cell_length_b   8.75212652
_cell_length_c   10.20111287
_cell_angle_alpha   91.59660503
_cell_angle_beta   90.47454807
_cell_angle_gamma   90.60723180
_symmetry_Int_Tables_number   1
_chemical_formula_structural   Na3Li3Fe2P2(CO7)2
_chemical_formula_sum   'Na6 Li6 Fe4 P4 C4 O28'
_cell_volume   591.72566265
_cell_formula_units_Z   2
loop_
 _symmetry_equiv_pos_site_id
 _symmetry_equiv_pos_as_xyz
  1  'x, y, z'
loop_
 _atom_site_type_symbol
 _atom_site_label
 _atom_site_symmetry_multiplicity
 _atom_site_fract_x
 _atom_site_fract_y
 _atom_site_fract_z
 _atom_site_occupancy
  Na  Na0  1  0.25210800  0.91574600  0.87869400  1
  Na  Na1  1  0.24171500  0.91586100  0.37873500  1
  Na  Na2  1  0.99503200  0.74487800  0.62491600  1
  Na  Na3  1  0.50219700  0.74337800  0.12755500  1
  Na  Na4  1  0.50152500  0.25497100  0.87473200  1
  Na  Na5  1  0.50079600  0.25612800  0.37604600  1
  Li  Li6  1  0.47141700  0.71883400  0.61067500  1
  Li  Li7  1  0.02719400  0.72038700  0.10939800  1
  Li  Li8  1  0.97937300  0.27470800  0.88403800  1
  Li  Li9  1  0.97819100  0.27612800  0.38762800  1
  Li  Li10  1  0.75682200  0.09724600  0.62593800  1
  Li  Li11  1  0.77991100  0.09242900  0.12700200  1
  Fe  Fe12  1  0.75140300  0.64629600  0.88968400  1
  Fe  Fe13  1  0.74710100  0.64618800  0.38929600  1
  Fe  Fe14  1  0.24247200  0.34889200  0.60996600  1
  Fe  Fe15  1  0.24628000  0.34869700  0.10808100  1
  P  P16  1  0.24917300  0.58345600  0.85270800  1
  P  P17  1  0.23758100  0.58386300  0.35327700  1
  P  P18  1  0.74600500  0.40926400  0.64770900  1
  P  P19  1  0.75898600  0.41093700  0.14706300  1
  C  C20  1  0.75896000  0.95697600  0.86487300  1
  C  C21  1  0.76123300  0.95763000  0.36526100  1
  C  C22  1  0.25781400  0.05070700  0.63520200  1
  C  C23  1  0.23861600  0.05041700  0.13549500  1
  O  O24  1  0.28201700  0.90456700  0.64184400  1
  O  O25  1  0.22110700  0.90310700  0.14139300  1
  O  O26  1  0.74763900  0.92556300  0.98853600  1
  O  O27  1  0.75882000  0.92482400  0.48877800  1
  O  O28  1  0.75054300  0.84588200  0.77640200  1
  O  O29  1  0.74563200  0.84751000  0.27621200  1
  O  O30  1  0.06755900  0.68537400  0.89452000  1
  O  O31  1  0.43961300  0.67079100  0.90511400  1
  O  O32  1  0.05804600  0.68283900  0.40110600  1
  O  O33  1  0.43089200  0.67437800  0.40016700  1
  O  O34  1  0.25997400  0.56860900  0.69922000  1
  O  O35  1  0.72414600  0.56969700  0.58818000  1
  O  O36  1  0.23269600  0.57008200  0.19989700  1
  O  O37  1  0.77250600  0.57203700  0.08744500  1
  O  O38  1  0.22977200  0.42177800  0.90853300  1
  O  O39  1  0.77605500  0.42834000  0.79921000  1
  O  O40  1  0.23151500  0.42219800  0.41023800  1
  O  O41  1  0.77812800  0.42825600  0.29959100  1
  O  O42  1  0.55805400  0.30563200  0.61752300  1
  O  O43  1  0.92502900  0.31654600  0.58831200  1
  O  O44  1  0.55937000  0.32481300  0.11090500  1
  O  O45  1  0.92898300  0.30435500  0.09321400  1
  O  O46  1  0.23865600  0.13629000  0.74064600  1
  O  O47  1  0.24297300  0.13647800  0.24123800  1
  O  O48  1  0.25024000  0.11651700  0.52202500  1
  O  O49  1  0.25219300  0.11585100  0.02240900  1
  O  O50  1  0.77772500  0.09633900  0.82618300  1
  O  O51  1  0.77821500  0.09733000  0.32718600  1
