# generated using pymatgen
data_Li3V2(O2F)2
_symmetry_space_group_name_H-M   'P 1'
_cell_length_a   5.93486300
_cell_length_b   7.37887351
_cell_length_c   7.89195896
_cell_angle_alpha   90.89758076
_cell_angle_beta   100.37796259
_cell_angle_gamma   90.37673727
_symmetry_Int_Tables_number   1
_chemical_formula_structural   Li3V2(O2F)2
_chemical_formula_sum   'Li9 V6 O12 F6'
_cell_volume   339.89831494
_cell_formula_units_Z   3
loop_
 _symmetry_equiv_pos_site_id
 _symmetry_equiv_pos_as_xyz
  1  'x, y, z'
loop_
 _atom_site_type_symbol
 _atom_site_label
 _atom_site_symmetry_multiplicity
 _atom_site_fract_x
 _atom_site_fract_y
 _atom_site_fract_z
 _atom_site_occupancy
  Li  Li0  1  0.08552100  0.64165400  0.42682100  1
  Li  Li1  1  0.04858200  0.35817800  0.19872800  1
  Li  Li2  1  0.44836500  0.63138100  0.79065600  1
  Li  Li3  1  0.27685000  0.62910900  0.10293900  1
  Li  Li4  1  0.38913400  0.37411300  0.55250700  1
  Li  Li5  1  0.57326200  0.40037900  0.22428400  1
  Li  Li6  1  0.72257400  0.36614900  0.90784700  1
  Li  Li7  1  0.95040000  0.62996900  0.78785000  1
  Li  Li8  1  0.88973700  0.35623100  0.56349700  1
  V  V9  1  0.99133600  0.00004900  0.99733100  1
  V  V10  1  0.16644100  0.00533700  0.67213900  1
  V  V11  1  0.49345300  0.00547100  0.99754900  1
  V  V12  1  0.34210600  0.00261000  0.33715400  1
  V  V13  1  0.66512800  0.99058900  0.66140400  1
  V  V14  1  0.83474700  0.98985000  0.32832000  1
  O  O15  1  0.11902000  0.13934600  0.46226000  1
  O  O16  1  0.21025500  0.85254500  0.87262500  1
  O  O17  1  0.04859800  0.85597600  0.23437000  1
  O  O18  1  0.26864100  0.13741200  0.11710300  1
  O  O19  1  0.44867900  0.14186900  0.77243100  1
  O  O20  1  0.39324200  0.86043600  0.56321500  1
  O  O21  1  0.63733600  0.14242300  0.44787700  1
  O  O22  1  0.71391300  0.85706800  0.87641300  1
  O  O23  1  0.55491900  0.86406600  0.21837100  1
  O  O24  1  0.92809100  0.14155500  0.76704600  1
  O  O25  1  0.78177800  0.14662000  0.11694800  1
  O  O26  1  0.89277300  0.85685900  0.55358600  1
  F  F27  1  0.00135600  0.50164500  0.99790400  1
  F  F28  1  0.16619800  0.51885400  0.64937100  1
  F  F29  1  0.31809800  0.48985200  0.32265600  1
  F  F30  1  0.49994600  0.50352300  0.00328900  1
  F  F31  1  0.67011700  0.48420100  0.68594800  1
  F  F32  1  0.85829200  0.46539300  0.34511800  1
