# generated using pymatgen
data_Li8Mn(O2F)2
_symmetry_space_group_name_H-M   'P 1'
_cell_length_a   5.68516989
_cell_length_b   5.68516989
_cell_length_c   10.88214000
_cell_angle_alpha   90.00000000
_cell_angle_beta   90.00000000
_cell_angle_gamma   119.47845378
_symmetry_Int_Tables_number   1
_chemical_formula_structural   Li8Mn(O2F)2
_chemical_formula_sum   'Li16 Mn2 O8 F4'
_cell_volume   306.18953189
_cell_formula_units_Z   2
loop_
 _symmetry_equiv_pos_site_id
 _symmetry_equiv_pos_as_xyz
  1  'x, y, z'
loop_
 _atom_site_type_symbol
 _atom_site_label
 _atom_site_symmetry_multiplicity
 _atom_site_fract_x
 _atom_site_fract_y
 _atom_site_fract_z
 _atom_site_occupancy
  Li  Li0  1  0.68677400  0.68677400  0.27393400  1
  Li  Li1  1  0.59213100  0.59213100  0.62756800  1
  Li  Li2  1  0.40786900  0.40786900  0.12756800  1
  Li  Li3  1  0.31322600  0.31322600  0.77393400  1
  Li  Li4  1  0.33157700  0.65484800  0.90276100  1
  Li  Li5  1  0.34515200  0.66842300  0.40276100  1
  Li  Li6  1  0.00218600  0.30634700  0.26347900  1
  Li  Li7  1  0.00755700  0.38497100  0.63880700  1
  Li  Li8  1  0.99244300  0.61502900  0.13880700  1
  Li  Li9  1  0.69365300  0.99781400  0.76347900  1
  Li  Li10  1  0.99781400  0.69365300  0.76347900  1
  Li  Li11  1  0.61502900  0.99244300  0.13880700  1
  Li  Li12  1  0.66842300  0.34515200  0.40276100  1
  Li  Li13  1  0.65484800  0.33157700  0.90276100  1
  Li  Li14  1  0.38497100  0.00755700  0.63880700  1
  Li  Li15  1  0.30634700  0.00218600  0.26347900  1
  Mn  Mn16  1  0.97415400  0.97415400  0.50025400  1
  Mn  Mn17  1  0.02584600  0.02584600  0.00025400  1
  O  O18  1  0.65028200  0.65028200  0.45097700  1
  O  O19  1  0.34971800  0.34971800  0.95097700  1
  O  O20  1  0.33428700  0.67359700  0.71850400  1
  O  O21  1  0.01567800  0.01567800  0.68489500  1
  O  O22  1  0.32640300  0.66571300  0.21850400  1
  O  O23  1  0.98432200  0.98432200  0.18489500  1
  O  O24  1  0.66571300  0.32640300  0.21850400  1
  O  O25  1  0.67359700  0.33428700  0.71850400  1
  F  F26  1  0.00398000  0.35188300  0.45049600  1
  F  F27  1  0.64811700  0.99602000  0.95049600  1
  F  F28  1  0.99602000  0.64811700  0.95049600  1
  F  F29  1  0.35188300  0.00398000  0.45049600  1
