# generated using pymatgen
data_Li2Ti3P9O28
_symmetry_space_group_name_H-M   'P 1'
_cell_length_a   7.26635700
_cell_length_b   9.26753240
_cell_length_c   9.59770062
_cell_angle_alpha   111.58059711
_cell_angle_beta   110.31443338
_cell_angle_gamma   99.03965931
_symmetry_Int_Tables_number   1
_chemical_formula_structural   Li2Ti3P9O28
_chemical_formula_sum   'Li2 Ti3 P9 O28'
_cell_volume   532.72500326
_cell_formula_units_Z   1
loop_
 _symmetry_equiv_pos_site_id
 _symmetry_equiv_pos_as_xyz
  1  'x, y, z'
loop_
 _atom_site_type_symbol
 _atom_site_label
 _atom_site_symmetry_multiplicity
 _atom_site_fract_x
 _atom_site_fract_y
 _atom_site_fract_z
 _atom_site_occupancy
  Li  Li0  1  0.20034700  0.99625600  0.73524400  1
  Li  Li1  1  0.79965300  0.00374400  0.26475600  1
  Ti  Ti2  1  0.00000000  0.50000000  0.50000000  1
  Ti  Ti3  1  0.25060500  0.99584900  0.24502200  1
  Ti  Ti4  1  0.74939500  0.00415100  0.75497800  1
  P  P5  1  0.30839400  0.76347900  0.44127500  1
  P  P6  1  0.79695500  0.76053100  0.93875300  1
  P  P7  1  0.68087800  0.70604900  0.41122700  1
  P  P8  1  0.16364800  0.69120500  0.90444700  1
  P  P9  1  0.50000000  0.50000000  0.00000000  1
  P  P10  1  0.31912200  0.29395100  0.58877300  1
  P  P11  1  0.83635200  0.30879500  0.09555300  1
  P  P12  1  0.69160600  0.23652100  0.55872500  1
  P  P13  1  0.20304500  0.23946900  0.06124700  1
  O  O14  1  0.43041200  0.91344900  0.61561100  1
  O  O15  1  0.92845300  0.90619000  0.11619200  1
  O  O16  1  0.28555900  0.86891700  0.04297700  1
  O  O17  1  0.81004400  0.87785300  0.56075500  1
  O  O18  1  0.74071000  0.82145500  0.80599800  1
  O  O19  1  0.23615000  0.81324500  0.30176400  1
  O  O20  1  0.65441400  0.71051800  0.24873600  1
  O  O21  1  0.12924700  0.68542200  0.73422500  1
  O  O22  1  0.60363900  0.65458000  0.92421400  1
  O  O23  1  0.12683800  0.65010500  0.43540100  1
  O  O24  1  0.45485400  0.65647200  0.40870600  1
  O  O25  1  0.93599000  0.64765500  0.90125300  1
  O  O26  1  0.24403900  0.56051900  0.93832700  1
  O  O27  1  0.76055900  0.57108100  0.44061000  1
  O  O28  1  0.75596100  0.43948100  0.06167300  1
  O  O29  1  0.23944100  0.42891900  0.55939000  1
  O  O30  1  0.54514600  0.34352800  0.59129400  1
  O  O31  1  0.06401000  0.35234500  0.09874700  1
  O  O32  1  0.39636100  0.34542000  0.07578600  1
  O  O33  1  0.87316200  0.34989500  0.56459900  1
  O  O34  1  0.34558600  0.28948200  0.75126400  1
  O  O35  1  0.87075300  0.31457800  0.26577500  1
  O  O36  1  0.25929000  0.17854500  0.19400200  1
  O  O37  1  0.76385000  0.18675500  0.69823600  1
  O  O38  1  0.71444100  0.13108300  0.95702300  1
  O  O39  1  0.18995600  0.12214700  0.43924500  1
  O  O40  1  0.56958800  0.08655100  0.38438900  1
  O  O41  1  0.07154700  0.09381000  0.88380800  1
