# generated using pymatgen
data_LiCoPO4
_symmetry_space_group_name_H-M   'P 1'
_cell_length_a   7.96233600
_cell_length_b   8.66611500
_cell_length_c   17.28217545
_cell_angle_alpha   60.33029105
_cell_angle_beta   90.00000000
_cell_angle_gamma   90.00000000
_symmetry_Int_Tables_number   1
_chemical_formula_structural   LiCoPO4
_chemical_formula_sum   'Li12 Co12 P12 O48'
_cell_volume   1036.16715591
_cell_formula_units_Z   12
loop_
 _symmetry_equiv_pos_site_id
 _symmetry_equiv_pos_as_xyz
  1  'x, y, z'
loop_
 _atom_site_type_symbol
 _atom_site_label
 _atom_site_symmetry_multiplicity
 _atom_site_fract_x
 _atom_site_fract_y
 _atom_site_fract_z
 _atom_site_occupancy
  Li  Li0  1  0.03170500  0.70944700  0.06027200  1
  Li  Li1  1  0.95280800  0.37302700  0.40746400  1
  Li  Li2  1  0.16801100  0.99760600  0.75010400  1
  Li  Li3  1  0.66801100  0.00239400  0.74989600  1
  Li  Li4  1  0.45280800  0.62697300  0.09253600  1
  Li  Li5  1  0.53170500  0.29055300  0.43972800  1
  Li  Li6  1  0.46829500  0.70944700  0.56027200  1
  Li  Li7  1  0.54719200  0.37302700  0.90746400  1
  Li  Li8  1  0.33198900  0.99760600  0.25010400  1
  Li  Li9  1  0.83198900  0.00239400  0.24989600  1
  Li  Li10  1  0.04719200  0.62697300  0.59253600  1
  Li  Li11  1  0.96829500  0.29055300  0.93972800  1
  Co  Co12  1  0.72748800  0.36398100  0.59490600  1
  Co  Co13  1  0.78371600  0.69037200  0.22713500  1
  Co  Co14  1  0.71960100  0.96110100  0.92792000  1
  Co  Co15  1  0.21960100  0.03889900  0.57208000  1
  Co  Co16  1  0.28371600  0.30962800  0.27286500  1
  Co  Co17  1  0.22748800  0.63601900  0.90509400  1
  Co  Co18  1  0.77251200  0.36398100  0.09490600  1
  Co  Co19  1  0.71628400  0.69037200  0.72713500  1
  Co  Co20  1  0.78039900  0.96110100  0.42792000  1
  Co  Co21  1  0.28039900  0.03889900  0.07208000  1
  Co  Co22  1  0.21628400  0.30962800  0.77286500  1
  Co  Co23  1  0.27251200  0.63601900  0.40509400  1
  P  P24  1  0.32884800  0.35470000  0.59087400  1
  P  P25  1  0.17243600  0.68192100  0.22602900  1
  P  P26  1  0.32715700  0.95627200  0.92763400  1
  P  P27  1  0.82715700  0.04372800  0.57236600  1
  P  P28  1  0.67243600  0.31807900  0.27397100  1
  P  P29  1  0.82884800  0.64530000  0.90912600  1
  P  P30  1  0.17115200  0.35470000  0.09087400  1
  P  P31  1  0.32756400  0.68192100  0.72602900  1
  P  P32  1  0.17284300  0.95627200  0.42763400  1
  P  P33  1  0.67284300  0.04372800  0.07236600  1
  P  P34  1  0.82756400  0.31807900  0.77397100  1
  P  P35  1  0.67115200  0.64530000  0.40912600  1
  O  O36  1  0.50553300  0.57056800  0.39346600  1
  O  O37  1  0.13316700  0.57734800  0.32794300  1
  O  O38  1  0.21325200  0.90656000  0.01021600  1
  O  O39  1  0.63984900  0.84107700  0.12516400  1
  O  O40  1  0.78893900  0.48491700  0.46650100  1
  O  O41  1  0.00637800  0.73064400  0.17168700  1
  O  O42  1  0.24171900  0.23178500  0.68160100  1
  O  O43  1  0.73239000  0.14352500  0.79746800  1
  O  O44  1  0.49506100  0.85261300  0.96187100  1
  O  O45  1  0.36474800  0.24600900  0.54267200  1
  O  O46  1  0.78217600  0.42962100  0.30203400  1
  O  O47  1  0.73705500  0.10567500  0.63217200  1
  O  O48  1  0.28217600  0.57037900  0.19796600  1
  O  O49  1  0.23705500  0.89432500  0.86782800  1
  O  O50  1  0.86474800  0.75399100  0.95732800  1
  O  O51  1  0.99506100  0.14738700  0.53812900  1
  O  O52  1  0.23239000  0.85647500  0.70253200  1
  O  O53  1  0.50637800  0.26935600  0.32831300  1
  O  O54  1  0.74171900  0.76821500  0.81839900  1
  O  O55  1  0.28893900  0.51508300  0.03349900  1
  O  O56  1  0.13984900  0.15892300  0.37483600  1
  O  O57  1  0.71325200  0.09344000  0.48978400  1
  O  O58  1  0.63316700  0.42265200  0.17205700  1
  O  O59  1  0.00553300  0.42943200  0.10653400  1
  O  O60  1  0.99446700  0.57056800  0.89346600  1
  O  O61  1  0.36683300  0.57734800  0.82794300  1
  O  O62  1  0.28674800  0.90656000  0.51021600  1
  O  O63  1  0.86015100  0.84107700  0.62516400  1
  O  O64  1  0.71106100  0.48491700  0.96650100  1
  O  O65  1  0.25828100  0.23178500  0.18160100  1
  O  O66  1  0.49362200  0.73064400  0.67168700  1
  O  O67  1  0.76761000  0.14352500  0.29746800  1
  O  O68  1  0.00493900  0.85261300  0.46187100  1
  O  O69  1  0.13525200  0.24600900  0.04267200  1
  O  O70  1  0.76294500  0.10567500  0.13217200  1
  O  O71  1  0.71782400  0.42962100  0.80203400  1
  O  O72  1  0.26294500  0.89432500  0.36782800  1
  O  O73  1  0.21782400  0.57037900  0.69796600  1
  O  O74  1  0.63525200  0.75399100  0.45732800  1
  O  O75  1  0.50493900  0.14738700  0.03812900  1
  O  O76  1  0.26761000  0.85647500  0.20253200  1
  O  O77  1  0.75828100  0.76821500  0.31839900  1
  O  O78  1  0.99362200  0.26935600  0.82831300  1
  O  O79  1  0.21106100  0.51508300  0.53349900  1
  O  O80  1  0.36015100  0.15892300  0.87483600  1
  O  O81  1  0.78674800  0.09344000  0.98978400  1
  O  O82  1  0.86683300  0.42265200  0.67205700  1
  O  O83  1  0.49446700  0.42943200  0.60653400  1
