# generated using pymatgen
data_Li3V5O12
_symmetry_space_group_name_H-M   'P 1'
_cell_length_a   9.27413300
_cell_length_b   8.90402400
_cell_length_c   15.22604547
_cell_angle_alpha   55.33540939
_cell_angle_beta   90.00000000
_cell_angle_gamma   90.00000000
_symmetry_Int_Tables_number   1
_chemical_formula_structural   Li3V5O12
_chemical_formula_sum   'Li12 V20 O48'
_cell_volume   1034.14253853
_cell_formula_units_Z   4
loop_
 _symmetry_equiv_pos_site_id
 _symmetry_equiv_pos_as_xyz
  1  'x, y, z'
loop_
 _atom_site_type_symbol
 _atom_site_label
 _atom_site_symmetry_multiplicity
 _atom_site_fract_x
 _atom_site_fract_y
 _atom_site_fract_z
 _atom_site_occupancy
  Li  Li0  1  0.91254400  0.37484200  0.69766300  1
  Li  Li1  1  0.48873600  0.71792000  0.34682700  1
  Li  Li2  1  0.22418700  0.99900000  0.18108100  1
  Li  Li3  1  0.72418700  0.00100000  0.31891900  1
  Li  Li4  1  0.41254400  0.62515800  0.80233700  1
  Li  Li5  1  0.98873600  0.28208000  0.15317300  1
  Li  Li6  1  0.01126400  0.71792000  0.84682700  1
  Li  Li7  1  0.58745600  0.37484200  0.19766300  1
  Li  Li8  1  0.27581300  0.99900000  0.68108100  1
  Li  Li9  1  0.77581300  0.00100000  0.81891900  1
  Li  Li10  1  0.51126400  0.28208000  0.65317300  1
  Li  Li11  1  0.08745600  0.62515800  0.30233700  1
  V  V12  1  0.97641000  0.35816900  0.89063500  1
  V  V13  1  0.47641000  0.64183100  0.60936500  1
  V  V14  1  0.03119600  0.87213200  0.38166500  1
  V  V15  1  0.53119600  0.12786800  0.11833500  1
  V  V16  1  0.46880400  0.87213200  0.88166500  1
  V  V17  1  0.96880400  0.12786800  0.61833500  1
  V  V18  1  0.52359000  0.35816900  0.39063500  1
  V  V19  1  0.02359000  0.64183100  0.10936500  1
  V  V20  1  0.75315600  0.54654300  0.48981800  1
  V  V21  1  0.61849300  0.26369400  0.85128200  1
  V  V22  1  0.88455500  0.96997200  0.14107700  1
  V  V23  1  0.11849300  0.73630600  0.64871800  1
  V  V24  1  0.38455500  0.03002800  0.35892300  1
  V  V25  1  0.25315600  0.45345700  0.01018200  1
  V  V26  1  0.74684400  0.54654300  0.98981800  1
  V  V27  1  0.61544500  0.96997200  0.64107700  1
  V  V28  1  0.88150700  0.26369400  0.35128200  1
  V  V29  1  0.11544500  0.03002800  0.85892300  1
  V  V30  1  0.38150700  0.73630600  0.14871800  1
  V  V31  1  0.24684400  0.45345700  0.51018200  1
  O  O32  1  0.12006800  0.62530700  0.43893500  1
  O  O33  1  0.11017600  0.16446900  0.90508700  1
  O  O34  1  0.34419900  0.45644500  0.60718900  1
  O  O35  1  0.42342700  0.88046400  0.19182000  1
  O  O36  1  0.63636100  0.50939500  0.59016900  1
  O  O37  1  0.80807100  0.28427700  0.83905800  1
  O  O38  1  0.57435100  0.16095500  0.98144300  1
  O  O39  1  0.01317600  0.88180000  0.24400100  1
  O  O40  1  0.71573100  0.98812000  0.18745800  1
  O  O41  1  0.83130900  0.76302800  0.42765300  1
  O  O42  1  0.52621200  0.47086000  0.77189900  1
  O  O43  1  0.02621200  0.52914000  0.72810100  1
  O  O44  1  0.94622600  0.19427300  0.05010200  1
  O  O45  1  0.44622600  0.80572700  0.44989800  1
  O  O46  1  0.33130900  0.23697200  0.07234700  1
  O  O47  1  0.21573100  0.01188000  0.31254200  1
  O  O48  1  0.07435100  0.83904500  0.51855700  1
  O  O49  1  0.51317600  0.11820000  0.25599900  1
  O  O50  1  0.30807100  0.71572300  0.66094200  1
  O  O51  1  0.13636100  0.49060500  0.90983100  1
  O  O52  1  0.84419900  0.54355500  0.89281100  1
  O  O53  1  0.61017600  0.83553100  0.59491300  1
  O  O54  1  0.92342700  0.11953600  0.30818000  1
  O  O55  1  0.62006800  0.37469300  0.06106500  1
  O  O56  1  0.37993200  0.62530700  0.93893500  1
  O  O57  1  0.07657300  0.88046400  0.69182000  1
  O  O58  1  0.38982400  0.16446900  0.40508700  1
  O  O59  1  0.15580100  0.45644500  0.10718900  1
  O  O60  1  0.86363900  0.50939500  0.09016900  1
  O  O61  1  0.69192900  0.28427700  0.33905800  1
  O  O62  1  0.48682400  0.88180000  0.74400100  1
  O  O63  1  0.92564900  0.16095500  0.48144300  1
  O  O64  1  0.78426900  0.98812000  0.68745800  1
  O  O65  1  0.66869100  0.76302800  0.92765300  1
  O  O66  1  0.55377400  0.19427300  0.55010200  1
  O  O67  1  0.05377400  0.80572700  0.94989800  1
  O  O68  1  0.97378800  0.47086000  0.27189900  1
  O  O69  1  0.47378800  0.52914000  0.22810100  1
  O  O70  1  0.16869100  0.23697200  0.57234700  1
  O  O71  1  0.28426900  0.01188000  0.81254200  1
  O  O72  1  0.98682400  0.11820000  0.75599900  1
  O  O73  1  0.42564900  0.83904500  0.01855700  1
  O  O74  1  0.19192900  0.71572300  0.16094200  1
  O  O75  1  0.36363900  0.49060500  0.40983100  1
  O  O76  1  0.57657300  0.11953600  0.80818000  1
  O  O77  1  0.65580100  0.54355500  0.39281100  1
  O  O78  1  0.88982400  0.83553100  0.09491300  1
  O  O79  1  0.87993200  0.37469300  0.56106500  1
