# generated using pymatgen
data_Li4V3CrO8
_symmetry_space_group_name_H-M   'P 1'
_cell_length_a   5.17703685
_cell_length_b   5.98331146
_cell_length_c   10.78264853
_cell_angle_alpha   106.02238588
_cell_angle_beta   85.40812797
_cell_angle_gamma   73.14908818
_symmetry_Int_Tables_number   1
_chemical_formula_structural   Li4V3CrO8
_chemical_formula_sum   'Li8 V6 Cr2 O16'
_cell_volume   302.55531178
_cell_formula_units_Z   2
loop_
 _symmetry_equiv_pos_site_id
 _symmetry_equiv_pos_as_xyz
  1  'x, y, z'
loop_
 _atom_site_type_symbol
 _atom_site_label
 _atom_site_symmetry_multiplicity
 _atom_site_fract_x
 _atom_site_fract_y
 _atom_site_fract_z
 _atom_site_occupancy
  Li  Li0  1  0.00227209  0.12268145  0.74869862  1
  Li  Li1  1  0.00012913  0.00036984  0.00187107  1
  Li  Li2  1  0.99832093  0.25278763  0.50088987  1
  Li  Li3  1  0.00170301  0.37222572  0.24889167  1
  Li  Li4  1  0.99935630  0.62514796  0.74824213  1
  Li  Li5  1  0.99780276  0.50205100  0.00155520  1
  Li  Li6  1  0.00066341  0.74777667  0.50144865  1
  Li  Li7  1  0.99970878  0.87695933  0.24842033  1
  V  V8  1  0.49867476  0.06282773  0.87491169  1
  V  V9  1  0.50029935  0.18677622  0.62474809  1
  V  V10  1  0.50007945  0.31244898  0.37499627  1
  V  V11  1  0.50126326  0.56219617  0.87509791  1
  V  V12  1  0.49970210  0.43825413  0.12526348  1
  V  V13  1  0.50004750  0.81244861  0.37498622  1
  Cr  Cr14  1  0.50101987  0.68545184  0.62488285  1
  Cr  Cr15  1  0.49908706  0.93953948  0.12513027  1
  O  O16  1  0.27187845  0.09132256  0.30893463  1
  O  O17  1  0.72799426  0.03690756  0.43906279  1
  O  O18  1  0.27065187  0.33857468  0.81006225  1
  O  O19  1  0.72935723  0.28629646  0.93997495  1
  O  O20  1  0.72714725  0.16183028  0.18681689  1
  O  O21  1  0.27031371  0.21021986  0.06063884  1
  O  O22  1  0.27291155  0.46312638  0.56318439  1
  O  O23  1  0.72954312  0.41499970  0.68946927  1
  O  O24  1  0.27208908  0.58801309  0.31093454  1
  O  O25  1  0.72812678  0.53362992  0.44104956  1
  O  O26  1  0.27411257  0.83662029  0.80955734  1
  O  O27  1  0.72571637  0.78852916  0.94040913  1
  O  O28  1  0.27325206  0.71387632  0.06243169  1
  O  O29  1  0.27262504  0.95565543  0.55919548  1
  O  O30  1  0.72740355  0.66929148  0.19073824  1
  O  O31  1  0.72674534  0.91116107  0.68750768  1
