# generated using pymatgen
data_Li3Fe(PO4)2
_symmetry_space_group_name_H-M   'P 1'
_cell_length_a   8.50505876
_cell_length_b   8.50474649
_cell_length_c   8.50478031
_cell_angle_alpha   63.08298612
_cell_angle_beta   63.08334630
_cell_angle_gamma   63.08158219
_symmetry_Int_Tables_number   1
_chemical_formula_structural   Li3Fe(PO4)2
_chemical_formula_sum   'Li9 Fe3 P6 O24'
_cell_volume   464.74800626
_cell_formula_units_Z   3
loop_
 _symmetry_equiv_pos_site_id
 _symmetry_equiv_pos_as_xyz
  1  'x, y, z'
loop_
 _atom_site_type_symbol
 _atom_site_label
 _atom_site_symmetry_multiplicity
 _atom_site_fract_x
 _atom_site_fract_y
 _atom_site_fract_z
 _atom_site_occupancy
  Li  Li0  1  0.24367800  0.85189900  0.65483100  1
  Li  Li1  1  0.32317700  0.81390600  0.14248900  1
  Li  Li2  1  0.14224100  0.32336200  0.81397200  1
  Li  Li3  1  0.00834700  0.00838800  0.00852700  1
  Li  Li4  1  0.15469000  0.15435600  0.15444200  1
  Li  Li5  1  0.49716100  0.49700100  0.49710800  1
  Li  Li6  1  0.85169100  0.65487800  0.24399600  1
  Li  Li7  1  0.65521400  0.24343500  0.85156500  1
  Li  Li8  1  0.81405000  0.14236200  0.32323300  1
  Fe  Fe9  1  0.35390200  0.35380800  0.35381900  1
  Fe  Fe10  1  0.85473100  0.85465400  0.85472100  1
  Fe  Fe11  1  0.64433100  0.64459300  0.64445800  1
  P  P12  1  0.04623400  0.74566900  0.45335500  1
  P  P13  1  0.54713800  0.94904300  0.24719900  1
  P  P14  1  0.24719700  0.54711400  0.94908900  1
  P  P15  1  0.74573800  0.45337600  0.04616400  1
  P  P16  1  0.45318400  0.04639400  0.74577400  1
  P  P17  1  0.94915400  0.24718400  0.54702700  1
  O  O18  1  0.04648600  0.90749800  0.27004300  1
  O  O19  1  0.09045500  0.74142100  0.93468900  1
  O  O20  1  0.49734700  0.89117900  0.67106400  1
  O  O21  1  0.61783000  0.01581600  0.80147400  1
  O  O22  1  0.24311700  0.59688500  0.42373400  1
  O  O23  1  0.19067600  0.39097000  0.97278400  1
  O  O24  1  0.11338700  0.30598100  0.50878600  1
  O  O25  1  0.57980300  0.75419600  0.40230900  1
  O  O26  1  0.74144300  0.93454600  0.09056200  1
  O  O27  1  0.97300700  0.19041600  0.39095700  1
  O  O28  1  0.30607400  0.50879200  0.11326300  1
  O  O29  1  0.40219600  0.57997700  0.75417400  1
  O  O30  1  0.59694300  0.42371100  0.24308400  1
  O  O31  1  0.67116500  0.49798600  0.89081900  1
  O  O32  1  0.01593200  0.80141500  0.61789400  1
  O  O33  1  0.42363700  0.24331400  0.59704300  1
  O  O34  1  0.26994800  0.04668100  0.90763900  1
  O  O35  1  0.80159600  0.61777400  0.01606200  1
  O  O36  1  0.89088100  0.67111700  0.49779800  1
  O  O37  1  0.75427900  0.40231700  0.57960800  1
  O  O38  1  0.39101000  0.97272800  0.19066100  1
  O  O39  1  0.50886400  0.11328900  0.30597800  1
  O  O40  1  0.90752500  0.27001600  0.04637800  1
  O  O41  1  0.93454000  0.09055600  0.74142700  1
