# generated using pymatgen
data_Li2Cu(PO3)4
_symmetry_space_group_name_H-M   'P 1'
_cell_length_a   11.03348200
_cell_length_b   8.19751900
_cell_length_c   12.49820484
_cell_angle_alpha   76.93454778
_cell_angle_beta   90.00000000
_cell_angle_gamma   90.00000000
_symmetry_Int_Tables_number   1
_chemical_formula_structural   Li2Cu(PO3)4
_chemical_formula_sum   'Li8 Cu4 P16 O48'
_cell_volume   1101.16337280
_cell_formula_units_Z   4
loop_
 _symmetry_equiv_pos_site_id
 _symmetry_equiv_pos_as_xyz
  1  'x, y, z'
loop_
 _atom_site_type_symbol
 _atom_site_label
 _atom_site_symmetry_multiplicity
 _atom_site_fract_x
 _atom_site_fract_y
 _atom_site_fract_z
 _atom_site_occupancy
  Li  Li0  1  0.89142500  0.56782900  0.26658000  1
  Li  Li1  1  0.39142500  0.43217100  0.23342000  1
  Li  Li2  1  0.02740500  0.37949500  0.43127400  1
  Li  Li3  1  0.52740500  0.62050500  0.06872600  1
  Li  Li4  1  0.47259500  0.37949500  0.93127400  1
  Li  Li5  1  0.97259500  0.62050500  0.56872600  1
  Li  Li6  1  0.60857500  0.56782900  0.76658000  1
  Li  Li7  1  0.10857500  0.43217100  0.73342000  1
  Cu  Cu8  1  0.73897400  0.05288300  0.68105900  1
  Cu  Cu9  1  0.23897400  0.94711700  0.81894100  1
  Cu  Cu10  1  0.76102600  0.05288300  0.18105900  1
  Cu  Cu11  1  0.26102600  0.94711700  0.31894100  1
  P  P12  1  0.25238800  0.93813700  0.07014500  1
  P  P13  1  0.62419600  0.63330600  0.29008700  1
  P  P14  1  0.23561600  0.60282100  0.02243400  1
  P  P15  1  0.73561600  0.39717900  0.47756600  1
  P  P16  1  0.74761200  0.06186300  0.92985500  1
  P  P17  1  0.12419600  0.36669400  0.20991300  1
  P  P18  1  0.95814100  0.96966700  0.82232300  1
  P  P19  1  0.45814100  0.03033300  0.67767700  1
  P  P20  1  0.75238800  0.06186300  0.42985500  1
  P  P21  1  0.24761200  0.93813700  0.57014500  1
  P  P22  1  0.54185900  0.96966700  0.32232300  1
  P  P23  1  0.04185900  0.03033300  0.17767700  1
  P  P24  1  0.87580400  0.63330600  0.79008700  1
  P  P25  1  0.26438400  0.60282100  0.52243400  1
  P  P26  1  0.76438400  0.39717900  0.97756600  1
  P  P27  1  0.37580400  0.36669400  0.70991300  1
  O  O28  1  0.19890000  0.75156700  0.08335700  1
  O  O29  1  0.63544200  0.53119700  0.41656200  1
  O  O30  1  0.54743600  0.53951100  0.22396000  1
  O  O31  1  0.86333300  0.45948900  0.44053700  1
  O  O32  1  0.70948000  0.35125300  0.59697000  1
  O  O33  1  0.36333300  0.54051100  0.05946300  1
  O  O34  1  0.25369500  0.30750500  0.75421400  1
  O  O35  1  0.46250200  0.21770100  0.69303900  1
  O  O36  1  0.04743600  0.46048900  0.27604000  1
  O  O37  1  0.67177000  0.05697000  0.83022400  1
  O  O38  1  0.31139600  0.99559300  0.95949800  1
  O  O39  1  0.13544200  0.46880300  0.08343800  1
  O  O40  1  0.69890000  0.24843300  0.41664300  1
  O  O41  1  0.08109000  0.01438700  0.85794800  1
  O  O42  1  0.86898300  0.95320100  0.92681900  1
  O  O43  1  0.90391100  0.08805700  0.72375000  1
  O  O44  1  0.40391100  0.91194300  0.77625000  1
  O  O45  1  0.79052000  0.35125300  0.09697000  1
  O  O46  1  0.36898300  0.04679900  0.57318100  1
  O  O47  1  0.58109000  0.98561300  0.64205200  1
  O  O48  1  0.24630500  0.30750500  0.25421400  1
  O  O49  1  0.03749800  0.21770100  0.19303900  1
  O  O50  1  0.81139600  0.00440700  0.54050200  1
  O  O51  1  0.17177000  0.94303000  0.66977600  1
  O  O52  1  0.82823000  0.05697000  0.33022400  1
  O  O53  1  0.18860400  0.99559300  0.45949800  1
  O  O54  1  0.96250200  0.78229900  0.80696100  1
  O  O55  1  0.75369500  0.69249500  0.74578600  1
  O  O56  1  0.41891000  0.01438700  0.35794800  1
  O  O57  1  0.63101700  0.95320100  0.42681900  1
  O  O58  1  0.20948000  0.64874700  0.90303000  1
  O  O59  1  0.59608900  0.08805700  0.22375000  1
  O  O60  1  0.09608900  0.91194300  0.27625000  1
  O  O61  1  0.13101700  0.04679900  0.07318100  1
  O  O62  1  0.91891000  0.98561300  0.14205200  1
  O  O63  1  0.30110000  0.75156700  0.58335700  1
  O  O64  1  0.86455800  0.53119700  0.91656200  1
  O  O65  1  0.68860400  0.00440700  0.04050200  1
  O  O66  1  0.32823000  0.94303000  0.16977600  1
  O  O67  1  0.95256400  0.53951100  0.72396000  1
  O  O68  1  0.53749800  0.78229900  0.30696100  1
  O  O69  1  0.74630500  0.69249500  0.24578600  1
  O  O70  1  0.63666700  0.45948900  0.94053700  1
  O  O71  1  0.29052000  0.64874700  0.40303000  1
  O  O72  1  0.13666700  0.54051100  0.55946300  1
  O  O73  1  0.45256400  0.46048900  0.77604000  1
  O  O74  1  0.36455800  0.46880300  0.58343800  1
  O  O75  1  0.80110000  0.24843300  0.91664300  1
