# generated using pymatgen
data_Li6B3SbO9
_symmetry_space_group_name_H-M   'P 1'
_cell_length_a   16.71376300
_cell_length_b   6.77750700
_cell_length_c   7.29231970
_cell_angle_alpha   74.97076560
_cell_angle_beta   90.00000000
_cell_angle_gamma   90.00000000
_symmetry_Int_Tables_number   1
_chemical_formula_structural   Li6B3SbO9
_chemical_formula_sum   'Li24 B12 Sb4 O36'
_cell_volume   797.80041244
_cell_formula_units_Z   4
loop_
 _symmetry_equiv_pos_site_id
 _symmetry_equiv_pos_as_xyz
  1  'x, y, z'
loop_
 _atom_site_type_symbol
 _atom_site_label
 _atom_site_symmetry_multiplicity
 _atom_site_fract_x
 _atom_site_fract_y
 _atom_site_fract_z
 _atom_site_occupancy
  Li  Li0  1  0.00305100  0.32283100  0.07103200  1
  Li  Li1  1  0.45062100  0.41502700  0.14462200  1
  Li  Li2  1  0.49694900  0.82283100  0.07103200  1
  Li  Li3  1  0.53724500  0.05573400  0.30236200  1
  Li  Li4  1  0.04937900  0.91502700  0.14462200  1
  Li  Li5  1  0.29255100  0.36670000  0.28828800  1
  Li  Li6  1  0.96275500  0.55573400  0.30236200  1
  Li  Li7  1  0.70413700  0.04971300  0.42760900  1
  Li  Li8  1  0.03110000  0.16924500  0.45569900  1
  Li  Li9  1  0.20744900  0.86670000  0.28828800  1
  Li  Li10  1  0.79586300  0.54971300  0.42760900  1
  Li  Li11  1  0.46890000  0.66924500  0.45569900  1
  Li  Li12  1  0.53110000  0.33075500  0.54430100  1
  Li  Li13  1  0.20413700  0.45028700  0.57239100  1
  Li  Li14  1  0.79255100  0.13330000  0.71171200  1
  Li  Li15  1  0.96890000  0.83075500  0.54430100  1
  Li  Li16  1  0.29586300  0.95028700  0.57239100  1
  Li  Li17  1  0.03724500  0.44426600  0.69763800  1
  Li  Li18  1  0.70744900  0.63330000  0.71171200  1
  Li  Li19  1  0.95062100  0.08497300  0.85537800  1
  Li  Li20  1  0.46275500  0.94426600  0.69763800  1
  Li  Li21  1  0.50305100  0.17716900  0.92896800  1
  Li  Li22  1  0.54937900  0.58497300  0.85537800  1
  Li  Li23  1  0.99694900  0.67716900  0.92896800  1
  B  B24  1  0.63410900  0.35159100  0.08220300  1
  B  B25  1  0.86589100  0.85159100  0.08220300  1
  B  B26  1  0.11935900  0.49924700  0.29203400  1
  B  B27  1  0.88668900  0.18393900  0.44152700  1
  B  B28  1  0.38064100  0.99924700  0.29203400  1
  B  B29  1  0.61331100  0.68393900  0.44152700  1
  B  B30  1  0.38668900  0.31606100  0.55847300  1
  B  B31  1  0.61935900  0.00075300  0.70796600  1
  B  B32  1  0.11331100  0.81606100  0.55847300  1
  B  B33  1  0.88064100  0.50075300  0.70796600  1
  B  B34  1  0.13410900  0.14840900  0.91779700  1
  B  B35  1  0.36589100  0.64840900  0.91779700  1
  Sb  Sb36  1  0.81470100  0.32716600  0.07350000  1
  Sb  Sb37  1  0.68529900  0.82716600  0.07350000  1
  Sb  Sb38  1  0.31470100  0.17283400  0.92650000  1
  Sb  Sb39  1  0.18529900  0.67283400  0.92650000  1
  O  O40  1  0.33564100  0.44996300  0.00660700  1
  O  O41  1  0.42946000  0.04017700  0.13023900  1
  O  O42  1  0.55285100  0.32487200  0.08567700  1
  O  O43  1  0.68710500  0.19382000  0.14662900  1
  O  O44  1  0.16435900  0.94996300  0.00660700  1
  O  O45  1  0.07054000  0.54017700  0.13023900  1
  O  O46  1  0.29996300  0.05891800  0.26395800  1
  O  O47  1  0.94714900  0.82487200  0.08567700  1
  O  O48  1  0.81289500  0.69382000  0.14662900  1
  O  O49  1  0.93330700  0.26377900  0.27853800  1
  O  O50  1  0.20003700  0.55891800  0.26395800  1
  O  O51  1  0.56669300  0.76377900  0.27853800  1
  O  O52  1  0.80473600  0.21827300  0.42594900  1
  O  O53  1  0.42425300  0.42382900  0.39517600  1
  O  O54  1  0.58949800  0.09030200  0.53114800  1
  O  O55  1  0.08949800  0.40969800  0.46885200  1
  O  O56  1  0.69526400  0.71827300  0.42594900  1
  O  O57  1  0.92425300  0.07617100  0.60482400  1
  O  O58  1  0.07574700  0.92383000  0.39517600  1
  O  O59  1  0.30473600  0.28172700  0.57405100  1
  O  O60  1  0.91050200  0.59030200  0.53114800  1
  O  O61  1  0.41050200  0.90969800  0.46885200  1
  O  O62  1  0.57574700  0.57617100  0.60482400  1
  O  O63  1  0.19526400  0.78172700  0.57405100  1
  O  O64  1  0.43330700  0.23622100  0.72146200  1
  O  O65  1  0.79996300  0.44108200  0.73604200  1
  O  O66  1  0.06669300  0.73622100  0.72146200  1
  O  O67  1  0.18710500  0.30618000  0.85337100  1
  O  O68  1  0.05285100  0.17512800  0.91432300  1
  O  O69  1  0.70003700  0.94108200  0.73604200  1
  O  O70  1  0.92946000  0.45982300  0.86976100  1
  O  O71  1  0.83564100  0.05003700  0.99339300  1
  O  O72  1  0.31289500  0.80618000  0.85337100  1
  O  O73  1  0.44714900  0.67512800  0.91432300  1
  O  O74  1  0.57054000  0.95982300  0.86976100  1
  O  O75  1  0.66435900  0.55003700  0.99339300  1
