# generated using pymatgen
data_LiMnF5
_symmetry_space_group_name_H-M   'P 1'
_cell_length_a   4.98422000
_cell_length_b   5.78698000
_cell_length_c   13.10666700
_cell_angle_alpha   90.00000000
_cell_angle_beta   90.00000000
_cell_angle_gamma   90.00000000
_symmetry_Int_Tables_number   1
_chemical_formula_structural   LiMnF5
_chemical_formula_sum   'Li4 Mn4 F20'
_cell_volume   378.04321723
_cell_formula_units_Z   4
loop_
 _symmetry_equiv_pos_site_id
 _symmetry_equiv_pos_as_xyz
  1  'x, y, z'
loop_
 _atom_site_type_symbol
 _atom_site_label
 _atom_site_symmetry_multiplicity
 _atom_site_fract_x
 _atom_site_fract_y
 _atom_site_fract_z
 _atom_site_occupancy
  Li  Li0  1  0.96969600  0.63398400  0.63918300  1
  Li  Li1  1  0.46969600  0.86601600  0.36081700  1
  Li  Li2  1  0.53030400  0.36601600  0.13918300  1
  Li  Li3  1  0.03030400  0.13398400  0.86081700  1
  Mn  Mn4  1  0.31941400  0.12814700  0.58692600  1
  Mn  Mn5  1  0.81941400  0.37185300  0.41307400  1
  Mn  Mn6  1  0.18058600  0.87185300  0.08692600  1
  Mn  Mn7  1  0.68058600  0.62814700  0.91307400  1
  F  F8  1  0.12891200  0.92315300  0.66281400  1
  F  F9  1  0.59562200  0.10543900  0.67082800  1
  F  F10  1  0.17310700  0.36443100  0.66074400  1
  F  F11  1  0.44420600  0.89634400  0.50532800  1
  F  F12  1  0.51345800  0.35292200  0.50832600  1
  F  F13  1  0.01345800  0.14707800  0.49167400  1
  F  F14  1  0.94420600  0.60365600  0.49467200  1
  F  F15  1  0.67310700  0.13556900  0.33925600  1
  F  F16  1  0.09562200  0.39456100  0.32917200  1
  F  F17  1  0.62891200  0.57684700  0.33718600  1
  F  F18  1  0.37108800  0.07684700  0.16281400  1
  F  F19  1  0.90437800  0.89456100  0.17082800  1
  F  F20  1  0.32689300  0.63556900  0.16074400  1
  F  F21  1  0.05579400  0.10365600  0.00532800  1
  F  F22  1  0.98654200  0.64707800  0.00832600  1
  F  F23  1  0.48654200  0.85292200  0.99167400  1
  F  F24  1  0.55579400  0.39634400  0.99467200  1
  F  F25  1  0.82689300  0.86443100  0.83925600  1
  F  F26  1  0.40437800  0.60543900  0.82917200  1
  F  F27  1  0.87108800  0.42315300  0.83718600  1
