# generated using pymatgen
data_Li6V3P8O29
_symmetry_space_group_name_H-M   'P 1'
_cell_length_a   9.79350200
_cell_length_b   9.81214705
_cell_length_c   13.97534120
_cell_angle_alpha   89.76570739
_cell_angle_beta   89.74495204
_cell_angle_gamma   60.22690322
_symmetry_Int_Tables_number   1
_chemical_formula_structural   Li6V3P8O29
_chemical_formula_sum   'Li12 V6 P16 O58'
_cell_volume   1165.67704623
_cell_formula_units_Z   2
loop_
 _symmetry_equiv_pos_site_id
 _symmetry_equiv_pos_as_xyz
  1  'x, y, z'
loop_
 _atom_site_type_symbol
 _atom_site_label
 _atom_site_symmetry_multiplicity
 _atom_site_fract_x
 _atom_site_fract_y
 _atom_site_fract_z
 _atom_site_occupancy
  Li  Li0  1  0.23209500  0.66414900  0.06051300  1
  Li  Li1  1  0.09373700  0.67703400  0.56088300  1
  Li  Li2  1  0.67846500  0.22866900  0.56145500  1
  Li  Li3  1  0.66250600  0.10038600  0.05839700  1
  Li  Li4  1  0.09799400  0.23291600  0.05640000  1
  Li  Li5  1  0.77653300  0.90697200  0.44349000  1
  Li  Li6  1  0.22789400  0.08127900  0.55947400  1
  Li  Li7  1  0.32565600  0.90394500  0.93622700  1
  Li  Li8  1  0.66778600  0.66837200  0.11184400  1
  Li  Li9  1  0.91429200  0.31368700  0.44240100  1
  Li  Li10  1  0.76378900  0.32849900  0.93427500  1
  Li  Li11  1  0.98589400  0.96178100  0.98878700  1
  V  V12  1  0.56658500  0.00246200  0.25268200  1
  V  V13  1  0.43612000  0.99964300  0.75166900  1
  V  V14  1  0.99834300  0.57001300  0.75470100  1
  V  V15  1  0.00397100  0.43542200  0.24682100  1
  V  V16  1  0.43263500  0.56878500  0.25303000  1
  V  V17  1  0.56458800  0.43820100  0.74698000  1
  P  P18  1  0.22771900  0.68606200  0.84323900  1
  P  P19  1  0.08790600  0.68099000  0.34504600  1
  P  P20  1  0.67981500  0.23340500  0.34135100  1
  P  P21  1  0.33553700  0.33638100  0.12710700  1
  P  P22  1  0.33383900  0.33116700  0.63045700  1
  P  P23  1  0.68768300  0.08928900  0.84231600  1
  P  P24  1  0.77134600  0.91034900  0.66083400  1
  P  P25  1  0.08509600  0.22677500  0.84339300  1
  P  P26  1  0.91166300  0.78174600  0.16072600  1
  P  P27  1  0.22929700  0.08709200  0.34211200  1
  P  P28  1  0.31579900  0.91098900  0.15713500  1
  P  P29  1  0.67195200  0.66224000  0.36976800  1
  P  P30  1  0.66462500  0.66823800  0.87229400  1
  P  P31  1  0.31388900  0.77328700  0.65828300  1
  P  P32  1  0.91328800  0.32152100  0.65905900  1
  P  P33  1  0.77316700  0.31591500  0.15559300  1
  O  O34  1  0.22955700  0.75875400  0.57474300  1
  O  O35  1  0.25070200  0.66361600  0.33850600  1
  O  O36  1  0.00494700  0.79330800  0.07909400  1
  O  O37  1  0.08530600  0.65994200  0.83623700  1
  O  O38  1  0.38187100  0.53191600  0.83310700  1
  O  O39  1  0.32939800  0.48902800  0.16834700  1
  O  O40  1  0.51714500  0.37632100  0.32335800  1
  O  O41  1  0.76739200  0.22741600  0.06868400  1
  O  O42  1  0.66015800  0.25947400  0.83412500  1
  O  O43  1  0.18801000  0.48260600  0.66947400  1
  O  O44  1  0.09786000  0.52159900  0.32485800  1
  O  O45  1  0.48905800  0.32581500  0.66703400  1
  O  O46  1  0.32461300  0.34411300  0.02062700  1
  O  O47  1  0.33574100  0.31661500  0.52401100  1
  O  O48  1  0.48744700  0.18989600  0.16466600  1
  O  O49  1  0.08998600  0.37877600  0.83261100  1
  O  O50  1  0.18680000  0.33009900  0.16933200  1
  O  O51  1  0.66999900  0.08030100  0.34165100  1
  O  O52  1  0.79493000  0.00040000  0.75063600  1
  O  O53  1  0.75572500  0.00239800  0.57074000  1
  O  O54  1  0.77851500  0.01806500  0.93291200  1
  O  O55  1  0.53299700  0.08663000  0.83548900  1
  O  O56  1  0.33230600  0.18293300  0.67813500  1
  O  O57  1  0.74041800  0.92376900  0.15930300  1
  O  O58  1  0.38091300  0.09747400  0.31756200  1
  O  O59  1  0.08300600  0.25185700  0.33837900  1
  O  O60  1  0.98437000  0.79971500  0.25901500  1
  O  O61  1  0.99894600  0.75323700  0.43607700  1
  O  O62  1  0.00619500  0.24359100  0.56980600  1
  O  O63  1  0.92107500  0.74776800  0.66005400  1
  O  O64  1  0.62518100  0.89413700  0.67941000  1
  O  O65  1  0.24983400  0.08046000  0.84310000  1
  O  O66  1  0.67382700  0.81357800  0.33336100  1
  O  O67  1  0.48107900  0.89277000  0.17033500  1
  O  O68  1  0.23036500  0.00402100  0.06888500  1
  O  O69  1  0.24666300  0.00243500  0.43308800  1
  O  O70  1  0.21182400  0.99597200  0.25073500  1
  O  O71  1  0.33851300  0.91592200  0.65671100  1
  O  O72  1  0.80553600  0.67895000  0.83088000  1
  O  O73  1  0.89973200  0.62977500  0.16483300  1
  O  O74  1  0.50713100  0.81368800  0.83339000  1
  O  O75  1  0.65574800  0.67245800  0.98036500  1
  O  O76  1  0.67832100  0.64742900  0.47544500  1
  O  O77  1  0.52551500  0.66217700  0.32177600  1
  O  O78  1  0.90322600  0.48012300  0.67918900  1
  O  O79  1  0.81881400  0.51496300  0.32175400  1
  O  O80  1  0.33151100  0.74717000  0.15529100  1
  O  O81  1  0.21211900  0.79886700  0.75582400  1
  O  O82  1  0.21478800  0.77714200  0.93436300  1
  O  O83  1  0.47575300  0.62137600  0.67719900  1
  O  O84  1  0.67444400  0.51305400  0.83550300  1
  O  O85  1  0.62533400  0.47954000  0.16641800  1
  O  O86  1  0.92115900  0.33343300  0.15270100  1
  O  O87  1  0.99499000  0.22257400  0.93139200  1
  O  O88  1  0.99811700  0.20855700  0.74959800  1
  O  O89  1  0.74742400  0.33956300  0.65569000  1
  O  O90  1  0.75656700  0.24735000  0.43108000  1
  O  O91  1  0.79161500  0.21316600  0.25032300  1
