# generated using pymatgen
data_Li3Fe(PO4)2
_symmetry_space_group_name_H-M   'P 1'
_cell_length_a   4.73610061
_cell_length_b   10.23486423
_cell_length_c   5.93834200
_cell_angle_alpha   90.00003605
_cell_angle_beta   90.00000957
_cell_angle_gamma   90.47808441
_symmetry_Int_Tables_number   1
_chemical_formula_structural   Li3Fe(PO4)2
_chemical_formula_sum   'Li6 Fe2 P4 O16'
_cell_volume   287.84129008
_cell_formula_units_Z   2
loop_
 _symmetry_equiv_pos_site_id
 _symmetry_equiv_pos_as_xyz
  1  'x, y, z'
loop_
 _atom_site_type_symbol
 _atom_site_label
 _atom_site_symmetry_multiplicity
 _atom_site_fract_x
 _atom_site_fract_y
 _atom_site_fract_z
 _atom_site_occupancy
  Li  Li0  1  0.00000000  0.99999900  0.99999800  1
  Li  Li1  1  0.00000000  0.99999900  0.50000200  1
  Li  Li2  1  0.47862400  0.22007100  0.75000000  1
  Li  Li3  1  0.52137800  0.77992500  0.25000100  1
  Li  Li4  1  0.50000200  0.49999800  0.00000100  1
  Li  Li5  1  0.50000100  0.49999900  0.49999900  1
  Fe  Fe6  1  0.00806900  0.71989500  0.75000100  1
  Fe  Fe7  1  0.99193700  0.28012000  0.24999900  1
  P  P8  1  0.41236100  0.10020800  0.25000000  1
  P  P9  1  0.58764300  0.89978800  0.75000000  1
  P  P10  1  0.93274800  0.40680100  0.75000000  1
  P  P11  1  0.06724500  0.59319900  0.25000000  1
  O  O12  1  0.69295100  0.04171500  0.75000000  1
  O  O13  1  0.30705300  0.95828400  0.25000000  1
  O  O14  1  0.73926000  0.11236200  0.25000000  1
  O  O15  1  0.26074400  0.88763900  0.75000000  1
  O  O16  1  0.25323400  0.41123800  0.75000000  1
  O  O17  1  0.74676000  0.58876000  0.24999900  1
  O  O18  1  0.20274500  0.45233000  0.25000000  1
  O  O19  1  0.79725800  0.54767100  0.74999900  1
  O  O20  1  0.27018000  0.17372800  0.04667600  1
  O  O21  1  0.27018000  0.17372700  0.45332400  1
  O  O22  1  0.72981800  0.82627000  0.54667000  1
  O  O23  1  0.72981900  0.82627000  0.95333100  1
  O  O24  1  0.79992300  0.33738500  0.53884100  1
  O  O25  1  0.79992200  0.33738500  0.96115900  1
  O  O26  1  0.20007300  0.66261700  0.03884200  1
  O  O27  1  0.20007300  0.66261700  0.46115900  1
