# generated using pymatgen
data_LiP4WO12
_symmetry_space_group_name_H-M   'P 1'
_cell_length_a   8.31846600
_cell_length_b   11.89176000
_cell_length_c   12.92415778
_cell_angle_alpha   57.47735723
_cell_angle_beta   90.00000000
_cell_angle_gamma   90.00000000
_symmetry_Int_Tables_number   1
_chemical_formula_structural   LiP4WO12
_chemical_formula_sum   'Li4 P16 W4 O48'
_cell_volume   1077.98182105
_cell_formula_units_Z   4
loop_
 _symmetry_equiv_pos_site_id
 _symmetry_equiv_pos_as_xyz
  1  'x, y, z'
loop_
 _atom_site_type_symbol
 _atom_site_label
 _atom_site_symmetry_multiplicity
 _atom_site_fract_x
 _atom_site_fract_y
 _atom_site_fract_z
 _atom_site_occupancy
  Li  Li0  1  0.06384500  0.41326600  0.64676200  1
  Li  Li1  1  0.56384500  0.58673400  0.85323800  1
  Li  Li2  1  0.43615500  0.41326600  0.14676200  1
  Li  Li3  1  0.93615500  0.58673400  0.35323800  1
  P  P4  1  0.63194900  0.21420800  0.80999900  1
  P  P5  1  0.43190500  0.37544900  0.87610700  1
  P  P6  1  0.83032900  0.71151000  0.94854300  1
  P  P7  1  0.93190500  0.62455100  0.62389300  1
  P  P8  1  0.97709700  0.96653400  0.75197400  1
  P  P9  1  0.13194900  0.78579200  0.69000100  1
  P  P10  1  0.47709700  0.03346600  0.74802600  1
  P  P11  1  0.66967100  0.71151000  0.44854300  1
  P  P12  1  0.33032900  0.28849000  0.55145700  1
  P  P13  1  0.52290300  0.96653400  0.25197400  1
  P  P14  1  0.86805100  0.21420800  0.30999900  1
  P  P15  1  0.02290300  0.03346600  0.24802600  1
  P  P16  1  0.06809500  0.37544900  0.37610700  1
  P  P17  1  0.16967100  0.28849000  0.05145700  1
  P  P18  1  0.56809500  0.62455100  0.12389300  1
  P  P19  1  0.36805100  0.78579200  0.19000100  1
  W  W20  1  0.76719000  0.23113300  0.04967000  1
  W  W21  1  0.23281000  0.76886700  0.95033000  1
  W  W22  1  0.26719000  0.76886700  0.45033000  1
  W  W23  1  0.73281000  0.23113300  0.54967000  1
  O  O24  1  0.74078800  0.17775500  0.91579900  1
  O  O25  1  0.29281700  0.27134900  0.96224500  1
  O  O26  1  0.00700600  0.32128800  0.98996900  1
  O  O27  1  0.57363800  0.37630500  0.95242700  1
  O  O28  1  0.48300900  0.30173200  0.80683600  1
  O  O29  1  0.75316500  0.62529600  0.91212200  1
  O  O30  1  0.87423900  0.48633000  0.71077400  1
  O  O31  1  0.20503000  0.71652400  0.81581300  1
  O  O32  1  0.37423900  0.51367000  0.78922600  1
  O  O33  1  0.42525100  0.89223900  0.83236800  1
  O  O34  1  0.10097800  0.94930600  0.84401700  1
  O  O35  1  0.83133000  0.86567000  0.82664200  1
  O  O36  1  0.54441500  0.07902200  0.83832400  1
  O  O37  1  0.98300900  0.69826800  0.69316400  1
  O  O38  1  0.07363800  0.62369500  0.54757300  1
  O  O39  1  0.50700600  0.67871200  0.51003100  1
  O  O40  1  0.04441500  0.92097800  0.66167600  1
  O  O41  1  0.79281700  0.72865100  0.53775500  1
  O  O42  1  0.24078800  0.82224500  0.58420100  1
  O  O43  1  0.33133000  0.13433000  0.67335800  1
  O  O44  1  0.60097800  0.05069400  0.65598300  1
  O  O45  1  0.92525100  0.10776100  0.66763200  1
  O  O46  1  0.74683500  0.62529600  0.41212200  1
  O  O47  1  0.70503000  0.28347600  0.68418700  1
  O  O48  1  0.29497000  0.71652400  0.31581300  1
  O  O49  1  0.25316500  0.37470400  0.58787800  1
  O  O50  1  0.07474900  0.89223900  0.33236800  1
  O  O51  1  0.39902200  0.94930600  0.34401700  1
  O  O52  1  0.66867000  0.86567000  0.32664200  1
  O  O53  1  0.75921200  0.17775500  0.41579900  1
  O  O54  1  0.20718300  0.27134900  0.46224500  1
  O  O55  1  0.95558500  0.07902200  0.33832400  1
  O  O56  1  0.49299400  0.32128800  0.48996900  1
  O  O57  1  0.92636200  0.37630500  0.45242700  1
  O  O58  1  0.01699100  0.30173200  0.30683600  1
  O  O59  1  0.45558500  0.92097800  0.16167600  1
  O  O60  1  0.16867000  0.13433000  0.17335800  1
  O  O61  1  0.89902200  0.05069400  0.15598300  1
  O  O62  1  0.57474900  0.10776100  0.16763200  1
  O  O63  1  0.62576100  0.48633000  0.21077400  1
  O  O64  1  0.79497000  0.28347600  0.18418700  1
  O  O65  1  0.12576100  0.51367000  0.28922600  1
  O  O66  1  0.24683500  0.37470400  0.08787800  1
  O  O67  1  0.51699100  0.69826800  0.19316400  1
  O  O68  1  0.42636200  0.62369500  0.04757300  1
  O  O69  1  0.99299400  0.67871200  0.01003100  1
  O  O70  1  0.70718300  0.72865100  0.03775500  1
  O  O71  1  0.25921200  0.82224500  0.08420100  1
