# generated using pymatgen
data_Li4Ti2V3Fe3O16
_symmetry_space_group_name_H-M   'P 1'
_cell_length_a   5.93147354
_cell_length_b   5.95100129
_cell_length_c   9.60162427
_cell_angle_alpha   90.05550604
_cell_angle_beta   89.24374764
_cell_angle_gamma   120.08984965
_symmetry_Int_Tables_number   1
_chemical_formula_structural   Li4Ti2V3Fe3O16
_chemical_formula_sum   'Li4 Ti2 V3 Fe3 O16'
_cell_volume   293.21553531
_cell_formula_units_Z   1
loop_
 _symmetry_equiv_pos_site_id
 _symmetry_equiv_pos_as_xyz
  1  'x, y, z'
loop_
 _atom_site_type_symbol
 _atom_site_label
 _atom_site_symmetry_multiplicity
 _atom_site_fract_x
 _atom_site_fract_y
 _atom_site_fract_z
 _atom_site_occupancy
  Li  Li0  1  0.33347200  0.66777700  0.89810600  1
  Li  Li1  1  0.99603000  0.99769000  0.99555000  1
  Li  Li2  1  0.99671300  0.99843300  0.49133400  1
  Li  Li3  1  0.66922400  0.33444600  0.39743600  1
  Ti  Ti4  1  0.32274000  0.66081400  0.48232300  1
  Ti  Ti5  1  0.67982400  0.33896700  0.00053400  1
  V  V6  1  0.81982900  0.65743200  0.71588300  1
  V  V7  1  0.65697300  0.82843000  0.21885300  1
  V  V8  1  0.82322100  0.16655800  0.71685800  1
  Fe  Fe9  1  0.17569900  0.83315300  0.21355500  1
  Fe  Fe10  1  0.17596700  0.34215300  0.21352300  1
  Fe  Fe11  1  0.33485400  0.16548000  0.70855100  1
  O  O12  1  0.14990500  0.82158300  0.60003300  1
  O  O13  1  0.04143000  0.52059500  0.34763900  1
  O  O14  1  0.34077400  0.67030600  0.10458000  1
  O  O15  1  0.00060300  0.00019400  0.30397900  1
  O  O16  1  0.99546900  0.99834100  0.80824300  1
  O  O17  1  0.15270200  0.32794600  0.59935600  1
  O  O18  1  0.48045300  0.95961800  0.35131100  1
  O  O19  1  0.48133300  0.52096500  0.35123400  1
  O  O20  1  0.34122900  0.17068700  0.08857800  1
  O  O21  1  0.66760600  0.83519700  0.60205500  1
  O  O22  1  0.53295100  0.49298500  0.83398700  1
  O  O23  1  0.53239100  0.04327400  0.83591900  1
  O  O24  1  0.67572600  0.33675200  0.60268100  1
  O  O25  1  0.83119900  0.65944300  0.09332000  1
  O  O26  1  0.96066800  0.47950100  0.83832200  1
  O  O27  1  0.83101400  0.17158000  0.09409400  1
