# generated using pymatgen
data_LiCoPO4
_symmetry_space_group_name_H-M   'P 1'
_cell_length_a   5.43457700
_cell_length_b   7.43473901
_cell_length_c   8.22021601
_cell_angle_alpha   89.99568695
_cell_angle_beta   89.99990207
_cell_angle_gamma   90.00030173
_symmetry_Int_Tables_number   1
_chemical_formula_structural   LiCoPO4
_chemical_formula_sum   'Li4 Co4 P4 O16'
_cell_volume   332.13504504
_cell_formula_units_Z   4
loop_
 _symmetry_equiv_pos_site_id
 _symmetry_equiv_pos_as_xyz
  1  'x, y, z'
loop_
 _atom_site_type_symbol
 _atom_site_label
 _atom_site_symmetry_multiplicity
 _atom_site_fract_x
 _atom_site_fract_y
 _atom_site_fract_z
 _atom_site_occupancy
  Li  Li0  1  0.73063200  0.92080900  0.75197400  1
  Li  Li1  1  0.23065100  0.57919400  0.25201000  1
  Li  Li2  1  0.73065200  0.42080300  0.74799000  1
  Li  Li3  1  0.23062600  0.07918900  0.24802400  1
  Co  Co4  1  0.71533900  0.26476400  0.06132200  1
  Co  Co5  1  0.21534300  0.73523700  0.93867700  1
  Co  Co6  1  0.21535300  0.23523200  0.56130500  1
  Co  Co7  1  0.71535300  0.76477100  0.43869300  1
  P  P8  1  0.72175700  0.20052800  0.42367800  1
  P  P9  1  0.22172400  0.29948200  0.92367600  1
  P  P10  1  0.72173000  0.70051600  0.07632600  1
  P  P11  1  0.22175600  0.79947300  0.57632200  1
  O  O12  1  0.69089800  0.01960200  0.51458200  1
  O  O13  1  0.19090500  0.48039600  0.01456600  1
  O  O14  1  0.69090800  0.51960000  0.98543400  1
  O  O15  1  0.19089400  0.98039700  0.48541700  1
  O  O16  1  0.46365000  0.27994700  0.38138900  1
  O  O17  1  0.96362200  0.22007700  0.88138300  1
  O  O18  1  0.46362800  0.77992100  0.11861600  1
  O  O19  1  0.96365100  0.72005700  0.61861200  1
  O  O20  1  0.86894700  0.17482000  0.26154800  1
  O  O21  1  0.36896600  0.32518300  0.76151300  1
  O  O22  1  0.86897000  0.67481700  0.23848900  1
  O  O23  1  0.36895100  0.82518600  0.73845100  1
  O  O24  1  0.86978700  0.33068300  0.53578000  1
  O  O25  1  0.36975700  0.16931800  0.03579100  1
  O  O26  1  0.86976300  0.83067700  0.96421100  1
  O  O27  1  0.36978200  0.66932000  0.46422100  1
