# generated using pymatgen
data_LiCr(PO4)2
_symmetry_space_group_name_H-M   'P 1'
_cell_length_a   5.18268600
_cell_length_b   10.52659700
_cell_length_c   11.08547400
_cell_angle_alpha   90.00000000
_cell_angle_beta   90.00000000
_cell_angle_gamma   90.00000000
_symmetry_Int_Tables_number   1
_chemical_formula_structural   LiCr(PO4)2
_chemical_formula_sum   'Li4 Cr4 P8 O32'
_cell_volume   604.77963945
_cell_formula_units_Z   4
loop_
 _symmetry_equiv_pos_site_id
 _symmetry_equiv_pos_as_xyz
  1  'x, y, z'
loop_
 _atom_site_type_symbol
 _atom_site_label
 _atom_site_symmetry_multiplicity
 _atom_site_fract_x
 _atom_site_fract_y
 _atom_site_fract_z
 _atom_site_occupancy
  Li  Li0  1  0.78064100  0.73408800  0.10976700  1
  Li  Li1  1  0.21935900  0.23408800  0.39023300  1
  Li  Li2  1  0.71935900  0.26591200  0.60976700  1
  Li  Li3  1  0.28064100  0.76591200  0.89023300  1
  Cr  Cr4  1  0.23370800  0.40260500  0.14293800  1
  Cr  Cr5  1  0.76629200  0.90260500  0.35706200  1
  Cr  Cr6  1  0.26629200  0.59739500  0.64293800  1
  Cr  Cr7  1  0.73370800  0.09739500  0.85706200  1
  P  P8  1  0.23954300  0.09226400  0.03841900  1
  P  P9  1  0.25717000  0.85950600  0.17529000  1
  P  P10  1  0.74283000  0.35950600  0.32471000  1
  P  P11  1  0.76045700  0.59226400  0.46158100  1
  P  P12  1  0.26045700  0.90773600  0.53841900  1
  P  P13  1  0.24283000  0.14049400  0.67529000  1
  P  P14  1  0.75717000  0.64049400  0.82471000  1
  P  P15  1  0.73954300  0.40773600  0.96158100  1
  O  O16  1  0.98807300  0.05269000  0.97760800  1
  O  O17  1  0.97577200  0.45818000  0.02972200  1
  O  O18  1  0.20468400  0.79683700  0.05575600  1
  O  O19  1  0.25497000  0.23073800  0.07087800  1
  O  O20  1  0.24516300  0.01400100  0.16415900  1
  O  O21  1  0.24590100  0.53556500  0.21263600  1
  O  O22  1  0.96358000  0.32407900  0.23759600  1
  O  O23  1  0.52473000  0.82638000  0.22706700  1
  O  O24  1  0.47527000  0.32638000  0.27293300  1
  O  O25  1  0.03642000  0.82407900  0.26240400  1
  O  O26  1  0.75409900  0.03556500  0.28736400  1
  O  O27  1  0.75483700  0.51400100  0.33584100  1
  O  O28  1  0.74503000  0.73073800  0.42912200  1
  O  O29  1  0.79531600  0.29683700  0.44424400  1
  O  O30  1  0.02422800  0.95818000  0.47027800  1
  O  O31  1  0.01192700  0.55269000  0.52239200  1
  O  O32  1  0.51192700  0.94731000  0.47760800  1
  O  O33  1  0.52422800  0.54182000  0.52972200  1
  O  O34  1  0.29531600  0.20316300  0.55575600  1
  O  O35  1  0.24503000  0.76926200  0.57087800  1
  O  O36  1  0.25483700  0.98599900  0.66415900  1
  O  O37  1  0.25409900  0.46443500  0.71263600  1
  O  O38  1  0.53642000  0.67592100  0.73759600  1
  O  O39  1  0.97527000  0.17362000  0.72706700  1
  O  O40  1  0.02473000  0.67362000  0.77293300  1
  O  O41  1  0.46358000  0.17592100  0.76240400  1
  O  O42  1  0.74590100  0.96443500  0.78736400  1
  O  O43  1  0.74516300  0.48599900  0.83584100  1
  O  O44  1  0.75497000  0.26926200  0.92912200  1
  O  O45  1  0.70468400  0.70316300  0.94424400  1
  O  O46  1  0.47577200  0.04182000  0.97027800  1
  O  O47  1  0.48807300  0.44731000  0.02239200  1
