# generated using pymatgen
data_Li4MnCrO6
_symmetry_space_group_name_H-M   'P 1'
_cell_length_a   5.01429600
_cell_length_b   8.73123793
_cell_length_c   9.77587820
_cell_angle_alpha   98.54163557
_cell_angle_beta   94.55007623
_cell_angle_gamma   90.09859650
_symmetry_Int_Tables_number   1
_chemical_formula_structural   Li4MnCrO6
_chemical_formula_sum   'Li16 Mn4 Cr4 O24'
_cell_volume   421.87705409
_cell_formula_units_Z   4
loop_
 _symmetry_equiv_pos_site_id
 _symmetry_equiv_pos_as_xyz
  1  'x, y, z'
loop_
 _atom_site_type_symbol
 _atom_site_label
 _atom_site_symmetry_multiplicity
 _atom_site_fract_x
 _atom_site_fract_y
 _atom_site_fract_z
 _atom_site_occupancy
  Li  Li0  1  0.98905400  0.16581000  0.50010300  1
  Li  Li1  1  0.87105200  0.37591800  0.75040900  1
  Li  Li2  1  0.75191400  0.24789400  0.99977900  1
  Li  Li3  1  0.74359900  0.91989800  0.99951300  1
  Li  Li4  1  0.75529800  0.58078400  0.99748500  1
  Li  Li5  1  0.62743500  0.12416600  0.24960200  1
  Li  Li6  1  0.50821400  0.33200800  0.49913100  1
  Li  Li7  1  0.50238100  0.99884600  0.50158100  1
  Li  Li8  1  0.49250600  0.66852900  0.50075100  1
  Li  Li9  1  0.37457900  0.87574900  0.74966900  1
  Li  Li10  1  0.24771700  0.75043700  0.99948200  1
  Li  Li11  1  0.24632100  0.42068900  0.00109300  1
  Li  Li12  1  0.25620200  0.07941900  0.99993000  1
  Li  Li13  1  0.12412300  0.62567400  0.25037900  1
  Li  Li14  1  0.00803200  0.83420200  0.50208300  1
  Li  Li15  1  0.00190000  0.50063400  0.49958000  1
  Mn  Mn16  1  0.87490600  0.70874900  0.74973500  1
  Mn  Mn17  1  0.87318100  0.03962400  0.74870200  1
  Mn  Mn18  1  0.37714400  0.54310000  0.75143200  1
  Mn  Mn19  1  0.12565400  0.29204500  0.24992700  1
  Cr  Cr20  1  0.61978500  0.78823400  0.24899700  1
  Cr  Cr21  1  0.63184500  0.45744300  0.25133500  1
  Cr  Cr22  1  0.36696000  0.21050800  0.75010300  1
  Cr  Cr23  1  0.12766000  0.96188200  0.24945000  1
  O  O24  1  0.96201200  0.11026400  0.13731500  1
  O  O25  1  0.92658400  0.78680900  0.13850600  1
  O  O26  1  0.93004300  0.42623100  0.13701600  1
  O  O27  1  0.82458100  0.96301400  0.36123200  1
  O  O28  1  0.82501400  0.32094000  0.36429800  1
  O  O29  1  0.78111100  0.63844800  0.36212100  1
  O  O30  1  0.71378500  0.85546000  0.63892300  1
  O  O31  1  0.67849800  0.53545200  0.63874900  1
  O  O32  1  0.67804000  0.17549600  0.63665800  1
  O  O33  1  0.46789700  0.60944800  0.13840700  1
  O  O34  1  0.57173100  0.71548200  0.86125500  1
  O  O35  1  0.57357200  0.07431300  0.86312800  1
  O  O36  1  0.41839500  0.92749700  0.13548500  1
  O  O37  1  0.42736800  0.28722100  0.13864900  1
  O  O38  1  0.53678000  0.39805200  0.86317200  1
  O  O39  1  0.33095700  0.82260300  0.36422000  1
  O  O40  1  0.31862700  0.46410500  0.36185000  1
  O  O41  1  0.28405900  0.14304500  0.36082100  1
  O  O42  1  0.22078800  0.35588300  0.63925300  1
  O  O43  1  0.17785100  0.67683800  0.63704700  1
  O  O44  1  0.17326900  0.03311300  0.63674700  1
  O  O45  1  0.07184900  0.57305200  0.86308000  1
  O  O46  1  0.07506700  0.21188400  0.86108300  1
  O  O47  1  0.03465600  0.89311100  0.86073100  1
