# generated using pymatgen
data_NaLi2MnPCO7
_symmetry_space_group_name_H-M   'P 1'
_cell_length_a   6.66311800
_cell_length_b   8.72096950
_cell_length_c   10.07064483
_cell_angle_alpha   89.13554056
_cell_angle_beta   89.97911427
_cell_angle_gamma   89.95662561
_symmetry_Int_Tables_number   1
_chemical_formula_structural   NaLi2MnPCO7
_chemical_formula_sum   'Na4 Li8 Mn4 P4 C4 O28'
_cell_volume   585.12676957
_cell_formula_units_Z   4
loop_
 _symmetry_equiv_pos_site_id
 _symmetry_equiv_pos_as_xyz
  1  'x, y, z'
loop_
 _atom_site_type_symbol
 _atom_site_label
 _atom_site_symmetry_multiplicity
 _atom_site_fract_x
 _atom_site_fract_y
 _atom_site_fract_z
 _atom_site_occupancy
  Na  Na0  1  0.74687000  0.08373800  0.87980000  1
  Na  Na1  1  0.74981300  0.08262000  0.37872200  1
  Na  Na2  1  0.00072600  0.25360700  0.62368600  1
  Na  Na3  1  0.49928800  0.74646900  0.37662700  1
  Li  Li4  1  0.51151000  0.26515100  0.61830400  1
  Li  Li5  1  0.98832400  0.26397000  0.11998800  1
  Li  Li6  1  0.51222600  0.26444500  0.11841000  1
  Li  Li7  1  0.48879300  0.73687800  0.88028700  1
  Li  Li8  1  0.01183000  0.73642400  0.88175800  1
  Li  Li9  1  0.01088300  0.73565200  0.38171600  1
  Li  Li10  1  0.25196400  0.91553300  0.62334900  1
  Li  Li11  1  0.24618400  0.91646200  0.12130300  1
  Mn  Mn12  1  0.25043500  0.35911200  0.88988100  1
  Mn  Mn13  1  0.25361100  0.36009400  0.38729100  1
  Mn  Mn14  1  0.75349200  0.64141600  0.61288600  1
  Mn  Mn15  1  0.75072900  0.64228900  0.11048800  1
  P  P16  1  0.74597100  0.41256600  0.85230800  1
  P  P17  1  0.75495000  0.40927400  0.34914400  1
  P  P18  1  0.25448800  0.59644400  0.65126800  1
  P  P19  1  0.24614100  0.59292200  0.14799600  1
  C  C20  1  0.25164900  0.04377500  0.86801900  1
  C  C21  1  0.24390500  0.04796600  0.36483200  1
  C  C22  1  0.74389800  0.94487800  0.63423500  1
  C  C23  1  0.75179700  0.94857200  0.13169400  1
  O  O24  1  0.72720900  0.09333000  0.64317700  1
  O  O25  1  0.75086400  0.09809100  0.13959300  1
  O  O26  1  0.24961800  0.09722800  0.98816500  1
  O  O27  1  0.25189900  0.09856300  0.48627000  1
  O  O28  1  0.25458300  0.13905300  0.76656000  1
  O  O29  1  0.25437200  0.14441300  0.26454900  1
  O  O30  1  0.93477700  0.32119800  0.89900400  1
  O  O31  1  0.56366500  0.32095300  0.90791100  1
  O  O32  1  0.93948300  0.31359800  0.39462000  1
  O  O33  1  0.56788900  0.32176700  0.40289300  1
  O  O34  1  0.73609300  0.41586500  0.69713100  1
  O  O35  1  0.26492400  0.42915900  0.59897500  1
  O  O36  1  0.74774800  0.41387100  0.19330000  1
  O  O37  1  0.24884600  0.42351600  0.09910500  1
  O  O38  1  0.74866600  0.58132900  0.89944200  1
  O  O39  1  0.24754200  0.58628700  0.80684600  1
  O  O40  1  0.76520700  0.57603600  0.39950600  1
  O  O41  1  0.23611500  0.58454800  0.30298800  1
  O  O42  1  0.43674300  0.69491300  0.60703300  1
  O  O43  1  0.06914800  0.68638200  0.59848300  1
  O  O44  1  0.43327800  0.68625300  0.10231500  1
  O  O45  1  0.06554700  0.68683400  0.09337800  1
  O  O46  1  0.75324300  0.85874200  0.74044300  1
  O  O47  1  0.75486300  0.86310800  0.23851200  1
  O  O48  1  0.75212500  0.88138700  0.51866500  1
  O  O49  1  0.74915500  0.88270300  0.01724200  1
  O  O50  1  0.25038400  0.89745700  0.84743000  1
  O  O51  1  0.22653800  0.90315700  0.34247500  1
