# generated using pymatgen
data_Li2BiO3
_symmetry_space_group_name_H-M   'P 1'
_cell_length_a   5.44275761
_cell_length_b   5.44275761
_cell_length_c   3.46387000
_cell_angle_alpha   90.00000000
_cell_angle_beta   90.00000000
_cell_angle_gamma   131.84316641
_symmetry_Int_Tables_number   1
_chemical_formula_structural   Li2BiO3
_chemical_formula_sum   'Li2 Bi1 O3'
_cell_volume   76.44348340
_cell_formula_units_Z   1
loop_
 _symmetry_equiv_pos_site_id
 _symmetry_equiv_pos_as_xyz
  1  'x, y, z'
loop_
 _atom_site_type_symbol
 _atom_site_label
 _atom_site_symmetry_multiplicity
 _atom_site_fract_x
 _atom_site_fract_y
 _atom_site_fract_z
 _atom_site_occupancy
  Li  Li0  1  0.65551900  0.34448100  0.50000000  1
  Li  Li1  1  0.34448100  0.65551900  0.50000000  1
  Bi  Bi2  1  0.00000000  0.00000000  0.00000000  1
  O  O3  1  0.14753900  0.85246100  0.50000000  1
  O  O4  1  0.85246100  0.14753900  0.50000000  1
  O  O5  1  0.50000000  0.50000000  0.00000000  1
