# generated using pymatgen
data_LiMnCO4
_symmetry_space_group_name_H-M   'P 1'
_cell_length_a   5.30124200
_cell_length_b   6.48834900
_cell_length_c   10.10423911
_cell_angle_alpha   79.14866808
_cell_angle_beta   90.00000000
_cell_angle_gamma   90.00000000
_symmetry_Int_Tables_number   1
_chemical_formula_structural   LiMnCO4
_chemical_formula_sum   'Li4 Mn4 C4 O16'
_cell_volume   341.33400048
_cell_formula_units_Z   4
loop_
 _symmetry_equiv_pos_site_id
 _symmetry_equiv_pos_as_xyz
  1  'x, y, z'
loop_
 _atom_site_type_symbol
 _atom_site_label
 _atom_site_symmetry_multiplicity
 _atom_site_fract_x
 _atom_site_fract_y
 _atom_site_fract_z
 _atom_site_occupancy
  Li  Li0  1  0.67056400  0.84994300  0.82276400  1
  Li  Li1  1  0.82943600  0.84994300  0.32276400  1
  Li  Li2  1  0.17056400  0.15005700  0.67723600  1
  Li  Li3  1  0.32943600  0.15005700  0.17723600  1
  Mn  Mn4  1  0.37818400  0.58269900  0.64215700  1
  Mn  Mn5  1  0.87818400  0.41730100  0.85784300  1
  Mn  Mn6  1  0.12181600  0.58269900  0.14215700  1
  Mn  Mn7  1  0.62181600  0.41730100  0.35784300  1
  C  C8  1  0.21747600  0.79543000  0.91806900  1
  C  C9  1  0.28252400  0.79543000  0.41806900  1
  C  C10  1  0.71747600  0.20457000  0.58193100  1
  C  C11  1  0.78252400  0.20457000  0.08193100  1
  O  O12  1  0.28337600  0.89923200  0.80545100  1
  O  O13  1  0.21662400  0.89923200  0.30545100  1
  O  O14  1  0.98159400  0.73480000  0.95006200  1
  O  O15  1  0.51840600  0.73480000  0.45006200  1
  O  O16  1  0.12049900  0.73351300  0.51428200  1
  O  O17  1  0.67239300  0.59456200  0.74029900  1
  O  O18  1  0.37950100  0.73351300  0.01428200  1
  O  O19  1  0.82760700  0.59456200  0.24029900  1
  O  O20  1  0.17239300  0.40543800  0.75970100  1
  O  O21  1  0.62049900  0.26648700  0.98571800  1
  O  O22  1  0.32760700  0.40543800  0.25970100  1
  O  O23  1  0.87950100  0.26648700  0.48571800  1
  O  O24  1  0.48159400  0.26520000  0.54993800  1
  O  O25  1  0.01840600  0.26520000  0.04993800  1
  O  O26  1  0.78337600  0.10076800  0.69454900  1
  O  O27  1  0.71662400  0.10076800  0.19454900  1
