# generated using pymatgen
data_LiCr2(PS4)3
_symmetry_space_group_name_H-M   'P 1'
_cell_length_a   11.46102400
_cell_length_b   9.93211900
_cell_length_c   19.19949301
_cell_angle_alpha   62.10975896
_cell_angle_beta   90.00000000
_cell_angle_gamma   90.00000000
_symmetry_Int_Tables_number   1
_chemical_formula_structural   LiCr2(PS4)3
_chemical_formula_sum   'Li4 Cr8 P12 S48'
_cell_volume   1931.66300595
_cell_formula_units_Z   4
loop_
 _symmetry_equiv_pos_site_id
 _symmetry_equiv_pos_as_xyz
  1  'x, y, z'
loop_
 _atom_site_type_symbol
 _atom_site_label
 _atom_site_symmetry_multiplicity
 _atom_site_fract_x
 _atom_site_fract_y
 _atom_site_fract_z
 _atom_site_occupancy
  Li  Li0  1  0.41115400  0.71090600  0.05066700  1
  Li  Li1  1  0.91115400  0.28909400  0.44933300  1
  Li  Li2  1  0.08884600  0.71090600  0.55066700  1
  Li  Li3  1  0.58884600  0.28909400  0.94933300  1
  Cr  Cr4  1  0.77755400  0.78955500  0.10241800  1
  Cr  Cr5  1  0.26537700  0.21262400  0.21168500  1
  Cr  Cr6  1  0.76537700  0.78737600  0.28831500  1
  Cr  Cr7  1  0.27755400  0.21044500  0.39758200  1
  Cr  Cr8  1  0.72244600  0.78955500  0.60241800  1
  Cr  Cr9  1  0.23462300  0.21262400  0.71168500  1
  Cr  Cr10  1  0.73462300  0.78737600  0.78831500  1
  Cr  Cr11  1  0.22244600  0.21044500  0.89758200  1
  P  P12  1  0.24059000  0.22234300  0.05328600  1
  P  P13  1  0.68652900  0.06442400  0.12936200  1
  P  P14  1  0.86558000  0.52011900  0.25930900  1
  P  P15  1  0.36558000  0.47988100  0.24069100  1
  P  P16  1  0.18652900  0.93557600  0.37063800  1
  P  P17  1  0.74059000  0.77765700  0.44671400  1
  P  P18  1  0.25941000  0.22234300  0.55328600  1
  P  P19  1  0.81347100  0.06442400  0.62936200  1
  P  P20  1  0.63442000  0.52011900  0.75930900  1
  P  P21  1  0.13442000  0.47988100  0.74069100  1
  P  P22  1  0.31347100  0.93557600  0.87063800  1
  P  P23  1  0.75941000  0.77765700  0.94671400  1
  S  S24  1  0.66515300  0.65969000  0.04980400  1
  S  S25  1  0.12819200  0.09981000  0.02177000  1
  S  S26  1  0.61941400  0.96672600  0.06447800  1
  S  S27  1  0.15577200  0.35112600  0.09481700  1
  S  S28  1  0.68113300  0.28800700  0.07528000  1
  S  S29  1  0.93873800  0.63280700  0.14754700  1
  S  S30  1  0.35421400  0.09839500  0.14350000  1
  S  S31  1  0.43195200  0.37853600  0.17734400  1
  S  S32  1  0.85073400  0.95396000  0.15862200  1
  S  S33  1  0.37217900  0.70349500  0.18689200  1
  S  S34  1  0.69849400  0.62375300  0.23196400  1
  S  S35  1  0.60811100  0.94844400  0.23916800  1
  S  S36  1  0.10811100  0.05155600  0.26083200  1
  S  S37  1  0.19849400  0.37624700  0.26803600  1
  S  S38  1  0.87217900  0.29650500  0.31310800  1
  S  S39  1  0.93195200  0.62146400  0.32265600  1
  S  S40  1  0.35073400  0.04604000  0.34137800  1
  S  S41  1  0.43873800  0.36719300  0.35245300  1
  S  S42  1  0.85421400  0.90160500  0.35650000  1
  S  S43  1  0.18113300  0.71199300  0.42472000  1
  S  S44  1  0.65577200  0.64887400  0.40518300  1
  S  S45  1  0.11941400  0.03327400  0.43552200  1
  S  S46  1  0.16515300  0.34031000  0.45019600  1
  S  S47  1  0.62819200  0.90019000  0.47823000  1
  S  S48  1  0.37180800  0.09981000  0.52177000  1
  S  S49  1  0.83484700  0.65969000  0.54980400  1
  S  S50  1  0.88058600  0.96672600  0.56447800  1
  S  S51  1  0.34422800  0.35112600  0.59481700  1
  S  S52  1  0.81886700  0.28800700  0.57528000  1
  S  S53  1  0.14578600  0.09839500  0.64350000  1
  S  S54  1  0.56126200  0.63280700  0.64754700  1
  S  S55  1  0.64926600  0.95396000  0.65862200  1
  S  S56  1  0.06804800  0.37853600  0.67734400  1
  S  S57  1  0.12782100  0.70349500  0.68689200  1
  S  S58  1  0.80150600  0.62375300  0.73196400  1
  S  S59  1  0.89188900  0.94844400  0.73916800  1
  S  S60  1  0.39188900  0.05155600  0.76083200  1
  S  S61  1  0.30150600  0.37624700  0.76803600  1
  S  S62  1  0.62782100  0.29650500  0.81310800  1
  S  S63  1  0.14926600  0.04604000  0.84137800  1
  S  S64  1  0.56804800  0.62146400  0.82265600  1
  S  S65  1  0.64578600  0.90160500  0.85650000  1
  S  S66  1  0.06126200  0.36719300  0.85245300  1
  S  S67  1  0.31886700  0.71199300  0.92472000  1
  S  S68  1  0.84422800  0.64887400  0.90518300  1
  S  S69  1  0.38058600  0.03327400  0.93552200  1
  S  S70  1  0.87180800  0.90019000  0.97823000  1
  S  S71  1  0.33484700  0.34031000  0.95019600  1
