# generated using pymatgen
data_Li3BiS3
_symmetry_space_group_name_H-M   'P 1'
_cell_length_a   11.04590600
_cell_length_b   11.20556363
_cell_length_c   12.31262845
_cell_angle_alpha   113.70192185
_cell_angle_beta   108.76588985
_cell_angle_gamma   88.01285986
_symmetry_Int_Tables_number   1
_chemical_formula_structural   Li3BiS3
_chemical_formula_sum   'Li24 Bi8 S24'
_cell_volume   1313.37488780
_cell_formula_units_Z   8
loop_
 _symmetry_equiv_pos_site_id
 _symmetry_equiv_pos_as_xyz
  1  'x, y, z'
loop_
 _atom_site_type_symbol
 _atom_site_label
 _atom_site_symmetry_multiplicity
 _atom_site_fract_x
 _atom_site_fract_y
 _atom_site_fract_z
 _atom_site_occupancy
  Li  Li0  1  0.90988200  0.50310100  0.07534400  1
  Li  Li1  1  0.92776400  0.66287200  0.44828800  1
  Li  Li2  1  0.89715900  0.08142500  0.50047500  1
  Li  Li3  1  0.84121200  0.37357400  0.65118600  1
  Li  Li4  1  0.72005700  0.54864500  0.21647000  1
  Li  Li5  1  0.68347900  0.85239900  0.40874400  1
  Li  Li6  1  0.65979900  0.10798200  0.33544000  1
  Li  Li7  1  0.52696000  0.73747900  0.06403100  1
  Li  Li8  1  0.57734500  0.42638600  0.37791000  1
  Li  Li9  1  0.48854400  0.13365000  0.10796400  1
  Li  Li10  1  0.68220400  0.45623000  0.83035800  1
  Li  Li11  1  0.48512200  0.74802000  0.46072700  1
  Li  Li12  1  0.51487800  0.25198000  0.53927300  1
  Li  Li13  1  0.31779600  0.54377000  0.16964200  1
  Li  Li14  1  0.51145600  0.86635000  0.89203600  1
  Li  Li15  1  0.42265500  0.57361400  0.62209000  1
  Li  Li16  1  0.47304000  0.26252100  0.93596900  1
  Li  Li17  1  0.34020100  0.89201800  0.66456000  1
  Li  Li18  1  0.31652100  0.14760100  0.59125600  1
  Li  Li19  1  0.27994300  0.45135500  0.78353000  1
  Li  Li20  1  0.15878800  0.62642600  0.34881400  1
  Li  Li21  1  0.10284100  0.91857500  0.49952500  1
  Li  Li22  1  0.07223600  0.33712800  0.55171200  1
  Li  Li23  1  0.09011800  0.49689900  0.92465600  1
  Bi  Bi24  1  0.84398000  0.83116600  0.14318700  1
  Bi  Bi25  1  0.82972500  0.25128600  0.20293400  1
  Bi  Bi26  1  0.75213600  0.69633100  0.68577600  1
  Bi  Bi27  1  0.72055400  0.13827900  0.76587600  1
  Bi  Bi28  1  0.27944600  0.86172100  0.23412400  1
  Bi  Bi29  1  0.24786400  0.30366900  0.31422400  1
  Bi  Bi30  1  0.17027500  0.74871400  0.79706600  1
  Bi  Bi31  1  0.15602000  0.16883400  0.85681300  1
  S  S32  1  0.95233900  0.47459500  0.26835300  1
  S  S33  1  0.88405800  0.85039200  0.36414400  1
  S  S34  1  0.85503000  0.25275900  0.41699100  1
  S  S35  1  0.71088500  0.61065600  0.04233000  1
  S  S36  1  0.63972200  0.95739100  0.11730700  1
  S  S37  1  0.88951200  0.34275700  0.85981500  1
  S  S38  1  0.61144000  0.33639100  0.15818500  1
  S  S39  1  0.71226300  0.65763300  0.45921900  1
  S  S40  1  0.69365700  0.08580900  0.53881000  1
  S  S41  1  0.64098800  0.47631400  0.63206900  1
  S  S42  1  0.47313100  0.73378400  0.23850600  1
  S  S43  1  0.44191500  0.17512400  0.30096600  1
  S  S44  1  0.55808500  0.82487600  0.69903400  1
  S  S45  1  0.52686900  0.26621600  0.76149400  1
  S  S46  1  0.35901200  0.52368600  0.36793100  1
  S  S47  1  0.30634300  0.91419100  0.46119000  1
  S  S48  1  0.28773700  0.34236700  0.54078100  1
  S  S49  1  0.38856000  0.66360900  0.84181500  1
  S  S50  1  0.11048800  0.65724300  0.14018500  1
  S  S51  1  0.36027800  0.04260900  0.88269300  1
  S  S52  1  0.28911500  0.38934400  0.95767000  1
  S  S53  1  0.14497000  0.74724100  0.58300900  1
  S  S54  1  0.11594200  0.14960800  0.63585600  1
  S  S55  1  0.04766100  0.52540500  0.73164700  1
