# generated using pymatgen
data_LiPW4O13
_symmetry_space_group_name_H-M   'P 1'
_cell_length_a   10.05416400
_cell_length_b   10.17700300
_cell_length_c   10.47855700
_cell_angle_alpha   90.00000000
_cell_angle_beta   90.00000000
_cell_angle_gamma   90.00000000
_symmetry_Int_Tables_number   1
_chemical_formula_structural   LiPW4O13
_chemical_formula_sum   'Li4 P4 W16 O52'
_cell_volume   1072.17912578
_cell_formula_units_Z   4
loop_
 _symmetry_equiv_pos_site_id
 _symmetry_equiv_pos_as_xyz
  1  'x, y, z'
loop_
 _atom_site_type_symbol
 _atom_site_label
 _atom_site_symmetry_multiplicity
 _atom_site_fract_x
 _atom_site_fract_y
 _atom_site_fract_z
 _atom_site_occupancy
  Li  Li0  1  0.55199000  0.26036400  0.50000000  1
  Li  Li1  1  0.04828100  0.29683300  0.00000000  1
  Li  Li2  1  0.44801000  0.76036400  0.50000000  1
  Li  Li3  1  0.95171900  0.79683300  0.00000000  1
  P  P4  1  0.82475200  0.25037100  0.50000000  1
  P  P5  1  0.32321400  0.25366400  0.00000000  1
  P  P6  1  0.17524800  0.75037100  0.50000000  1
  P  P7  1  0.67678600  0.75366400  0.00000000  1
  W  W8  1  0.00066100  0.00070700  0.33778200  1
  W  W9  1  0.00066100  0.00070700  0.66221800  1
  W  W10  1  0.78583400  0.24829100  0.82410200  1
  W  W11  1  0.78583400  0.24829100  0.17589800  1
  W  W12  1  0.28535600  0.25217500  0.32363700  1
  W  W13  1  0.28535600  0.25217500  0.67636300  1
  W  W14  1  0.50237600  0.50039000  0.83798400  1
  W  W15  1  0.50237600  0.50039000  0.16201600  1
  W  W16  1  0.99933900  0.50070700  0.33778200  1
  W  W17  1  0.99933900  0.50070700  0.66221800  1
  W  W18  1  0.21416600  0.74829100  0.82410200  1
  W  W19  1  0.21416600  0.74829100  0.17589800  1
  W  W20  1  0.71464400  0.75217500  0.32363700  1
  W  W21  1  0.71464400  0.75217500  0.67636300  1
  W  W22  1  0.49762400  0.00039000  0.83798400  1
  W  W23  1  0.49762400  0.00039000  0.16201600  1
  O  O24  1  0.65011700  0.11555600  0.85365800  1
  O  O25  1  0.65011700  0.11555600  0.14634200  1
  O  O26  1  0.15125900  0.11179200  0.35187800  1
  O  O27  1  0.15125900  0.11179200  0.64812200  1
  O  O28  1  0.91623900  0.12334500  0.50000000  1
  O  O29  1  0.41217000  0.12519200  0.00000000  1
  O  O30  1  0.91327900  0.10876100  0.78656700  1
  O  O31  1  0.91327900  0.10876100  0.21343300  1
  O  O32  1  0.41249000  0.11568100  0.71627300  1
  O  O33  1  0.41249000  0.11568100  0.28372700  1
  O  O34  1  0.73273200  0.25086700  0.38184400  1
  O  O35  1  0.73273200  0.25086700  0.61815600  1
  O  O36  1  0.85600300  0.25077800  0.00000000  1
  O  O37  1  0.35484100  0.25130500  0.50000000  1
  O  O38  1  0.23142200  0.25734200  0.88167500  1
  O  O39  1  0.23142200  0.25734200  0.11832500  1
  O  O40  1  0.91252400  0.38382800  0.78459700  1
  O  O41  1  0.91252400  0.38382800  0.21540300  1
  O  O42  1  0.41193900  0.39062000  0.28580500  1
  O  O43  1  0.41193900  0.39062000  0.71419500  1
  O  O44  1  0.91410400  0.37843600  0.50000000  1
  O  O45  1  0.41554900  0.38049000  0.00000000  1
  O  O46  1  0.64917100  0.39002200  0.85443000  1
  O  O47  1  0.64917100  0.39002200  0.14557000  1
  O  O48  1  0.14870600  0.38790400  0.35588600  1
  O  O49  1  0.14870600  0.38790400  0.64411400  1
  O  O50  1  0.34988300  0.61555600  0.85365800  1
  O  O51  1  0.34988300  0.61555600  0.14634200  1
  O  O52  1  0.84874100  0.61179200  0.35187800  1
  O  O53  1  0.84874100  0.61179200  0.64812200  1
  O  O54  1  0.08376100  0.62334500  0.50000000  1
  O  O55  1  0.58783000  0.62519200  0.00000000  1
  O  O56  1  0.08672100  0.60876100  0.78656700  1
  O  O57  1  0.08672100  0.60876100  0.21343300  1
  O  O58  1  0.58751000  0.61568100  0.71627300  1
  O  O59  1  0.58751000  0.61568100  0.28372700  1
  O  O60  1  0.26726800  0.75086700  0.61815600  1
  O  O61  1  0.26726800  0.75086700  0.38184400  1
  O  O62  1  0.14399700  0.75077800  0.00000000  1
  O  O63  1  0.64515900  0.75130500  0.50000000  1
  O  O64  1  0.76857800  0.75734200  0.88167500  1
  O  O65  1  0.76857800  0.75734200  0.11832500  1
  O  O66  1  0.08747600  0.88382800  0.78459700  1
  O  O67  1  0.08747600  0.88382800  0.21540300  1
  O  O68  1  0.58806100  0.89062000  0.28580500  1
  O  O69  1  0.58806100  0.89062000  0.71419500  1
  O  O70  1  0.08589600  0.87843600  0.50000000  1
  O  O71  1  0.58445100  0.88049000  0.00000000  1
  O  O72  1  0.35082900  0.89002200  0.85443000  1
  O  O73  1  0.35082900  0.89002200  0.14557000  1
  O  O74  1  0.85129400  0.88790400  0.64411400  1
  O  O75  1  0.85129400  0.88790400  0.35588600  1
