# generated using pymatgen
data_Li3CrSi2O7
_symmetry_space_group_name_H-M   'P 1'
_cell_length_a   8.58308195
_cell_length_b   8.58308195
_cell_length_c   12.98229800
_cell_angle_alpha   90.00000000
_cell_angle_beta   90.00000000
_cell_angle_gamma   119.99999963
_symmetry_Int_Tables_number   1
_chemical_formula_structural   Li3CrSi2O7
_chemical_formula_sum   'Li18 Cr6 Si12 O42'
_cell_volume   828.26388602
_cell_formula_units_Z   6
loop_
 _symmetry_equiv_pos_site_id
 _symmetry_equiv_pos_as_xyz
  1  'x, y, z'
loop_
 _atom_site_type_symbol
 _atom_site_label
 _atom_site_symmetry_multiplicity
 _atom_site_fract_x
 _atom_site_fract_y
 _atom_site_fract_z
 _atom_site_occupancy
  Li  Li0  1  0.02468600  0.69105600  0.89715900  1
  Li  Li1  1  0.02343500  0.69049000  0.56600700  1
  Li  Li2  1  0.33333300  0.66666700  0.21649700  1
  Li  Li3  1  0.33333300  0.66666700  0.73352500  1
  Li  Li4  1  0.00000000  0.00000000  0.46707600  1
  Li  Li5  1  0.00000000  0.00000000  0.96707600  1
  Li  Li6  1  0.30951000  0.33294400  0.56600700  1
  Li  Li7  1  0.30894400  0.33363100  0.89715900  1
  Li  Li8  1  0.66636900  0.97531400  0.89715900  1
  Li  Li9  1  0.66705600  0.97656500  0.56600700  1
  Li  Li10  1  0.33294400  0.02343500  0.06600700  1
  Li  Li11  1  0.33363100  0.02468600  0.39715900  1
  Li  Li12  1  0.69105600  0.66636900  0.39715900  1
  Li  Li13  1  0.69049000  0.66705600  0.06600700  1
  Li  Li14  1  0.66666700  0.33333300  0.23352500  1
  Li  Li15  1  0.66666700  0.33333300  0.71649700  1
  Li  Li16  1  0.97656500  0.30951000  0.06600700  1
  Li  Li17  1  0.97531400  0.30894400  0.39715900  1
  Cr  Cr18  1  0.00000000  0.00000000  0.23135800  1
  Cr  Cr19  1  0.00000000  0.00000000  0.73135800  1
  Cr  Cr20  1  0.33333300  0.66666700  0.50982500  1
  Cr  Cr21  1  0.33333300  0.66666700  0.95547000  1
  Cr  Cr22  1  0.66666700  0.33333300  0.45547000  1
  Cr  Cr23  1  0.66666700  0.33333300  0.00982500  1
  Si  Si24  1  0.02687300  0.67438000  0.34583500  1
  Si  Si25  1  0.02338000  0.67359000  0.11974900  1
  Si  Si26  1  0.32641000  0.34979000  0.11974900  1
  Si  Si27  1  0.32562000  0.35249300  0.34583500  1
  Si  Si28  1  0.65021000  0.97662000  0.11974900  1
  Si  Si29  1  0.64750700  0.97312700  0.34583500  1
  Si  Si30  1  0.35249300  0.02687300  0.84583500  1
  Si  Si31  1  0.34979000  0.02338000  0.61974900  1
  Si  Si32  1  0.67438000  0.64750700  0.84583500  1
  Si  Si33  1  0.67359000  0.65021000  0.61974900  1
  Si  Si34  1  0.97662000  0.32641000  0.61974900  1
  Si  Si35  1  0.97312700  0.32562000  0.84583500  1
  O  O36  1  0.13326900  0.93191600  0.84270300  1
  O  O37  1  0.13095800  0.92648300  0.62532100  1
  O  O38  1  0.12733700  0.69199300  0.23239300  1
  O  O39  1  0.18783300  0.75656900  0.03533600  1
  O  O40  1  0.18943600  0.75827100  0.43089100  1
  O  O41  1  0.12066600  0.53960000  0.60502300  1
  O  O42  1  0.12039400  0.53850000  0.86041400  1
  O  O43  1  0.06808400  0.20135300  0.84270300  1
  O  O44  1  0.41810600  0.87960600  0.86041400  1
  O  O45  1  0.07351700  0.20447500  0.62532100  1
  O  O46  1  0.41893300  0.87933400  0.60502300  1
  O  O47  1  0.24343100  0.43126500  0.03533600  1
  O  O48  1  0.24172900  0.43116400  0.43089100  1
  O  O49  1  0.30800700  0.43534300  0.23239300  1
  O  O50  1  0.20135300  0.13326900  0.34270300  1
  O  O51  1  0.56465700  0.87266300  0.23239300  1
  O  O52  1  0.20447500  0.13095800  0.12532100  1
  O  O53  1  0.56883600  0.81056400  0.43089100  1
  O  O54  1  0.56873500  0.81216700  0.03533600  1
  O  O55  1  0.46040000  0.58106700  0.60502300  1
  O  O56  1  0.46150000  0.58189400  0.86041400  1
  O  O57  1  0.53850000  0.41810600  0.36041400  1
  O  O58  1  0.53960000  0.41893300  0.10502300  1
  O  O59  1  0.43126500  0.18783300  0.53533600  1
  O  O60  1  0.43116400  0.18943600  0.93089100  1
  O  O61  1  0.79552500  0.86904200  0.62532100  1
  O  O62  1  0.43534300  0.12733700  0.73239300  1
  O  O63  1  0.79864700  0.86673100  0.84270300  1
  O  O64  1  0.69199300  0.56465700  0.73239300  1
  O  O65  1  0.75827100  0.56883600  0.93089100  1
  O  O66  1  0.75656900  0.56873500  0.53533600  1
  O  O67  1  0.58106700  0.12066600  0.10502300  1
  O  O68  1  0.92648300  0.79552500  0.12532100  1
  O  O69  1  0.58189400  0.12039400  0.36041400  1
  O  O70  1  0.93191600  0.79864700  0.34270300  1
  O  O71  1  0.87960600  0.46150000  0.36041400  1
  O  O72  1  0.87933400  0.46040000  0.10502300  1
  O  O73  1  0.81056400  0.24172900  0.93089100  1
  O  O74  1  0.81216700  0.24343100  0.53533600  1
  O  O75  1  0.87266300  0.30800700  0.73239300  1
  O  O76  1  0.86904200  0.07351700  0.12532100  1
  O  O77  1  0.86673100  0.06808400  0.34270300  1
