# generated using pymatgen
data_Li5Cr3NiO8
_symmetry_space_group_name_H-M   'P 1'
_cell_length_a   5.99322108
_cell_length_b   5.99322108
_cell_length_c   9.81932000
_cell_angle_alpha   90.00000000
_cell_angle_beta   90.00000000
_cell_angle_gamma   120.41118884
_symmetry_Int_Tables_number   1
_chemical_formula_structural   Li5Cr3NiO8
_chemical_formula_sum   'Li10 Cr6 Ni2 O16'
_cell_volume   304.17129530
_cell_formula_units_Z   2
loop_
 _symmetry_equiv_pos_site_id
 _symmetry_equiv_pos_as_xyz
  1  'x, y, z'
loop_
 _atom_site_type_symbol
 _atom_site_label
 _atom_site_symmetry_multiplicity
 _atom_site_fract_x
 _atom_site_fract_y
 _atom_site_fract_z
 _atom_site_occupancy
  Li  Li0  1  0.50528600  0.49471400  0.01437700  1
  Li  Li1  1  0.49471400  0.50528600  0.51437700  1
  Li  Li2  1  0.88786900  0.68742800  0.44008700  1
  Li  Li3  1  0.31257100  0.11213100  0.44008700  1
  Li  Li4  1  0.29881600  0.70118400  0.44365000  1
  Li  Li5  1  0.17156000  0.82844000  0.21631800  1
  Li  Li6  1  0.68742800  0.88786900  0.94008700  1
  Li  Li7  1  0.70118400  0.29881600  0.94365000  1
  Li  Li8  1  0.82844000  0.17156000  0.71631800  1
  Li  Li9  1  0.11213100  0.31257200  0.94008700  1
  Cr  Cr10  1  0.83222500  0.67209200  0.71411300  1
  Cr  Cr11  1  0.32790800  0.16777500  0.71411300  1
  Cr  Cr12  1  0.32745900  0.67254100  0.71430100  1
  Cr  Cr13  1  0.67254100  0.32745900  0.21430100  1
  Cr  Cr14  1  0.67209200  0.83222500  0.21411300  1
  Cr  Cr15  1  0.16777500  0.32790800  0.21411300  1
  Ni  Ni16  1  0.16501300  0.83498700  0.97020500  1
  Ni  Ni17  1  0.83498700  0.16501300  0.47020500  1
  O  O18  1  0.49506300  0.50493700  0.82417800  1
  O  O19  1  0.50493700  0.49506300  0.32417800  1
  O  O20  1  0.82770300  0.65771700  0.09764300  1
  O  O21  1  0.00540100  0.99459900  0.83294300  1
  O  O22  1  0.34228300  0.17229700  0.09764300  1
  O  O23  1  0.16320700  0.83679300  0.59921200  1
  O  O24  1  0.00379600  0.52019900  0.83193100  1
  O  O25  1  0.47980100  0.99620400  0.83193100  1
  O  O26  1  0.65689000  0.34311000  0.59524300  1
  O  O27  1  0.34311000  0.65689000  0.09524300  1
  O  O28  1  0.52019900  0.00379600  0.33193100  1
  O  O29  1  0.65771700  0.82770300  0.59764300  1
  O  O30  1  0.99620400  0.47980100  0.33193100  1
  O  O31  1  0.83679300  0.16320700  0.09921200  1
  O  O32  1  0.99459900  0.00540100  0.33294300  1
  O  O33  1  0.17229700  0.34228300  0.59764300  1
