# generated using pymatgen
data_Li3V3P8O29
_symmetry_space_group_name_H-M   'P 1'
_cell_length_a   9.70754700
_cell_length_b   9.73349575
_cell_length_c   14.27581274
_cell_angle_alpha   90.54521246
_cell_angle_beta   90.08609734
_cell_angle_gamma   119.68809510
_symmetry_Int_Tables_number   1
_chemical_formula_structural   Li3V3P8O29
_chemical_formula_sum   'Li6 V6 P16 O58'
_cell_volume   1171.75131105
_cell_formula_units_Z   2
loop_
 _symmetry_equiv_pos_site_id
 _symmetry_equiv_pos_as_xyz
  1  'x, y, z'
loop_
 _atom_site_type_symbol
 _atom_site_label
 _atom_site_symmetry_multiplicity
 _atom_site_fract_x
 _atom_site_fract_y
 _atom_site_fract_z
 _atom_site_occupancy
  Li  Li0  1  0.67789700  0.91063300  0.55271900  1
  Li  Li1  1  0.09568200  0.33127200  0.06064800  1
  Li  Li2  1  0.09172800  0.77123200  0.55034100  1
  Li  Li3  1  0.90688400  0.67639000  0.94914200  1
  Li  Li4  1  0.99742900  0.99652500  0.01449300  1
  Li  Li5  1  0.02920700  0.05346900  0.49428900  1
  V  V6  1  0.99770000  0.43325500  0.25498200  1
  V  V7  1  0.00038700  0.56147400  0.74601600  1
  V  V8  1  0.56097600  0.99894300  0.75875100  1
  V  V9  1  0.43636800  0.99957400  0.24278600  1
  V  V10  1  0.56148800  0.56325200  0.25129700  1
  V  V11  1  0.43558600  0.43473500  0.74598300  1
  P  P12  1  0.69413300  0.77502100  0.84145800  1
  P  P13  1  0.69000800  0.91418000  0.34074400  1
  P  P14  1  0.22312900  0.30469900  0.34371800  1
  P  P15  1  0.32863100  0.66011800  0.13190100  1
  P  P16  1  0.33597400  0.67027800  0.63318000  1
  P  P17  1  0.09089000  0.31461800  0.84183600  1
  P  P18  1  0.91001400  0.21348700  0.66157400  1
  P  P19  1  0.21566400  0.91466500  0.84535100  1
  P  P20  1  0.78538500  0.08299800  0.15876100  1
  P  P21  1  0.09274900  0.78225500  0.33851200  1
  P  P22  1  0.90799600  0.68549400  0.16075200  1
  P  P23  1  0.66278400  0.33079900  0.36628200  1
  P  P24  1  0.66935300  0.33967900  0.86520300  1
  P  P25  1  0.77594000  0.69266200  0.65638600  1
  P  P26  1  0.30525000  0.08168500  0.66174800  1
  P  P27  1  0.30266600  0.21922800  0.15938600  1
  O  O28  1  0.78199400  0.78824300  0.57452400  1
  O  O29  1  0.65493200  0.74033200  0.33083400  1
  O  O30  1  0.81324900  0.00557800  0.07705100  1
  O  O31  1  0.65529700  0.91237300  0.83451300  1
  O  O32  1  0.53751800  0.61672600  0.82693700  1
  O  O33  1  0.47370500  0.66047200  0.18156000  1
  O  O34  1  0.38273800  0.45968900  0.33207100  1
  O  O35  1  0.19728600  0.20277400  0.07882100  1
  O  O36  1  0.26161900  0.34524000  0.82778500  1
  O  O37  1  0.48488700  0.81556900  0.67862100  1
  O  O38  1  0.53381600  0.91627300  0.32351200  1
  O  O39  1  0.33339600  0.52204000  0.67715500  1
  O  O40  1  0.32929700  0.65443000  0.02814500  1
  O  O41  1  0.33633400  0.67687900  0.52947400  1
  O  O42  1  0.17934900  0.51056600  0.17192200  1
  O  O43  1  0.37886300  0.91821600  0.83175400  1
  O  O44  1  0.33110800  0.81096300  0.17487400  1
  O  O45  1  0.08779000  0.34671700  0.33086600  1
  O  O46  1  0.98823500  0.19638800  0.75820600  1
  O  O47  1  0.99237500  0.19810800  0.57890200  1
  O  O48  1  0.02279600  0.24702400  0.93401400  1
  O  O49  1  0.09133200  0.47301800  0.82113600  1
  O  O50  1  0.18443300  0.67307400  0.67349300  1
  O  O51  1  0.91807900  0.26109400  0.16440600  1
  O  O52  1  0.09073300  0.62184100  0.32491800  1
  O  O53  1  0.26411200  0.91995600  0.32755600  1
  O  O54  1  0.80600400  0.00844300  0.25581500  1
  O  O55  1  0.77060500  0.98488600  0.43179700  1
  O  O56  1  0.20935400  0.99504800  0.57803300  1
  O  O57  1  0.73437400  0.07852400  0.66618900  1
  O  O58  1  0.91585100  0.37748700  0.67296600  1
  O  O59  1  0.07991800  0.73834800  0.83377400  1
  O  O60  1  0.81656700  0.33558700  0.32261700  1
  O  O61  1  0.91384300  0.53137600  0.17483900  1
  O  O62  1  0.98001400  0.76907200  0.07171700  1
  O  O63  1  0.02012200  0.79073700  0.42851900  1
  O  O64  1  0.99831900  0.79811900  0.25004900  1
  O  O65  1  0.91685000  0.65772800  0.65808300  1
  O  O66  1  0.66957700  0.18824400  0.82402700  1
  O  O67  1  0.62105500  0.07387100  0.16690300  1
  O  O68  1  0.81750200  0.48772200  0.81968600  1
  O  O69  1  0.68090300  0.35421900  0.96845800  1
  O  O70  1  0.66523200  0.32931500  0.46958900  1
  O  O71  1  0.66290300  0.47678600  0.32109800  1
  O  O72  1  0.46194800  0.07819200  0.67726300  1
  O  O73  1  0.52277900  0.18399600  0.31635000  1
  O  O74  1  0.73435000  0.64980400  0.16936100  1
  O  O75  1  0.80055800  0.79593500  0.75020900  1
  O  O76  1  0.79179300  0.78810100  0.92473600  1
  O  O77  1  0.61806600  0.53479800  0.67004500  1
  O  O78  1  0.52172500  0.33466400  0.81838300  1
  O  O79  1  0.45678400  0.37997700  0.17044700  1
  O  O80  1  0.34588000  0.08519500  0.16188600  1
  O  O81  1  0.19546200  0.98732900  0.93141100  1
  O  O82  1  0.20016000  0.00194100  0.75385000  1
  O  O83  1  0.34474900  0.25711600  0.66584400  1
  O  O84  1  0.20221700  0.21229000  0.42884900  1
  O  O85  1  0.20248600  0.19514400  0.25371000  1
