# generated using pymatgen
data_Li14Mn2O9
_symmetry_space_group_name_H-M   'P 1'
_cell_length_a   5.91665600
_cell_length_b   10.05730122
_cell_length_c   10.05726502
_cell_angle_alpha   72.07194261
_cell_angle_beta   107.10602419
_cell_angle_gamma   72.89378300
_symmetry_Int_Tables_number   1
_chemical_formula_structural   Li14Mn2O9
_chemical_formula_sum   'Li28 Mn4 O18'
_cell_volume   493.12094834
_cell_formula_units_Z   2
loop_
 _symmetry_equiv_pos_site_id
 _symmetry_equiv_pos_as_xyz
  1  'x, y, z'
loop_
 _atom_site_type_symbol
 _atom_site_label
 _atom_site_symmetry_multiplicity
 _atom_site_fract_x
 _atom_site_fract_y
 _atom_site_fract_z
 _atom_site_occupancy
  Li  Li0  1  0.99999100  0.13015600  0.13015000  1
  Li  Li1  1  0.99999100  0.63015600  0.63015000  1
  Li  Li2  1  0.99999500  0.36984700  0.36984800  1
  Li  Li3  1  0.99999500  0.86984700  0.86984800  1
  Li  Li4  1  0.35939100  0.80503500  0.09942900  1
  Li  Li5  1  0.35939100  0.30503500  0.59942900  1
  Li  Li6  1  0.93499700  0.63193400  0.27253700  1
  Li  Li7  1  0.93499700  0.13193400  0.77253700  1
  Li  Li8  1  0.70559800  0.91972500  0.98474000  1
  Li  Li9  1  0.70559800  0.41972500  0.48474000  1
  Li  Li10  1  0.29438600  0.08026500  0.01526300  1
  Li  Li11  1  0.29438600  0.58026500  0.51526300  1
  Li  Li12  1  0.06501200  0.36806800  0.72747200  1
  Li  Li13  1  0.06501200  0.86806800  0.22747200  1
  Li  Li14  1  0.64058800  0.19496800  0.90056300  1
  Li  Li15  1  0.64058800  0.69496800  0.40056300  1
  Li  Li16  1  0.37318600  0.76159300  0.82363800  1
  Li  Li17  1  0.37318600  0.26159300  0.32363800  1
  Li  Li18  1  0.68883500  0.47921900  0.10601700  1
  Li  Li19  1  0.68883500  0.97921900  0.60601700  1
  Li  Li20  1  0.06203300  0.36296100  0.05180500  1
  Li  Li21  1  0.06203300  0.86296100  0.55180500  1
  Li  Li22  1  0.93794700  0.63704000  0.94819400  1
  Li  Li23  1  0.93794700  0.13704000  0.44819400  1
  Li  Li24  1  0.31114300  0.52078200  0.89398300  1
  Li  Li25  1  0.31114300  0.02078200  0.39398300  1
  Li  Li26  1  0.62679100  0.23840400  0.17636000  1
  Li  Li27  1  0.62679100  0.73840400  0.67636000  1
  Mn  Mn28  1  0.66664700  0.95944200  0.29276000  1
  Mn  Mn29  1  0.33333100  0.04056600  0.70724000  1
  Mn  Mn30  1  0.66664700  0.45944200  0.79276000  1
  Mn  Mn31  1  0.33333100  0.54056600  0.20724000  1
  O  O32  1  0.00001000  0.49999800  0.50000400  1
  O  O33  1  0.00001000  0.99999800  0.00000400  1
  O  O34  1  0.66665900  0.33562800  0.66897000  1
  O  O35  1  0.66665900  0.83562800  0.16897000  1
  O  O36  1  0.33332600  0.66436800  0.33103400  1
  O  O37  1  0.33332600  0.16436800  0.83103400  1
  O  O38  1  0.33087200  0.66025600  0.68118000  1
  O  O39  1  0.33087200  0.16025600  0.18118000  1
  O  O40  1  0.69003000  0.33616200  0.00527400  1
  O  O41  1  0.69003000  0.83616200  0.50527400  1
  O  O42  1  0.02092100  0.48425600  0.17430500  1
  O  O43  1  0.02092100  0.98425600  0.67430500  1
  O  O44  1  0.97905700  0.51574600  0.82569200  1
  O  O45  1  0.97905700  0.01574600  0.32569200  1
  O  O46  1  0.30994400  0.66383700  0.99472300  1
  O  O47  1  0.30994400  0.16383700  0.49472300  1
  O  O48  1  0.66911100  0.33974400  0.31881900  1
  O  O49  1  0.66911100  0.83974400  0.81881900  1
