# generated using pymatgen
data_Li4Nb3Cr2Fe3O16
_symmetry_space_group_name_H-M   'P 1'
_cell_length_a   6.11815800
_cell_length_b   6.12093765
_cell_length_c   9.77333493
_cell_angle_alpha   89.59691278
_cell_angle_beta   91.61366181
_cell_angle_gamma   119.94732335
_symmetry_Int_Tables_number   1
_chemical_formula_structural   Li4Nb3Cr2Fe3O16
_chemical_formula_sum   'Li4 Nb3 Cr2 Fe3 O16'
_cell_volume   316.99747399
_cell_formula_units_Z   1
loop_
 _symmetry_equiv_pos_site_id
 _symmetry_equiv_pos_as_xyz
  1  'x, y, z'
loop_
 _atom_site_type_symbol
 _atom_site_label
 _atom_site_symmetry_multiplicity
 _atom_site_fract_x
 _atom_site_fract_y
 _atom_site_fract_z
 _atom_site_occupancy
  Li  Li0  1  0.66240800  0.33183500  0.90440500  1
  Li  Li1  1  0.97815900  0.99212800  0.00177300  1
  Li  Li2  1  0.96559100  0.98288500  0.48602200  1
  Li  Li3  1  0.32446800  0.66453500  0.38285400  1
  Nb  Nb4  1  0.34341300  0.16638300  0.21124000  1
  Nb  Nb5  1  0.17409900  0.33789000  0.71277100  1
  Nb  Nb6  1  0.17753000  0.83630100  0.71187900  1
  Cr  Cr7  1  0.68574600  0.34508500  0.47530100  1
  Cr  Cr8  1  0.34405500  0.66652300  0.99453800  1
  Fe  Fe9  1  0.82549400  0.16646700  0.21308500  1
  Fe  Fe10  1  0.83018300  0.66124700  0.21344300  1
  Fe  Fe11  1  0.66249300  0.83312400  0.71603400  1
  O  O12  1  0.85473600  0.17802000  0.59971600  1
  O  O13  1  0.95595300  0.48482000  0.34219800  1
  O  O14  1  0.65180700  0.34006500  0.09944600  1
  O  O15  1  0.01308600  0.99487800  0.30680300  1
  O  O16  1  0.02225900  0.01109400  0.81590000  1
  O  O17  1  0.85652500  0.67720600  0.60034100  1
  O  O18  1  0.50655600  0.04297900  0.35236700  1
  O  O19  1  0.51828900  0.47632100  0.34411600  1
  O  O20  1  0.66922000  0.82717600  0.09880900  1
  O  O21  1  0.33180000  0.16702100  0.60620800  1
  O  O22  1  0.46848400  0.51229900  0.84256600  1
  O  O23  1  0.46562000  0.95584700  0.84556700  1
  O  O24  1  0.30970100  0.65420200  0.59888400  1
  O  O25  1  0.18650400  0.33633500  0.09791900  1
  O  O26  1  0.03906600  0.51815300  0.83393900  1
  O  O27  1  0.17675300  0.83888000  0.09971400  1
