# generated using pymatgen
data_Li2BSeO4
_symmetry_space_group_name_H-M   'P 1'
_cell_length_a   5.05630000
_cell_length_b   7.44105100
_cell_length_c   10.83663679
_cell_angle_alpha   88.54504145
_cell_angle_beta   90.00000000
_cell_angle_gamma   90.00000000
_symmetry_Int_Tables_number   1
_chemical_formula_structural   Li2BSeO4
_chemical_formula_sum   'Li8 B4 Se4 O16'
_cell_volume   407.58818905
_cell_formula_units_Z   4
loop_
 _symmetry_equiv_pos_site_id
 _symmetry_equiv_pos_as_xyz
  1  'x, y, z'
loop_
 _atom_site_type_symbol
 _atom_site_label
 _atom_site_symmetry_multiplicity
 _atom_site_fract_x
 _atom_site_fract_y
 _atom_site_fract_z
 _atom_site_occupancy
  Li  Li0  1  0.65603100  0.89443500  0.78332200  1
  Li  Li1  1  0.84396900  0.89443500  0.28332200  1
  Li  Li2  1  0.83117100  0.81921800  0.55152700  1
  Li  Li3  1  0.66882900  0.81921800  0.05152700  1
  Li  Li4  1  0.33117100  0.18078200  0.94847300  1
  Li  Li5  1  0.16882900  0.18078200  0.44847300  1
  Li  Li6  1  0.15603100  0.10556500  0.71667800  1
  Li  Li7  1  0.34396900  0.10556500  0.21667800  1
  B  B8  1  0.15902000  0.84399800  0.91813400  1
  B  B9  1  0.34098000  0.84399800  0.41813400  1
  B  B10  1  0.65902000  0.15600200  0.58186600  1
  B  B11  1  0.84098000  0.15600200  0.08186600  1
  Se  Se12  1  0.87088600  0.44813200  0.90277800  1
  Se  Se13  1  0.37088600  0.55186800  0.59722200  1
  Se  Se14  1  0.62911400  0.44813200  0.40277800  1
  Se  Se15  1  0.12911400  0.55186800  0.09722200  1
  O  O16  1  0.31698000  0.96087800  0.85621000  1
  O  O17  1  0.18302000  0.96087800  0.35621000  1
  O  O18  1  0.89783400  0.81126900  0.90785400  1
  O  O19  1  0.60216600  0.81126900  0.40785400  1
  O  O20  1  0.19754800  0.73215700  0.51338100  1
  O  O21  1  0.62668800  0.65045500  0.66944700  1
  O  O22  1  0.30245200  0.73215700  0.01338100  1
  O  O23  1  0.87331200  0.65045500  0.16944700  1
  O  O24  1  0.12668800  0.34954500  0.83055300  1
  O  O25  1  0.69754800  0.26784300  0.98661900  1
  O  O26  1  0.37331200  0.34954500  0.33055300  1
  O  O27  1  0.80245200  0.26784300  0.48661900  1
  O  O28  1  0.39783400  0.18873100  0.59214600  1
  O  O29  1  0.10216600  0.18873100  0.09214600  1
  O  O30  1  0.81698000  0.03912200  0.64379000  1
  O  O31  1  0.68302000  0.03912200  0.14379000  1
