# generated using pymatgen
data_Li2Mn4O5F3
_symmetry_space_group_name_H-M   'P 1'
_cell_length_a   6.12788384
_cell_length_b   6.12788384
_cell_length_c   5.89823919
_cell_angle_alpha   61.52618535
_cell_angle_beta   61.52618535
_cell_angle_gamma   58.66329286
_symmetry_Int_Tables_number   1
_chemical_formula_structural   Li2Mn4O5F3
_chemical_formula_sum   'Li2 Mn4 O5 F3'
_cell_volume   158.38169174
_cell_formula_units_Z   1
loop_
 _symmetry_equiv_pos_site_id
 _symmetry_equiv_pos_as_xyz
  1  'x, y, z'
loop_
 _atom_site_type_symbol
 _atom_site_label
 _atom_site_symmetry_multiplicity
 _atom_site_fract_x
 _atom_site_fract_y
 _atom_site_fract_z
 _atom_site_occupancy
  Li  Li0  1  0.87045200  0.38137300  0.37969500  1
  Li  Li1  1  0.38137300  0.87045200  0.37969500  1
  Mn  Mn2  1  0.38902000  0.38902000  0.86192200  1
  Mn  Mn3  1  0.98709800  0.98709800  0.01221900  1
  Mn  Mn4  1  0.75469800  0.75469800  0.72926000  1
  Mn  Mn5  1  0.37531300  0.37531300  0.37590400  1
  O  O6  1  0.59674500  0.16385200  0.61945300  1
  O  O7  1  0.59730900  0.59730900  0.64803200  1
  O  O8  1  0.58278400  0.15416200  0.13189400  1
  O  O9  1  0.15416200  0.58278400  0.13189400  1
  O  O10  1  0.16385200  0.59674500  0.61945300  1
  F  F11  1  0.12532500  0.12532500  0.60068000  1
  F  F12  1  0.14474900  0.14474900  0.11484900  1
  F  F13  1  0.62712200  0.62712200  0.14504700  1
