# generated using pymatgen
data_Li4Cu4Cl10O
_symmetry_space_group_name_H-M   'P 1'
_cell_length_a   10.39481004
_cell_length_b   10.39481004
_cell_length_c   7.53278136
_cell_angle_alpha   78.99509643
_cell_angle_beta   78.99509643
_cell_angle_gamma   83.58844516
_symmetry_Int_Tables_number   1
_chemical_formula_structural   Li4Cu4Cl10O
_chemical_formula_sum   'Li8 Cu8 Cl20 O2'
_cell_volume   781.87888653
_cell_formula_units_Z   2
loop_
 _symmetry_equiv_pos_site_id
 _symmetry_equiv_pos_as_xyz
  1  'x, y, z'
loop_
 _atom_site_type_symbol
 _atom_site_label
 _atom_site_symmetry_multiplicity
 _atom_site_fract_x
 _atom_site_fract_y
 _atom_site_fract_z
 _atom_site_occupancy
  Li  Li0  1  0.92795800  0.71852300  0.35323800  1
  Li  Li1  1  0.71852300  0.92795800  0.85323800  1
  Li  Li2  1  0.57638100  0.74881600  0.35615500  1
  Li  Li3  1  0.74881600  0.57638100  0.85615500  1
  Li  Li4  1  0.25118400  0.42361900  0.14384500  1
  Li  Li5  1  0.42361900  0.25118400  0.64384500  1
  Li  Li6  1  0.28147700  0.07204200  0.14676200  1
  Li  Li7  1  0.07204200  0.28147700  0.64676200  1
  Cu  Cu8  1  0.76953300  0.37278000  0.37435900  1
  Cu  Cu9  1  0.94959200  0.22068500  0.09136500  1
  Cu  Cu10  1  0.37278000  0.76953300  0.87435900  1
  Cu  Cu11  1  0.22068500  0.94959200  0.59136500  1
  Cu  Cu12  1  0.77931500  0.05040800  0.40863500  1
  Cu  Cu13  1  0.62722000  0.23046700  0.12564100  1
  Cu  Cu14  1  0.05040800  0.77931500  0.90863500  1
  Cu  Cu15  1  0.23046700  0.62722000  0.62564100  1
  Cl  Cl16  1  0.84414400  0.73378400  0.05543400  1
  Cl  Cl17  1  0.98628500  0.35108700  0.36478100  1
  Cl  Cl18  1  0.73378400  0.84414400  0.55543400  1
  Cl  Cl19  1  0.35108700  0.98628500  0.86478100  1
  Cl  Cl20  1  0.55451300  0.72517800  0.00364200  1
  Cl  Cl21  1  0.34828200  0.85088600  0.35873300  1
  Cl  Cl22  1  0.72517800  0.55451300  0.50364200  1
  Cl  Cl23  1  0.85088600  0.34828200  0.85873300  1
  Cl  Cl24  1  0.99645800  0.00354200  0.25000000  1
  Cl  Cl25  1  0.58464500  0.41535500  0.25000000  1
  Cl  Cl26  1  0.41535500  0.58464500  0.75000000  1
  Cl  Cl27  1  0.00354200  0.99645800  0.75000000  1
  Cl  Cl28  1  0.14911400  0.65171800  0.14126700  1
  Cl  Cl29  1  0.27482200  0.44548700  0.49635800  1
  Cl  Cl30  1  0.65171800  0.14911400  0.64126700  1
  Cl  Cl31  1  0.44548700  0.27482200  0.99635800  1
  Cl  Cl32  1  0.64891300  0.01371500  0.13521900  1
  Cl  Cl33  1  0.26621600  0.15585600  0.44456600  1
  Cl  Cl34  1  0.01371500  0.64891300  0.63521900  1
  Cl  Cl35  1  0.15585600  0.26621600  0.94456600  1
  O  O36  1  0.78245500  0.21754500  0.25000000  1
  O  O37  1  0.21754500  0.78245500  0.75000000  1
