# generated using pymatgen
data_Li11V6O5F19
_symmetry_space_group_name_H-M   'P 1'
_cell_length_a   5.14692500
_cell_length_b   5.45253030
_cell_length_c   16.30678945
_cell_angle_alpha   80.38908325
_cell_angle_beta   89.70692107
_cell_angle_gamma   88.42678053
_symmetry_Int_Tables_number   1
_chemical_formula_structural   Li11V6O5F19
_chemical_formula_sum   'Li11 V6 O5 F19'
_cell_volume   451.03657230
_cell_formula_units_Z   1
loop_
 _symmetry_equiv_pos_site_id
 _symmetry_equiv_pos_as_xyz
  1  'x, y, z'
loop_
 _atom_site_type_symbol
 _atom_site_label
 _atom_site_symmetry_multiplicity
 _atom_site_fract_x
 _atom_site_fract_y
 _atom_site_fract_z
 _atom_site_occupancy
  Li  Li0  1  0.52902000  0.52746200  0.20358600  1
  Li  Li1  1  0.51294100  0.32958500  0.43452000  1
  Li  Li2  1  0.00619100  0.17601200  0.77795300  1
  Li  Li3  1  0.00598800  0.49980000  0.09467000  1
  Li  Li4  1  0.50844600  0.97444300  0.88284400  1
  Li  Li5  1  0.99957900  0.18194600  0.55541300  1
  Li  Li6  1  0.97615100  0.02652400  0.20528700  1
  Li  Li7  1  0.99067800  0.82646700  0.43691300  1
  Li  Li8  1  0.51040100  0.03214200  0.10974900  1
  Li  Li9  1  0.00004300  0.53057900  0.89687200  1
  Li  Li10  1  0.51768700  0.66378000  0.55452200  1
  V  V11  1  0.98184400  0.32983300  0.33771500  1
  V  V12  1  0.48574200  0.17685200  0.66473200  1
  V  V13  1  0.00055000  0.99266600  0.00199400  1
  V  V14  1  0.50167100  0.49301800  0.00194700  1
  V  V15  1  0.53083600  0.83333600  0.33905600  1
  V  V16  1  0.01406200  0.65307700  0.66686800  1
  O  O17  1  0.80096500  0.59327000  0.37563900  1
  O  O18  1  0.71259300  0.09558800  0.37290100  1
  O  O19  1  0.79947200  0.26777400  0.03513000  1
  O  O20  1  0.18726100  0.69736800  0.97825800  1
  O  O21  1  0.18695400  0.37821600  0.63198400  1
  F  F22  1  0.69348700  0.76654300  0.05242200  1
  F  F23  1  0.31735300  0.53471600  0.30127600  1
  F  F24  1  0.64163500  0.29690700  0.55148900  1
  F  F25  1  0.86202500  0.09283200  0.88527500  1
  F  F26  1  0.35619100  0.05710000  0.77759000  1
  F  F27  1  0.36258700  0.37202800  0.12030600  1
  F  F28  1  0.15721900  0.21304300  0.45076000  1
  F  F29  1  0.87163800  0.38213500  0.21199600  1
  F  F30  1  0.83079700  0.97624000  0.69698500  1
  F  F31  1  0.32580300  0.87748000  0.62565600  1
  F  F32  1  0.19629800  0.03543900  0.29886700  1
  F  F33  1  0.64458000  0.63204600  0.89309400  1
  F  F34  1  0.15361800  0.90250900  0.11877000  1
  F  F35  1  0.86735700  0.79845500  0.55578900  1
  F  F36  1  0.09464800  0.53945700  0.78312700  1
  F  F37  1  0.64419000  0.87932300  0.21512700  1
  F  F38  1  0.35287300  0.71613300  0.45137800  1
  F  F39  1  0.68465500  0.45767900  0.69735200  1
  F  F40  1  0.31723900  0.20258700  0.95742600  1
