# generated using pymatgen
data_Li11Ti4Fe9O32
_symmetry_space_group_name_H-M   'P 1'
_cell_length_a   8.33833500
_cell_length_b   8.36210251
_cell_length_c   8.50297891
_cell_angle_alpha   89.70854298
_cell_angle_beta   89.80466925
_cell_angle_gamma   89.79888441
_symmetry_Int_Tables_number   1
_chemical_formula_structural   Li11Ti4Fe9O32
_chemical_formula_sum   'Li11 Ti4 Fe9 O32'
_cell_volume   592.86407761
_cell_formula_units_Z   1
loop_
 _symmetry_equiv_pos_site_id
 _symmetry_equiv_pos_as_xyz
  1  'x, y, z'
loop_
 _atom_site_type_symbol
 _atom_site_label
 _atom_site_symmetry_multiplicity
 _atom_site_fract_x
 _atom_site_fract_y
 _atom_site_fract_z
 _atom_site_occupancy
  Li  Li0  1  0.49867400  0.50589500  0.99866900  1
  Li  Li1  1  0.87133900  0.37766100  0.12280700  1
  Li  Li2  1  0.74946400  0.74563200  0.24751200  1
  Li  Li3  1  0.24951900  0.24799700  0.25058600  1
  Li  Li4  1  0.12034100  0.87835500  0.37563300  1
  Li  Li5  1  0.50289600  0.00304100  0.50264500  1
  Li  Li6  1  0.99811300  0.50100500  0.50227000  1
  Li  Li7  1  0.62901000  0.61981000  0.63112600  1
  Li  Li8  1  0.74868500  0.25017100  0.74840300  1
  Li  Li9  1  0.25286900  0.74635400  0.74745600  1
  Li  Li10  1  0.37303900  0.12443300  0.86651600  1
  Ti  Ti11  1  0.12081700  0.60617900  0.14216800  1
  Ti  Ti12  1  0.37273400  0.87411700  0.11597800  1
  Ti  Ti13  1  0.61446800  0.13937600  0.10976200  1
  Ti  Ti14  1  0.37680700  0.63759600  0.38323700  1
  Fe  Fe15  1  0.62359300  0.37355200  0.37890900  1
  Fe  Fe16  1  0.87382100  0.12437100  0.37312100  1
  Fe  Fe17  1  0.37200700  0.37272000  0.62033100  1
  Fe  Fe18  1  0.12638100  0.12455200  0.61907900  1
  Fe  Fe19  1  0.87799400  0.87723000  0.62318100  1
  Fe  Fe20  1  0.12571600  0.37633400  0.87522100  1
  Fe  Fe21  1  0.87900500  0.62477600  0.87892500  1
  Fe  Fe22  1  0.62350200  0.87584900  0.87624900  1
  Fe  Fe23  1  0.00226400  0.00465100  0.00480800  1
  O  O24  1  0.12836900  0.38925100  0.10807800  1
  O  O25  1  0.61556600  0.88365300  0.10216400  1
  O  O26  1  0.39129400  0.10288300  0.13001800  1
  O  O27  1  0.62158600  0.35913900  0.14799800  1
  O  O28  1  0.89532900  0.62743200  0.10429700  1
  O  O29  1  0.13986500  0.86588200  0.12061900  1
  O  O30  1  0.36067300  0.63712700  0.14059800  1
  O  O31  1  0.86173800  0.12014400  0.13703800  1
  O  O32  1  0.13890400  0.62227500  0.35784300  1
  O  O33  1  0.64153500  0.14079000  0.36339500  1
  O  O34  1  0.84778900  0.35652500  0.37655300  1
  O  O35  1  0.09514500  0.12783100  0.38520000  1
  O  O36  1  0.38716300  0.85428900  0.35885600  1
  O  O37  1  0.61216100  0.59409700  0.37560400  1
  O  O38  1  0.39387900  0.37738100  0.39103400  1
  O  O39  1  0.86556100  0.89593800  0.39469600  1
  O  O40  1  0.36915300  0.59876200  0.60451000  1
  O  O41  1  0.88981000  0.10906000  0.61891900  1
  O  O42  1  0.11186900  0.89985500  0.62218100  1
  O  O43  1  0.88231200  0.65599700  0.64619700  1
  O  O44  1  0.60081700  0.37098200  0.60174500  1
  O  O45  1  0.35320500  0.14407600  0.62436700  1
  O  O46  1  0.13543600  0.35490800  0.63223800  1
  O  O47  1  0.64599300  0.87884400  0.65685400  1
  O  O48  1  0.35208600  0.37690100  0.84706000  1
  O  O49  1  0.87575100  0.86939100  0.87130600  1
  O  O50  1  0.65830600  0.63911100  0.87544400  1
  O  O51  1  0.39232700  0.87032700  0.89231900  1
  O  O52  1  0.11995900  0.14224500  0.86794500  1
  O  O53  1  0.89635800  0.39574600  0.87182400  1
  O  O54  1  0.11115300  0.61164800  0.88371600  1
  O  O55  1  0.62594400  0.11594700  0.89479700  1
