# generated using pymatgen
data_Li3V3P8O29
_symmetry_space_group_name_H-M   'P 1'
_cell_length_a   9.73176700
_cell_length_b   9.74869212
_cell_length_c   14.34718059
_cell_angle_alpha   89.41872469
_cell_angle_beta   89.54216979
_cell_angle_gamma   60.11632752
_symmetry_Int_Tables_number   1
_chemical_formula_structural   Li3V3P8O29
_chemical_formula_sum   'Li6 V6 P16 O58'
_cell_volume   1180.09860820
_cell_formula_units_Z   2
loop_
 _symmetry_equiv_pos_site_id
 _symmetry_equiv_pos_as_xyz
  1  'x, y, z'
loop_
 _atom_site_type_symbol
 _atom_site_label
 _atom_site_symmetry_multiplicity
 _atom_site_fract_x
 _atom_site_fract_y
 _atom_site_fract_z
 _atom_site_occupancy
  Li  Li0  1  0.22920100  0.09137500  0.54680500  1
  Li  Li1  1  0.23183000  0.66962800  0.06048000  1
  Li  Li2  1  0.67723100  0.23006500  0.55531700  1
  Li  Li3  1  0.31664400  0.91442300  0.94724000  1
  Li  Li4  1  0.92884500  0.05329900  0.00241700  1
  Li  Li5  1  0.02900200  0.94425900  0.49314000  1
  V  V6  1  0.43881900  0.56237400  0.25492800  1
  V  V7  1  0.56552300  0.43847900  0.74905900  1
  V  V8  1  0.43917500  0.00217100  0.75147400  1
  V  V9  1  0.56787300  0.99977100  0.24549400  1
  V  V10  1  0.00054300  0.43759300  0.24958600  1
  V  V11  1  0.00119200  0.56146600  0.75033100  1
  P  P12  1  0.08286200  0.22015800  0.84505800  1
  P  P13  1  0.22282100  0.08801500  0.33719500  1
  P  P14  1  0.08300600  0.69395100  0.34202400  1
  P  P15  1  0.33262400  0.33708100  0.13218700  1
  P  P16  1  0.33444000  0.33255300  0.63326100  1
  P  P17  1  0.22603600  0.68541800  0.83959600  1
  P  P18  1  0.30712100  0.78253900  0.65900500  1
  P  P19  1  0.69488200  0.08643000  0.84248600  1
  P  P20  1  0.31292000  0.90927200  0.15897300  1
  P  P21  1  0.69010300  0.21945100  0.34264100  1
  P  P22  1  0.77933300  0.30968400  0.16368500  1
  P  P23  1  0.66764100  0.66892900  0.36576600  1
  P  P24  1  0.66451500  0.66812700  0.86571600  1
  P  P25  1  0.91938500  0.30425900  0.66045300  1
  P  P26  1  0.78248000  0.91269300  0.66206500  1
  P  P27  1  0.91788700  0.78079900  0.15919400  1
  O  O28  1  0.00982500  0.20819100  0.57896300  1
  O  O29  1  0.08401800  0.26087000  0.32898900  1
  O  O30  1  0.23034700  0.98191100  0.06948500  1
  O  O31  1  0.26022100  0.08289600  0.83598600  1
  O  O32  1  0.07822200  0.38146800  0.82995300  1
  O  O33  1  0.18629700  0.33888200  0.18136100  1
  O  O34  1  0.07546700  0.54044300  0.33103100  1
  O  O35  1  0.00507800  0.79746500  0.07770400  1
  O  O36  1  0.08499700  0.65589300  0.83250900  1
  O  O37  1  0.33264500  0.18514200  0.68133100  1
  O  O38  1  0.38197700  0.08458000  0.32369800  1
  O  O39  1  0.18946400  0.47774900  0.68036600  1
  O  O40  1  0.32537300  0.34073000  0.02877900  1
  O  O41  1  0.32993700  0.31826600  0.53054600  1
  O  O42  1  0.33201100  0.48696500  0.17154100  1
  O  O43  1  0.53833300  0.08096700  0.82919700  1
  O  O44  1  0.47917200  0.18636100  0.17536100  1
  O  O45  1  0.26032500  0.64960700  0.32908400  1
  O  O46  1  0.20861100  0.80105400  0.75479200  1
  O  O47  1  0.20726700  0.80463100  0.57706400  1
  O  O48  1  0.23348200  0.75985900  0.92892300  1
  O  O49  1  0.38187300  0.52567300  0.82120200  1
  O  O50  1  0.48810000  0.32965300  0.66779800  1
  O  O51  1  0.34383200  0.73654900  0.16509500  1
  O  O52  1  0.53097100  0.37799300  0.32782700  1
  O  O53  1  0.65681700  0.08156900  0.32847700  1
  O  O54  1  0.20328500  0.99747700  0.24851300  1
  O  O55  1  0.20884000  0.01517600  0.42645400  1
  O  O56  1  0.79092000  0.00125100  0.57944300  1
  O  O57  1  0.34711200  0.91912600  0.66507500  1
  O  O58  1  0.46198300  0.61990100  0.67047300  1
  O  O59  1  0.65323300  0.26133700  0.82504300  1
  O  O60  1  0.52016200  0.66414100  0.32090800  1
  O  O61  1  0.61738600  0.46340300  0.17576600  1
  O  O62  1  0.79122000  0.21470800  0.08158300  1
  O  O63  1  0.76683200  0.20924900  0.43377900  1
  O  O64  1  0.80403600  0.20709500  0.25848500  1
  O  O65  1  0.74384300  0.34145300  0.66044000  1
  O  O66  1  0.51193400  0.81625700  0.82359200  1
  O  O67  1  0.46925500  0.91173300  0.17231600  1
  O  O68  1  0.66315000  0.52195000  0.81790100  1
  O  O69  1  0.65351800  0.66942500  0.96860900  1
  O  O70  1  0.66096300  0.67094400  0.46878700  1
  O  O71  1  0.81318700  0.52377500  0.32057600  1
  O  O72  1  0.62038900  0.91741600  0.67560700  1
  O  O73  1  0.66357900  0.81696300  0.31914500  1
  O  O74  1  0.91228100  0.35300900  0.16910700  1
  O  O75  1  0.99573000  0.20293800  0.75405800  1
  O  O76  1  0.00934700  0.19683000  0.92959300  1
  O  O77  1  0.92029500  0.46240500  0.67417200  1
  O  O78  1  0.81166100  0.66706400  0.82106800  1
  O  O79  1  0.92327200  0.62022900  0.16998100  1
  O  O80  1  0.74183500  0.91527600  0.16337400  1
  O  O81  1  0.78343300  0.01900900  0.92931200  1
  O  O82  1  0.80356000  0.99284200  0.75452100  1
  O  O83  1  0.91650400  0.73797100  0.66783300  1
  O  O84  1  0.01270300  0.78763500  0.42709000  1
  O  O85  1  0.99552000  0.80323900  0.25255500  1
