# generated using pymatgen
data_Li10Mn5Fe3O16
_symmetry_space_group_name_H-M   'P 1'
_cell_length_a   5.96791100
_cell_length_b   6.03020652
_cell_length_c   10.02190736
_cell_angle_alpha   90.91735023
_cell_angle_beta   90.46842055
_cell_angle_gamma   118.87560980
_symmetry_Int_Tables_number   1
_chemical_formula_structural   Li10Mn5Fe3O16
_chemical_formula_sum   'Li10 Mn5 Fe3 O16'
_cell_volume   315.73164678
_cell_formula_units_Z   1
loop_
 _symmetry_equiv_pos_site_id
 _symmetry_equiv_pos_as_xyz
  1  'x, y, z'
loop_
 _atom_site_type_symbol
 _atom_site_label
 _atom_site_symmetry_multiplicity
 _atom_site_fract_x
 _atom_site_fract_y
 _atom_site_fract_z
 _atom_site_occupancy
  Li  Li0  1  0.20582100  0.39464500  0.06636400  1
  Li  Li1  1  0.68735500  0.34125500  0.77587800  1
  Li  Li2  1  0.81846800  0.18678600  0.56393500  1
  Li  Li3  1  0.40355400  0.18557700  0.56413400  1
  Li  Li4  1  0.35003600  0.67336600  0.27379400  1
  Li  Li5  1  0.21331800  0.81226300  0.05809800  1
  Li  Li6  1  0.80414100  0.60273600  0.55467100  1
  Li  Li7  1  0.61768900  0.79101900  0.05642000  1
  Li  Li8  1  0.01932700  0.99582700  0.47951600  1
  Li  Li9  1  0.01645600  0.01377000  0.98458600  1
  Mn  Mn10  1  0.34569700  0.65973800  0.52325100  1
  Mn  Mn11  1  0.84434800  0.16712500  0.28638100  1
  Mn  Mn12  1  0.68191100  0.33330900  0.02662000  1
  Mn  Mn13  1  0.68175500  0.83664000  0.78469800  1
  Mn  Mn14  1  0.84563500  0.66214800  0.28463400  1
  Fe  Fe15  1  0.18752300  0.34214900  0.78636200  1
  Fe  Fe16  1  0.34941100  0.16688000  0.28629600  1
  Fe  Fe17  1  0.18422400  0.83499500  0.78509900  1
  O  O18  1  0.33232000  0.16119200  0.90294400  1
  O  O19  1  0.16617900  0.31001100  0.39669800  1
  O  O20  1  0.02525700  0.50810800  0.66839700  1
  O  O21  1  0.52446800  0.01646000  0.17372200  1
  O  O22  1  0.84952700  0.16057800  0.89568900  1
  O  O23  1  0.32780400  0.66012300  0.90954600  1
  O  O24  1  0.17990300  0.84313600  0.39013400  1
  O  O25  1  0.51137900  0.50778200  0.67412200  1
  O  O26  1  0.66695100  0.29965300  0.40552800  1
  O  O27  1  0.51605300  0.48687100  0.17627400  1
  O  O28  1  0.51055400  0.98019800  0.67228100  1
  O  O29  1  0.84948300  0.69444100  0.90056200  1
  O  O30  1  0.00326900  0.51750300  0.16421700  1
  O  O31  1  0.69236900  0.80435600  0.40804900  1
  O  O32  1  0.04098900  0.01573500  0.66592600  1
  O  O33  1  0.02609400  0.03279000  0.17091200  1
