# generated using pymatgen
data_Li2VSi4O11
_symmetry_space_group_name_H-M   'P 1'
_cell_length_a   7.26223886
_cell_length_b   7.26223886
_cell_length_c   8.22152524
_cell_angle_alpha   81.25358230
_cell_angle_beta   81.25358230
_cell_angle_gamma   83.86892704
_symmetry_Int_Tables_number   1
_chemical_formula_structural   Li2VSi4O11
_chemical_formula_sum   'Li4 V2 Si8 O22'
_cell_volume   422.02112199
_cell_formula_units_Z   2
loop_
 _symmetry_equiv_pos_site_id
 _symmetry_equiv_pos_as_xyz
  1  'x, y, z'
loop_
 _atom_site_type_symbol
 _atom_site_label
 _atom_site_symmetry_multiplicity
 _atom_site_fract_x
 _atom_site_fract_y
 _atom_site_fract_z
 _atom_site_occupancy
  Li  Li0  1  0.91918400  0.08081600  0.75000000  1
  Li  Li1  1  0.64672600  0.35327400  0.75000000  1
  Li  Li2  1  0.35327400  0.64672600  0.25000000  1
  Li  Li3  1  0.08081600  0.91918400  0.25000000  1
  V  V4  1  0.00000000  0.50000000  0.50000000  1
  V  V5  1  0.50000000  0.00000000  0.00000000  1
  Si  Si6  1  0.65551900  0.77872400  0.65774100  1
  Si  Si7  1  0.77872400  0.65551900  0.15774100  1
  Si  Si8  1  0.25049100  0.84290500  0.56306800  1
  Si  Si9  1  0.15709500  0.74950900  0.93693200  1
  Si  Si10  1  0.84290500  0.25049100  0.06306800  1
  Si  Si11  1  0.74950900  0.15709500  0.43693200  1
  Si  Si12  1  0.22127600  0.34448100  0.84225900  1
  Si  Si13  1  0.34448100  0.22127600  0.34225900  1
  O  O14  1  0.76128900  0.94254100  0.52991500  1
  O  O15  1  0.60131900  0.85962900  0.83546500  1
  O  O16  1  0.94254100  0.76128900  0.02991500  1
  O  O17  1  0.85962900  0.60131900  0.33546500  1
  O  O18  1  0.78956700  0.58754400  0.67360700  1
  O  O19  1  0.58754400  0.78956700  0.17360700  1
  O  O20  1  0.46084600  0.74890600  0.58759000  1
  O  O21  1  0.84683100  0.26915100  0.55211300  1
  O  O22  1  0.74890600  0.46084600  0.08759000  1
  O  O23  1  0.13289100  0.86710900  0.75000000  1
  O  O24  1  0.73084900  0.15316900  0.94788700  1
  O  O25  1  0.26915100  0.84683100  0.05211300  1
  O  O26  1  0.86710900  0.13289100  0.25000000  1
  O  O27  1  0.25109400  0.53915400  0.91241000  1
  O  O28  1  0.15316900  0.73084900  0.44788700  1
  O  O29  1  0.53915400  0.25109400  0.41241000  1
  O  O30  1  0.41245600  0.21043300  0.82639300  1
  O  O31  1  0.21043300  0.41245600  0.32639300  1
  O  O32  1  0.14037100  0.39868100  0.66453500  1
  O  O33  1  0.05745900  0.23871100  0.97008500  1
  O  O34  1  0.39868100  0.14037100  0.16453500  1
  O  O35  1  0.23871100  0.05745900  0.47008500  1
