# generated using pymatgen
data_Li4V7O12
_symmetry_space_group_name_H-M   'P 1'
_cell_length_a   5.20968360
_cell_length_b   8.92676563
_cell_length_c   9.89365841
_cell_angle_alpha   89.99999914
_cell_angle_beta   100.24705621
_cell_angle_gamma   90.00000881
_symmetry_Int_Tables_number   1
_chemical_formula_structural   Li4V7O12
_chemical_formula_sum   'Li8 V14 O24'
_cell_volume   452.77192201
_cell_formula_units_Z   2
loop_
 _symmetry_equiv_pos_site_id
 _symmetry_equiv_pos_as_xyz
  1  'x, y, z'
loop_
 _atom_site_type_symbol
 _atom_site_label
 _atom_site_symmetry_multiplicity
 _atom_site_fract_x
 _atom_site_fract_y
 _atom_site_fract_z
 _atom_site_occupancy
  Li  Li0  1  0.75847300  0.08058500  0.51060100  1
  Li  Li1  1  0.25432100  0.41169600  0.99350100  1
  Li  Li2  1  0.50505200  0.41713400  0.74719800  1
  Li  Li3  1  0.74200700  0.42176800  0.50771500  1
  Li  Li4  1  0.74152700  0.58058500  0.98939900  1
  Li  Li5  1  0.99494800  0.91713400  0.75280200  1
  Li  Li6  1  0.24567900  0.91169600  0.50649900  1
  Li  Li7  1  0.75799300  0.92176800  0.99228500  1
  V  V8  1  0.01221600  0.08323400  0.24781100  1
  V  V9  1  0.00058600  0.24313900  0.75715600  1
  V  V10  1  0.49117300  0.07698400  0.75282600  1
  V  V11  1  0.25820500  0.26011400  0.50723700  1
  V  V12  1  0.50066700  0.24455300  0.24700000  1
  V  V13  1  0.99871100  0.43250200  0.25344600  1
  V  V14  1  0.73548900  0.25248900  0.99590400  1
  V  V15  1  0.00882700  0.57698400  0.74717400  1
  V  V16  1  0.99933300  0.74455300  0.25300000  1
  V  V17  1  0.48778400  0.58323400  0.25218900  1
  V  V18  1  0.24179500  0.76011400  0.99276300  1
  V  V19  1  0.49941400  0.74313900  0.74284400  1
  V  V20  1  0.76451100  0.75248900  0.50409600  1
  V  V21  1  0.50128900  0.93250200  0.24655400  1
  O  O22  1  0.13337000  0.09247200  0.63203800  1
  O  O23  1  0.37788900  0.08975800  0.37853100  1
  O  O24  1  0.10195200  0.25755700  0.13572800  1
  O  O25  1  0.39152800  0.24533800  0.87324300  1
  O  O26  1  0.64808100  0.08775900  0.12521200  1
  O  O27  1  0.84675100  0.08846000  0.86644900  1
  O  O28  1  0.61062300  0.23955800  0.62743900  1
  O  O29  1  0.11669000  0.39921300  0.63426100  1
  O  O30  1  0.38010100  0.41452700  0.36635800  1
  O  O31  1  0.89955400  0.25019500  0.37050700  1
  O  O32  1  0.61906600  0.42079600  0.13010100  1
  O  O33  1  0.12211100  0.58975800  0.12146900  1
  O  O34  1  0.36663000  0.59247200  0.86796200  1
  O  O35  1  0.88259200  0.40542800  0.87510300  1
  O  O36  1  0.10847200  0.74533800  0.62675700  1
  O  O37  1  0.65324900  0.58846000  0.63355100  1
  O  O38  1  0.39804800  0.75755700  0.36427200  1
  O  O39  1  0.85191900  0.58775900  0.37478800  1
  O  O40  1  0.11989900  0.91452700  0.13364200  1
  O  O41  1  0.60044600  0.75019500  0.12949300  1
  O  O42  1  0.88937700  0.73955800  0.87256100  1
  O  O43  1  0.38331000  0.89921300  0.86573900  1
  O  O44  1  0.61740800  0.90542800  0.62489700  1
  O  O45  1  0.88093400  0.92079600  0.36989900  1
