# generated using pymatgen
data_LiSbO2
_symmetry_space_group_name_H-M   'P 1'
_cell_length_a   5.67163588
_cell_length_b   5.67163588
_cell_length_c   5.35659385
_cell_angle_alpha   66.29376272
_cell_angle_beta   66.29376272
_cell_angle_gamma   103.00553373
_symmetry_Int_Tables_number   1
_chemical_formula_structural   LiSbO2
_chemical_formula_sum   'Li2 Sb2 O4'
_cell_volume   128.17175418
_cell_formula_units_Z   2
loop_
 _symmetry_equiv_pos_site_id
 _symmetry_equiv_pos_as_xyz
  1  'x, y, z'
loop_
 _atom_site_type_symbol
 _atom_site_label
 _atom_site_symmetry_multiplicity
 _atom_site_fract_x
 _atom_site_fract_y
 _atom_site_fract_z
 _atom_site_occupancy
  Li  Li0  1  0.54837400  0.45162600  0.75000000  1
  Li  Li1  1  0.45162600  0.54837400  0.25000000  1
  Sb  Sb2  1  0.10444400  0.89555600  0.75000000  1
  Sb  Sb3  1  0.89555600  0.10444400  0.25000000  1
  O  O4  1  0.73334000  0.80583000  0.76077600  1
  O  O5  1  0.80583000  0.73334000  0.26077600  1
  O  O6  1  0.19417000  0.26666000  0.73922400  1
  O  O7  1  0.26666000  0.19417000  0.23922400  1
