# generated using pymatgen
data_Li2V5O10
_symmetry_space_group_name_H-M   'P 1'
_cell_length_a   5.11503655
_cell_length_b   7.72526023
_cell_length_c   10.42342199
_cell_angle_alpha   104.02833530
_cell_angle_beta   102.83471078
_cell_angle_gamma   77.81407424
_symmetry_Int_Tables_number   1
_chemical_formula_structural   Li2V5O10
_chemical_formula_sum   'Li4 V10 O20'
_cell_volume   384.19314658
_cell_formula_units_Z   2
loop_
 _symmetry_equiv_pos_site_id
 _symmetry_equiv_pos_as_xyz
  1  'x, y, z'
loop_
 _atom_site_type_symbol
 _atom_site_label
 _atom_site_symmetry_multiplicity
 _atom_site_fract_x
 _atom_site_fract_y
 _atom_site_fract_z
 _atom_site_occupancy
  Li  Li0  1  0.54149200  0.40602900  0.10936700  1
  Li  Li1  1  0.53437600  0.39873500  0.60387000  1
  Li  Li2  1  0.46565300  0.60124400  0.39609300  1
  Li  Li3  1  0.45853300  0.59396800  0.89060700  1
  V  V4  1  0.49997800  0.00000000  0.49999600  1
  V  V5  1  0.02488800  0.68456200  0.06979300  1
  V  V6  1  0.01060800  0.68741800  0.56388300  1
  V  V7  1  0.98940800  0.31257500  0.43609700  1
  V  V8  1  0.97509700  0.31543800  0.93019800  1
  V  V9  1  0.49999100  0.00000800  0.00003500  1
  V  V10  1  0.96391100  0.89502400  0.34636700  1
  V  V11  1  0.96338600  0.88856900  0.84356800  1
  V  V12  1  0.03660000  0.11144700  0.15644300  1
  V  V13  1  0.03616300  0.10497000  0.65363400  1
  O  O14  1  0.22012200  0.86424100  0.02351400  1
  O  O15  1  0.22060800  0.86881300  0.53040100  1
  O  O16  1  0.77943700  0.13115700  0.46961400  1
  O  O17  1  0.77985800  0.13577600  0.97650800  1
  O  O18  1  0.77743900  0.51381400  0.03309600  1
  O  O19  1  0.78307500  0.50473600  0.53631500  1
  O  O20  1  0.21692000  0.49526500  0.46367500  1
  O  O21  1  0.22256600  0.48617700  0.96688800  1
  O  O22  1  0.79611200  0.93605400  0.15490900  1
  O  O23  1  0.78857700  0.93583100  0.66654200  1
  O  O24  1  0.21141400  0.06417500  0.33345300  1
  O  O25  1  0.20386900  0.06394500  0.84512100  1
  O  O26  1  0.26576400  0.21736800  0.10237500  1
  O  O27  1  0.26886700  0.22335400  0.58690800  1
  O  O28  1  0.73113500  0.77662500  0.41307400  1
  O  O29  1  0.73423600  0.78266300  0.89766300  1
  O  O30  1  0.18195100  0.68085300  0.23737700  1
  O  O31  1  0.16987300  0.68828300  0.74104700  1
  O  O32  1  0.83007500  0.31172600  0.25895600  1
  O  O33  1  0.81802000  0.31915500  0.76261400  1
