# generated using pymatgen
data_LiMnPO5
_symmetry_space_group_name_H-M   'P 1'
_cell_length_a   6.10792200
_cell_length_b   10.43138000
_cell_length_c   12.35290000
_cell_angle_alpha   90.00000000
_cell_angle_beta   90.00000000
_cell_angle_gamma   90.00000000
_symmetry_Int_Tables_number   1
_chemical_formula_structural   LiMnPO5
_chemical_formula_sum   'Li8 Mn8 P8 O40'
_cell_volume   787.05335486
_cell_formula_units_Z   8
loop_
 _symmetry_equiv_pos_site_id
 _symmetry_equiv_pos_as_xyz
  1  'x, y, z'
loop_
 _atom_site_type_symbol
 _atom_site_label
 _atom_site_symmetry_multiplicity
 _atom_site_fract_x
 _atom_site_fract_y
 _atom_site_fract_z
 _atom_site_occupancy
  Li  Li0  1  0.79869700  0.10313200  0.10975000  1
  Li  Li1  1  0.27464200  0.82682900  0.17283400  1
  Li  Li2  1  0.77464200  0.32682900  0.32716600  1
  Li  Li3  1  0.29869700  0.60313200  0.39025000  1
  Li  Li4  1  0.70130300  0.10313200  0.60975000  1
  Li  Li5  1  0.22535800  0.82682900  0.67283400  1
  Li  Li6  1  0.72535800  0.32682900  0.82716600  1
  Li  Li7  1  0.20130300  0.60313200  0.89025000  1
  Mn  Mn8  1  0.00670200  0.50940000  0.12696300  1
  Mn  Mn9  1  0.25704300  0.25602900  0.24754900  1
  Mn  Mn10  1  0.75704300  0.75602900  0.25245100  1
  Mn  Mn11  1  0.50670200  0.00940000  0.37303700  1
  Mn  Mn12  1  0.49329800  0.50940000  0.62696300  1
  Mn  Mn13  1  0.24295700  0.25602900  0.74754900  1
  Mn  Mn14  1  0.74295700  0.75602900  0.75245100  1
  Mn  Mn15  1  0.99329800  0.00940000  0.87303700  1
  P  P16  1  0.83870200  0.76106200  0.00121700  1
  P  P17  1  0.50664400  0.50834100  0.18717800  1
  P  P18  1  0.00664400  0.00834100  0.31282200  1
  P  P19  1  0.33870200  0.26106200  0.49878300  1
  P  P20  1  0.66129800  0.76106200  0.50121700  1
  P  P21  1  0.99335600  0.50834100  0.68717800  1
  P  P22  1  0.49335600  0.00834100  0.81282200  1
  P  P23  1  0.16129800  0.26106200  0.99878300  1
  O  O24  1  0.02398600  0.38497100  0.00455900  1
  O  O25  1  0.00160000  0.64683000  0.00868700  1
  O  O26  1  0.31959400  0.24507100  0.09605500  1
  O  O27  1  0.68294700  0.76492500  0.10063200  1
  O  O28  1  0.70201600  0.48832500  0.11252800  1
  O  O29  1  0.31426400  0.53116800  0.11046800  1
  O  O30  1  0.99165700  0.63879900  0.23095700  1
  O  O31  1  0.02652000  0.38041500  0.23096400  1
  O  O32  1  0.03022600  0.12353900  0.23241600  1
  O  O33  1  0.97717800  0.89132400  0.23513900  1
  O  O34  1  0.47717800  0.39132400  0.26486100  1
  O  O35  1  0.53022600  0.62353900  0.26758400  1
  O  O36  1  0.52652000  0.88041500  0.26903600  1
  O  O37  1  0.49165700  0.13879900  0.26904300  1
  O  O38  1  0.81426400  0.03116800  0.38953200  1
  O  O39  1  0.20201600  0.98832500  0.38747200  1
  O  O40  1  0.18294700  0.26492500  0.39936800  1
  O  O41  1  0.81959400  0.74507100  0.40394500  1
  O  O42  1  0.50160000  0.14683000  0.49131300  1
  O  O43  1  0.52398600  0.88497100  0.49544100  1
  O  O44  1  0.47601400  0.38497100  0.50455900  1
  O  O45  1  0.49840000  0.64683000  0.50868700  1
  O  O46  1  0.18040600  0.24507100  0.59605500  1
  O  O47  1  0.81705300  0.76492500  0.60063200  1
  O  O48  1  0.79798400  0.48832500  0.61252800  1
  O  O49  1  0.18573600  0.53116800  0.61046800  1
  O  O50  1  0.50834300  0.63879900  0.73095700  1
  O  O51  1  0.47348000  0.38041500  0.73096400  1
  O  O52  1  0.46977400  0.12353900  0.73241600  1
  O  O53  1  0.52282200  0.89132400  0.73513900  1
  O  O54  1  0.02282200  0.39132400  0.76486100  1
  O  O55  1  0.96977400  0.62353900  0.76758400  1
  O  O56  1  0.97348000  0.88041500  0.76903600  1
  O  O57  1  0.00834300  0.13879900  0.76904300  1
  O  O58  1  0.68573600  0.03116800  0.88953200  1
  O  O59  1  0.29798400  0.98832500  0.88747200  1
  O  O60  1  0.31705300  0.26492500  0.89936800  1
  O  O61  1  0.68040600  0.74507100  0.90394500  1
  O  O62  1  0.99840000  0.14683000  0.99131300  1
  O  O63  1  0.97601400  0.88497100  0.99544100  1
