# generated using pymatgen
data_Li3CrO4
_symmetry_space_group_name_H-M   'P 1'
_cell_length_a   5.83664600
_cell_length_b   4.95354500
_cell_length_c   5.09157855
_cell_angle_alpha   70.05007760
_cell_angle_beta   90.00000000
_cell_angle_gamma   90.00000000
_symmetry_Int_Tables_number   1
_chemical_formula_structural   Li3CrO4
_chemical_formula_sum   'Li6 Cr2 O8'
_cell_volume   138.37438366
_cell_formula_units_Z   2
loop_
 _symmetry_equiv_pos_site_id
 _symmetry_equiv_pos_as_xyz
  1  'x, y, z'
loop_
 _atom_site_type_symbol
 _atom_site_label
 _atom_site_symmetry_multiplicity
 _atom_site_fract_x
 _atom_site_fract_y
 _atom_site_fract_z
 _atom_site_occupancy
  Li  Li0  1  0.63190500  0.25000000  0.00000000  1
  Li  Li1  1  0.36809500  0.75000000  0.00000000  1
  Li  Li2  1  0.38615000  0.25000000  0.50000000  1
  Li  Li3  1  0.87954200  0.25000000  0.50000000  1
  Li  Li4  1  0.61385000  0.75000000  0.50000000  1
  Li  Li5  1  0.12045800  0.75000000  0.50000000  1
  Cr  Cr6  1  0.15485800  0.25000000  0.00000000  1
  Cr  Cr7  1  0.84514200  0.75000000  0.00000000  1
  O  O8  1  0.35618800  0.02524900  0.23720900  1
  O  O9  1  0.10553200  0.48964400  0.21620600  1
  O  O10  1  0.64381200  0.52524900  0.23720900  1
  O  O11  1  0.89446800  0.98964400  0.21620600  1
  O  O12  1  0.10553200  0.01035600  0.78379400  1
  O  O13  1  0.35618800  0.47475100  0.76279100  1
  O  O14  1  0.89446800  0.51035600  0.78379400  1
  O  O15  1  0.64381200  0.97475100  0.76279100  1
