# generated using pymatgen
data_Li2FeP2O7
_symmetry_space_group_name_H-M   'P 1'
_cell_length_a   7.08346942
_cell_length_b   10.18526740
_cell_length_c   8.92623347
_cell_angle_alpha   114.95168221
_cell_angle_beta   78.09569987
_cell_angle_gamma   109.84392647
_symmetry_Int_Tables_number   1
_chemical_formula_structural   Li2FeP2O7
_chemical_formula_sum   'Li8 Fe4 P8 O28'
_cell_volume   547.71734285
_cell_formula_units_Z   4
loop_
 _symmetry_equiv_pos_site_id
 _symmetry_equiv_pos_as_xyz
  1  'x, y, z'
loop_
 _atom_site_type_symbol
 _atom_site_label
 _atom_site_symmetry_multiplicity
 _atom_site_fract_x
 _atom_site_fract_y
 _atom_site_fract_z
 _atom_site_occupancy
  Li  Li0  1  0.78034900  0.45910800  0.01475900  1
  Li  Li1  1  0.28014900  0.95932400  0.01518200  1
  Li  Li2  1  0.21983200  0.54067500  0.98478800  1
  Li  Li3  1  0.71972500  0.04086500  0.98525100  1
  Li  Li4  1  0.61500000  0.72376900  0.75789200  1
  Li  Li5  1  0.11458300  0.22380900  0.75751100  1
  Li  Li6  1  0.38554400  0.27616500  0.24246500  1
  Li  Li7  1  0.88504600  0.77616300  0.24202600  1
  Fe  Fe8  1  0.40938200  0.59528900  0.33745000  1
  Fe  Fe9  1  0.09043400  0.90456500  0.66230400  1
  Fe  Fe10  1  0.90913000  0.09579500  0.33785200  1
  Fe  Fe11  1  0.59088700  0.40408000  0.66230000  1
  P  P12  1  0.83640300  0.57675200  0.39140300  1
  P  P13  1  0.33616000  0.07656500  0.39134400  1
  P  P14  1  0.16377400  0.42348200  0.60867400  1
  P  P15  1  0.66362000  0.92330800  0.60857300  1
  P  P16  1  0.03018500  0.32956700  0.14276300  1
  P  P17  1  0.52954200  0.82933700  0.14286000  1
  P  P18  1  0.97048900  0.67067900  0.85717200  1
  P  P19  1  0.46980700  0.17038100  0.85723900  1
  O  O20  1  0.50919600  0.22349600  0.43416100  1
  O  O21  1  0.00821200  0.72438000  0.43525900  1
  O  O22  1  0.49166800  0.77580700  0.56482500  1
  O  O23  1  0.99063000  0.27666700  0.56582800  1
  O  O24  1  0.70161200  0.55330700  0.53903300  1
  O  O25  1  0.20165600  0.05429500  0.53957500  1
  O  O26  1  0.29835900  0.44574700  0.46043900  1
  O  O27  1  0.79846900  0.94665000  0.46090400  1
  O  O28  1  0.71374900  0.56443900  0.25745100  1
  O  O29  1  0.21326400  0.06449300  0.25766000  1
  O  O30  1  0.28664500  0.43545900  0.74232300  1
  O  O31  1  0.78616600  0.93550000  0.74252900  1
  O  O32  1  0.07508100  0.82740500  0.84965500  1
  O  O33  1  0.57510700  0.32678300  0.84898800  1
  O  O34  1  0.92473100  0.17326400  0.15122500  1
  O  O35  1  0.42472600  0.67269800  0.15053200  1
  O  O36  1  0.47877600  0.84702500  0.99463200  1
  O  O37  1  0.97903400  0.34693000  0.99446300  1
  O  O38  1  0.52099400  0.15298500  0.00548300  1
  O  O39  1  0.02117600  0.65288900  0.00537000  1
  O  O40  1  0.93791000  0.44100100  0.31178400  1
  O  O41  1  0.43557500  0.93966300  0.31183700  1
  O  O42  1  0.06470600  0.56057200  0.68817300  1
  O  O43  1  0.56246800  0.05924400  0.68822300  1
  O  O44  1  0.74312100  0.61789300  0.84321700  1
  O  O45  1  0.24235700  0.11807000  0.84377000  1
  O  O46  1  0.25761900  0.38171000  0.15614600  1
  O  O47  1  0.75694900  0.88195200  0.15670600  1
