# generated using pymatgen
data_Li6MnFeP2(CO7)2
_symmetry_space_group_name_H-M   'P 1'
_cell_length_a   8.22895434
_cell_length_b   8.22926908
_cell_length_c   9.43614057
_cell_angle_alpha   74.89680264
_cell_angle_beta   105.09364166
_cell_angle_gamma   75.61647838
_symmetry_Int_Tables_number   1
_chemical_formula_structural   Li6MnFeP2(CO7)2
_chemical_formula_sum   'Li12 Mn2 Fe2 P4 C4 O28'
_cell_volume   560.31361594
_cell_formula_units_Z   2
loop_
 _symmetry_equiv_pos_site_id
 _symmetry_equiv_pos_as_xyz
  1  'x, y, z'
loop_
 _atom_site_type_symbol
 _atom_site_label
 _atom_site_symmetry_multiplicity
 _atom_site_fract_x
 _atom_site_fract_y
 _atom_site_fract_z
 _atom_site_occupancy
  Li  Li0  1  0.57857100  0.67137400  0.10348600  1
  Li  Li1  1  0.07869900  0.17147900  0.10348200  1
  Li  Li2  1  0.91969300  0.83028000  0.89461000  1
  Li  Li3  1  0.41972100  0.33036300  0.89455700  1
  Li  Li4  1  0.28072900  0.73557800  0.27134100  1
  Li  Li5  1  0.78088000  0.23562200  0.27138900  1
  Li  Li6  1  0.51440600  0.96910300  0.27149000  1
  Li  Li7  1  0.01447300  0.46921400  0.27143400  1
  Li  Li8  1  0.98840800  0.53254800  0.72857900  1
  Li  Li9  1  0.48844800  0.03252800  0.72852800  1
  Li  Li10  1  0.21723500  0.76153000  0.72836500  1
  Li  Li11  1  0.71738200  0.26148000  0.72839800  1
  Mn  Mn12  1  0.56533200  0.68455900  0.66229800  1
  Mn  Mn13  1  0.06536500  0.18468700  0.66231800  1
  Fe  Fe14  1  0.43513700  0.31489300  0.33223100  1
  Fe  Fe15  1  0.93502200  0.81497600  0.33206600  1
  P  P16  1  0.69715000  0.55280200  0.40826300  1
  P  P17  1  0.19716300  0.05282600  0.40824400  1
  P  P18  1  0.80108900  0.94887200  0.59045500  1
  P  P19  1  0.30101100  0.44893900  0.59044600  1
  C  C20  1  0.72663100  0.02345900  0.03907900  1
  C  C21  1  0.22658600  0.52344600  0.03907000  1
  C  C22  1  0.77557400  0.47448600  0.96356300  1
  C  C23  1  0.27556300  0.97450200  0.96354000  1
  O  O24  1  0.86232300  0.88767100  0.06240900  1
  O  O25  1  0.36230700  0.38769100  0.06242100  1
  O  O26  1  0.38114900  0.86889400  0.10408600  1
  O  O27  1  0.88125000  0.36897000  0.10410300  1
  O  O28  1  0.69900100  0.05115700  0.16303400  1
  O  O29  1  0.19901100  0.55107400  0.16306900  1
  O  O30  1  0.67192500  0.07805500  0.42747000  1
  O  O31  1  0.17184800  0.57813100  0.42748800  1
  O  O32  1  0.54932300  0.70059700  0.42443300  1
  O  O33  1  0.04938200  0.20067200  0.42440800  1
  O  O34  1  0.94783600  0.80212100  0.57126100  1
  O  O35  1  0.44771300  0.30219600  0.57119700  1
  O  O36  1  0.82416900  0.42572100  0.57281600  1
  O  O37  1  0.32416900  0.92572600  0.57279200  1
  O  O38  1  0.80530100  0.44483200  0.84106400  1
  O  O39  1  0.30529100  0.94486200  0.84104200  1
  O  O40  1  0.12024200  0.62976700  0.89925900  1
  O  O41  1  0.62036800  0.12974900  0.89925300  1
  O  O42  1  0.63977600  0.61008400  0.93956900  1
  O  O43  1  0.13982000  0.11015600  0.93955200  1
  O  O44  1  0.60804200  0.45483900  0.30644400  1
  O  O45  1  0.10798800  0.95493000  0.30639700  1
  O  O46  1  0.79511700  0.64197600  0.30647900  1
  O  O47  1  0.29520200  0.14193400  0.30648100  1
  O  O48  1  0.89043700  0.04470600  0.69406000  1
  O  O49  1  0.39037500  0.54476300  0.69405100  1
  O  O50  1  0.70522600  0.85955400  0.69407900  1
  O  O51  1  0.20513900  0.35962600  0.69404900  1
