# generated using pymatgen
data_Li3CoBO4
_symmetry_space_group_name_H-M   'P 1'
_cell_length_a   9.56549726
_cell_length_b   9.56549726
_cell_length_c   9.56549726
_cell_angle_alpha   116.38186124
_cell_angle_beta   116.38186124
_cell_angle_gamma   96.39007677
_symmetry_Int_Tables_number   1
_chemical_formula_structural   Li3CoBO4
_chemical_formula_sum   'Li24 Co8 B8 O32'
_cell_volume   648.35982323
_cell_formula_units_Z   8
loop_
 _symmetry_equiv_pos_site_id
 _symmetry_equiv_pos_as_xyz
  1  'x, y, z'
loop_
 _atom_site_type_symbol
 _atom_site_label
 _atom_site_symmetry_multiplicity
 _atom_site_fract_x
 _atom_site_fract_y
 _atom_site_fract_z
 _atom_site_occupancy
  Li  Li0  1  0.91549400  0.09705200  0.13614200  1
  Li  Li1  1  0.83450600  0.15294800  0.36385800  1
  Li  Li2  1  0.90294800  0.03909000  0.81844200  1
  Li  Li3  1  0.52935200  0.16549400  0.31844200  1
  Li  Li4  1  0.41738600  0.26994300  0.10504700  1
  Li  Li5  1  0.72155400  0.56390100  0.14259500  1
  Li  Li6  1  0.22064800  0.08450600  0.18155800  1
  Li  Li7  1  0.84705200  0.21091000  0.68155800  1
  Li  Li8  1  0.73005700  0.83510400  0.14744400  1
  Li  Li9  1  0.43609900  0.57869400  0.15765200  1
  Li  Li10  1  0.78909000  0.47064800  0.63614200  1
  Li  Li11  1  0.96091000  0.77935200  0.86385800  1
  Li  Li12  1  0.42104200  0.27844600  0.84234800  1
  Li  Li13  1  0.31390100  0.67130600  0.34234800  1
  Li  Li14  1  0.01994300  0.41489600  0.35255600  1
  Li  Li15  1  0.68766000  0.58261400  0.85255600  1
  Li  Li16  1  0.02844600  0.68609900  0.35740500  1
  Li  Li17  1  0.42130600  0.57895800  0.85740500  1
  Li  Li18  1  0.58510400  0.93766000  0.60504700  1
  Li  Li19  1  0.33261400  0.98005700  0.39495300  1
  Li  Li20  1  0.16489600  0.31234000  0.89495300  1
  Li  Li21  1  0.32869400  0.67104200  0.64259500  1
  Li  Li22  1  0.06234000  0.66738600  0.64744400  1
  Li  Li23  1  0.32895800  0.97155400  0.65765200  1
  Co  Co24  1  0.46100000  0.91693100  0.99619900  1
  Co  Co25  1  0.53519900  0.53900000  0.45593100  1
  Co  Co26  1  0.66693100  0.17073200  0.95593100  1
  Co  Co27  1  0.82926800  0.78519900  0.49619900  1
  Co  Co28  1  0.28900000  0.33306900  0.50380100  1
  Co  Co29  1  0.08306900  0.07926800  0.54406900  1
  Co  Co30  1  0.21480100  0.71100000  0.04406900  1
  Co  Co31  1  0.92073200  0.46480100  0.00380100  1
  B  B32  1  0.72838700  0.39474400  0.27492600  1
  B  B33  1  0.14474400  0.36981800  0.16635700  1
  B  B34  1  0.54653900  0.27161300  0.66635700  1
  B  B35  1  0.60525600  0.88018200  0.33364300  1
  B  B36  1  0.63018200  0.79653900  0.77492600  1
  B  B37  1  0.02161300  0.85525600  0.22507400  1
  B  B38  1  0.11981800  0.45346100  0.72507400  1
  B  B39  1  0.20346100  0.97838700  0.83364300  1
  O  O40  1  0.79949100  0.25982000  0.22898600  1
  O  O41  1  0.32050500  0.04949100  0.03967100  1
  O  O42  1  0.59914800  0.35556400  0.08504900  1
  O  O43  1  0.88302200  0.68123100  0.11231600  1
  O  O44  1  0.86697800  0.56876900  0.38768400  1
  O  O45  1  0.64411400  0.38363300  0.36993700  1
  O  O46  1  0.42949500  0.20050900  0.46032900  1
  O  O47  1  0.31876900  0.43108500  0.20179100  1
  O  O48  1  0.52070600  0.13302200  0.70179100  1
  O  O49  1  0.95050900  0.99018000  0.27101400  1
  O  O50  1  0.13363300  0.26369600  0.23951900  1
  O  O51  1  0.72582400  0.35588600  0.73951900  1
  O  O52  1  0.64443600  0.72948500  0.24358400  1
  O  O53  1  0.10556400  0.52051500  0.25641600  1
  O  O54  1  0.48590100  0.40085200  0.75641600  1
  O  O55  1  0.61636700  0.98630400  0.26048100  1
  O  O56  1  0.71916600  0.67949500  0.72898600  1
  O  O57  1  0.22929400  0.11697800  0.79820900  1
  O  O58  1  0.43123100  0.81891500  0.29820900  1
  O  O59  1  0.74018000  0.96916600  0.53967100  1
  O  O60  1  0.47948500  0.73590100  0.58504900  1
  O  O61  1  0.10588600  0.86636700  0.13006300  1
  O  O62  1  0.01369600  0.27417600  0.63006300  1
  O  O63  1  0.18108500  0.47929400  0.61231600  1
  O  O64  1  0.56891500  0.77070600  0.88768400  1
  O  O65  1  0.73630400  0.97582400  0.86993700  1
  O  O66  1  0.27051500  0.51409900  0.91495100  1
  O  O67  1  0.15085200  0.89443600  0.41495100  1
  O  O68  1  0.00982000  0.28083400  0.96032900  1
  O  O69  1  0.03083400  0.57050500  0.77101400  1
  O  O70  1  0.26409900  0.84914800  0.74358400  1
  O  O71  1  0.02417600  0.89411400  0.76048100  1
