# generated using pymatgen
data_Li8FeCo9O20
_symmetry_space_group_name_H-M   'P 1'
_cell_length_a   4.90599000
_cell_length_b   7.48536590
_cell_length_c   9.72205134
_cell_angle_alpha   96.34832397
_cell_angle_beta   94.81205138
_cell_angle_gamma   109.03644343
_symmetry_Int_Tables_number   1
_chemical_formula_structural   Li8FeCo9O20
_chemical_formula_sum   'Li8 Fe1 Co9 O20'
_cell_volume   332.68429658
_cell_formula_units_Z   1
loop_
 _symmetry_equiv_pos_site_id
 _symmetry_equiv_pos_as_xyz
  1  'x, y, z'
loop_
 _atom_site_type_symbol
 _atom_site_label
 _atom_site_symmetry_multiplicity
 _atom_site_fract_x
 _atom_site_fract_y
 _atom_site_fract_z
 _atom_site_occupancy
  Li  Li0  1  0.59116200  0.93831900  0.24584900  1
  Li  Li1  1  0.19552400  0.13838400  0.24650600  1
  Li  Li2  1  0.40883800  0.06168100  0.75415100  1
  Li  Li3  1  0.80733200  0.36368600  0.24879300  1
  Li  Li4  1  0.59946600  0.44219300  0.75222300  1
  Li  Li5  1  0.40053400  0.55780700  0.24777700  1
  Li  Li6  1  0.19266800  0.63631400  0.75120700  1
  Li  Li7  1  0.80447600  0.86161600  0.75349400  1
  Fe  Fe8  1  0.00000000  0.00000000  0.50000000  1
  Co  Co9  1  0.20069600  0.90004700  0.00196200  1
  Co  Co10  1  0.60508000  0.20139700  0.49994400  1
  Co  Co11  1  0.79930400  0.09995300  0.99803800  1
  Co  Co12  1  0.39616200  0.29900800  0.99890600  1
  Co  Co13  1  0.20184300  0.40068800  0.50199200  1
  Co  Co14  1  0.79815700  0.59931200  0.49800800  1
  Co  Co15  1  0.00000000  0.50000000  0.00000000  1
  Co  Co16  1  0.39492000  0.79860300  0.50005600  1
  Co  Co17  1  0.60383800  0.70099200  0.00109400  1
  O  O18  1  0.89364300  0.92484600  0.10483600  1
  O  O19  1  0.31156400  0.98446800  0.39374600  1
  O  O20  1  0.68843600  0.01553200  0.60625400  1
  O  O21  1  0.50451300  0.87776900  0.89183600  1
  O  O22  1  0.10635700  0.07515400  0.89516400  1
  O  O23  1  0.30728500  0.21964200  0.60656800  1
  O  O24  1  0.49548700  0.12223100  0.10816400  1
  O  O25  1  0.90918700  0.17590900  0.39047700  1
  O  O26  1  0.50653600  0.37905300  0.39120100  1
  O  O27  1  0.69754900  0.28150100  0.89545200  1
  O  O28  1  0.89566300  0.42590700  0.60528000  1
  O  O29  1  0.09325900  0.32161100  0.10734800  1
  O  O30  1  0.68858800  0.51707100  0.10268800  1
  O  O31  1  0.10433700  0.57409300  0.39472000  1
  O  O32  1  0.49346400  0.62094700  0.60879900  1
  O  O33  1  0.31141200  0.48292900  0.89731200  1
  O  O34  1  0.09081300  0.82409100  0.60952300  1
  O  O35  1  0.90674100  0.67838900  0.89265200  1
  O  O36  1  0.30245100  0.71849900  0.10454800  1
  O  O37  1  0.69271500  0.78035800  0.39343200  1
