# generated using pymatgen
data_Li2TiFeO4
_symmetry_space_group_name_H-M   'P 1'
_cell_length_a   5.96069860
_cell_length_b   9.94688289
_cell_length_c   6.03936240
_cell_angle_alpha   99.06184184
_cell_angle_beta   60.42575892
_cell_angle_gamma   90.00575089
_symmetry_Int_Tables_number   1
_chemical_formula_structural   Li2TiFeO4
_chemical_formula_sum   'Li8 Ti4 Fe4 O16'
_cell_volume   306.27889068
_cell_formula_units_Z   4
loop_
 _symmetry_equiv_pos_site_id
 _symmetry_equiv_pos_as_xyz
  1  'x, y, z'
loop_
 _atom_site_type_symbol
 _atom_site_label
 _atom_site_symmetry_multiplicity
 _atom_site_fract_x
 _atom_site_fract_y
 _atom_site_fract_z
 _atom_site_occupancy
  Li  Li0  1  0.00001900  0.99997800  0.99996400  1
  Li  Li1  1  0.49996500  0.00002200  0.00003600  1
  Li  Li2  1  0.25000500  0.50000500  0.50000700  1
  Li  Li3  1  0.75001300  0.49999500  0.49999200  1
  Li  Li4  1  0.24999300  0.50000000  0.00000000  1
  Li  Li5  1  0.75000300  0.50000000  0.00000000  1
  Li  Li6  1  0.49997300  0.00001300  0.50000600  1
  Li  Li7  1  0.00003300  0.99998600  0.49999200  1
  Ti  Ti8  1  0.87503900  0.75000200  0.24998800  1
  Ti  Ti9  1  0.37497900  0.75000100  0.24997600  1
  Ti  Ti10  1  0.12502400  0.24999800  0.75001900  1
  Ti  Ti11  1  0.62496000  0.24999800  0.75001400  1
  Fe  Fe12  1  0.62498800  0.25000700  0.25002600  1
  Fe  Fe13  1  0.87500500  0.74999500  0.74998100  1
  Fe  Fe14  1  0.12500900  0.25000100  0.24997600  1
  Fe  Fe15  1  0.37499200  0.74999800  0.75002500  1
  O  O16  1  0.45105000  0.36471100  0.09770100  1
  O  O17  1  0.95111500  0.36476800  0.09757500  1
  O  O18  1  0.70115600  0.86472600  0.59767700  1
  O  O19  1  0.20118700  0.86476300  0.59761100  1
  O  O20  1  0.79894800  0.13528400  0.40229900  1
  O  O21  1  0.29889300  0.13522800  0.40241100  1
  O  O22  1  0.04884800  0.63527900  0.90231800  1
  O  O23  1  0.54880300  0.63524100  0.90240500  1
  O  O24  1  0.17787500  0.86537400  0.14424800  1
  O  O25  1  0.67790600  0.86537900  0.14427200  1
  O  O26  1  0.42789000  0.36538000  0.64427200  1
  O  O27  1  0.92784800  0.36537600  0.64425900  1
  O  O28  1  0.07210200  0.63462000  0.35572900  1
  O  O29  1  0.57212300  0.63462300  0.35574100  1
  O  O30  1  0.32215200  0.13462600  0.85575100  1
  O  O31  1  0.82210400  0.13462200  0.85572900  1
