# generated using pymatgen
data_Sr4Li4Nb5FeO20
_symmetry_space_group_name_H-M   'P 1'
_cell_length_a   13.50346256
_cell_length_b   13.50346256
_cell_length_c   5.67369200
_cell_angle_alpha   89.99992150
_cell_angle_beta   89.99992150
_cell_angle_gamma   155.74482898
_symmetry_Int_Tables_number   1
_chemical_formula_structural   Sr4Li4Nb5FeO20
_chemical_formula_sum   'Sr4 Li4 Nb5 Fe1 O20'
_cell_volume   424.99878111
_cell_formula_units_Z   1
loop_
 _symmetry_equiv_pos_site_id
 _symmetry_equiv_pos_as_xyz
  1  'x, y, z'
loop_
 _atom_site_type_symbol
 _atom_site_label
 _atom_site_symmetry_multiplicity
 _atom_site_fract_x
 _atom_site_fract_y
 _atom_site_fract_z
 _atom_site_occupancy
  Sr  Sr0  1  0.57621300  0.42378700  0.00000000  1
  Sr  Sr1  1  0.42378700  0.57621300  0.00000000  1
  Sr  Sr2  1  0.07620900  0.92379100  0.50000000  1
  Sr  Sr3  1  0.92379100  0.07620900  0.50000000  1
  Li  Li4  1  0.00003300  0.50003400  0.74581800  1
  Li  Li5  1  0.49996600  0.99996700  0.25418200  1
  Li  Li6  1  0.50003400  0.00003300  0.74581800  1
  Li  Li7  1  0.99996700  0.49996600  0.25418200  1
  Nb  Nb8  1  0.00000000  0.00000000  0.00000000  1
  Nb  Nb9  1  0.84099600  0.15900400  0.00000000  1
  Nb  Nb10  1  0.15900400  0.84099600  0.00000000  1
  Nb  Nb11  1  0.34428300  0.65571700  0.50000000  1
  Nb  Nb12  1  0.65571700  0.34428300  0.50000000  1
  Fe  Fe13  1  0.50000000  0.50000000  0.50000000  1
  O  O14  1  0.71764500  0.71764500  0.78624800  1
  O  O15  1  0.92379700  0.07620300  0.00000000  1
  O  O16  1  0.09911000  0.39923500  0.75220700  1
  O  O17  1  0.76957100  0.23042900  0.00000000  1
  O  O18  1  0.90239600  0.60226800  0.75070200  1
  O  O19  1  0.07620300  0.92379700  0.00000000  1
  O  O20  1  0.23042900  0.76957100  0.00000000  1
  O  O21  1  0.21375900  0.21375900  0.71764800  1
  O  O22  1  0.27172700  0.72827300  0.50000000  1
  O  O23  1  0.60076500  0.90089000  0.24779300  1
  O  O24  1  0.60226800  0.90239600  0.75070200  1
  O  O25  1  0.57705200  0.42294800  0.50000000  1
  O  O26  1  0.39923500  0.09911000  0.75220700  1
  O  O27  1  0.42294800  0.57705200  0.50000000  1
  O  O28  1  0.39773200  0.09760400  0.24929800  1
  O  O29  1  0.72827300  0.27172700  0.50000000  1
  O  O30  1  0.78624100  0.78624100  0.28235200  1
  O  O31  1  0.28235500  0.28235500  0.21375200  1
  O  O32  1  0.09760400  0.39773200  0.24929800  1
  O  O33  1  0.90089000  0.60076500  0.24779300  1
