# generated using pymatgen
data_LiVF4
_symmetry_space_group_name_H-M   'P 1'
_cell_length_a   5.67336513
_cell_length_b   5.67336513
_cell_length_c   5.67336513
_cell_angle_alpha   138.98594756
_cell_angle_beta   138.98594756
_cell_angle_gamma   59.39627975
_symmetry_Int_Tables_number   1
_chemical_formula_structural   LiVF4
_chemical_formula_sum   'Li1 V1 F4'
_cell_volume   77.86839924
_cell_formula_units_Z   1
loop_
 _symmetry_equiv_pos_site_id
 _symmetry_equiv_pos_as_xyz
  1  'x, y, z'
loop_
 _atom_site_type_symbol
 _atom_site_label
 _atom_site_symmetry_multiplicity
 _atom_site_fract_x
 _atom_site_fract_y
 _atom_site_fract_z
 _atom_site_occupancy
  Li  Li0  1  0.75000000  0.25000000  0.50000000  1
  V  V1  1  0.00000000  0.00000000  0.00000000  1
  F  F2  1  0.80264800  0.80264800  0.00000000  1
  F  F3  1  0.19735200  0.19735200  0.00000000  1
  F  F4  1  0.98193800  0.48193800  0.50000000  1
  F  F5  1  0.51806200  0.01806200  0.50000000  1
