# generated using pymatgen
data_LiCrPO5
_symmetry_space_group_name_H-M   'P 1'
_cell_length_a   11.85319100
_cell_length_b   5.56780400
_cell_length_c   5.77219091
_cell_angle_alpha   83.61826807
_cell_angle_beta   90.00000000
_cell_angle_gamma   90.00000000
_symmetry_Int_Tables_number   1
_chemical_formula_structural   LiCrPO5
_chemical_formula_sum   'Li4 Cr4 P4 O20'
_cell_volume   378.58237350
_cell_formula_units_Z   4
loop_
 _symmetry_equiv_pos_site_id
 _symmetry_equiv_pos_as_xyz
  1  'x, y, z'
loop_
 _atom_site_type_symbol
 _atom_site_label
 _atom_site_symmetry_multiplicity
 _atom_site_fract_x
 _atom_site_fract_y
 _atom_site_fract_z
 _atom_site_occupancy
  Li  Li0  1  0.25810800  0.82217600  0.65296300  1
  Li  Li1  1  0.24189200  0.82217600  0.15296300  1
  Li  Li2  1  0.75810800  0.17782400  0.84703700  1
  Li  Li3  1  0.74189200  0.17782400  0.34703700  1
  Cr  Cr4  1  0.58063100  0.81770100  0.57127400  1
  Cr  Cr5  1  0.91936900  0.81770100  0.07127400  1
  Cr  Cr6  1  0.08063100  0.18229900  0.92872600  1
  Cr  Cr7  1  0.41936900  0.18229900  0.42872600  1
  P  P8  1  0.84518500  0.64204700  0.59069700  1
  P  P9  1  0.65481500  0.64204700  0.09069700  1
  P  P10  1  0.34518500  0.35795300  0.90930300  1
  P  P11  1  0.15481500  0.35795300  0.40930300  1
  O  O12  1  0.56896500  0.73533600  0.89280000  1
  O  O13  1  0.75071100  0.83686800  0.59910900  1
  O  O14  1  0.41658000  0.87459700  0.52601400  1
  O  O15  1  0.93103500  0.73533600  0.39280000  1
  O  O16  1  0.74928900  0.83686800  0.09910900  1
  O  O17  1  0.08342000  0.87459700  0.02601400  1
  O  O18  1  0.30105300  0.60808600  0.93652500  1
  O  O19  1  0.91731900  0.63639100  0.82002300  1
  O  O20  1  0.41731900  0.36360900  0.67997700  1
  O  O21  1  0.19894700  0.60808600  0.43652500  1
  O  O22  1  0.80105300  0.39191400  0.56347500  1
  O  O23  1  0.58268100  0.63639100  0.32002300  1
  O  O24  1  0.08268100  0.36360900  0.17997700  1
  O  O25  1  0.69894700  0.39191400  0.06347500  1
  O  O26  1  0.91658000  0.12540300  0.97398600  1
  O  O27  1  0.25071100  0.16313200  0.90089100  1
  O  O28  1  0.06896500  0.26466400  0.60720000  1
  O  O29  1  0.58342000  0.12540300  0.47398600  1
  O  O30  1  0.24928900  0.16313200  0.40089100  1
  O  O31  1  0.43103500  0.26466400  0.10720000  1
