# generated using pymatgen
data_Li5Sm3(SbO6)2
_symmetry_space_group_name_H-M   'P 1'
_cell_length_a   11.02974700
_cell_length_b   11.03405710
_cell_length_c   11.04645209
_cell_angle_alpha   109.20356096
_cell_angle_beta   109.63224703
_cell_angle_gamma   109.51230147
_symmetry_Int_Tables_number   1
_chemical_formula_structural   Li5Sm3(SbO6)2
_chemical_formula_sum   'Li20 Sm12 Sb8 O48'
_cell_volume   1035.73272597
_cell_formula_units_Z   4
loop_
 _symmetry_equiv_pos_site_id
 _symmetry_equiv_pos_as_xyz
  1  'x, y, z'
loop_
 _atom_site_type_symbol
 _atom_site_label
 _atom_site_symmetry_multiplicity
 _atom_site_fract_x
 _atom_site_fract_y
 _atom_site_fract_z
 _atom_site_occupancy
  Li  Li0  1  0.37194900  0.38897600  0.16119300  1
  Li  Li1  1  0.78812100  0.10564000  0.53089000  1
  Li  Li2  1  0.38658400  0.75824400  0.13268100  1
  Li  Li3  1  0.74178700  0.16882300  0.35335000  1
  Li  Li4  1  0.11102600  0.27887500  0.99738900  1
  Li  Li5  1  0.84981600  0.73676100  0.69883500  1
  Li  Li6  1  0.02323200  0.79076500  0.60444500  1
  Li  Li7  1  0.70743600  0.49212900  0.36653500  1
  Li  Li8  1  0.39463900  0.66434400  0.87027900  1
  Li  Li9  1  0.27638800  0.49802700  0.60378300  1
  Li  Li10  1  0.86876700  0.13345400  0.76222800  1
  Li  Li11  1  0.61813700  0.33052100  0.09588800  1
  Li  Li12  1  0.29480700  0.78096200  0.66947200  1
  Li  Li13  1  0.75716900  0.64004300  0.88070000  1
  Li  Li14  1  0.51169800  0.12441900  0.78416900  1
  Li  Li15  1  0.67458100  0.39828900  0.88801000  1
  Li  Li16  1  0.12396800  0.25512800  0.36845100  1
  Li  Li17  1  0.21916500  0.89044400  0.49830500  1
  Li  Li18  1  0.21265400  0.84223200  0.21857900  1
  Li  Li19  1  0.11442800  0.00851200  0.27812800  1
  Sm  Sm20  1  0.62903500  0.75550400  0.37794100  1
  Sm  Sm21  1  0.75217800  0.38672700  0.63290700  1
  Sm  Sm22  1  0.75499100  0.88295700  0.12720200  1
  Sm  Sm23  1  0.87981200  0.25431700  0.12216400  1
  Sm  Sm24  1  0.63403300  0.87745400  0.75387300  1
  Sm  Sm25  1  0.88396000  0.63817700  0.24402500  1
  Sm  Sm26  1  0.12083300  0.37513300  0.75000300  1
  Sm  Sm27  1  0.39381200  0.14011800  0.25279300  1
  Sm  Sm28  1  0.13770000  0.75766200  0.88467500  1
  Sm  Sm29  1  0.25495100  0.61874800  0.36185400  1
  Sm  Sm30  1  0.25253200  0.11811400  0.86963600  1
  Sm  Sm31  1  0.37308800  0.26041200  0.62358800  1
  Sb  Sb32  1  0.99515500  0.00740900  0.49755300  1
  Sb  Sb33  1  0.01183800  0.00596700  0.00352300  1
  Sb  Sb34  1  0.49849000  0.50141800  0.99737900  1
  Sb  Sb35  1  0.00105500  0.50503200  0.49947700  1
  Sb  Sb36  1  0.50769900  0.00481200  0.00412400  1
  Sb  Sb37  1  0.00465700  0.50627500  0.00279000  1
  Sb  Sb38  1  0.50274300  0.50843800  0.50734700  1
  Sb  Sb39  1  0.50291100  0.00844900  0.50328900  1
  O  O40  1  0.92430300  0.33212100  0.80383100  1
  O  O41  1  0.67846400  0.98350600  0.59484900  1
  O  O42  1  0.41796100  0.53778800  0.33219900  1
  O  O43  1  0.79390400  0.97763700  0.37564400  1
  O  O44  1  0.90761100  0.58475100  0.88268000  1
  O  O45  1  0.90820600  0.33732400  0.53444200  1
  O  O46  1  0.98680100  0.08972000  0.17861700  1
  O  O47  1  0.92661000  0.60913700  0.62019800  1
  O  O48  1  0.52578400  0.70058000  0.10869900  1
  O  O49  1  0.41956100  0.80890000  0.32931500  1
  O  O50  1  0.80882700  0.83344300  0.91352400  1
  O  O51  1  0.29706400  0.37160600  0.96688900  1
  O  O52  1  0.60822700  0.13204500  0.43259000  1
  O  O53  1  0.71251000  0.08625100  0.16950300  1
  O  O54  1  0.09386400  0.42191700  0.11987300  1
  O  O55  1  0.90000800  0.09813400  0.91992200  1
  O  O56  1  0.82831400  0.43083800  0.30094100  1
  O  O57  1  0.37388100  0.47184200  0.79444300  1
  O  O58  1  0.67231700  0.70839800  0.58139600  1
  O  O59  1  0.87806300  0.80106500  0.46540200  1
  O  O60  1  0.58446200  0.38840800  0.41747200  1
  O  O61  1  0.00832700  0.12573700  0.68896300  1
  O  O62  1  0.38995200  0.91397400  0.08720800  1
  O  O63  1  0.17951500  0.60340100  0.97845800  1
  O  O64  1  0.53550300  0.83525100  0.90619100  1
  O  O65  1  0.41891500  0.63117600  0.59132900  1
  O  O66  1  0.12164700  0.20569500  0.52263600  1
  O  O67  1  0.47403500  0.17567000  0.08921300  1
  O  O68  1  0.62787500  0.10304400  0.92671100  1
  O  O69  1  0.83311500  0.41732100  0.03608100  1
  O  O70  1  0.18511000  0.58899200  0.70007800  1
  O  O71  1  0.13825200  0.93293900  0.10409700  1
  O  O72  1  0.61265300  0.51834500  0.19577500  1
  O  O73  1  0.30450000  0.92042800  0.82953700  1
  O  O74  1  0.20940000  0.18225300  0.07708800  1
  O  O75  1  0.40864500  0.89638400  0.59006200  1
  O  O76  1  0.70046700  0.61297700  0.02194100  1
  O  O77  1  0.08922500  0.41671100  0.38854600  1
  O  O78  1  0.48668300  0.30432300  0.88537000  1
  O  O79  1  0.57646800  0.20929500  0.67538200  1
  O  O80  1  0.03788400  0.90987000  0.82882700  1
  O  O81  1  0.10299900  0.68940900  0.48634900  1
  O  O82  1  0.19435400  0.03190700  0.62189500  1
  O  O83  1  0.59777400  0.48337500  0.68171000  1
  O  O84  1  0.32188700  0.02586300  0.40455300  1
  O  O85  1  0.08935900  0.67693700  0.20871700  1
  O  O86  1  0.97414700  0.88669500  0.30103600  1
  O  O87  1  0.32833700  0.30889700  0.42595900  1
