# generated using pymatgen
data_LiSn2P5O16
_symmetry_space_group_name_H-M   'P 1'
_cell_length_a   10.34726700
_cell_length_b   7.36983600
_cell_length_c   10.66318278
_cell_angle_alpha   70.05891550
_cell_angle_beta   90.00000000
_cell_angle_gamma   90.00000000
_symmetry_Int_Tables_number   1
_chemical_formula_structural   LiSn2P5O16
_chemical_formula_sum   'Li2 Sn4 P10 O32'
_cell_volume   764.39603991
_cell_formula_units_Z   2
loop_
 _symmetry_equiv_pos_site_id
 _symmetry_equiv_pos_as_xyz
  1  'x, y, z'
loop_
 _atom_site_type_symbol
 _atom_site_label
 _atom_site_symmetry_multiplicity
 _atom_site_fract_x
 _atom_site_fract_y
 _atom_site_fract_z
 _atom_site_occupancy
  Li  Li0  1  0.80924100  0.03820100  0.19250400  1
  Li  Li1  1  0.19075900  0.03820100  0.69250400  1
  Sn  Sn2  1  0.12766100  0.64684400  0.49959200  1
  Sn  Sn3  1  0.37028500  0.08256500  0.13466300  1
  Sn  Sn4  1  0.62971500  0.08256500  0.63466300  1
  Sn  Sn5  1  0.87233900  0.64684400  0.99959200  1
  P  P6  1  0.85794500  0.38042000  0.62953400  1
  P  P7  1  0.46754500  0.49250500  0.49763000  1
  P  P8  1  0.28832600  0.44029100  0.87914000  1
  P  P9  1  0.87135000  0.76279600  0.66338500  1
  P  P10  1  0.41295900  0.90068300  0.46552300  1
  P  P11  1  0.58704100  0.90068300  0.96552300  1
  P  P12  1  0.14205500  0.38042000  0.12953400  1
  P  P13  1  0.53245500  0.49250500  0.99763000  1
  P  P14  1  0.71167400  0.44029100  0.37914000  1
  P  P15  1  0.12865000  0.76279600  0.16338500  1
  O  O16  1  0.29950300  0.21927800  0.93760500  1
  O  O17  1  0.84635600  0.52739400  0.70794900  1
  O  O18  1  0.05945600  0.78818900  0.28218600  1
  O  O19  1  0.22885000  0.52700500  0.74547500  1
  O  O20  1  0.47741100  0.68882600  0.53117200  1
  O  O21  1  0.43016200  0.53383500  0.87483700  1
  O  O22  1  0.66537800  0.46090500  0.95671500  1
  O  O23  1  0.21318700  0.50497300  0.99015700  1
  O  O24  1  0.52766700  0.01503800  0.04699800  1
  O  O25  1  0.94983700  0.82602700  0.53529300  1
  O  O26  1  0.26781600  0.89875700  0.48609400  1
  O  O27  1  0.45815400  0.96911900  0.31842800  1
  O  O28  1  0.94054400  0.78818900  0.78218600  1
  O  O29  1  0.72984400  0.83970800  0.64538100  1
  O  O30  1  0.22432200  0.20560500  0.20711400  1
  O  O31  1  0.47233300  0.01503800  0.54699800  1
  O  O32  1  0.73218400  0.89875700  0.98609400  1
  O  O33  1  0.47044900  0.33952500  0.11783400  1
  O  O34  1  0.54184600  0.96911900  0.81842800  1
  O  O35  1  0.70049700  0.21927800  0.43760500  1
  O  O36  1  0.00573700  0.33128300  0.10671500  1
  O  O37  1  0.77567800  0.20560500  0.70711400  1
  O  O38  1  0.15364400  0.52739400  0.20794900  1
  O  O39  1  0.52955100  0.33952500  0.61783400  1
  O  O40  1  0.77115000  0.52700500  0.24547500  1
  O  O41  1  0.52258900  0.68882600  0.03117200  1
  O  O42  1  0.99426300  0.33128300  0.60671500  1
  O  O43  1  0.56983800  0.53383500  0.37483700  1
  O  O44  1  0.33462200  0.46090500  0.45671500  1
  O  O45  1  0.78681300  0.50497300  0.49015700  1
  O  O46  1  0.05016300  0.82602700  0.03529300  1
  O  O47  1  0.27015600  0.83970800  0.14538100  1
