# generated using pymatgen
data_Li4Cu3Bi(PO4)4
_symmetry_space_group_name_H-M   'P 1'
_cell_length_a   4.82149239
_cell_length_b   10.51078493
_cell_length_c   6.25156600
_cell_angle_alpha   90.00000000
_cell_angle_beta   90.00000000
_cell_angle_gamma   87.29089133
_symmetry_Int_Tables_number   1
_chemical_formula_structural   Li4Cu3Bi(PO4)4
_chemical_formula_sum   'Li4 Cu3 Bi1 P4 O16'
_cell_volume   316.46071517
_cell_formula_units_Z   1
loop_
 _symmetry_equiv_pos_site_id
 _symmetry_equiv_pos_as_xyz
  1  'x, y, z'
loop_
 _atom_site_type_symbol
 _atom_site_label
 _atom_site_symmetry_multiplicity
 _atom_site_fract_x
 _atom_site_fract_y
 _atom_site_fract_z
 _atom_site_occupancy
  Li  Li0  1  0.01045800  0.98122800  0.99295200  1
  Li  Li1  1  0.01045800  0.98122800  0.50704800  1
  Li  Li2  1  0.49773000  0.52131100  0.50721200  1
  Li  Li3  1  0.49773000  0.52131100  0.99278800  1
  Cu  Cu4  1  0.00199700  0.72334500  0.75000000  1
  Cu  Cu5  1  0.45042400  0.20567800  0.75000000  1
  Cu  Cu6  1  0.55781800  0.78195300  0.25000000  1
  Bi  Bi7  1  0.98407400  0.28675000  0.25000000  1
  P  P8  1  0.09287900  0.60872400  0.25000000  1
  P  P9  1  0.43390000  0.07494100  0.25000000  1
  P  P10  1  0.58452000  0.90865700  0.75000000  1
  P  P11  1  0.88839400  0.41101600  0.75000000  1
  O  O12  1  0.23121900  0.46753100  0.25000000  1
  O  O13  1  0.21146800  0.67003400  0.04516400  1
  O  O14  1  0.21146800  0.67003400  0.45483600  1
  O  O15  1  0.20478600  0.38762100  0.75000000  1
  O  O16  1  0.26738400  0.91214500  0.75000000  1
  O  O17  1  0.30211700  0.14978400  0.05285300  1
  O  O18  1  0.30211700  0.14978400  0.44714700  1
  O  O19  1  0.31399700  0.94078900  0.25000000  1
  O  O20  1  0.70526400  0.04458400  0.75000000  1
  O  O21  1  0.72307900  0.83584100  0.55318900  1
  O  O22  1  0.72307900  0.83584100  0.94681100  1
  O  O23  1  0.75296100  0.07422200  0.25000000  1
  O  O24  1  0.77080400  0.60605900  0.25000000  1
  O  O25  1  0.74532400  0.34901400  0.55176800  1
  O  O26  1  0.74532400  0.34901400  0.94823200  1
  O  O27  1  0.77922700  0.55155700  0.75000000  1
