# generated using pymatgen
data_LiCrPO4F
_symmetry_space_group_name_H-M   'P 1'
_cell_length_a   7.26442989
_cell_length_b   7.26442989
_cell_length_c   9.56105395
_cell_angle_alpha   64.22553080
_cell_angle_beta   64.22553080
_cell_angle_gamma   51.73081504
_symmetry_Int_Tables_number   1
_chemical_formula_structural   LiCrPO4F
_chemical_formula_sum   'Li4 Cr4 P4 O16 F4'
_cell_volume   346.80808808
_cell_formula_units_Z   4
loop_
 _symmetry_equiv_pos_site_id
 _symmetry_equiv_pos_as_xyz
  1  'x, y, z'
loop_
 _atom_site_type_symbol
 _atom_site_label
 _atom_site_symmetry_multiplicity
 _atom_site_fract_x
 _atom_site_fract_y
 _atom_site_fract_z
 _atom_site_occupancy
  Li  Li0  1  0.11704500  0.89880200  0.70359000  1
  Li  Li1  1  0.33844600  0.82162900  0.38459000  1
  Li  Li2  1  0.89880200  0.11704500  0.20359000  1
  Li  Li3  1  0.82162900  0.33844600  0.88459000  1
  Cr  Cr4  1  0.88780400  0.56122700  0.35847400  1
  Cr  Cr5  1  0.16221200  0.42685600  0.01080000  1
  Cr  Cr6  1  0.56122700  0.88780400  0.85847400  1
  Cr  Cr7  1  0.42685600  0.16221200  0.51080000  1
  P  P8  1  0.70079800  0.93842600  0.06480800  1
  P  P9  1  0.58744900  0.36332000  0.68202400  1
  P  P10  1  0.36332000  0.58744900  0.18202400  1
  P  P11  1  0.93842600  0.70079800  0.56480800  1
  O  O12  1  0.79565600  0.07278500  0.06204700  1
  O  O13  1  0.18202700  0.54874100  0.16283100  1
  O  O14  1  0.65225500  0.78293800  0.23111300  1
  O  O15  1  0.81441600  0.21426300  0.74112800  1
  O  O16  1  0.60834900  0.53551200  0.51655600  1
  O  O17  1  0.35497500  0.51946800  0.79805600  1
  O  O18  1  0.86252000  0.76599300  0.94406100  1
  O  O19  1  0.45739900  0.09316300  0.01095400  1
  O  O20  1  0.07278500  0.79565600  0.56204700  1
  O  O21  1  0.54874100  0.18202700  0.66283100  1
  O  O22  1  0.21426300  0.81441600  0.24112800  1
  O  O23  1  0.53551200  0.60834900  0.01655600  1
  O  O24  1  0.51946800  0.35497500  0.29805600  1
  O  O25  1  0.76599300  0.86252000  0.44406100  1
  O  O26  1  0.78293800  0.65225500  0.73111300  1
  O  O27  1  0.09316300  0.45739900  0.51095400  1
  F  F28  1  0.28823800  0.06043500  0.45494400  1
  F  F29  1  0.99121600  0.32427100  0.24150700  1
  F  F30  1  0.06043500  0.28823800  0.95494400  1
  F  F31  1  0.32427100  0.99121600  0.74150700  1
