# generated using pymatgen
data_Li2Si4NiO10
_symmetry_space_group_name_H-M   'P 1'
_cell_length_a   6.92442600
_cell_length_b   7.52037204
_cell_length_c   9.63993101
_cell_angle_alpha   100.08287470
_cell_angle_beta   103.27638021
_cell_angle_gamma   116.54445121
_symmetry_Int_Tables_number   1
_chemical_formula_structural   Li2Si4NiO10
_chemical_formula_sum   'Li4 Si8 Ni2 O20'
_cell_volume   414.24675773
_cell_formula_units_Z   2
loop_
 _symmetry_equiv_pos_site_id
 _symmetry_equiv_pos_as_xyz
  1  'x, y, z'
loop_
 _atom_site_type_symbol
 _atom_site_label
 _atom_site_symmetry_multiplicity
 _atom_site_fract_x
 _atom_site_fract_y
 _atom_site_fract_z
 _atom_site_occupancy
  Li  Li0  1  0.38408400  0.24153200  0.04373200  1
  Li  Li1  1  0.19838600  0.68924200  0.57318400  1
  Li  Li2  1  0.80161400  0.31075800  0.42681600  1
  Li  Li3  1  0.61591600  0.75846800  0.95626800  1
  Si  Si4  1  0.24947200  0.95461600  0.19480600  1
  Si  Si5  1  0.39218200  0.64112600  0.25787700  1
  Si  Si6  1  0.80944600  0.61567300  0.24203200  1
  Si  Si7  1  0.89791700  0.27718000  0.13968500  1
  Si  Si8  1  0.10208300  0.72282000  0.86031500  1
  Si  Si9  1  0.19055400  0.38432700  0.75796800  1
  Si  Si10  1  0.60781800  0.35887400  0.74212300  1
  Si  Si11  1  0.75052800  0.04538400  0.80519400  1
  Ni  Ni12  1  0.25330500  0.31685800  0.42610800  1
  Ni  Ni13  1  0.74669500  0.68314200  0.57389200  1
  O  O14  1  0.22804300  0.92641200  0.01453200  1
  O  O15  1  0.99348300  0.80318400  0.19732100  1
  O  O16  1  0.14174900  0.45496700  0.13361900  1
  O  O17  1  0.41777800  0.87070400  0.26754800  1
  O  O18  1  0.57486600  0.62763700  0.17892300  1
  O  O19  1  0.73067200  0.38297600  0.12561200  1
  O  O20  1  0.43523300  0.61542600  0.42239100  1
  O  O21  1  0.35340500  0.19913300  0.26747600  1
  O  O22  1  0.06913400  0.78382500  0.71062500  1
  O  O23  1  0.11082400  0.37718800  0.58649300  1
  O  O24  1  0.88917600  0.62281200  0.41350700  1
  O  O25  1  0.93086600  0.21617500  0.28937500  1
  O  O26  1  0.64659500  0.80086700  0.73252400  1
  O  O27  1  0.56476700  0.38457400  0.57760900  1
  O  O28  1  0.26932800  0.61702400  0.87438800  1
  O  O29  1  0.42513400  0.37236300  0.82107700  1
  O  O30  1  0.58222200  0.12929600  0.73245200  1
  O  O31  1  0.85825100  0.54503300  0.86638100  1
  O  O32  1  0.00651700  0.19681600  0.80267900  1
  O  O33  1  0.77195700  0.07358800  0.98546800  1
