# generated using pymatgen
data_Li3Si6NiO15
_symmetry_space_group_name_H-M   'P 1'
_cell_length_a   10.98024586
_cell_length_b   10.98024586
_cell_length_c   10.00927500
_cell_angle_alpha   90.00000000
_cell_angle_beta   90.00000000
_cell_angle_gamma   100.15429350
_symmetry_Int_Tables_number   1
_chemical_formula_structural   Li3Si6NiO15
_chemical_formula_sum   'Li12 Si24 Ni4 O60'
_cell_volume   1187.87397242
_cell_formula_units_Z   4
loop_
 _symmetry_equiv_pos_site_id
 _symmetry_equiv_pos_as_xyz
  1  'x, y, z'
loop_
 _atom_site_type_symbol
 _atom_site_label
 _atom_site_symmetry_multiplicity
 _atom_site_fract_x
 _atom_site_fract_y
 _atom_site_fract_z
 _atom_site_occupancy
  Li  Li0  1  0.23451100  0.23451100  0.00000000  1
  Li  Li1  1  0.01813700  0.48186300  0.25000000  1
  Li  Li2  1  0.48186300  0.01813700  0.75000000  1
  Li  Li3  1  0.26548900  0.26548900  0.50000000  1
  Li  Li4  1  0.43362500  0.56637500  0.71499400  1
  Li  Li5  1  0.93362500  0.06637500  0.78500600  1
  Li  Li6  1  0.56637500  0.43362500  0.28500600  1
  Li  Li7  1  0.06637500  0.93362500  0.21499400  1
  Li  Li8  1  0.73451100  0.73451100  0.50000000  1
  Li  Li9  1  0.98186300  0.51813700  0.75000000  1
  Li  Li10  1  0.51813700  0.98186300  0.25000000  1
  Li  Li11  1  0.76548900  0.76548900  0.00000000  1
  Si  Si12  1  0.18657200  0.04421600  0.80243500  1
  Si  Si13  1  0.04421600  0.18657200  0.19756500  1
  Si  Si14  1  0.45578400  0.31342800  0.69756500  1
  Si  Si15  1  0.31342800  0.45578400  0.30243500  1
  Si  Si16  1  0.26117300  0.51866700  0.00728800  1
  Si  Si17  1  0.76117300  0.01866700  0.49271200  1
  Si  Si18  1  0.01866700  0.76117300  0.50728800  1
  Si  Si19  1  0.51866700  0.26117300  0.99271200  1
  Si  Si20  1  0.07616700  0.70297000  0.04496900  1
  Si  Si21  1  0.57616700  0.20297000  0.45503100  1
  Si  Si22  1  0.70297000  0.07616700  0.95503100  1
  Si  Si23  1  0.20297000  0.57616700  0.54496900  1
  Si  Si24  1  0.29703000  0.92383300  0.04496900  1
  Si  Si25  1  0.79703000  0.42383300  0.45503100  1
  Si  Si26  1  0.92383300  0.29703000  0.95503100  1
  Si  Si27  1  0.42383300  0.79703000  0.54496900  1
  Si  Si28  1  0.48133300  0.73882700  0.00728800  1
  Si  Si29  1  0.98133300  0.23882700  0.49271200  1
  Si  Si30  1  0.73882700  0.48133300  0.99271200  1
  Si  Si31  1  0.23882700  0.98133300  0.50728800  1
  Si  Si32  1  0.68657200  0.54421600  0.69756500  1
  Si  Si33  1  0.54421600  0.68657200  0.30243500  1
  Si  Si34  1  0.95578400  0.81342800  0.80243500  1
  Si  Si35  1  0.81342800  0.95578400  0.19756500  1
  Ni  Ni36  1  0.34266400  0.15733600  0.25000000  1
  Ni  Ni37  1  0.15733600  0.34266400  0.75000000  1
  Ni  Ni38  1  0.65733600  0.84266400  0.75000000  1
  Ni  Ni39  1  0.84266400  0.65733600  0.25000000  1
  O  O40  1  0.01715900  0.28091700  0.07934200  1
  O  O41  1  0.28091700  0.01715900  0.92065800  1
  O  O42  1  0.26206300  0.03093800  0.66311900  1
  O  O43  1  0.03093800  0.26206300  0.33688100  1
  O  O44  1  0.17084500  0.13868800  0.16809400  1
  O  O45  1  0.13868800  0.17084500  0.83190600  1
  O  O46  1  0.10063600  0.25949200  0.58860100  1
  O  O47  1  0.25949200  0.10063600  0.41139900  1
  O  O48  1  0.01041800  0.64331100  0.17683000  1
  O  O49  1  0.51041800  0.14331100  0.32317000  1
  O  O50  1  0.64331100  0.01041800  0.82317000  1
  O  O51  1  0.14331100  0.51041800  0.67683000  1
  O  O52  1  0.39936400  0.24050800  0.08860100  1
  O  O53  1  0.24050800  0.39936400  0.91139900  1
  O  O54  1  0.32915500  0.36131200  0.66809400  1
  O  O55  1  0.36131200  0.32915500  0.33190600  1
  O  O56  1  0.23793700  0.46906200  0.16311900  1
  O  O57  1  0.46906200  0.23793700  0.83688100  1
  O  O58  1  0.48284100  0.21908300  0.57934200  1
  O  O59  1  0.21908300  0.48284100  0.42065800  1
  O  O60  1  0.11503100  0.66709100  0.48184100  1
  O  O61  1  0.61503100  0.16709100  0.01815900  1
  O  O62  1  0.66709100  0.11503100  0.51815900  1
  O  O63  1  0.16709100  0.61503100  0.98184100  1
  O  O64  1  0.40358300  0.59641700  0.98809700  1
  O  O65  1  0.65717500  0.34282500  0.42011500  1
  O  O66  1  0.43805600  0.56194400  0.30051300  1
  O  O67  1  0.06194400  0.93805600  0.80051300  1
  O  O68  1  0.84282500  0.15717500  0.92011500  1
  O  O69  1  0.90358300  0.09641700  0.51190300  1
  O  O70  1  0.93805600  0.06194400  0.19948700  1
  O  O71  1  0.59641700  0.40358300  0.01190300  1
  O  O72  1  0.56194400  0.43805600  0.69948700  1
  O  O73  1  0.15717500  0.84282500  0.07988500  1
  O  O74  1  0.09641700  0.90358300  0.48809700  1
  O  O75  1  0.34282500  0.65717500  0.57988500  1
  O  O76  1  0.33290900  0.88496900  0.48184100  1
  O  O77  1  0.88496900  0.33290900  0.51815900  1
  O  O78  1  0.83290900  0.38496900  0.01815900  1
  O  O79  1  0.38496900  0.83290900  0.98184100  1
  O  O80  1  0.78091700  0.51715900  0.57934200  1
  O  O81  1  0.51715900  0.78091700  0.42065800  1
  O  O82  1  0.76206300  0.53093800  0.83688100  1
  O  O83  1  0.53093800  0.76206300  0.16311900  1
  O  O84  1  0.67084500  0.63868800  0.33190600  1
  O  O85  1  0.63868800  0.67084500  0.66809400  1
  O  O86  1  0.75949200  0.60063600  0.08860100  1
  O  O87  1  0.60063600  0.75949200  0.91139900  1
  O  O88  1  0.85668900  0.48958200  0.32317000  1
  O  O89  1  0.98958200  0.35668900  0.82317000  1
  O  O90  1  0.35668900  0.98958200  0.17683000  1
  O  O91  1  0.48958200  0.85668900  0.67683000  1
  O  O92  1  0.89936400  0.74050800  0.41139900  1
  O  O93  1  0.74050800  0.89936400  0.58860100  1
  O  O94  1  0.86131200  0.82915500  0.16809400  1
  O  O95  1  0.82915500  0.86131200  0.83190600  1
  O  O96  1  0.73793700  0.96906200  0.33688100  1
  O  O97  1  0.96906200  0.73793700  0.66311900  1
  O  O98  1  0.98284100  0.71908300  0.92065800  1
  O  O99  1  0.71908300  0.98284100  0.07934200  1
