# generated using pymatgen
data_Li4FeCo3O8
_symmetry_space_group_name_H-M   'P 1'
_cell_length_a   5.07982200
_cell_length_b   5.54032396
_cell_length_c   6.40684591
_cell_angle_alpha   89.72839846
_cell_angle_beta   89.96772507
_cell_angle_gamma   89.68268726
_symmetry_Int_Tables_number   1
_chemical_formula_structural   Li4FeCo3O8
_chemical_formula_sum   'Li4 Fe1 Co3 O8'
_cell_volume   180.30855437
_cell_formula_units_Z   1
loop_
 _symmetry_equiv_pos_site_id
 _symmetry_equiv_pos_as_xyz
  1  'x, y, z'
loop_
 _atom_site_type_symbol
 _atom_site_label
 _atom_site_symmetry_multiplicity
 _atom_site_fract_x
 _atom_site_fract_y
 _atom_site_fract_z
 _atom_site_occupancy
  Li  Li0  1  0.99716400  0.08260800  0.62346600  1
  Li  Li1  1  0.49535600  0.41737100  0.12506900  1
  Li  Li2  1  0.99635100  0.58140700  0.87532400  1
  Li  Li3  1  0.49599100  0.91797600  0.37532800  1
  Fe  Fe4  1  0.49775800  0.92176100  0.87417700  1
  Co  Co5  1  0.99972800  0.08111900  0.12883100  1
  Co  Co6  1  0.49428400  0.41847700  0.62618300  1
  Co  Co7  1  0.99721100  0.57924600  0.37472400  1
  O  O8  1  0.37059900  0.07670000  0.11858900  1
  O  O9  1  0.39346100  0.09529800  0.62937100  1
  O  O10  1  0.89640100  0.40464400  0.13699800  1
  O  O11  1  0.86644500  0.42461200  0.61300300  1
  O  O12  1  0.36773200  0.57654300  0.38586200  1
  O  O13  1  0.39046200  0.59185500  0.86130200  1
  O  O14  1  0.89335000  0.90385000  0.36356200  1
  O  O15  1  0.87410600  0.92653200  0.88821000  1
