# generated using pymatgen
data_Li4Ti4VCr4O18
_symmetry_space_group_name_H-M   'P 1'
_cell_length_a   2.96166000
_cell_length_b   9.14792000
_cell_length_c   24.80830900
_cell_angle_alpha   90.00000000
_cell_angle_beta   90.00000000
_cell_angle_gamma   90.00000000
_symmetry_Int_Tables_number   1
_chemical_formula_structural   Li4Ti4VCr4O18
_chemical_formula_sum   'Li8 Ti8 V2 Cr8 O36'
_cell_volume   672.13222891
_cell_formula_units_Z   2
loop_
 _symmetry_equiv_pos_site_id
 _symmetry_equiv_pos_as_xyz
  1  'x, y, z'
loop_
 _atom_site_type_symbol
 _atom_site_label
 _atom_site_symmetry_multiplicity
 _atom_site_fract_x
 _atom_site_fract_y
 _atom_site_fract_z
 _atom_site_occupancy
  Li  Li0  1  0.00000000  0.19184800  0.98822100  1
  Li  Li1  1  0.00000000  0.20347900  0.18946500  1
  Li  Li2  1  0.00000000  0.29652100  0.68946500  1
  Li  Li3  1  0.00000000  0.30815200  0.48822100  1
  Li  Li4  1  0.00000000  0.69184800  0.51177900  1
  Li  Li5  1  0.00000000  0.70347900  0.31053500  1
  Li  Li6  1  0.00000000  0.79652100  0.81053500  1
  Li  Li7  1  0.00000000  0.80815200  0.01177900  1
  Ti  Ti8  1  0.00000000  0.99679300  0.10190800  1
  Ti  Ti9  1  0.50000000  0.15854700  0.80470300  1
  Ti  Ti10  1  0.50000000  0.34145300  0.30470300  1
  Ti  Ti11  1  0.00000000  0.50320700  0.60190800  1
  Ti  Ti12  1  0.00000000  0.49679300  0.39809200  1
  Ti  Ti13  1  0.50000000  0.65854700  0.69529700  1
  Ti  Ti14  1  0.50000000  0.84145300  0.19529700  1
  Ti  Ti15  1  0.00000000  0.00320700  0.89809200  1
  V  V16  1  0.00000000  0.00000000  0.50000000  1
  V  V17  1  0.00000000  0.50000000  0.00000000  1
  Cr  Cr18  1  0.00000000  0.00287600  0.31235400  1
  Cr  Cr19  1  0.50000000  0.15584000  0.58449000  1
  Cr  Cr20  1  0.50000000  0.34416000  0.08449000  1
  Cr  Cr21  1  0.00000000  0.49712400  0.81235400  1
  Cr  Cr22  1  0.00000000  0.50287600  0.18764600  1
  Cr  Cr23  1  0.50000000  0.65584000  0.91551000  1
  Cr  Cr24  1  0.50000000  0.84416000  0.41551000  1
  Cr  Cr25  1  0.00000000  0.99712400  0.68764600  1
  O  O26  1  0.00000000  0.99175400  0.42323200  1
  O  O27  1  0.00000000  0.00824600  0.57676800  1
  O  O28  1  0.50000000  0.06576100  0.94208800  1
  O  O29  1  0.50000000  0.04225600  0.15810700  1
  O  O30  1  0.50000000  0.12986300  0.66341900  1
  O  O31  1  0.00000000  0.10767500  0.75487200  1
  O  O32  1  0.50000000  0.14762800  0.50220900  1
  O  O33  1  0.50000000  0.13664400  0.28968300  1
  O  O34  1  0.00000000  0.18898800  0.85473400  1
  O  O35  1  0.00000000  0.19707000  0.08162400  1
  O  O36  1  0.00000000  0.30293000  0.58162400  1
  O  O37  1  0.00000000  0.31101200  0.35473400  1
  O  O38  1  0.50000000  0.36335600  0.78968300  1
  O  O39  1  0.50000000  0.35237200  0.00220900  1
  O  O40  1  0.00000000  0.39232500  0.25487200  1
  O  O41  1  0.50000000  0.37013700  0.16341900  1
  O  O42  1  0.50000000  0.45774400  0.65810700  1
  O  O43  1  0.50000000  0.43423900  0.44208800  1
  O  O44  1  0.00000000  0.49175400  0.07676800  1
  O  O45  1  0.00000000  0.50824600  0.92323200  1
  O  O46  1  0.50000000  0.56576100  0.55791200  1
  O  O47  1  0.50000000  0.54225600  0.34189300  1
  O  O48  1  0.50000000  0.62986300  0.83658100  1
  O  O49  1  0.00000000  0.60767500  0.74512800  1
  O  O50  1  0.50000000  0.64762800  0.99779100  1
  O  O51  1  0.50000000  0.63664400  0.21031700  1
  O  O52  1  0.00000000  0.68898800  0.64526600  1
  O  O53  1  0.00000000  0.69707000  0.41837600  1
  O  O54  1  0.00000000  0.80293000  0.91837600  1
  O  O55  1  0.00000000  0.81101200  0.14526600  1
  O  O56  1  0.50000000  0.86335600  0.71031700  1
  O  O57  1  0.50000000  0.85237200  0.49779100  1
  O  O58  1  0.00000000  0.89232500  0.24512800  1
  O  O59  1  0.50000000  0.87013700  0.33658100  1
  O  O60  1  0.50000000  0.95774400  0.84189300  1
  O  O61  1  0.50000000  0.93423900  0.05791200  1
