# generated using pymatgen
data_Li4Ti2Mn3V3O16
_symmetry_space_group_name_H-M   'P 1'
_cell_length_a   5.88400600
_cell_length_b   6.01595166
_cell_length_c   9.61469343
_cell_angle_alpha   92.80210887
_cell_angle_beta   89.66836330
_cell_angle_gamma   119.06001472
_symmetry_Int_Tables_number   1
_chemical_formula_structural   Li4Ti2Mn3V3O16
_chemical_formula_sum   'Li4 Ti2 Mn3 V3 O16'
_cell_volume   297.07644180
_cell_formula_units_Z   1
loop_
 _symmetry_equiv_pos_site_id
 _symmetry_equiv_pos_as_xyz
  1  'x, y, z'
loop_
 _atom_site_type_symbol
 _atom_site_label
 _atom_site_symmetry_multiplicity
 _atom_site_fract_x
 _atom_site_fract_y
 _atom_site_fract_z
 _atom_site_occupancy
  Li  Li0  1  0.34678500  0.68724300  0.09900000  1
  Li  Li1  1  0.99483000  0.99366400  0.00955100  1
  Li  Li2  1  0.99926500  0.99773300  0.50793700  1
  Li  Li3  1  0.66326000  0.32717500  0.59897800  1
  Ti  Ti4  1  0.34231700  0.68153500  0.50174200  1
  Ti  Ti5  1  0.65307600  0.32363000  0.00411700  1
  Mn  Mn6  1  0.16493900  0.33299600  0.79343300  1
  Mn  Mn7  1  0.34274900  0.18109000  0.28969000  1
  Mn  Mn8  1  0.83433800  0.17584800  0.29115900  1
  V  V9  1  0.15524600  0.80565600  0.77950400  1
  V  V10  1  0.65165100  0.80922000  0.78086500  1
  V  V11  1  0.83657800  0.65632400  0.27319800  1
  O  O12  1  0.15817900  0.81114900  0.40653000  1
  O  O13  1  0.47739100  0.95470000  0.65870400  1
  O  O14  1  0.34827200  0.70061300  0.89665700  1
  O  O15  1  0.98970700  0.97848300  0.69516300  1
  O  O16  1  0.99780400  0.99688600  0.19983100  1
  O  O17  1  0.65632800  0.80983000  0.40522100  1
  O  O18  1  0.03666000  0.53472800  0.65553200  1
  O  O19  1  0.49982400  0.53666700  0.65682900  1
  O  O20  1  0.82983200  0.65985200  0.89610600  1
  O  O21  1  0.16303500  0.32672400  0.41121000  1
  O  O22  1  0.53671400  0.50314200  0.14926500  1
  O  O23  1  0.97142900  0.50936100  0.15383700  1
  O  O24  1  0.67600700  0.35357800  0.39078100  1
  O  O25  1  0.33306600  0.14756500  0.91130800  1
  O  O26  1  0.52854900  0.05737900  0.16347300  1
  O  O27  1  0.81186600  0.14722900  0.91254200  1
