# generated using pymatgen
data_Li2CrSi4O11
_symmetry_space_group_name_H-M   'P 1'
_cell_length_a   7.18642689
_cell_length_b   7.18642689
_cell_length_c   8.21263208
_cell_angle_alpha   81.12351740
_cell_angle_beta   81.12351740
_cell_angle_gamma   83.37731488
_symmetry_Int_Tables_number   1
_chemical_formula_structural   Li2CrSi4O11
_chemical_formula_sum   'Li4 Cr2 Si8 O22'
_cell_volume   412.21679369
_cell_formula_units_Z   2
loop_
 _symmetry_equiv_pos_site_id
 _symmetry_equiv_pos_as_xyz
  1  'x, y, z'
loop_
 _atom_site_type_symbol
 _atom_site_label
 _atom_site_symmetry_multiplicity
 _atom_site_fract_x
 _atom_site_fract_y
 _atom_site_fract_z
 _atom_site_occupancy
  Li  Li0  1  0.92204400  0.07795600  0.75000000  1
  Li  Li1  1  0.65058000  0.34942000  0.75000000  1
  Li  Li2  1  0.34942000  0.65058000  0.25000000  1
  Li  Li3  1  0.07795600  0.92204400  0.25000000  1
  Cr  Cr4  1  0.00000000  0.50000000  0.50000000  1
  Cr  Cr5  1  0.50000000  0.00000000  0.00000000  1
  Si  Si6  1  0.65760300  0.77601600  0.66199300  1
  Si  Si7  1  0.77601600  0.65760300  0.16199300  1
  Si  Si8  1  0.25210700  0.83898400  0.56327000  1
  Si  Si9  1  0.16101600  0.74789300  0.93673000  1
  Si  Si10  1  0.83898400  0.25210700  0.06327000  1
  Si  Si11  1  0.74789300  0.16101600  0.43673000  1
  Si  Si12  1  0.22398400  0.34239700  0.83800700  1
  Si  Si13  1  0.34239700  0.22398400  0.33800700  1
  O  O14  1  0.75582500  0.94532600  0.53356300  1
  O  O15  1  0.60608100  0.84714000  0.84151000  1
  O  O16  1  0.94532600  0.75582500  0.03356300  1
  O  O17  1  0.84714000  0.60608100  0.34151000  1
  O  O18  1  0.80116800  0.58457400  0.67618400  1
  O  O19  1  0.58457400  0.80116800  0.17618400  1
  O  O20  1  0.46369000  0.73958500  0.59001600  1
  O  O21  1  0.85057800  0.26904000  0.55218200  1
  O  O22  1  0.73958500  0.46369000  0.09001600  1
  O  O23  1  0.13350300  0.86649700  0.75000000  1
  O  O24  1  0.73096000  0.14942200  0.94781800  1
  O  O25  1  0.26904000  0.85057800  0.05218200  1
  O  O26  1  0.86649700  0.13350300  0.25000000  1
  O  O27  1  0.26041500  0.53631000  0.90998400  1
  O  O28  1  0.14942300  0.73096000  0.44781800  1
  O  O29  1  0.53631000  0.26041500  0.40998400  1
  O  O30  1  0.41542600  0.19883200  0.82381600  1
  O  O31  1  0.19883200  0.41542600  0.32381600  1
  O  O32  1  0.15286000  0.39391900  0.65849000  1
  O  O33  1  0.05467400  0.24417500  0.96643700  1
  O  O34  1  0.39391900  0.15286000  0.15849000  1
  O  O35  1  0.24417500  0.05467400  0.46643700  1
