# generated using pymatgen
data_Li3VF5
_symmetry_space_group_name_H-M   'P 1'
_cell_length_a   5.66175600
_cell_length_b   12.01635000
_cell_length_c   12.04326900
_cell_angle_alpha   90.00000000
_cell_angle_beta   90.00000000
_cell_angle_gamma   90.00000000
_symmetry_Int_Tables_number   1
_chemical_formula_structural   Li3VF5
_chemical_formula_sum   'Li24 V8 F40'
_cell_volume   819.34744817
_cell_formula_units_Z   8
loop_
 _symmetry_equiv_pos_site_id
 _symmetry_equiv_pos_as_xyz
  1  'x, y, z'
loop_
 _atom_site_type_symbol
 _atom_site_label
 _atom_site_symmetry_multiplicity
 _atom_site_fract_x
 _atom_site_fract_y
 _atom_site_fract_z
 _atom_site_occupancy
  Li  Li0  1  0.04293600  0.30098700  0.33002300  1
  Li  Li1  1  0.04293600  0.19901300  0.83002300  1
  Li  Li2  1  0.16271400  0.08266200  0.57986500  1
  Li  Li3  1  0.16271400  0.41733800  0.07986500  1
  Li  Li4  1  0.23056400  0.53749200  0.31609300  1
  Li  Li5  1  0.23056400  0.96250800  0.81609300  1
  Li  Li6  1  0.26943600  0.03749200  0.31609300  1
  Li  Li7  1  0.26943600  0.46250800  0.81609300  1
  Li  Li8  1  0.33728600  0.91733800  0.07986500  1
  Li  Li9  1  0.33728600  0.58266200  0.57986500  1
  Li  Li10  1  0.45706400  0.69901300  0.83002300  1
  Li  Li11  1  0.45706400  0.80098700  0.33002300  1
  Li  Li12  1  0.54293600  0.30098700  0.16997700  1
  Li  Li13  1  0.54293600  0.19901300  0.66997700  1
  Li  Li14  1  0.66271400  0.41733800  0.42013500  1
  Li  Li15  1  0.66271400  0.08266200  0.92013500  1
  Li  Li16  1  0.73056400  0.53749200  0.18390700  1
  Li  Li17  1  0.73056400  0.96250800  0.68390700  1
  Li  Li18  1  0.76943600  0.46250800  0.68390700  1
  Li  Li19  1  0.76943600  0.03749200  0.18390700  1
  Li  Li20  1  0.83728600  0.58266200  0.92013500  1
  Li  Li21  1  0.83728600  0.91733800  0.42013500  1
  Li  Li22  1  0.95706400  0.80098700  0.16997700  1
  Li  Li23  1  0.95706400  0.69901300  0.66997700  1
  V  V24  1  0.21916200  0.16648400  0.07242000  1
  V  V25  1  0.21916200  0.33351600  0.57242000  1
  V  V26  1  0.28083800  0.66648400  0.07242000  1
  V  V27  1  0.28083800  0.83351600  0.57242000  1
  V  V28  1  0.71916200  0.16648400  0.42758000  1
  V  V29  1  0.71916200  0.33351600  0.92758000  1
  V  V30  1  0.78083800  0.66648400  0.42758000  1
  V  V31  1  0.78083800  0.83351600  0.92758000  1
  F  F32  1  0.95894400  0.64247900  0.14681200  1
  F  F33  1  0.95894400  0.85752100  0.64681200  1
  F  F34  1  0.10921800  0.68717300  0.50727600  1
  F  F35  1  0.10921800  0.81282700  0.00727600  1
  F  F36  1  0.11698000  0.48158100  0.66128100  1
  F  F37  1  0.11698000  0.01841900  0.16128100  1
  F  F38  1  0.18514800  0.29913400  0.19238100  1
  F  F39  1  0.18514800  0.20086600  0.69238100  1
  F  F40  1  0.31771700  0.07212600  0.93023800  1
  F  F41  1  0.31771700  0.42787400  0.43023800  1
  F  F42  1  0.18228300  0.57212600  0.93023800  1
  F  F43  1  0.18228300  0.92787400  0.43023800  1
  F  F44  1  0.31485200  0.79913400  0.19238100  1
  F  F45  1  0.31485200  0.70086600  0.69238100  1
  F  F46  1  0.38302000  0.98158100  0.66128100  1
  F  F47  1  0.38302000  0.51841900  0.16128100  1
  F  F48  1  0.39078200  0.18717300  0.50727600  1
  F  F49  1  0.39078200  0.31282700  0.00727600  1
  F  F50  1  0.54105600  0.14247900  0.14681200  1
  F  F51  1  0.54105600  0.35752100  0.64681200  1
  F  F52  1  0.45894400  0.85752100  0.85318800  1
  F  F53  1  0.45894400  0.64247900  0.35318800  1
  F  F54  1  0.60921800  0.68717300  0.99272400  1
  F  F55  1  0.60921800  0.81282700  0.49272400  1
  F  F56  1  0.61698000  0.48158100  0.83871900  1
  F  F57  1  0.61698000  0.01841900  0.33871900  1
  F  F58  1  0.68514800  0.20086600  0.80761900  1
  F  F59  1  0.68514800  0.29913400  0.30761900  1
  F  F60  1  0.81771700  0.42787400  0.06976200  1
  F  F61  1  0.81771700  0.07212600  0.56976200  1
  F  F62  1  0.68228300  0.57212600  0.56976200  1
  F  F63  1  0.68228300  0.92787400  0.06976200  1
  F  F64  1  0.81485200  0.79913400  0.30761900  1
  F  F65  1  0.81485200  0.70086600  0.80761900  1
  F  F66  1  0.88302000  0.51841900  0.33871900  1
  F  F67  1  0.88302000  0.98158100  0.83871900  1
  F  F68  1  0.89078200  0.31282700  0.49272400  1
  F  F69  1  0.89078200  0.18717300  0.99272400  1
  F  F70  1  0.04105600  0.14247900  0.35318800  1
  F  F71  1  0.04105600  0.35752100  0.85318800  1
