# generated using pymatgen
data_LiTi2(PO4)3
_symmetry_space_group_name_H-M   'P 1'
_cell_length_a   8.65444800
_cell_length_b   8.70524200
_cell_length_c   12.02978600
_cell_angle_alpha   90.00000000
_cell_angle_beta   90.00000000
_cell_angle_gamma   90.00000000
_symmetry_Int_Tables_number   1
_chemical_formula_structural   LiTi2(PO4)3
_chemical_formula_sum   'Li4 Ti8 P12 O48'
_cell_volume   906.31281996
_cell_formula_units_Z   4
loop_
 _symmetry_equiv_pos_site_id
 _symmetry_equiv_pos_as_xyz
  1  'x, y, z'
loop_
 _atom_site_type_symbol
 _atom_site_label
 _atom_site_symmetry_multiplicity
 _atom_site_fract_x
 _atom_site_fract_y
 _atom_site_fract_z
 _atom_site_occupancy
  Li  Li0  1  0.96356700  0.77727400  0.06978900  1
  Li  Li1  1  0.53643300  0.27727400  0.06978900  1
  Li  Li2  1  0.03643300  0.27727400  0.93021100  1
  Li  Li3  1  0.46356700  0.77727400  0.93021100  1
  Ti  Ti4  1  0.00030300  0.53605300  0.62698600  1
  Ti  Ti5  1  0.49969700  0.03605300  0.62698600  1
  Ti  Ti6  1  0.50030300  0.53605300  0.37301400  1
  Ti  Ti7  1  0.99969700  0.03605300  0.37301400  1
  Ti  Ti8  1  0.00423200  0.45936500  0.13922400  1
  Ti  Ti9  1  0.49576800  0.95936500  0.13922400  1
  Ti  Ti10  1  0.99576800  0.95936500  0.86077600  1
  Ti  Ti11  1  0.50423200  0.45936500  0.86077600  1
  P  P12  1  0.78875700  0.25034700  0.74734800  1
  P  P13  1  0.71124300  0.75034700  0.74734800  1
  P  P14  1  0.35416900  0.39105600  0.60292400  1
  P  P15  1  0.14583100  0.89105600  0.60292400  1
  P  P16  1  0.85416900  0.39105600  0.39707600  1
  P  P17  1  0.64583100  0.89105600  0.39707600  1
  P  P18  1  0.21124300  0.75034700  0.25265200  1
  P  P19  1  0.28875700  0.25034700  0.25265200  1
  P  P20  1  0.85464300  0.10593200  0.10518200  1
  P  P21  1  0.64535700  0.60593200  0.10518200  1
  P  P22  1  0.14535700  0.60593200  0.89481800  1
  P  P23  1  0.35464300  0.10593200  0.89481800  1
  O  O24  1  0.41184300  0.43161600  0.72311600  1
  O  O25  1  0.08815700  0.93161600  0.72311600  1
  O  O26  1  0.60715200  0.85247600  0.67657600  1
  O  O27  1  0.89284800  0.35247600  0.67657600  1
  O  O28  1  0.81223000  0.64737700  0.67570800  1
  O  O29  1  0.68777000  0.14737700  0.67570800  1
  O  O30  1  0.17820400  0.40747300  0.59667600  1
  O  O31  1  0.32179600  0.90747300  0.59667600  1
  O  O32  1  0.09825700  0.72489100  0.57837200  1
  O  O33  1  0.40174300  0.22489100  0.57837200  1
  O  O34  1  0.07074000  0.00607100  0.52235900  1
  O  O35  1  0.42926000  0.50607100  0.52235900  1
  O  O36  1  0.92926000  0.50607100  0.47764100  1
  O  O37  1  0.57074000  0.00607100  0.47764100  1
  O  O38  1  0.90174300  0.22489100  0.42162800  1
  O  O39  1  0.59825700  0.72489100  0.42162800  1
  O  O40  1  0.82179600  0.90747300  0.40332400  1
  O  O41  1  0.67820400  0.40747300  0.40332400  1
  O  O42  1  0.31223000  0.64737700  0.32429200  1
  O  O43  1  0.18777000  0.14737700  0.32429200  1
  O  O44  1  0.39284800  0.35247600  0.32342400  1
  O  O45  1  0.10715200  0.85247600  0.32342400  1
  O  O46  1  0.91184300  0.43161600  0.27688400  1
  O  O47  1  0.58815700  0.93161600  0.27688400  1
  O  O48  1  0.90812400  0.06669400  0.22201400  1
  O  O49  1  0.59187600  0.56669400  0.22201400  1
  O  O50  1  0.10343600  0.65784700  0.17258100  1
  O  O51  1  0.39656400  0.15784700  0.17258100  1
  O  O52  1  0.18601800  0.35134600  0.17484100  1
  O  O53  1  0.31398200  0.85134600  0.17484100  1
  O  O54  1  0.82429200  0.60167200  0.09418600  1
  O  O55  1  0.67570800  0.10167200  0.09418600  1
  O  O56  1  0.90928200  0.27041600  0.07040100  1
  O  O57  1  0.59071800  0.77041600  0.07040100  1
  O  O58  1  0.92453900  0.98689200  0.02270000  1
  O  O59  1  0.57546100  0.48689200  0.02270000  1
  O  O60  1  0.07546100  0.48689200  0.97730000  1
  O  O61  1  0.42453900  0.98689200  0.97730000  1
  O  O62  1  0.09071800  0.77041600  0.92959900  1
  O  O63  1  0.40928200  0.27041600  0.92959900  1
  O  O64  1  0.17570800  0.10167200  0.90581400  1
  O  O65  1  0.32429200  0.60167200  0.90581400  1
  O  O66  1  0.81398200  0.85134600  0.82515900  1
  O  O67  1  0.68601800  0.35134600  0.82515900  1
  O  O68  1  0.89656400  0.15784700  0.82741900  1
  O  O69  1  0.60343600  0.65784700  0.82741900  1
  O  O70  1  0.09187600  0.56669400  0.77798600  1
  O  O71  1  0.40812400  0.06669400  0.77798600  1
