# generated using pymatgen
data_Li3Ni2(PO4)3
_symmetry_space_group_name_H-M   'P 1'
_cell_length_a   9.77668357
_cell_length_b   9.77668357
_cell_length_c   9.74895014
_cell_angle_alpha   86.60846923
_cell_angle_beta   86.60846923
_cell_angle_gamma   86.32193939
_symmetry_Int_Tables_number   1
_chemical_formula_structural   Li3Ni2(PO4)3
_chemical_formula_sum   'Li12 Ni8 P12 O48'
_cell_volume   926.85647552
_cell_formula_units_Z   4
loop_
 _symmetry_equiv_pos_site_id
 _symmetry_equiv_pos_as_xyz
  1  'x, y, z'
loop_
 _atom_site_type_symbol
 _atom_site_label
 _atom_site_symmetry_multiplicity
 _atom_site_fract_x
 _atom_site_fract_y
 _atom_site_fract_z
 _atom_site_occupancy
  Li  Li0  1  0.22743800  0.04994100  0.39898400  1
  Li  Li1  1  0.18332800  0.51914300  0.46337000  1
  Li  Li2  1  0.65313900  0.73043500  0.28482900  1
  Li  Li3  1  0.95005900  0.77256200  0.60101600  1
  Li  Li4  1  0.48085700  0.81667200  0.53663000  1
  Li  Li5  1  0.03435100  0.23372000  0.90396300  1
  Li  Li6  1  0.83691200  0.47486400  0.02241000  1
  Li  Li7  1  0.52513600  0.16308800  0.97759000  1
  Li  Li8  1  0.26956500  0.34686100  0.71517100  1
  Li  Li9  1  0.76628000  0.96564900  0.09603700  1
  Li  Li10  1  0.48684400  0.04112500  0.25547700  1
  Li  Li11  1  0.95887500  0.51315600  0.74452300  1
  Ni  Ni12  1  0.74495700  0.02796000  0.71346500  1
  Ni  Ni13  1  0.46808800  0.53191200  0.00000000  1
  Ni  Ni14  1  0.24888000  0.96533200  0.78104200  1
  Ni  Ni15  1  0.97204000  0.25504300  0.28653500  1
  Ni  Ni16  1  0.03466800  0.75112000  0.21895800  1
  Ni  Ni17  1  0.75139200  0.24860800  0.50000000  1
  Ni  Ni18  1  0.25073500  0.74926500  0.00000000  1
  Ni  Ni19  1  0.53486000  0.46514000  0.50000000  1
  P  P20  1  0.32764700  0.64382300  0.70008500  1
  P  P21  1  0.82947500  0.95344300  0.39346700  1
  P  P22  1  0.67517600  0.34590700  0.79714600  1
  P  P23  1  0.45145400  0.14737800  0.57532800  1
  P  P24  1  0.14492100  0.45522500  0.07828700  1
  P  P25  1  0.35617700  0.67235300  0.29991500  1
  P  P26  1  0.95085300  0.82404500  0.89720900  1
  P  P27  1  0.17595500  0.04914700  0.10279100  1
  P  P28  1  0.85262200  0.54854600  0.42467200  1
  P  P29  1  0.54477500  0.85507900  0.92171300  1
  P  P30  1  0.04655700  0.17052500  0.60653300  1
  P  P31  1  0.65409300  0.32482400  0.20285400  1
  O  O32  1  0.88606600  0.16411200  0.62794900  1
  O  O33  1  0.87786000  0.38805100  0.42045600  1
  O  O34  1  0.61194900  0.12214000  0.57954400  1
  O  O35  1  0.60667700  0.46539300  0.13460100  1
  O  O36  1  0.19346600  0.09264000  0.94715100  1
  O  O37  1  0.58597400  0.95292300  0.02729700  1
  O  O38  1  0.03526200  0.11882300  0.14816800  1
  O  O39  1  0.62361700  0.32911100  0.36318100  1
  O  O40  1  0.38360800  0.10330200  0.71750700  1
  O  O41  1  0.39261000  0.52846900  0.36881700  1
  O  O42  1  0.81147800  0.31700900  0.16400900  1
  O  O43  1  0.91894900  0.70807300  0.80813200  1
  O  O44  1  0.67088900  0.37638300  0.63681900  1
  O  O45  1  0.72109500  0.91200300  0.29843600  1
  O  O46  1  0.68299100  0.18852200  0.83599100  1
  O  O47  1  0.83588800  0.11393400  0.37205100  1
  O  O48  1  0.58490800  0.20151000  0.15621700  1
  O  O49  1  0.97420800  0.88680500  0.35736000  1
  O  O50  1  0.33499600  0.62332100  0.86114800  1
  O  O51  1  0.53460700  0.39332300  0.86539900  1
  O  O52  1  0.58919400  0.70345500  0.95800900  1
  O  O53  1  0.40983800  0.30357600  0.56146900  1
  O  O54  1  0.79849000  0.41509200  0.84378300  1
  O  O55  1  0.45140300  0.77955700  0.34184700  1
  O  O56  1  0.11195900  0.83382200  0.87436200  1
  O  O57  1  0.38331700  0.87675500  0.91723800  1
  O  O58  1  0.04707700  0.41402600  0.97270300  1
  O  O59  1  0.37667900  0.66500400  0.13885200  1
  O  O60  1  0.12324500  0.61668300  0.08276200  1
  O  O61  1  0.29654500  0.41080600  0.04199100  1
  O  O62  1  0.60485400  0.89217800  0.77485900  1
  O  O63  1  0.89669800  0.61639200  0.28249300  1
  O  O64  1  0.10782200  0.39514600  0.22514100  1
  O  O65  1  0.20169400  0.69776800  0.34299500  1
  O  O66  1  0.69642400  0.59016200  0.43853100  1
  O  O67  1  0.40999500  0.06162600  0.45966300  1
  O  O68  1  0.09180600  0.19940100  0.45279100  1
  O  O69  1  0.88117700  0.96473800  0.85183200  1
  O  O70  1  0.47153100  0.60739000  0.63118300  1
  O  O71  1  0.90736000  0.80653400  0.05284900  1
  O  O72  1  0.93837400  0.59000500  0.54033700  1
  O  O73  1  0.22044300  0.54859700  0.65815300  1
  O  O74  1  0.30223200  0.79830600  0.65700500  1
  O  O75  1  0.08799700  0.27890500  0.70156400  1
  O  O76  1  0.16617800  0.88804100  0.12563800  1
  O  O77  1  0.11319500  0.02579200  0.64264000  1
  O  O78  1  0.29192700  0.08105100  0.19186800  1
  O  O79  1  0.80059900  0.90819400  0.54720900  1
