# generated using pymatgen
data_Li3VSiBO7
_symmetry_space_group_name_H-M   'P 1'
_cell_length_a   5.11376805
_cell_length_b   16.71779632
_cell_length_c   6.43185100
_cell_angle_alpha   90.00131054
_cell_angle_beta   90.00007565
_cell_angle_gamma   85.44384483
_symmetry_Int_Tables_number   1
_chemical_formula_structural   Li3VSiBO7
_chemical_formula_sum   'Li12 V4 Si4 B4 O28'
_cell_volume   548.12734424
_cell_formula_units_Z   4
loop_
 _symmetry_equiv_pos_site_id
 _symmetry_equiv_pos_as_xyz
  1  'x, y, z'
loop_
 _atom_site_type_symbol
 _atom_site_label
 _atom_site_symmetry_multiplicity
 _atom_site_fract_x
 _atom_site_fract_y
 _atom_site_fract_z
 _atom_site_occupancy
  Li  Li0  1  0.75682800  0.05334800  0.25000500  1
  Li  Li1  1  0.75739100  0.55338200  0.25000200  1
  Li  Li2  1  0.24283500  0.44663900  0.75001000  1
  Li  Li3  1  0.24280600  0.94662600  0.75000200  1
  Li  Li4  1  0.23741100  0.11589700  0.99456200  1
  Li  Li5  1  0.23786700  0.61592200  0.99449500  1
  Li  Li6  1  0.23736900  0.11585700  0.50553900  1
  Li  Li7  1  0.23786300  0.61592000  0.50547600  1
  Li  Li8  1  0.76256700  0.38411200  0.49452100  1
  Li  Li9  1  0.76225300  0.88402400  0.49470100  1
  Li  Li10  1  0.76261300  0.38412200  0.00551800  1
  Li  Li11  1  0.76226600  0.88403000  0.00529200  1
  V  V12  1  0.79524100  0.66256600  0.74998800  1
  V  V13  1  0.20486600  0.33752500  0.24995100  1
  V  V14  1  0.79524800  0.16242900  0.75001000  1
  V  V15  1  0.20451400  0.83745900  0.25000500  1
  Si  Si16  1  0.73070100  0.21343100  0.25000900  1
  Si  Si17  1  0.73054000  0.71347700  0.24999300  1
  Si  Si18  1  0.26958400  0.28648600  0.74997900  1
  Si  Si19  1  0.26921400  0.78654100  0.74999600  1
  B  B20  1  0.72132700  0.01911400  0.74999500  1
  B  B21  1  0.72118600  0.51914300  0.74999700  1
  B  B22  1  0.27899100  0.48089600  0.25000100  1
  B  B23  1  0.27851500  0.98085300  0.25000100  1
  O  O24  1  0.35619200  0.05610900  0.25001300  1
  O  O25  1  0.35662500  0.55616600  0.24998600  1
  O  O26  1  0.64359300  0.44389600  0.75002800  1
  O  O27  1  0.64346300  0.94388300  0.74999100  1
  O  O28  1  0.97684700  0.04275900  0.74997800  1
  O  O29  1  0.97667100  0.54283700  0.75000100  1
  O  O30  1  0.02346700  0.45724100  0.25002000  1
  O  O31  1  0.02299500  0.95718200  0.24999300  1
  O  O32  1  0.53272700  0.08700500  0.75001600  1
  O  O33  1  0.53265100  0.58706100  0.74995400  1
  O  O34  1  0.46747400  0.41298600  0.24997700  1
  O  O35  1  0.46701700  0.91294800  0.25000400  1
  O  O36  1  0.41508700  0.23891400  0.24994200  1
  O  O37  1  0.41486100  0.73881800  0.25000100  1
  O  O38  1  0.58518800  0.26116300  0.75005000  1
  O  O39  1  0.58496800  0.76121500  0.74996600  1
  O  O40  1  0.13189400  0.20064600  0.75002500  1
  O  O41  1  0.13195100  0.70060200  0.75000400  1
  O  O42  1  0.86826700  0.29934400  0.25007700  1
  O  O43  1  0.86782300  0.79939000  0.24998000  1
  O  O44  1  0.82286600  0.15468200  0.05517500  1
  O  O45  1  0.82262000  0.65473900  0.05506700  1
  O  O46  1  0.82278900  0.15467800  0.44485400  1
  O  O47  1  0.82266100  0.65473900  0.44490000  1
  O  O48  1  0.17756500  0.34531300  0.55511300  1
  O  O49  1  0.17710500  0.84528700  0.55511500  1
  O  O50  1  0.17749900  0.34530700  0.94483900  1
  O  O51  1  0.17713900  0.84528900  0.94488500  1
