# generated using pymatgen
data_Li6Cr3Cu(PO4)6
_symmetry_space_group_name_H-M   'P 1'
_cell_length_a   8.50907800
_cell_length_b   8.53902121
_cell_length_c   8.54965991
_cell_angle_alpha   61.44214675
_cell_angle_beta   61.58280562
_cell_angle_gamma   61.60235859
_symmetry_Int_Tables_number   1
_chemical_formula_structural   Li6Cr3Cu(PO4)6
_chemical_formula_sum   'Li6 Cr3 Cu1 P6 O24'
_cell_volume   454.46519395
_cell_formula_units_Z   1
loop_
 _symmetry_equiv_pos_site_id
 _symmetry_equiv_pos_as_xyz
  1  'x, y, z'
loop_
 _atom_site_type_symbol
 _atom_site_label
 _atom_site_symmetry_multiplicity
 _atom_site_fract_x
 _atom_site_fract_y
 _atom_site_fract_z
 _atom_site_occupancy
  Li  Li0  1  0.02068400  0.99922500  0.98906800  1
  Li  Li1  1  0.75634700  0.14464100  0.34940700  1
  Li  Li2  1  0.47542200  0.50926600  0.49957500  1
  Li  Li3  1  0.21529400  0.85010300  0.66160000  1
  Li  Li4  1  0.66576100  0.21063400  0.84903600  1
  Li  Li5  1  0.84788500  0.66800200  0.20993600  1
  Cr  Cr6  1  0.13976900  0.14382500  0.13798700  1
  Cr  Cr7  1  0.36002900  0.36187500  0.35589700  1
  Cr  Cr8  1  0.64232800  0.64562000  0.64522400  1
  Cu  Cu9  1  0.85363800  0.85089400  0.84868100  1
  P  P10  1  0.04954900  0.75035800  0.45230100  1
  P  P11  1  0.45073300  0.05090800  0.75115900  1
  P  P12  1  0.75049300  0.45651700  0.04661200  1
  P  P13  1  0.25372300  0.53800500  0.95924500  1
  P  P14  1  0.54073200  0.96407300  0.25365100  1
  P  P15  1  0.95634600  0.25287900  0.53443900  1
  O  O16  1  0.11885900  0.31658600  0.48100300  1
  O  O17  1  0.33041100  0.49430800  0.10862300  1
  O  O18  1  0.04140900  0.92480700  0.27034400  1
  O  O19  1  0.52326700  0.11266200  0.31904100  1
  O  O20  1  0.24385500  0.59788600  0.41675100  1
  O  O21  1  0.03539300  0.79720500  0.61399400  1
  O  O22  1  0.26177300  0.06233800  0.91356700  1
  O  O23  1  0.43635200  0.24078500  0.58609100  1
  O  O24  1  0.59811000  0.42283700  0.24544100  1
  O  O25  1  0.20033800  0.37798700  0.98773900  1
  O  O26  1  0.08293600  0.72654700  0.96088100  1
  O  O27  1  0.36629600  0.00452100  0.21526100  1
  O  O28  1  0.61408700  0.02984600  0.80155300  1
  O  O29  1  0.90847100  0.26117100  0.06396200  1
  O  O30  1  0.80381000  0.61534400  0.02773600  1
  O  O31  1  0.40093400  0.58014400  0.75694800  1
  O  O32  1  0.57746200  0.76259200  0.40298100  1
  O  O33  1  0.72555700  0.95879700  0.07881500  1
  O  O34  1  0.96503400  0.20648700  0.37701900  1
  O  O35  1  0.75847000  0.40294700  0.58248400  1
  O  O36  1  0.49088600  0.88704500  0.69415600  1
  O  O37  1  0.96138300  0.07940600  0.72099300  1
  O  O38  1  0.69209400  0.49719600  0.88497700  1
  O  O39  1  0.88407900  0.69273100  0.49682100  1
