# generated using pymatgen
data_Li2MnFe(BO3)2
_symmetry_space_group_name_H-M   'P 1'
_cell_length_a   6.32314000
_cell_length_b   8.25563200
_cell_length_c   8.26418694
_cell_angle_alpha   60.13264747
_cell_angle_beta   90.00000000
_cell_angle_gamma   90.00000000
_symmetry_Int_Tables_number   1
_chemical_formula_structural   Li2MnFe(BO3)2
_chemical_formula_sum   'Li6 Mn3 Fe3 B6 O18'
_cell_volume   374.10441570
_cell_formula_units_Z   3
loop_
 _symmetry_equiv_pos_site_id
 _symmetry_equiv_pos_as_xyz
  1  'x, y, z'
loop_
 _atom_site_type_symbol
 _atom_site_label
 _atom_site_symmetry_multiplicity
 _atom_site_fract_x
 _atom_site_fract_y
 _atom_site_fract_z
 _atom_site_occupancy
  Li  Li0  1  0.74944300  0.71683200  0.30164400  1
  Li  Li1  1  0.25055700  0.71683200  0.30164400  1
  Li  Li2  1  0.74956900  0.98316200  0.71545100  1
  Li  Li3  1  0.25043100  0.98316200  0.71545100  1
  Li  Li4  1  0.24964800  0.30126300  0.98405600  1
  Li  Li5  1  0.75035200  0.30126300  0.98405600  1
  Mn  Mn6  1  0.00000000  0.62815400  0.01183800  1
  Mn  Mn7  1  0.50000000  0.62676700  0.01202400  1
  Mn  Mn8  1  0.00000000  0.35936500  0.62826100  1
  Fe  Fe9  1  0.50000000  0.35920700  0.63376700  1
  Fe  Fe10  1  0.00000000  0.00797500  0.35903300  1
  Fe  Fe11  1  0.50000000  0.00813300  0.35961500  1
  B  B12  1  0.00000000  0.00179300  0.00082100  1
  B  B13  1  0.50000000  0.00175800  0.99830200  1
  B  B14  1  0.74815800  0.66789700  0.66406100  1
  B  B15  1  0.25184200  0.66789700  0.66406100  1
  B  B16  1  0.74850900  0.33061900  0.33549700  1
  B  B17  1  0.25149100  0.33061900  0.33549700  1
  O  O18  1  0.50000000  0.89270900  0.19195900  1
  O  O19  1  0.00000000  0.88878200  0.19482800  1
  O  O20  1  0.74984000  0.86188200  0.55626400  1
  O  O21  1  0.25016000  0.86188200  0.55626400  1
  O  O22  1  0.00000000  0.92091600  0.88779400  1
  O  O23  1  0.50000000  0.91900400  0.88766600  1
  O  O24  1  0.74596100  0.55963600  0.57872100  1
  O  O25  1  0.25403900  0.55963600  0.57872100  1
  O  O26  1  0.75010600  0.58207800  0.85747500  1
  O  O27  1  0.24989400  0.58207800  0.85747500  1
  O  O28  1  0.74954300  0.52494000  0.22275500  1
  O  O29  1  0.25045700  0.52494000  0.22275500  1
  O  O30  1  0.00000000  0.19487100  0.92143200  1
  O  O31  1  0.50000000  0.19641500  0.91496400  1
  O  O32  1  0.74979100  0.21763200  0.25455300  1
  O  O33  1  0.25020900  0.21763200  0.25455300  1
  O  O34  1  0.25305700  0.25113600  0.52836900  1
  O  O35  1  0.74694300  0.25113600  0.52836900  1
