# generated using pymatgen
data_Li3V(BO3)2
_symmetry_space_group_name_H-M   'P 1'
_cell_length_a   8.88594700
_cell_length_b   5.20277700
_cell_length_c   11.17189476
_cell_angle_alpha   63.19441751
_cell_angle_beta   90.00000000
_cell_angle_gamma   90.00000000
_symmetry_Int_Tables_number   1
_chemical_formula_structural   Li3V(BO3)2
_chemical_formula_sum   'Li12 V4 B8 O24'
_cell_volume   460.99304326
_cell_formula_units_Z   4
loop_
 _symmetry_equiv_pos_site_id
 _symmetry_equiv_pos_as_xyz
  1  'x, y, z'
loop_
 _atom_site_type_symbol
 _atom_site_label
 _atom_site_symmetry_multiplicity
 _atom_site_fract_x
 _atom_site_fract_y
 _atom_site_fract_z
 _atom_site_occupancy
  Li  Li0  1  0.97392000  0.51481600  0.33038600  1
  Li  Li1  1  0.65853200  0.45220600  0.37908900  1
  Li  Li2  1  0.98508300  0.92452300  0.89840300  1
  Li  Li3  1  0.15853200  0.54779400  0.12091100  1
  Li  Li4  1  0.48508300  0.07547700  0.60159700  1
  Li  Li5  1  0.47392000  0.48518400  0.16961400  1
  Li  Li6  1  0.52608000  0.51481600  0.83038600  1
  Li  Li7  1  0.51491700  0.92452300  0.39840300  1
  Li  Li8  1  0.84146800  0.45220600  0.87908900  1
  Li  Li9  1  0.01491700  0.07547700  0.10159700  1
  Li  Li10  1  0.34146800  0.54779400  0.62091100  1
  Li  Li11  1  0.02608000  0.48518400  0.66961400  1
  V  V12  1  0.32507800  0.97463700  0.87893100  1
  V  V13  1  0.82507800  0.02536300  0.62106900  1
  V  V14  1  0.17492200  0.97463700  0.37893100  1
  V  V15  1  0.67492200  0.02536300  0.12106900  1
  B  B16  1  0.32259500  0.45495300  0.37869100  1
  B  B17  1  0.66469500  0.96658500  0.86903700  1
  B  B18  1  0.82259500  0.54504700  0.12130900  1
  B  B19  1  0.16469500  0.03341500  0.63096300  1
  B  B20  1  0.83530500  0.96658500  0.36903700  1
  B  B21  1  0.17740500  0.45495300  0.87869100  1
  B  B22  1  0.33530500  0.03341500  0.13096300  1
  B  B23  1  0.67740500  0.54504700  0.62130900  1
  O  O24  1  0.32914100  0.82302500  0.08613300  1
  O  O25  1  0.66704200  0.31029900  0.59362800  1
  O  O26  1  0.94801000  0.70234000  0.11803800  1
  O  O27  1  0.02542900  0.14462200  0.64181900  1
  O  O28  1  0.29252600  0.13280000  0.66759200  1
  O  O29  1  0.68236700  0.62057400  0.15297700  1
  O  O30  1  0.18236700  0.37942600  0.34702300  1
  O  O31  1  0.79252600  0.86720000  0.83240800  1
  O  O32  1  0.52542900  0.85537800  0.85818100  1
  O  O33  1  0.44801000  0.29766000  0.38196200  1
  O  O34  1  0.82914100  0.17697500  0.41386700  1
  O  O35  1  0.16704200  0.68970100  0.90637200  1
  O  O36  1  0.83295800  0.31029900  0.09362800  1
  O  O37  1  0.17085900  0.82302500  0.58613300  1
  O  O38  1  0.55199000  0.70234000  0.61803800  1
  O  O39  1  0.47457100  0.14462200  0.14181900  1
  O  O40  1  0.20747400  0.13280000  0.16759200  1
  O  O41  1  0.81763300  0.62057400  0.65297700  1
  O  O42  1  0.31763300  0.37942600  0.84702300  1
  O  O43  1  0.70747400  0.86720000  0.33240800  1
  O  O44  1  0.97457100  0.85537800  0.35818100  1
  O  O45  1  0.05199000  0.29766000  0.88196200  1
  O  O46  1  0.33295800  0.68970100  0.40637200  1
  O  O47  1  0.67085900  0.17697500  0.91386700  1
