# generated using pymatgen
data_Li8VCo3(PO4)6
_symmetry_space_group_name_H-M   'P 1'
_cell_length_a   8.62534893
_cell_length_b   8.62534893
_cell_length_c   8.62534875
_cell_angle_alpha   62.40228544
_cell_angle_beta   62.40228544
_cell_angle_gamma   62.40228771
_symmetry_Int_Tables_number   1
_chemical_formula_structural   Li8VCo3(PO4)6
_chemical_formula_sum   'Li8 V1 Co3 P6 O24'
_cell_volume   478.05772375
_cell_formula_units_Z   1
loop_
 _symmetry_equiv_pos_site_id
 _symmetry_equiv_pos_as_xyz
  1  'x, y, z'
loop_
 _atom_site_type_symbol
 _atom_site_label
 _atom_site_symmetry_multiplicity
 _atom_site_fract_x
 _atom_site_fract_y
 _atom_site_fract_z
 _atom_site_occupancy
  Li  Li0  1  0.98241000  0.98241000  0.98241000  1
  Li  Li1  1  0.65466200  0.29211800  0.83561300  1
  Li  Li2  1  0.29211800  0.83561300  0.65466200  1
  Li  Li3  1  0.83561300  0.65466200  0.29211800  1
  Li  Li4  1  0.50784600  0.50784600  0.50784600  1
  Li  Li5  1  0.14935400  0.33111600  0.71601700  1
  Li  Li6  1  0.71601700  0.14935400  0.33111600  1
  Li  Li7  1  0.33111600  0.71601700  0.14935400  1
  V  V8  1  0.14555400  0.14555400  0.14555400  1
  Co  Co9  1  0.65065200  0.65065200  0.65065200  1
  Co  Co10  1  0.85201600  0.85201600  0.85201600  1
  Co  Co11  1  0.35409900  0.35409900  0.35409900  1
  P  P12  1  0.25426700  0.54435800  0.95398600  1
  P  P13  1  0.95398600  0.25426700  0.54435800  1
  P  P14  1  0.54435800  0.95398600  0.25426700  1
  P  P15  1  0.44953700  0.04719200  0.75779900  1
  P  P16  1  0.04719200  0.75779900  0.44953700  1
  P  P17  1  0.75779900  0.44953700  0.04719200  1
  O  O18  1  0.11257000  0.74081800  0.90774600  1
  O  O19  1  0.42433300  0.53057300  0.77515400  1
  O  O20  1  0.90774600  0.11257000  0.74081800  1
  O  O21  1  0.11190800  0.30415000  0.52466400  1
  O  O22  1  0.77515400  0.42433300  0.53057300  1
  O  O23  1  0.52466400  0.11190800  0.30415000  1
  O  O24  1  0.60612200  0.01016000  0.81706200  1
  O  O25  1  0.53057300  0.77515400  0.42433300  1
  O  O26  1  0.25217800  0.08604900  0.91206100  1
  O  O27  1  0.30415000  0.52466400  0.11190800  1
  O  O28  1  0.01016000  0.81706200  0.60612200  1
  O  O29  1  0.00966300  0.18000700  0.38455500  1
  O  O30  1  0.71886400  0.46196900  0.88317200  1
  O  O31  1  0.74081800  0.90774600  0.11257000  1
  O  O32  1  0.43057400  0.23144500  0.59554800  1
  O  O33  1  0.46196900  0.88317200  0.71886400  1
  O  O34  1  0.38455500  0.00966300  0.18000700  1
  O  O35  1  0.23144500  0.59554800  0.43057400  1
  O  O36  1  0.18000700  0.38455500  0.00966300  1
  O  O37  1  0.88317200  0.71886400  0.46196900  1
  O  O38  1  0.08604900  0.91206100  0.25217800  1
  O  O39  1  0.59554800  0.43057400  0.23144500  1
  O  O40  1  0.81706200  0.60612200  0.01016000  1
  O  O41  1  0.91206100  0.25217800  0.08604900  1
