# generated using pymatgen
data_Li4Mn3CrCo2(PO4)6
_symmetry_space_group_name_H-M   'P 1'
_cell_length_a   8.41512700
_cell_length_b   8.48581784
_cell_length_c   8.60448551
_cell_angle_alpha   63.06702971
_cell_angle_beta   63.77722708
_cell_angle_gamma   64.16671121
_symmetry_Int_Tables_number   1
_chemical_formula_structural   Li4Mn3CrCo2(PO4)6
_chemical_formula_sum   'Li4 Mn3 Cr1 Co2 P6 O24'
_cell_volume   469.60982224
_cell_formula_units_Z   1
loop_
 _symmetry_equiv_pos_site_id
 _symmetry_equiv_pos_as_xyz
  1  'x, y, z'
loop_
 _atom_site_type_symbol
 _atom_site_label
 _atom_site_symmetry_multiplicity
 _atom_site_fract_x
 _atom_site_fract_y
 _atom_site_fract_z
 _atom_site_occupancy
  Li  Li0  1  0.74103800  0.14960300  0.35861300  1
  Li  Li1  1  0.26523200  0.84859200  0.65223300  1
  Li  Li2  1  0.64442700  0.26216300  0.85459100  1
  Li  Li3  1  0.85524000  0.64713100  0.26343200  1
  Mn  Mn4  1  0.35137900  0.35461600  0.35138600  1
  Mn  Mn5  1  0.14529800  0.14630000  0.14791300  1
  Mn  Mn6  1  0.65587400  0.65249300  0.65414100  1
  Cr  Cr7  1  0.85342200  0.85074200  0.85369200  1
  Co  Co8  1  0.01135200  0.00833200  0.98815700  1
  Co  Co9  1  0.49117200  0.50136200  0.50323200  1
  P  P10  1  0.06169200  0.75093100  0.44517300  1
  P  P11  1  0.44295000  0.05205500  0.75150000  1
  P  P12  1  0.75004300  0.44247400  0.05440700  1
  P  P13  1  0.24553600  0.54788100  0.95076600  1
  P  P14  1  0.56104500  0.95016900  0.24806000  1
  P  P15  1  0.93680300  0.24776400  0.55007000  1
  O  O16  1  0.46338500  0.90307200  0.68337700  1
  O  O17  1  0.68070500  0.46100600  0.90821500  1
  O  O18  1  0.90987500  0.68615400  0.45876000  1
  O  O19  1  0.06734200  0.91998800  0.25783100  1
  O  O20  1  0.00960100  0.81298700  0.60986800  1
  O  O21  1  0.25390200  0.60783500  0.42954400  1
  O  O22  1  0.25062100  0.06997400  0.90397200  1
  O  O23  1  0.44820200  0.24089400  0.59563000  1
  O  O24  1  0.17444700  0.38863100  0.99613800  1
  O  O25  1  0.60965400  0.42350700  0.25117200  1
  O  O26  1  0.09138500  0.74659300  0.92397300  1
  O  O27  1  0.39350000  0.01316900  0.18529200  1
  O  O28  1  0.60475300  0.00090500  0.82333800  1
  O  O29  1  0.90311500  0.24566000  0.07704700  1
  O  O30  1  0.39212500  0.56892300  0.75405600  1
  O  O31  1  0.81817800  0.60469600  0.00646200  1
  O  O32  1  0.57414200  0.75177100  0.39434400  1
  O  O33  1  0.75620800  0.92242200  0.08869800  1
  O  O34  1  0.74214800  0.39798800  0.58079800  1
  O  O35  1  0.95280900  0.18495900  0.40121200  1
  O  O36  1  0.92332100  0.09007400  0.74760100  1
  O  O37  1  0.09904400  0.30831100  0.50749100  1
  O  O38  1  0.31094700  0.52227600  0.09930700  1
  O  O39  1  0.55808400  0.09260300  0.31150900  1
