# generated using pymatgen
data_LiMn(PO3)3
_symmetry_space_group_name_H-M   'P 1'
_cell_length_a   5.19220000
_cell_length_b   11.82360100
_cell_length_c   12.17913400
_cell_angle_alpha   90.00000000
_cell_angle_beta   90.00000000
_cell_angle_gamma   90.00000000
_symmetry_Int_Tables_number   1
_chemical_formula_structural   LiMn(PO3)3
_chemical_formula_sum   'Li4 Mn4 P12 O36'
_cell_volume   747.68313937
_cell_formula_units_Z   4
loop_
 _symmetry_equiv_pos_site_id
 _symmetry_equiv_pos_as_xyz
  1  'x, y, z'
loop_
 _atom_site_type_symbol
 _atom_site_label
 _atom_site_symmetry_multiplicity
 _atom_site_fract_x
 _atom_site_fract_y
 _atom_site_fract_z
 _atom_site_occupancy
  Li  Li0  1  0.00000000  0.00000000  0.00000000  1
  Li  Li1  1  0.00000000  0.00000000  0.50000000  1
  Li  Li2  1  0.00000000  0.50000000  0.00000000  1
  Li  Li3  1  0.00000000  0.50000000  0.50000000  1
  Mn  Mn4  1  0.97937800  0.25000000  0.07829000  1
  Mn  Mn5  1  0.97937800  0.75000000  0.42171000  1
  Mn  Mn6  1  0.02062200  0.25000000  0.57829000  1
  Mn  Mn7  1  0.02062200  0.75000000  0.92171000  1
  P  P8  1  0.23440200  0.00000000  0.75000000  1
  P  P9  1  0.23440200  0.50000000  0.75000000  1
  P  P10  1  0.51407700  0.63423300  0.07098600  1
  P  P11  1  0.51407700  0.13423300  0.42901400  1
  P  P12  1  0.51407700  0.86576700  0.07098600  1
  P  P13  1  0.51407700  0.36576700  0.42901400  1
  P  P14  1  0.48592300  0.63423300  0.57098600  1
  P  P15  1  0.48592300  0.36576700  0.92901400  1
  P  P16  1  0.48592300  0.13423300  0.92901400  1
  P  P17  1  0.48592300  0.86576700  0.57098600  1
  P  P18  1  0.76559800  0.00000000  0.25000000  1
  P  P19  1  0.76559800  0.50000000  0.25000000  1
  O  O20  1  0.09161600  0.09731800  0.69914100  1
  O  O21  1  0.09161600  0.40268200  0.69914100  1
  O  O22  1  0.09161600  0.59731800  0.80085900  1
  O  O23  1  0.09161600  0.90268200  0.80085900  1
  O  O24  1  0.24424000  0.12588600  0.47427400  1
  O  O25  1  0.24424000  0.62588600  0.02572600  1
  O  O26  1  0.24424000  0.37411400  0.47427400  1
  O  O27  1  0.24424000  0.87411400  0.02572600  1
  O  O28  1  0.26611400  0.12923000  0.01022200  1
  O  O29  1  0.26611400  0.37077000  0.01022200  1
  O  O30  1  0.26611400  0.87077000  0.48977800  1
  O  O31  1  0.26611400  0.62923000  0.48977800  1
  O  O32  1  0.46585300  0.25000000  0.85898400  1
  O  O33  1  0.46585300  0.75000000  0.64101600  1
  O  O34  1  0.45304200  0.54298500  0.66364800  1
  O  O35  1  0.45304200  0.04298500  0.83635200  1
  O  O36  1  0.45304200  0.95701500  0.66364800  1
  O  O37  1  0.45304200  0.45701500  0.83635200  1
  O  O38  1  0.54695800  0.54298500  0.16364800  1
  O  O39  1  0.54695800  0.04298500  0.33635200  1
  O  O40  1  0.54695800  0.45701500  0.33635200  1
  O  O41  1  0.54695800  0.95701500  0.16364800  1
  O  O42  1  0.53414700  0.75000000  0.14101600  1
  O  O43  1  0.53414700  0.25000000  0.35898400  1
  O  O44  1  0.73388600  0.37077000  0.51022200  1
  O  O45  1  0.73388600  0.62923000  0.98977800  1
  O  O46  1  0.73388600  0.12923000  0.51022200  1
  O  O47  1  0.73388600  0.87077000  0.98977800  1
  O  O48  1  0.75576000  0.87411400  0.52572600  1
  O  O49  1  0.75576000  0.62588600  0.52572600  1
  O  O50  1  0.75576000  0.37411400  0.97427400  1
  O  O51  1  0.75576000  0.12588600  0.97427400  1
  O  O52  1  0.90838400  0.40268200  0.19914100  1
  O  O53  1  0.90838400  0.59731800  0.30085900  1
  O  O54  1  0.90838400  0.09731800  0.19914100  1
  O  O55  1  0.90838400  0.90268200  0.30085900  1
