# generated using pymatgen
data_LiNiPO4
_symmetry_space_group_name_H-M   'P 1'
_cell_length_a   4.84869673
_cell_length_b   4.84869433
_cell_length_c   16.14872582
_cell_angle_alpha   96.40397085
_cell_angle_beta   83.59595161
_cell_angle_gamma   77.90968185
_symmetry_Int_Tables_number   1
_chemical_formula_structural   LiNiPO4
_chemical_formula_sum   'Li4 Ni4 P4 O16'
_cell_volume   365.34405475
_cell_formula_units_Z   4
loop_
 _symmetry_equiv_pos_site_id
 _symmetry_equiv_pos_as_xyz
  1  'x, y, z'
loop_
 _atom_site_type_symbol
 _atom_site_label
 _atom_site_symmetry_multiplicity
 _atom_site_fract_x
 _atom_site_fract_y
 _atom_site_fract_z
 _atom_site_occupancy
  Li  Li0  1  0.57313600  0.79162100  0.93559500  1
  Li  Li1  1  0.79162100  0.57313600  0.56440500  1
  Li  Li2  1  0.20836300  0.42697600  0.43559400  1
  Li  Li3  1  0.42697600  0.20836300  0.06440600  1
  Ni  Ni4  1  0.16907200  0.67553300  0.25064800  1
  Ni  Ni5  1  0.67553400  0.16907300  0.24935200  1
  Ni  Ni6  1  0.32435600  0.83095800  0.75065800  1
  Ni  Ni7  1  0.83095700  0.32435800  0.74934200  1
  P  P8  1  0.27446800  0.37674400  0.63899000  1
  P  P9  1  0.37674200  0.27446900  0.86101000  1
  P  P10  1  0.62329900  0.72553600  0.13899600  1
  P  P11  1  0.72553900  0.62329700  0.36100300  1
  O  O12  1  0.05133000  0.60410900  0.70549200  1
  O  O13  1  0.39588100  0.94861300  0.20549500  1
  O  O14  1  0.60410700  0.05133100  0.79450800  1
  O  O15  1  0.94861300  0.39588000  0.29450500  1
  O  O16  1  0.08464600  0.22714700  0.83915100  1
  O  O17  1  0.77285400  0.91532500  0.33914800  1
  O  O18  1  0.22714600  0.08464600  0.66084900  1
  O  O19  1  0.91532700  0.77285300  0.16085200  1
  O  O20  1  0.44181200  0.57017700  0.84388000  1
  O  O21  1  0.42982700  0.55819600  0.34388100  1
  O  O22  1  0.57017700  0.44181400  0.65612000  1
  O  O23  1  0.55819700  0.42982600  0.15612000  1
  O  O24  1  0.21654100  0.41635100  0.55029500  1
  O  O25  1  0.58365200  0.78347400  0.05028600  1
  O  O26  1  0.41634900  0.21654100  0.94970500  1
  O  O27  1  0.78347500  0.58365100  0.44971400  1
