# generated using pymatgen
data_Li2AgF4
_symmetry_space_group_name_H-M   'P 1'
_cell_length_a   8.71555400
_cell_length_b   8.71555400
_cell_length_c   5.66350500
_cell_angle_alpha   90.00000000
_cell_angle_beta   90.00000000
_cell_angle_gamma   90.00000000
_symmetry_Int_Tables_number   1
_chemical_formula_structural   Li2AgF4
_chemical_formula_sum   'Li8 Ag4 F16'
_cell_volume   430.20483233
_cell_formula_units_Z   4
loop_
 _symmetry_equiv_pos_site_id
 _symmetry_equiv_pos_as_xyz
  1  'x, y, z'
loop_
 _atom_site_type_symbol
 _atom_site_label
 _atom_site_symmetry_multiplicity
 _atom_site_fract_x
 _atom_site_fract_y
 _atom_site_fract_z
 _atom_site_occupancy
  Li  Li0  1  0.22686700  0.77313300  0.75000000  1
  Li  Li1  1  0.77313300  0.77313300  0.25000000  1
  Li  Li2  1  0.22686700  0.22686700  0.25000000  1
  Li  Li3  1  0.77313300  0.22686700  0.75000000  1
  Li  Li4  1  0.72686700  0.27313300  0.25000000  1
  Li  Li5  1  0.27313300  0.27313300  0.75000000  1
  Li  Li6  1  0.27313300  0.72686700  0.25000000  1
  Li  Li7  1  0.72686700  0.72686700  0.75000000  1
  Ag  Ag8  1  0.50000000  0.00000000  0.02225000  1
  Ag  Ag9  1  0.50000000  0.00000000  0.52225000  1
  Ag  Ag10  1  0.00000000  0.50000000  0.47775000  1
  Ag  Ag11  1  0.00000000  0.50000000  0.97775000  1
  F  F12  1  0.39885600  0.78052100  0.52754500  1
  F  F13  1  0.60114400  0.78052100  0.02754500  1
  F  F14  1  0.28052100  0.89885600  0.02754500  1
  F  F15  1  0.71947900  0.89885600  0.52754500  1
  F  F16  1  0.71947900  0.10114400  0.02754500  1
  F  F17  1  0.28052100  0.10114400  0.52754500  1
  F  F18  1  0.60114400  0.21947900  0.52754500  1
  F  F19  1  0.39885600  0.21947900  0.02754500  1
  F  F20  1  0.10114400  0.28052100  0.97245500  1
  F  F21  1  0.89885600  0.28052100  0.47245500  1
  F  F22  1  0.21947900  0.39885600  0.47245500  1
  F  F23  1  0.78052100  0.39885600  0.97245500  1
  F  F24  1  0.21947900  0.60114400  0.97245500  1
  F  F25  1  0.78052100  0.60114400  0.47245500  1
  F  F26  1  0.10114400  0.71947900  0.47245500  1
  F  F27  1  0.89885600  0.71947900  0.97245500  1
