# generated using pymatgen
data_Li4Mn2V5O12
_symmetry_space_group_name_H-M   'P 1'
_cell_length_a   9.02867900
_cell_length_b   5.32069000
_cell_length_c   9.90782556
_cell_angle_alpha   80.51200129
_cell_angle_beta   90.00000000
_cell_angle_gamma   90.00000000
_symmetry_Int_Tables_number   1
_chemical_formula_structural   Li4Mn2V5O12
_chemical_formula_sum   'Li8 Mn4 V10 O24'
_cell_volume   469.44900899
_cell_formula_units_Z   2
loop_
 _symmetry_equiv_pos_site_id
 _symmetry_equiv_pos_as_xyz
  1  'x, y, z'
loop_
 _atom_site_type_symbol
 _atom_site_label
 _atom_site_symmetry_multiplicity
 _atom_site_fract_x
 _atom_site_fract_y
 _atom_site_fract_z
 _atom_site_occupancy
  Li  Li0  1  0.91753400  0.01340900  0.73930900  1
  Li  Li1  1  0.91755500  0.48093200  0.25863700  1
  Li  Li2  1  0.58241100  0.75848100  0.50286500  1
  Li  Li3  1  0.41753400  0.98659100  0.26069100  1
  Li  Li4  1  0.58616700  0.50027900  0.25836100  1
  Li  Li5  1  0.41755500  0.51906800  0.74136300  1
  Li  Li6  1  0.08241100  0.24151900  0.49713500  1
  Li  Li7  1  0.08616700  0.49972100  0.74163900  1
  Mn  Mn8  1  0.75074100  0.24073800  0.50545400  1
  Mn  Mn9  1  0.74279600  0.76490100  0.98642100  1
  Mn  Mn10  1  0.24279600  0.23509900  0.01357900  1
  Mn  Mn11  1  0.25074100  0.75926200  0.49454600  1
  V  V12  1  0.91659100  0.25252700  0.00157300  1
  V  V13  1  0.92218800  0.74613600  0.49435800  1
  V  V14  1  0.75157900  0.99790800  0.25542400  1
  V  V15  1  0.57581900  0.24816600  0.00002100  1
  V  V16  1  0.74446500  0.50250900  0.74048100  1
  V  V17  1  0.42218800  0.25386400  0.50564200  1
  V  V18  1  0.41659100  0.74747300  0.99842700  1
  V  V19  1  0.25157900  0.00209200  0.74457600  1
  V  V20  1  0.24446500  0.49749100  0.25951900  1
  V  V21  1  0.07581900  0.75183400  0.99997900  1
  O  O22  1  0.89573000  0.12169900  0.38341700  1
  O  O23  1  0.91094000  0.90027900  0.10808500  1
  O  O24  1  0.75357000  0.16446000  0.87915000  1
  O  O25  1  0.77542500  0.84145100  0.62415500  1
  O  O26  1  0.91215700  0.60235500  0.87657800  1
  O  O27  1  0.90554700  0.37715700  0.61437400  1
  O  O28  1  0.76667800  0.65171800  0.36666800  1
  O  O29  1  0.59390900  0.13617400  0.38854300  1
  O  O30  1  0.58313800  0.89542100  0.12410000  1
  O  O31  1  0.74209800  0.34646100  0.12430300  1
  O  O32  1  0.41094000  0.09972100  0.89191500  1
  O  O33  1  0.39573000  0.87830100  0.61658300  1
  O  O34  1  0.57258400  0.58937300  0.88346500  1
  O  O35  1  0.59754300  0.38667500  0.61401000  1
  O  O36  1  0.27542500  0.15854900  0.37584500  1
  O  O37  1  0.40554700  0.62284300  0.38562600  1
  O  O38  1  0.41215700  0.39764500  0.12342200  1
  O  O39  1  0.25357000  0.83554000  0.12085000  1
  O  O40  1  0.24209800  0.65353900  0.87569700  1
  O  O41  1  0.08313800  0.10457900  0.87590000  1
  O  O42  1  0.09390900  0.86382600  0.61145700  1
  O  O43  1  0.26667800  0.34828200  0.63333200  1
  O  O44  1  0.09754300  0.61332500  0.38599000  1
  O  O45  1  0.07258400  0.41062700  0.11653500  1
