# generated using pymatgen
data_Li4MnSb(WO6)2
_symmetry_space_group_name_H-M   'P 1'
_cell_length_a   5.13566173
_cell_length_b   9.66530980
_cell_length_c   9.02913945
_cell_angle_alpha   109.22489766
_cell_angle_beta   89.55668266
_cell_angle_gamma   90.67123505
_symmetry_Int_Tables_number   1
_chemical_formula_structural   Li4MnSb(WO6)2
_chemical_formula_sum   'Li8 Mn2 Sb2 W4 O24'
_cell_volume   423.15982273
_cell_formula_units_Z   2
loop_
 _symmetry_equiv_pos_site_id
 _symmetry_equiv_pos_as_xyz
  1  'x, y, z'
loop_
 _atom_site_type_symbol
 _atom_site_label
 _atom_site_symmetry_multiplicity
 _atom_site_fract_x
 _atom_site_fract_y
 _atom_site_fract_z
 _atom_site_occupancy
  Li  Li0  1  0.99747300  0.43252000  0.13329700  1
  Li  Li1  1  0.99747300  0.93251900  0.63328800  1
  Li  Li2  1  0.50437300  0.92862600  0.16004600  1
  Li  Li3  1  0.50437900  0.42865500  0.66004400  1
  Li  Li4  1  0.99721200  0.13663200  0.38605800  1
  Li  Li5  1  0.99721600  0.63665900  0.88607000  1
  Li  Li6  1  0.50063900  0.68935600  0.39137600  1
  Li  Li7  1  0.50064400  0.18934000  0.89139000  1
  Mn  Mn8  1  0.50134400  0.50298000  0.00289300  1
  Mn  Mn9  1  0.50125200  0.00297800  0.50290400  1
  Sb  Sb10  1  0.99715400  0.00253700  0.99903300  1
  Sb  Sb11  1  0.99714200  0.50253800  0.49903800  1
  W  W12  1  0.00380400  0.25143600  0.74921200  1
  W  W13  1  0.49459200  0.25246900  0.25154100  1
  W  W14  1  0.49460300  0.75247700  0.75153700  1
  W  W15  1  0.00380900  0.75143700  0.24921000  1
  O  O16  1  0.30160000  0.62308500  0.18403400  1
  O  O17  1  0.30161300  0.12308700  0.68405500  1
  O  O18  1  0.12279000  0.86778600  0.11792000  1
  O  O19  1  0.12278700  0.36778100  0.61792400  1
  O  O20  1  0.31894700  0.12320600  0.05594100  1
  O  O21  1  0.31895600  0.62320600  0.55594200  1
  O  O22  1  0.19755400  0.86840400  0.42902600  1
  O  O23  1  0.19755900  0.36839200  0.92901800  1
  O  O24  1  0.80087300  0.11126600  0.19071300  1
  O  O25  1  0.80086600  0.61126100  0.69071700  1
  O  O26  1  0.37247600  0.12045100  0.35348200  1
  O  O27  1  0.37253300  0.62045700  0.85350300  1
  O  O28  1  0.63461500  0.35505700  0.12648600  1
  O  O29  1  0.63467100  0.85511200  0.62652700  1
  O  O30  1  0.18310400  0.37211100  0.30762100  1
  O  O31  1  0.18311400  0.87211300  0.80761700  1
  O  O32  1  0.81728100  0.61765200  0.07059100  1
  O  O33  1  0.81729200  0.11766800  0.57059500  1
  O  O34  1  0.68411500  0.36671100  0.43972800  1
  O  O35  1  0.68412100  0.86671400  0.93973300  1
  O  O36  1  0.87396800  0.61868500  0.36762500  1
  O  O37  1  0.87398100  0.11867300  0.86759500  1
  O  O38  1  0.69602900  0.86579000  0.31894500  1
  O  O39  1  0.69604000  0.36578000  0.81893000  1
