# generated using pymatgen
data_Li9Mn4(BO3)8
_symmetry_space_group_name_H-M   'P 1'
_cell_length_a   5.21371000
_cell_length_b   8.79872362
_cell_length_c   9.71670665
_cell_angle_alpha   89.07092770
_cell_angle_beta   86.32864910
_cell_angle_gamma   89.00391356
_symmetry_Int_Tables_number   1
_chemical_formula_structural   Li9Mn4(BO3)8
_chemical_formula_sum   'Li9 Mn4 B8 O24'
_cell_volume   444.71120002
_cell_formula_units_Z   1
loop_
 _symmetry_equiv_pos_site_id
 _symmetry_equiv_pos_as_xyz
  1  'x, y, z'
loop_
 _atom_site_type_symbol
 _atom_site_label
 _atom_site_symmetry_multiplicity
 _atom_site_fract_x
 _atom_site_fract_y
 _atom_site_fract_z
 _atom_site_occupancy
  Li  Li0  1  0.86580800  0.01669100  0.68116200  1
  Li  Li1  1  0.70483400  0.53448400  0.38456500  1
  Li  Li2  1  0.89932400  0.05550800  0.14537000  1
  Li  Li3  1  0.82099400  0.34945400  0.61893300  1
  Li  Li4  1  0.62701200  0.57120600  0.83750100  1
  Li  Li5  1  0.33003500  0.47293200  0.60768600  1
  Li  Li6  1  0.38336500  0.43398400  0.15736200  1
  Li  Li7  1  0.22182800  0.96802600  0.88826400  1
  Li  Li8  1  0.19252300  0.68651000  0.37211300  1
  Mn  Mn9  1  0.11831300  0.29836500  0.87695100  1
  Mn  Mn10  1  0.60923600  0.20529300  0.37617700  1
  Mn  Mn11  1  0.38530500  0.79569500  0.62302700  1
  Mn  Mn12  1  0.89474100  0.70970200  0.12097200  1
  B  B13  1  0.84873000  0.67836300  0.61037500  1
  B  B14  1  0.84673800  0.36786000  0.13864500  1
  B  B15  1  0.67799800  0.21331700  0.88514200  1
  B  B16  1  0.68191900  0.86392300  0.36377600  1
  B  B17  1  0.33024700  0.14964200  0.63825100  1
  B  B18  1  0.33842200  0.78964700  0.11421600  1
  B  B19  1  0.15845300  0.63652100  0.86635100  1
  B  B20  1  0.17111300  0.29461100  0.38559500  1
  O  O21  1  0.91831900  0.65970600  0.93035600  1
  O  O22  1  0.91728200  0.33387800  0.40596100  1
  O  O23  1  0.89056600  0.11493600  0.89405700  1
  O  O24  1  0.76491500  0.36062900  0.85547700  1
  O  O25  1  0.85405000  0.74678400  0.31790300  1
  O  O26  1  0.76091800  0.01068900  0.34166600  1
  O  O27  1  0.68104700  0.55898400  0.60530800  1
  O  O28  1  0.75257300  0.82047000  0.64613600  1
  O  O29  1  0.75032900  0.51203000  0.16684600  1
  O  O30  1  0.68215300  0.24954400  0.17982800  1
  O  O31  1  0.57888600  0.17919000  0.57780200  1
  O  O32  1  0.58699300  0.82954000  0.10148400  1
  O  O33  1  0.42813100  0.17265800  0.89559400  1
  O  O34  1  0.45271700  0.81717400  0.42621700  1
  O  O35  1  0.26704700  0.49338200  0.84329100  1
  O  O36  1  0.31418300  0.75451300  0.82069900  1
  O  O37  1  0.26451000  0.14964900  0.36075600  1
  O  O38  1  0.23771200  0.01019800  0.66500800  1
  O  O39  1  0.37269800  0.39913300  0.39057600  1
  O  O40  1  0.17188400  0.27757300  0.67577400  1
  O  O41  1  0.24704000  0.64500000  0.15430900  1
  O  O42  1  0.12983000  0.88497300  0.08651000  1
  O  O43  1  0.10956100  0.65466300  0.57905400  1
  O  O44  1  0.08393300  0.33326700  0.07384300  1
