# generated using pymatgen
data_LiMnP4(H2O7)2
_symmetry_space_group_name_H-M   'P 1'
_cell_length_a   7.24679992
_cell_length_b   8.76666491
_cell_length_c   10.33471838
_cell_angle_alpha   65.85312724
_cell_angle_beta   71.49462060
_cell_angle_gamma   94.71472833
_symmetry_Int_Tables_number   1
_chemical_formula_structural   LiMnP4(H2O7)2
_chemical_formula_sum   'Li2 Mn2 P8 H8 O28'
_cell_volume   550.81941744
_cell_formula_units_Z   2
loop_
 _symmetry_equiv_pos_site_id
 _symmetry_equiv_pos_as_xyz
  1  'x, y, z'
loop_
 _atom_site_type_symbol
 _atom_site_label
 _atom_site_symmetry_multiplicity
 _atom_site_fract_x
 _atom_site_fract_y
 _atom_site_fract_z
 _atom_site_occupancy
  Li  Li0  1  0.00003800  0.99996600  0.00011300  1
  Li  Li1  1  0.99985900  0.50030700  0.49979300  1
  Mn  Mn2  1  0.49977100  0.49992100  0.50001700  1
  Mn  Mn3  1  0.49980800  0.99989700  0.99990200  1
  P  P4  1  0.21965500  0.98576400  0.31541100  1
  P  P5  1  0.21956600  0.48569100  0.81560200  1
  P  P6  1  0.78050900  0.01425800  0.68442700  1
  P  P7  1  0.78046700  0.51426600  0.18455200  1
  P  P8  1  0.62568800  0.91724900  0.31037500  1
  P  P9  1  0.62566400  0.41738300  0.81040100  1
  P  P10  1  0.37430400  0.08263400  0.68964800  1
  P  P11  1  0.37438000  0.58274800  0.18951900  1
  H  H12  1  0.78762600  0.16632000  0.27609100  1
  H  H13  1  0.78768400  0.66647300  0.77599100  1
  H  H14  1  0.21236100  0.83347800  0.72405000  1
  H  H15  1  0.21243100  0.33361600  0.22390800  1
  H  H16  1  0.97065700  0.83521300  0.53491600  1
  H  H17  1  0.97061400  0.33508200  0.03505000  1
  H  H18  1  0.02947900  0.16492200  0.46497500  1
  H  H19  1  0.02952200  0.66483600  0.96513400  1
  O  O20  1  0.25436400  0.97949000  0.16384100  1
  O  O21  1  0.25448900  0.47942500  0.66404400  1
  O  O22  1  0.74567800  0.02051200  0.83600100  1
  O  O23  1  0.74552200  0.52049900  0.33618600  1
  O  O24  1  0.15944300  0.14235700  0.32585100  1
  O  O25  1  0.15935500  0.64231900  0.82601400  1
  O  O26  1  0.84061400  0.85764700  0.67392900  1
  O  O27  1  0.84056300  0.35765100  0.17414900  1
  O  O28  1  0.69663400  0.93532900  0.14827000  1
  O  O29  1  0.69637300  0.43553500  0.64830300  1
  O  O30  1  0.30346200  0.06459800  0.85175200  1
  O  O31  1  0.30348100  0.56466800  0.35161900  1
  O  O32  1  0.41251000  0.26109900  0.55802700  1
  O  O33  1  0.41285100  0.76119000  0.05780100  1
  O  O34  1  0.58660300  0.73867400  0.44229600  1
  O  O35  1  0.58746600  0.23886000  0.94197700  1
  O  O36  1  0.42392900  0.98353700  0.34413900  1
  O  O37  1  0.42367500  0.48327700  0.84452000  1
  O  O38  1  0.57628900  0.01670200  0.65563500  1
  O  O39  1  0.57631800  0.51673600  0.15561600  1
  O  O40  1  0.77071500  0.03566300  0.33291400  1
  O  O41  1  0.77076500  0.53579200  0.83283000  1
  O  O42  1  0.22924600  0.96416400  0.66721400  1
  O  O43  1  0.22929000  0.46427600  0.16709700  1
  O  O44  1  0.06212800  0.81417100  0.44819300  1
  O  O45  1  0.06205800  0.31410000  0.94828800  1
  O  O46  1  0.93797700  0.18587500  0.55172400  1
  O  O47  1  0.93812100  0.68583100  0.05189100  1
