# generated using pymatgen
data_LiFe2F7
_symmetry_space_group_name_H-M   'P 1'
_cell_length_a   5.10341300
_cell_length_b   7.47101300
_cell_length_c   13.00480091
_cell_angle_alpha   84.43390964
_cell_angle_beta   90.00000000
_cell_angle_gamma   90.00000000
_symmetry_Int_Tables_number   1
_chemical_formula_structural   LiFe2F7
_chemical_formula_sum   'Li4 Fe8 F28'
_cell_volume   493.50478204
_cell_formula_units_Z   4
loop_
 _symmetry_equiv_pos_site_id
 _symmetry_equiv_pos_as_xyz
  1  'x, y, z'
loop_
 _atom_site_type_symbol
 _atom_site_label
 _atom_site_symmetry_multiplicity
 _atom_site_fract_x
 _atom_site_fract_y
 _atom_site_fract_z
 _atom_site_occupancy
  Li  Li0  1  0.25492700  0.14708200  0.07113800  1
  Li  Li1  1  0.24507300  0.64708200  0.07113800  1
  Li  Li2  1  0.75492700  0.35291800  0.92886200  1
  Li  Li3  1  0.74507300  0.85291800  0.92886200  1
  Fe  Fe4  1  0.75208800  0.34360100  0.18142700  1
  Fe  Fe5  1  0.74791200  0.84360100  0.18142700  1
  Fe  Fe6  1  0.24730400  0.27620200  0.39326500  1
  Fe  Fe7  1  0.25269600  0.77620200  0.39326500  1
  Fe  Fe8  1  0.74730400  0.22379800  0.60673500  1
  Fe  Fe9  1  0.75269600  0.72379800  0.60673500  1
  Fe  Fe10  1  0.25208800  0.15639900  0.81857300  1
  Fe  Fe11  1  0.24791200  0.65639900  0.81857300  1
  F  F12  1  0.05468300  0.42322000  0.10576200  1
  F  F13  1  0.55955400  0.31162300  0.05716700  1
  F  F14  1  0.89504000  0.09175300  0.17659500  1
  F  F15  1  0.44531700  0.92322000  0.10576200  1
  F  F16  1  0.94044600  0.81162300  0.05716700  1
  F  F17  1  0.60496000  0.59175300  0.17659500  1
  F  F18  1  0.93753800  0.35769700  0.31333300  1
  F  F19  1  0.44326800  0.25155600  0.26399800  1
  F  F20  1  0.56246200  0.85769700  0.31333300  1
  F  F21  1  0.05673200  0.75155600  0.26399800  1
  F  F22  1  0.36607600  0.52612300  0.39187000  1
  F  F23  1  0.13392400  0.02612300  0.39187000  1
  F  F24  1  0.55095600  0.19940800  0.47832500  1
  F  F25  1  0.05095600  0.30059200  0.52167500  1
  F  F26  1  0.94904400  0.69940800  0.47832500  1
  F  F27  1  0.44904400  0.80059200  0.52167500  1
  F  F28  1  0.86607600  0.97387700  0.60813000  1
  F  F29  1  0.63392400  0.47387700  0.60813000  1
  F  F30  1  0.94326800  0.24844400  0.73600200  1
  F  F31  1  0.43753800  0.14230300  0.68666700  1
  F  F32  1  0.55673200  0.74844400  0.73600200  1
  F  F33  1  0.06246200  0.64230300  0.68666700  1
  F  F34  1  0.39504000  0.40824700  0.82340500  1
  F  F35  1  0.05955400  0.18837700  0.94283300  1
  F  F36  1  0.55468300  0.07678000  0.89423800  1
  F  F37  1  0.10496000  0.90824700  0.82340500  1
  F  F38  1  0.44044600  0.68837700  0.94283300  1
  F  F39  1  0.94531700  0.57678000  0.89423800  1
