# generated using pymatgen
data_LiAg2F4
_symmetry_space_group_name_H-M   'P 1'
_cell_length_a   5.58988100
_cell_length_b   7.27932200
_cell_length_c   9.95000100
_cell_angle_alpha   90.00000000
_cell_angle_beta   90.00000000
_cell_angle_gamma   90.00000000
_symmetry_Int_Tables_number   1
_chemical_formula_structural   LiAg2F4
_chemical_formula_sum   'Li4 Ag8 F16'
_cell_volume   404.87095091
_cell_formula_units_Z   4
loop_
 _symmetry_equiv_pos_site_id
 _symmetry_equiv_pos_as_xyz
  1  'x, y, z'
loop_
 _atom_site_type_symbol
 _atom_site_label
 _atom_site_symmetry_multiplicity
 _atom_site_fract_x
 _atom_site_fract_y
 _atom_site_fract_z
 _atom_site_occupancy
  Li  Li0  1  0.48354300  0.75000000  0.17633100  1
  Li  Li1  1  0.98354300  0.25000000  0.32366900  1
  Li  Li2  1  0.01645700  0.75000000  0.67633100  1
  Li  Li3  1  0.51645700  0.25000000  0.82366900  1
  Ag  Ag4  1  0.00000000  0.00000000  0.00000000  1
  Ag  Ag5  1  0.00000000  0.50000000  0.00000000  1
  Ag  Ag6  1  0.48216700  0.25000000  0.14935200  1
  Ag  Ag7  1  0.98216700  0.75000000  0.35064800  1
  Ag  Ag8  1  0.50000000  0.00000000  0.50000000  1
  Ag  Ag9  1  0.50000000  0.50000000  0.50000000  1
  Ag  Ag10  1  0.01783300  0.25000000  0.64935200  1
  Ag  Ag11  1  0.51783300  0.75000000  0.85064800  1
  F  F12  1  0.32247900  0.53917700  0.10831300  1
  F  F13  1  0.32247900  0.96082300  0.10831300  1
  F  F14  1  0.80942200  0.75000000  0.13062000  1
  F  F15  1  0.90787000  0.25000000  0.13574400  1
  F  F16  1  0.40787000  0.75000000  0.36425600  1
  F  F17  1  0.30942200  0.25000000  0.36938000  1
  F  F18  1  0.82247900  0.03917700  0.39168700  1
  F  F19  1  0.82247900  0.46082300  0.39168700  1
  F  F20  1  0.17752100  0.53917700  0.60831300  1
  F  F21  1  0.17752100  0.96082300  0.60831300  1
  F  F22  1  0.69057800  0.75000000  0.63062000  1
  F  F23  1  0.59213000  0.25000000  0.63574400  1
  F  F24  1  0.09213000  0.75000000  0.86425600  1
  F  F25  1  0.19057800  0.25000000  0.86938000  1
  F  F26  1  0.67752100  0.03917700  0.89168700  1
  F  F27  1  0.67752100  0.46082300  0.89168700  1
