# generated using pymatgen
data_LiNiO2
_symmetry_space_group_name_H-M   'P 1'
_cell_length_a   4.05083814
_cell_length_b   5.10558416
_cell_length_c   4.05085114
_cell_angle_alpha   66.61353554
_cell_angle_beta   90.02964616
_cell_angle_gamma   113.38641612
_symmetry_Int_Tables_number   1
_chemical_formula_structural   LiNiO2
_chemical_formula_sum   'Li2 Ni2 O4'
_cell_volume   69.34246616
_cell_formula_units_Z   2
loop_
 _symmetry_equiv_pos_site_id
 _symmetry_equiv_pos_as_xyz
  1  'x, y, z'
loop_
 _atom_site_type_symbol
 _atom_site_label
 _atom_site_symmetry_multiplicity
 _atom_site_fract_x
 _atom_site_fract_y
 _atom_site_fract_z
 _atom_site_occupancy
  Li  Li0  1  0.24999500  0.50000100  0.24999300  1
  Li  Li1  1  0.50000600  0.99999900  0.50000700  1
  Ni  Ni2  1  0.99999300  0.99999400  0.99999900  1
  Ni  Ni3  1  0.75000600  0.50000600  0.75000100  1
  O  O4  1  0.77150800  0.54305300  0.22847800  1
  O  O5  1  0.22847900  0.45694800  0.77150700  1
  O  O6  1  0.52153500  0.04304400  0.97847900  1
  O  O7  1  0.97847800  0.95695400  0.52153500  1
