# generated using pymatgen
data_Li4V2Fe5O12
_symmetry_space_group_name_H-M   'P 1'
_cell_length_a   5.12407362
_cell_length_b   9.06229221
_cell_length_c   9.97310025
_cell_angle_alpha   89.99999634
_cell_angle_beta   101.65823212
_cell_angle_gamma   90.00000950
_symmetry_Int_Tables_number   1
_chemical_formula_structural   Li4V2Fe5O12
_chemical_formula_sum   'Li8 V4 Fe10 O24'
_cell_volume   453.55564035
_cell_formula_units_Z   2
loop_
 _symmetry_equiv_pos_site_id
 _symmetry_equiv_pos_as_xyz
  1  'x, y, z'
loop_
 _atom_site_type_symbol
 _atom_site_label
 _atom_site_symmetry_multiplicity
 _atom_site_fract_x
 _atom_site_fract_y
 _atom_site_fract_z
 _atom_site_occupancy
  Li  Li0  1  0.24287400  0.07952500  0.99562300  1
  Li  Li1  1  0.76298700  0.07785700  0.50756600  1
  Li  Li2  1  0.49189600  0.42092000  0.75301500  1
  Li  Li3  1  0.74829700  0.41641900  0.50098300  1
  Li  Li4  1  0.25712600  0.57952500  0.50437700  1
  Li  Li5  1  0.73701300  0.57785700  0.99243400  1
  Li  Li6  1  0.00810400  0.92092000  0.74698500  1
  Li  Li7  1  0.75170300  0.91641900  0.99901700  1
  V  V8  1  0.00455100  0.25456200  0.75704300  1
  V  V9  1  0.49531900  0.25301200  0.24434400  1
  V  V10  1  0.00468100  0.75301200  0.25565600  1
  V  V11  1  0.49544900  0.75456200  0.74295700  1
  Fe  Fe12  1  0.00157800  0.07709400  0.25799800  1
  Fe  Fe13  1  0.49610000  0.07438400  0.74282200  1
  Fe  Fe14  1  0.25640400  0.24415200  0.50333700  1
  Fe  Fe15  1  0.74159700  0.25361900  0.99799600  1
  Fe  Fe16  1  0.01120000  0.42143000  0.25183100  1
  Fe  Fe17  1  0.00390000  0.57438400  0.75717800  1
  Fe  Fe18  1  0.49842200  0.57709400  0.24200200  1
  Fe  Fe19  1  0.24359600  0.74415200  0.99666300  1
  Fe  Fe20  1  0.75840300  0.75361900  0.50200400  1
  Fe  Fe21  1  0.48880000  0.92143000  0.24816900  1
  O  O22  1  0.12636000  0.10092700  0.63966100  1
  O  O23  1  0.40355300  0.09450900  0.36421500  1
  O  O24  1  0.36473900  0.23598000  0.86522100  1
  O  O25  1  0.61442100  0.09083900  0.12158200  1
  O  O26  1  0.86465600  0.10030500  0.87590500  1
  O  O27  1  0.11213400  0.25044800  0.13513300  1
  O  O28  1  0.11130400  0.40856200  0.64058600  1
  O  O29  1  0.65161100  0.23915200  0.63981500  1
  O  O30  1  0.86653200  0.26045500  0.36554700  1
  O  O31  1  0.37050500  0.41213900  0.37337200  1
  O  O32  1  0.63936200  0.40874700  0.12864200  1
  O  O33  1  0.86592600  0.40637000  0.86767200  1
  O  O34  1  0.09644700  0.59450900  0.13578500  1
  O  O35  1  0.37364000  0.60092700  0.86033900  1
  O  O36  1  0.13526100  0.73598000  0.63477900  1
  O  O37  1  0.63534400  0.60030500  0.62409500  1
  O  O38  1  0.38786600  0.75044800  0.36486700  1
  O  O39  1  0.88557900  0.59083900  0.37841800  1
  O  O40  1  0.84838900  0.73915200  0.86018500  1
  O  O41  1  0.12949500  0.91213900  0.12662800  1
  O  O42  1  0.38869600  0.90856200  0.85941400  1
  O  O43  1  0.63346800  0.76045400  0.13445300  1
  O  O44  1  0.63407400  0.90637000  0.63232800  1
  O  O45  1  0.86063800  0.90874700  0.37135800  1
