# generated using pymatgen
data_Li24Ti5Cr7O36
_symmetry_space_group_name_H-M   'P 1'
_cell_length_a   5.05823400
_cell_length_b   9.79399030
_cell_length_c   13.40285366
_cell_angle_alpha   97.15466333
_cell_angle_beta   100.68910438
_cell_angle_gamma   94.81454779
_symmetry_Int_Tables_number   1
_chemical_formula_structural   Li24Ti5Cr7O36
_chemical_formula_sum   'Li24 Ti5 Cr7 O36'
_cell_volume   643.46704475
_cell_formula_units_Z   1
loop_
 _symmetry_equiv_pos_site_id
 _symmetry_equiv_pos_as_xyz
  1  'x, y, z'
loop_
 _atom_site_type_symbol
 _atom_site_label
 _atom_site_symmetry_multiplicity
 _atom_site_fract_x
 _atom_site_fract_y
 _atom_site_fract_z
 _atom_site_occupancy
  Li  Li0  1  0.17514500  0.99897700  0.83216000  1
  Li  Li1  1  0.04562300  0.00042800  0.61310800  1
  Li  Li2  1  0.00036500  0.74893500  0.24891200  1
  Li  Li3  1  0.33116300  0.74905100  0.91716500  1
  Li  Li4  1  0.04822000  0.50038900  0.11313300  1
  Li  Li5  1  0.37671700  0.50012800  0.77930700  1
  Li  Li6  1  0.16618500  0.50161500  0.33314200  1
  Li  Li7  1  0.50456500  0.49948000  0.99937700  1
  Li  Li8  1  0.28667100  0.50256900  0.55555900  1
  Li  Li9  1  0.33339900  0.24963400  0.41691400  1
  Li  Li10  1  0.50800100  0.99796300  0.49999700  1
  Li  Li11  1  0.28356200  0.99739800  0.05223100  1
  Li  Li12  1  0.61481800  0.99896200  0.71994600  1
  Li  Li13  1  0.38334000  0.99849000  0.28037000  1
  Li  Li14  1  0.71465700  0.00189600  0.94680500  1
  Li  Li15  1  0.66614000  0.75038700  0.58255900  1
  Li  Li16  1  0.70792800  0.49872400  0.44492600  1
  Li  Li17  1  0.84393700  0.49968900  0.66589800  1
  Li  Li18  1  0.61948800  0.50042400  0.22141900  1
  Li  Li19  1  0.94628000  0.49843500  0.88575400  1
  Li  Li20  1  0.66415300  0.24948100  0.08349900  1
  Li  Li21  1  0.82758000  0.00272700  0.16689700  1
  Li  Li22  1  0.99896400  0.25035900  0.74875700  1
  Li  Li23  1  0.95254500  0.00217000  0.38719800  1
  Ti  Ti24  1  0.10749900  0.24682000  0.97190400  1
  Ti  Ti25  1  0.11817400  0.75770900  0.47369800  1
  Ti  Ti26  1  0.22228500  0.24783600  0.19404200  1
  Ti  Ti27  1  0.45352200  0.25741700  0.64031100  1
  Ti  Ti28  1  0.77508300  0.74669900  0.80775200  1
  Cr  Cr29  1  0.21791900  0.75023000  0.69385200  1
  Cr  Cr30  1  0.55048200  0.24946200  0.85969900  1
  Cr  Cr31  1  0.43743700  0.74697100  0.13513700  1
  Cr  Cr32  1  0.56274000  0.74862800  0.35851800  1
  Cr  Cr33  1  0.77205900  0.24917300  0.30730500  1
  Cr  Cr34  1  0.89902400  0.24982800  0.52650900  1
  Cr  Cr35  1  0.89000700  0.75121300  0.03152300  1
  O  O36  1  0.99816700  0.86236300  0.93078100  1
  O  O37  1  0.06840200  0.63365100  0.78672400  1
  O  O38  1  0.00297300  0.36235300  0.43316700  1
  O  O39  1  0.14777300  0.36405800  0.64454800  1
  O  O40  1  0.27106700  0.36419200  0.88040400  1
  O  O41  1  0.33943800  0.86605900  0.59475000  1
  O  O42  1  0.06698800  0.13596000  0.28698000  1
  O  O43  1  0.18214100  0.13728100  0.52267700  1
  O  O44  1  0.40098200  0.13312800  0.95275000  1
  O  O45  1  0.13320600  0.86175000  0.14096700  1
  O  O46  1  0.26537500  0.86479800  0.37973200  1
  O  O47  1  0.47189000  0.86162000  0.80907100  1
  O  O48  1  0.33604300  0.13839800  0.74100700  1
  O  O49  1  0.19685400  0.63693300  0.02586100  1
  O  O50  1  0.40434300  0.63568800  0.44985100  1
  O  O51  1  0.51906300  0.63878700  0.68917100  1
  O  O52  1  0.33057900  0.63707500  0.23491200  1
  O  O53  1  0.66617700  0.63742200  0.90691600  1
  O  O54  1  0.33111800  0.36360800  0.09564000  1
  O  O55  1  0.67241800  0.36523400  0.76132900  1
  O  O56  1  0.48470700  0.36260500  0.31183500  1
  O  O57  1  0.59898600  0.36491800  0.54680800  1
  O  O58  1  0.80594400  0.36119600  0.97535100  1
  O  O59  1  0.66372500  0.85952100  0.26335200  1
  O  O60  1  0.51904300  0.13513700  0.18941500  1
  O  O61  1  0.73846900  0.13612300  0.61635200  1
  O  O62  1  0.85187900  0.13842700  0.85487100  1
  O  O63  1  0.59094400  0.86437000  0.05252800  1
  O  O64  1  0.81360200  0.86427000  0.47717000  1
  O  O65  1  0.93790600  0.86475000  0.71437700  1
  O  O66  1  0.66304500  0.13829500  0.40071900  1
  O  O67  1  0.74299200  0.63525300  0.11612200  1
  O  O68  1  0.84941300  0.63707500  0.35581400  1
  O  O69  1  0.00339300  0.63885900  0.57451500  1
  O  O70  1  0.92803300  0.36383500  0.21718800  1
  O  O71  1  0.99724300  0.13471000  0.07106400  1
