# generated using pymatgen
data_Li3Mn4(BO3)4
_symmetry_space_group_name_H-M   'P 1'
_cell_length_a   9.10429500
_cell_length_b   9.12614009
_cell_length_c   10.45568462
_cell_angle_alpha   92.02628180
_cell_angle_beta   89.76139486
_cell_angle_gamma   119.79971066
_symmetry_Int_Tables_number   1
_chemical_formula_structural   Li3Mn4(BO3)4
_chemical_formula_sum   'Li9 Mn12 B12 O36'
_cell_volume   753.29656871
_cell_formula_units_Z   3
loop_
 _symmetry_equiv_pos_site_id
 _symmetry_equiv_pos_as_xyz
  1  'x, y, z'
loop_
 _atom_site_type_symbol
 _atom_site_label
 _atom_site_symmetry_multiplicity
 _atom_site_fract_x
 _atom_site_fract_y
 _atom_site_fract_z
 _atom_site_occupancy
  Li  Li0  1  0.96353100  0.89584400  0.34064100  1
  Li  Li1  1  0.39388700  0.78007300  0.09073100  1
  Li  Li2  1  0.72796000  0.44429300  0.59565100  1
  Li  Li3  1  0.62806600  0.22791300  0.33808400  1
  Li  Li4  1  0.28946600  0.56304600  0.32625500  1
  Li  Li5  1  0.27520700  0.56852200  0.84072400  1
  Li  Li6  1  0.59437600  0.22932100  0.83264300  1
  Li  Li7  1  0.03686600  0.09891600  0.07843100  1
  Li  Li8  1  0.04654200  0.10615400  0.58803300  1
  Mn  Mn9  1  0.65204700  0.90381500  0.87639200  1
  Mn  Mn10  1  0.72221700  0.74848600  0.12139600  1
  Mn  Mn11  1  0.94853500  0.58036700  0.86675700  1
  Mn  Mn12  1  0.29595300  0.90190900  0.36617100  1
  Mn  Mn13  1  0.61712300  0.55284800  0.36931700  1
  Mn  Mn14  1  0.94676300  0.22810200  0.37190800  1
  Mn  Mn15  1  0.38984700  0.45168400  0.62466400  1
  Mn  Mn16  1  0.07094200  0.78483700  0.61750100  1
  Mn  Mn17  1  0.68784200  0.08703300  0.61326100  1
  Mn  Mn18  1  0.40311500  0.13289200  0.11674800  1
  Mn  Mn19  1  0.04036300  0.44391700  0.11545700  1
  Mn  Mn20  1  0.24669600  0.20069100  0.86172700  1
  B  B21  1  0.61653200  0.88348500  0.36344000  1
  B  B22  1  0.95236100  0.55820200  0.37699600  1
  B  B23  1  0.72990300  0.77963000  0.63324700  1
  B  B24  1  0.29769800  0.89039500  0.87527500  1
  B  B25  1  0.92388900  0.22153100  0.87664600  1
  B  B26  1  0.60006800  0.54661700  0.86265900  1
  B  B27  1  0.07453000  0.79714600  0.11471300  1
  B  B28  1  0.73248000  0.10281500  0.12831900  1
  B  B29  1  0.37703200  0.43786300  0.12159200  1
  B  B30  1  0.28164300  0.22854800  0.38832700  1
  B  B31  1  0.38470100  0.12245700  0.61838000  1
  B  B32  1  0.03800400  0.43019300  0.64141400  1
  O  O33  1  0.98526800  0.87869900  0.14124100  1
  O  O34  1  0.89907800  0.87048700  0.61705500  1
  O  O35  1  0.99262600  0.63508700  0.05181800  1
  O  O36  1  0.65961100  0.93954200  0.06748700  1
  O  O37  1  0.71974700  0.81433100  0.33104200  1
  O  O38  1  0.64015800  0.85403300  0.68990400  1
  O  O39  1  0.94927900  0.51898000  0.67692000  1
  O  O40  1  0.67032500  0.70778400  0.91799400  1
  O  O41  1  0.31480800  0.95956600  0.56881600  1
  O  O42  1  0.63658800  0.60868600  0.58996800  1
  O  O43  1  0.44488800  0.79051300  0.35059700  1
  O  O44  1  0.78103300  0.45752900  0.40066300  1
  O  O45  1  0.94891600  0.26822100  0.58766500  1
  O  O46  1  0.37966200  0.80186300  0.89678300  1
  O  O47  1  0.24244500  0.86584000  0.15362500  1
  O  O48  1  0.69178300  0.46577100  0.86013600  1
  O  O49  1  0.90454900  0.18416500  0.16070600  1
  O  O50  1  0.54119400  0.49934500  0.16898400  1
  O  O51  1  0.13060500  0.80895400  0.82554900  1
  O  O52  1  0.43144600  0.46979000  0.81464700  1
  O  O53  1  0.75001900  0.14530300  0.84309500  1
  O  O54  1  0.30151300  0.53681300  0.12968500  1
  O  O55  1  0.63806000  0.17557300  0.15861600  1
  O  O56  1  0.03421400  0.73132400  0.40552600  1
  O  O57  1  0.36039000  0.40323700  0.43300100  1
  O  O58  1  0.55717500  0.21989500  0.63797000  1
  O  O59  1  0.69105100  0.05238400  0.40984400  1
  O  O60  1  0.20940600  0.51182200  0.65934800  1
  O  O61  1  0.28741200  0.27204600  0.06965700  1
  O  O62  1  0.38457600  0.16985900  0.33848700  1
  O  O63  1  0.04543300  0.48567800  0.32720200  1
  O  O64  1  0.27831100  0.18917100  0.65235400  1
  O  O65  1  0.37260700  0.06443200  0.90274900  1
  O  O66  1  0.01533700  0.39507700  0.90424400  1
  O  O67  1  0.10929500  0.13021400  0.39573400  1
  O  O68  1  0.99273600  0.11927100  0.88740500  1
