# generated using pymatgen
data_Li2Mn2Ni(PO4)3
_symmetry_space_group_name_H-M   'P 1'
_cell_length_a   8.49853990
_cell_length_b   8.49853990
_cell_length_c   8.33383229
_cell_angle_alpha   64.52027164
_cell_angle_beta   64.52027164
_cell_angle_gamma   63.07818669
_symmetry_Int_Tables_number   1
_chemical_formula_structural   Li2Mn2Ni(PO4)3
_chemical_formula_sum   'Li4 Mn4 Ni2 P6 O24'
_cell_volume   463.29710036
_cell_formula_units_Z   2
loop_
 _symmetry_equiv_pos_site_id
 _symmetry_equiv_pos_as_xyz
  1  'x, y, z'
loop_
 _atom_site_type_symbol
 _atom_site_label
 _atom_site_symmetry_multiplicity
 _atom_site_fract_x
 _atom_site_fract_y
 _atom_site_fract_z
 _atom_site_occupancy
  Li  Li0  1  0.35944300  0.64055700  0.50000000  1
  Li  Li1  1  0.65877000  0.34123000  0.00000000  1
  Li  Li2  1  0.24786300  0.15036900  0.60374400  1
  Li  Li3  1  0.84963100  0.75213700  0.39625600  1
  Mn  Mn4  1  0.35535600  0.85316400  0.10473400  1
  Mn  Mn5  1  0.14683600  0.64464400  0.89526600  1
  Mn  Mn6  1  0.84437800  0.34859800  0.59463200  1
  Mn  Mn7  1  0.65140200  0.15562200  0.40536800  1
  Ni  Ni8  1  0.49832600  0.00583200  0.24544600  1
  Ni  Ni9  1  0.99416800  0.50167400  0.75455400  1
  P  P10  1  0.74932300  0.56188400  0.17896600  1
  P  P11  1  0.43811600  0.25067700  0.82103400  1
  P  P12  1  0.06069700  0.93930300  0.50000000  1
  P  P13  1  0.95945900  0.04054100  0.00000000  1
  P  P14  1  0.54663900  0.74928800  0.69139400  1
  P  P15  1  0.25071200  0.45336100  0.30860600  1
  O  O16  1  0.18328800  0.51311100  0.14233900  1
  O  O17  1  0.00493900  0.88687500  0.92149800  1
  O  O18  1  0.58345200  0.75231200  0.17656900  1
  O  O19  1  0.40339000  0.67999000  0.70293100  1
  O  O20  1  0.68743400  0.40439400  0.21126000  1
  O  O21  1  0.89782100  0.58078900  0.98857200  1
  O  O22  1  0.41921100  0.10217900  0.01142800  1
  O  O23  1  0.24768800  0.41654800  0.82343100  1
  O  O24  1  0.11312500  0.99506100  0.07850200  1
  O  O25  1  0.08323900  0.74191000  0.64799300  1
  O  O26  1  0.76387400  0.05815300  0.14654700  1
  O  O27  1  0.48688900  0.81671200  0.85766100  1
  O  O28  1  0.46225200  0.19003600  0.66051300  1
  O  O29  1  0.25809000  0.91676100  0.35200700  1
  O  O30  1  0.94184700  0.23612600  0.85345300  1
  O  O31  1  0.90597400  0.96961600  0.43277500  1
  O  O32  1  0.74428800  0.59957000  0.68292900  1
  O  O33  1  0.57140200  0.90272300  0.49849800  1
  O  O34  1  0.09727700  0.42859800  0.50150200  1
  O  O35  1  0.32001000  0.59661000  0.29706900  1
  O  O36  1  0.59560600  0.31256600  0.78874000  1
  O  O37  1  0.40043000  0.25571200  0.31707100  1
  O  O38  1  0.03038400  0.09402600  0.56722500  1
  O  O39  1  0.80996400  0.53774800  0.33948700  1
