# generated using pymatgen
data_Li32Ti3Cr13O48
_symmetry_space_group_name_H-M   'P 1'
_cell_length_a   5.05447300
_cell_length_b   8.74335811
_cell_length_c   19.54708124
_cell_angle_alpha   97.99953062
_cell_angle_beta   94.93879759
_cell_angle_gamma   89.58071161
_symmetry_Int_Tables_number   1
_chemical_formula_structural   Li32Ti3Cr13O48
_chemical_formula_sum   'Li32 Ti3 Cr13 O48'
_cell_volume   852.25400939
_cell_formula_units_Z   1
loop_
 _symmetry_equiv_pos_site_id
 _symmetry_equiv_pos_as_xyz
  1  'x, y, z'
loop_
 _atom_site_type_symbol
 _atom_site_label
 _atom_site_symmetry_multiplicity
 _atom_site_fract_x
 _atom_site_fract_y
 _atom_site_fract_z
 _atom_site_occupancy
  Li  Li0  1  0.99083900  0.16897500  0.24927300  1
  Li  Li1  1  0.87448500  0.37497500  0.37529400  1
  Li  Li2  1  0.74954800  0.25131500  0.00025400  1
  Li  Li3  1  0.74098300  0.92054700  0.00072500  1
  Li  Li4  1  0.99169000  0.16904100  0.74993300  1
  Li  Li5  1  0.75421400  0.57827900  0.50052300  1
  Li  Li6  1  0.87369800  0.37497300  0.87580400  1
  Li  Li7  1  0.74235000  0.25156400  0.50043700  1
  Li  Li8  1  0.74440300  0.92207700  0.50020900  1
  Li  Li9  1  0.62524900  0.12488500  0.12506900  1
  Li  Li10  1  0.75736700  0.57814500  0.00050200  1
  Li  Li11  1  0.50907800  0.32924900  0.25040200  1
  Li  Li12  1  0.62600700  0.12591000  0.62524500  1
  Li  Li13  1  0.49264500  0.00083400  0.25034400  1
  Li  Li14  1  0.49385500  0.67134700  0.25010700  1
  Li  Li15  1  0.51492100  0.33050100  0.75042200  1
  Li  Li16  1  0.37491500  0.87591400  0.37478300  1
  Li  Li17  1  0.49031200  0.00289600  0.75001000  1
  Li  Li18  1  0.24675500  0.75277900  0.99995300  1
  Li  Li19  1  0.49173700  0.66885700  0.74959400  1
  Li  Li20  1  0.24217500  0.41824500  0.99944100  1
  Li  Li21  1  0.37451800  0.87549800  0.87505400  1
  Li  Li22  1  0.26237500  0.08108600  0.49948800  1
  Li  Li23  1  0.24900800  0.74982500  0.49946400  1
  Li  Li24  1  0.12502300  0.62487300  0.12503200  1
  Li  Li25  1  0.24445600  0.41898500  0.49955000  1
  Li  Li26  1  0.00994800  0.83050300  0.24966100  1
  Li  Li27  1  0.26143700  0.08107100  0.00005400  1
  Li  Li28  1  0.12751200  0.62436600  0.62400800  1
  Li  Li29  1  0.00067600  0.49874500  0.24947800  1
  Li  Li30  1  0.00871500  0.83024100  0.75030500  1
  Li  Li31  1  0.00077800  0.49880400  0.74998500  1
  Ti  Ti32  1  0.87664800  0.03840700  0.37412200  1
  Ti  Ti33  1  0.87429100  0.03744900  0.87348200  1
  Ti  Ti34  1  0.13015300  0.28880400  0.62664100  1
  Cr  Cr35  1  0.87507900  0.70304100  0.37456900  1
  Cr  Cr36  1  0.87697600  0.70287900  0.87529700  1
  Cr  Cr37  1  0.63154500  0.78944000  0.12475700  1
  Cr  Cr38  1  0.61838600  0.46028700  0.12537300  1
  Cr  Cr39  1  0.62067500  0.79674500  0.62388800  1
  Cr  Cr40  1  0.62963800  0.46198800  0.62526700  1
  Cr  Cr41  1  0.37862400  0.54858600  0.37571400  1
  Cr  Cr42  1  0.37084600  0.21279800  0.37454400  1
  Cr  Cr43  1  0.38115800  0.54741400  0.87646100  1
  Cr  Cr44  1  0.36896600  0.21174300  0.87505800  1
  Cr  Cr45  1  0.11791900  0.96024400  0.12533000  1
  Cr  Cr46  1  0.13137400  0.28972000  0.12490600  1
  Cr  Cr47  1  0.12004100  0.95228800  0.62419500  1
  O  O48  1  0.96617300  0.10128700  0.06828700  1
  O  O49  1  0.91893700  0.78319800  0.06873200  1
  O  O50  1  0.92626600  0.42722300  0.06868600  1
  O  O51  1  0.96536600  0.10417200  0.56856500  1
  O  O52  1  0.83038400  0.96683800  0.18121700  1
  O  O53  1  0.82467200  0.32285900  0.18176400  1
  O  O54  1  0.93557900  0.78805700  0.56854000  1
  O  O55  1  0.91936800  0.42899000  0.56737600  1
  O  O56  1  0.78450200  0.64861400  0.18164500  1
  O  O57  1  0.71405000  0.85363600  0.31854300  1
  O  O58  1  0.81325000  0.95851300  0.68103000  1
  O  O59  1  0.82724700  0.32075200  0.68398400  1
  O  O60  1  0.68764300  0.53852900  0.31886000  1
  O  O61  1  0.67236900  0.17872300  0.31741000  1
  O  O62  1  0.78340400  0.64025400  0.67970000  1
  O  O63  1  0.71327900  0.85324800  0.81855900  1
  O  O64  1  0.46579200  0.60129800  0.06885600  1
  O  O65  1  0.56515400  0.71139100  0.43127500  1
  O  O66  1  0.57117300  0.07355900  0.43260400  1
  O  O67  1  0.68742400  0.53904600  0.81920700  1
  O  O68  1  0.67431000  0.17976100  0.81794400  1
  O  O69  1  0.42677300  0.92649800  0.06853600  1
  O  O70  1  0.41875400  0.28355800  0.06902800  1
  O  O71  1  0.53539300  0.39649700  0.43043700  1
  O  O72  1  0.46258500  0.61216700  0.56865600  1
  O  O73  1  0.56454400  0.71216200  0.93152400  1
  O  O74  1  0.57007500  0.07454900  0.93252200  1
  O  O75  1  0.32292300  0.82360900  0.18156000  1
  O  O76  1  0.33205800  0.46633000  0.18176600  1
  O  O77  1  0.43312700  0.92505000  0.56694200  1
  O  O78  1  0.43286800  0.28769900  0.56915700  1
  O  O79  1  0.53609500  0.39743500  0.93142700  1
  O  O80  1  0.28453800  0.14865600  0.18147100  1
  O  O81  1  0.21654200  0.35807800  0.31975500  1
  O  O82  1  0.31362100  0.82512100  0.68204600  1
  O  O83  1  0.32576300  0.46631800  0.68117200  1
  O  O84  1  0.18368400  0.67307400  0.31706800  1
  O  O85  1  0.17705400  0.03433900  0.31766000  1
  O  O86  1  0.28698200  0.13892600  0.68130600  1
  O  O87  1  0.21699600  0.35581000  0.81986300  1
  O  O88  1  0.06533100  0.57509700  0.43220600  1
  O  O89  1  0.07901700  0.21583300  0.43125500  1
  O  O90  1  0.18387100  0.67213900  0.81744600  1
  O  O91  1  0.17550600  0.03319200  0.81768600  1
  O  O92  1  0.03619600  0.88951500  0.43124300  1
  O  O93  1  0.06604900  0.57496400  0.93264400  1
  O  O94  1  0.07860000  0.21667700  0.93131400  1
  O  O95  1  0.03472000  0.88961900  0.93151400  1
