# generated using pymatgen
data_Li32Mn3Cr13O48
_symmetry_space_group_name_H-M   'P 1'
_cell_length_a   5.01578900
_cell_length_b   8.71760228
_cell_length_c   19.45281275
_cell_angle_alpha   98.06877447
_cell_angle_beta   94.62709196
_cell_angle_gamma   89.57460251
_symmetry_Int_Tables_number   1
_chemical_formula_structural   Li32Mn3Cr13O48
_chemical_formula_sum   'Li32 Mn3 Cr13 O48'
_cell_volume   839.41509619
_cell_formula_units_Z   1
loop_
 _symmetry_equiv_pos_site_id
 _symmetry_equiv_pos_as_xyz
  1  'x, y, z'
loop_
 _atom_site_type_symbol
 _atom_site_label
 _atom_site_symmetry_multiplicity
 _atom_site_fract_x
 _atom_site_fract_y
 _atom_site_fract_z
 _atom_site_occupancy
  Li  Li0  1  0.98950200  0.16782700  0.24964600  1
  Li  Li1  1  0.87367600  0.37408900  0.37499000  1
  Li  Li2  1  0.74826000  0.24969000  0.99937400  1
  Li  Li3  1  0.73952700  0.91894800  0.00010800  1
  Li  Li4  1  0.99633400  0.16882200  0.74966300  1
  Li  Li5  1  0.75586600  0.58011600  0.49974700  1
  Li  Li6  1  0.87450100  0.37620900  0.87494200  1
  Li  Li7  1  0.75448600  0.24965100  0.49996700  1
  Li  Li8  1  0.73911800  0.91978600  0.50037400  1
  Li  Li9  1  0.62337600  0.12304900  0.12498500  1
  Li  Li10  1  0.75845600  0.58125300  0.00001100  1
  Li  Li11  1  0.50834900  0.33052500  0.25061600  1
  Li  Li12  1  0.62308700  0.12327100  0.62514000  1
  Li  Li13  1  0.49924200  0.00051000  0.24994200  1
  Li  Li14  1  0.49070200  0.66930200  0.25028300  1
  Li  Li15  1  0.50417300  0.33070800  0.74984300  1
  Li  Li16  1  0.37477700  0.87513200  0.37500200  1
  Li  Li17  1  0.50057800  0.00008100  0.75012600  1
  Li  Li18  1  0.25096000  0.75030600  0.00024200  1
  Li  Li19  1  0.48949900  0.66834700  0.75000700  1
  Li  Li20  1  0.24415600  0.42079700  0.99991100  1
  Li  Li21  1  0.37474800  0.87476000  0.87491100  1
  Li  Li22  1  0.25954200  0.07974700  0.50000600  1
  Li  Li23  1  0.24944800  0.75107700  0.50014900  1
  Li  Li24  1  0.12561200  0.62638900  0.12480000  1
  Li  Li25  1  0.24364500  0.42029900  0.50021500  1
  Li  Li26  1  0.01103400  0.83225500  0.25032500  1
  Li  Li27  1  0.25828300  0.07821300  0.99944300  1
  Li  Li28  1  0.12432600  0.62486600  0.62466300  1
  Li  Li29  1  0.00259900  0.50067700  0.25066600  1
  Li  Li30  1  0.01001800  0.83066500  0.75007800  1
  Li  Li31  1  0.99957000  0.50126400  0.74969900  1
  Mn  Mn32  1  0.37492300  0.54190200  0.37484300  1
  Mn  Mn33  1  0.37624100  0.20808500  0.87562700  1
  Mn  Mn34  1  0.12813100  0.29265500  0.62573400  1
  Cr  Cr35  1  0.86740400  0.70575200  0.37446800  1
  Cr  Cr36  1  0.88094900  0.03796200  0.37531000  1
  Cr  Cr37  1  0.86866900  0.71210800  0.87425200  1
  Cr  Cr38  1  0.88226300  0.04491400  0.87550800  1
  Cr  Cr39  1  0.62693900  0.78681400  0.12459800  1
  Cr  Cr40  1  0.62528000  0.45189500  0.12462800  1
  Cr  Cr41  1  0.62483300  0.78678900  0.62435200  1
  Cr  Cr42  1  0.62477200  0.45356900  0.62491800  1
  Cr  Cr43  1  0.37206500  0.21245400  0.37527700  1
  Cr  Cr44  1  0.37455000  0.53734800  0.87477800  1
  Cr  Cr45  1  0.11832200  0.96205900  0.12481300  1
  Cr  Cr46  1  0.12968300  0.29768900  0.12624400  1
  Cr  Cr47  1  0.11953600  0.96199500  0.62500100  1
  O  O48  1  0.96805000  0.10725100  0.06964900  1
  O  O49  1  0.91882000  0.78473300  0.06831800  1
  O  O50  1  0.93626500  0.42273400  0.06727200  1
  O  O51  1  0.96617600  0.10784500  0.56944900  1
  O  O52  1  0.82912800  0.96434600  0.18115900  1
  O  O53  1  0.81589200  0.32604200  0.18321800  1
  O  O54  1  0.91952600  0.78576200  0.56835000  1
  O  O55  1  0.93260200  0.42687100  0.56776500  1
  O  O56  1  0.78288500  0.64142000  0.18032100  1
  O  O57  1  0.71855500  0.85203300  0.31857800  1
  O  O58  1  0.82992500  0.96391000  0.68126200  1
  O  O59  1  0.82385800  0.32272800  0.68206700  1
  O  O60  1  0.67576500  0.53360000  0.31864100  1
  O  O61  1  0.67292900  0.17661300  0.31775800  1
  O  O62  1  0.78049700  0.64062800  0.68077700  1
  O  O63  1  0.71746000  0.85661300  0.81886900  1
  O  O64  1  0.46464400  0.60330000  0.06918000  1
  O  O65  1  0.56832300  0.71391000  0.43038900  1
  O  O66  1  0.57602600  0.07400800  0.43221300  1
  O  O67  1  0.66939700  0.53497600  0.81846800  1
  O  O68  1  0.67697400  0.17619300  0.81840000  1
  O  O69  1  0.42419500  0.92767500  0.06744600  1
  O  O70  1  0.43877000  0.28868100  0.06875300  1
  O  O71  1  0.53883600  0.39681200  0.43119400  1
  O  O72  1  0.46640900  0.60504300  0.56878400  1
  O  O73  1  0.57843400  0.71289100  0.93103700  1
  O  O74  1  0.56794800  0.07225800  0.93234900  1
  O  O75  1  0.32572100  0.82432600  0.18195000  1
  O  O76  1  0.31295900  0.46278500  0.18171000  1
  O  O77  1  0.42317000  0.92843900  0.56735900  1
  O  O78  1  0.42917200  0.28723300  0.56938500  1
  O  O79  1  0.53789700  0.39060300  0.93114700  1
  O  O80  1  0.28566700  0.14754000  0.18114700  1
  O  O81  1  0.21391200  0.35813600  0.31930200  1
  O  O82  1  0.32668900  0.82507800  0.68187700  1
  O  O83  1  0.31570900  0.46445300  0.68114500  1
  O  O84  1  0.18138300  0.67779300  0.31775600  1
  O  O85  1  0.16976300  0.03590800  0.31857500  1
  O  O86  1  0.29028200  0.14671600  0.68140200  1
  O  O87  1  0.21258300  0.35494300  0.81946800  1
  O  O88  1  0.07314300  0.57406100  0.43160600  1
  O  O89  1  0.08138600  0.21491900  0.43147500  1
  O  O90  1  0.17223900  0.67712700  0.81749500  1
  O  O91  1  0.18251200  0.03654500  0.81934200  1
  O  O92  1  0.03217800  0.89452000  0.43113400  1
  O  O93  1  0.07865300  0.57414100  0.93224700  1
  O  O94  1  0.07377800  0.21566300  0.93132700  1
  O  O95  1  0.03090300  0.89757400  0.93125900  1
