# generated using pymatgen
data_LiNiPO4
_symmetry_space_group_name_H-M   'P 1'
_cell_length_a   6.14461000
_cell_length_b   7.41324400
_cell_length_c   13.44958200
_cell_angle_alpha   90.00000000
_cell_angle_beta   90.00000000
_cell_angle_gamma   90.00000000
_symmetry_Int_Tables_number   1
_chemical_formula_structural   LiNiPO4
_chemical_formula_sum   'Li8 Ni8 P8 O32'
_cell_volume   612.64854322
_cell_formula_units_Z   8
loop_
 _symmetry_equiv_pos_site_id
 _symmetry_equiv_pos_as_xyz
  1  'x, y, z'
loop_
 _atom_site_type_symbol
 _atom_site_label
 _atom_site_symmetry_multiplicity
 _atom_site_fract_x
 _atom_site_fract_y
 _atom_site_fract_z
 _atom_site_occupancy
  Li  Li0  1  0.44126000  0.17346000  0.02122700  1
  Li  Li1  1  0.94126000  0.17346000  0.47877300  1
  Li  Li2  1  0.44126000  0.32654000  0.52122700  1
  Li  Li3  1  0.94126000  0.32654000  0.97877300  1
  Li  Li4  1  0.05874000  0.67346000  0.02122700  1
  Li  Li5  1  0.55874000  0.67346000  0.47877300  1
  Li  Li6  1  0.05874000  0.82654000  0.52122700  1
  Li  Li7  1  0.55874000  0.82654000  0.97877300  1
  Ni  Ni8  1  0.21213300  0.18650000  0.71467100  1
  Ni  Ni9  1  0.71213300  0.18650000  0.78532900  1
  Ni  Ni10  1  0.71213300  0.31350000  0.28532900  1
  Ni  Ni11  1  0.21213300  0.31350000  0.21467100  1
  Ni  Ni12  1  0.28786700  0.68650000  0.71467100  1
  Ni  Ni13  1  0.78786700  0.68650000  0.78532900  1
  Ni  Ni14  1  0.28786700  0.81350000  0.21467100  1
  Ni  Ni15  1  0.78786700  0.81350000  0.28532900  1
  P  P16  1  0.89004100  0.03963100  0.12782900  1
  P  P17  1  0.39004100  0.03963100  0.37217100  1
  P  P18  1  0.89004100  0.46036900  0.62782900  1
  P  P19  1  0.39004100  0.46036900  0.87217100  1
  P  P20  1  0.60995900  0.53963100  0.12782900  1
  P  P21  1  0.10995900  0.53963100  0.37217100  1
  P  P22  1  0.60995900  0.96036900  0.62782900  1
  P  P23  1  0.10995900  0.96036900  0.87217100  1
  O  O24  1  0.78880000  0.97063300  0.55053200  1
  O  O25  1  0.28880000  0.97063300  0.94946800  1
  O  O26  1  0.29722900  0.06878000  0.26360600  1
  O  O27  1  0.79722900  0.06878000  0.23639400  1
  O  O28  1  0.49261800  0.14742300  0.64018000  1
  O  O29  1  0.99261800  0.14742300  0.85982000  1
  O  O30  1  0.04704000  0.19790300  0.10549600  1
  O  O31  1  0.54704000  0.19790300  0.39450400  1
  O  O32  1  0.04704000  0.30209700  0.60549600  1
  O  O33  1  0.54704000  0.30209700  0.89450400  1
  O  O34  1  0.49261800  0.35257700  0.14018000  1
  O  O35  1  0.99261800  0.35257700  0.35982000  1
  O  O36  1  0.79722900  0.43122000  0.73639400  1
  O  O37  1  0.29722900  0.43122000  0.76360600  1
  O  O38  1  0.78880000  0.52936700  0.05053200  1
  O  O39  1  0.28880000  0.52936700  0.44946800  1
  O  O40  1  0.21120000  0.47063300  0.94946800  1
  O  O41  1  0.71120000  0.47063300  0.55053200  1
  O  O42  1  0.70277100  0.56878000  0.23639400  1
  O  O43  1  0.20277100  0.56878000  0.26360600  1
  O  O44  1  0.00738200  0.64742300  0.64018000  1
  O  O45  1  0.50738200  0.64742300  0.85982000  1
  O  O46  1  0.45296000  0.69790300  0.10549600  1
  O  O47  1  0.95296000  0.69790300  0.39450400  1
  O  O48  1  0.45296000  0.80209700  0.60549600  1
  O  O49  1  0.95296000  0.80209700  0.89450400  1
  O  O50  1  0.00738200  0.85257700  0.14018000  1
  O  O51  1  0.50738200  0.85257700  0.35982000  1
  O  O52  1  0.70277100  0.93122000  0.73639400  1
  O  O53  1  0.20277100  0.93122000  0.76360600  1
  O  O54  1  0.71120000  0.02936700  0.05053200  1
  O  O55  1  0.21120000  0.02936700  0.44946800  1
