# generated using pymatgen
data_Li2MnVP2(O4F)2
_symmetry_space_group_name_H-M   'P 1'
_cell_length_a   5.23843900
_cell_length_b   10.35259941
_cell_length_c   10.52536649
_cell_angle_alpha   78.74842758
_cell_angle_beta   83.84584426
_cell_angle_gamma   80.28991612
_symmetry_Int_Tables_number   1
_chemical_formula_structural   Li2MnVP2(O4F)2
_chemical_formula_sum   'Li6 Mn3 V3 P6 O24 F6'
_cell_volume   550.18277872
_cell_formula_units_Z   3
loop_
 _symmetry_equiv_pos_site_id
 _symmetry_equiv_pos_as_xyz
  1  'x, y, z'
loop_
 _atom_site_type_symbol
 _atom_site_label
 _atom_site_symmetry_multiplicity
 _atom_site_fract_x
 _atom_site_fract_y
 _atom_site_fract_z
 _atom_site_occupancy
  Li  Li0  1  0.66143500  0.74940700  0.56531500  1
  Li  Li1  1  0.33856500  0.25059300  0.43468500  1
  Li  Li2  1  0.99799500  0.57823600  0.76581900  1
  Li  Li3  1  0.33190000  0.08592800  0.89806200  1
  Li  Li4  1  0.00200500  0.42176400  0.23418100  1
  Li  Li5  1  0.66810000  0.91407200  0.10193800  1
  Mn  Mn6  1  0.16501200  0.83300100  0.33475800  1
  Mn  Mn7  1  0.00000000  0.50000000  0.50000000  1
  Mn  Mn8  1  0.83498800  0.16699900  0.66524200  1
  V  V9  1  0.66261300  0.83205700  0.83457700  1
  V  V10  1  0.50000000  0.50000000  0.00000000  1
  V  V11  1  0.33738700  0.16794300  0.16542300  1
  P  P12  1  0.47930800  0.46016600  0.69744100  1
  P  P13  1  0.52069200  0.53983400  0.30255900  1
  P  P14  1  0.14877400  0.79548600  0.03471300  1
  P  P15  1  0.17773600  0.87094000  0.63433300  1
  P  P16  1  0.82226400  0.12906000  0.36566700  1
  P  P17  1  0.85122600  0.20451400  0.96528700  1
  O  O18  1  0.40335300  0.80668200  0.72161900  1
  O  O19  1  0.64346200  0.51031000  0.16809700  1
  O  O20  1  0.54779700  0.30989000  0.69791100  1
  O  O21  1  0.45220300  0.69011000  0.30208900  1
  O  O22  1  0.59664700  0.19331800  0.27838100  1
  O  O23  1  0.61108400  0.13143900  0.01295800  1
  O  O24  1  0.25528100  0.52707700  0.60759000  1
  O  O25  1  0.28342900  0.46450800  0.34607000  1
  O  O26  1  0.35653800  0.48969000  0.83190300  1
  O  O27  1  0.21579100  0.64501900  0.03623400  1
  O  O28  1  0.30246500  0.83998400  0.49960700  1
  O  O29  1  0.93826900  0.79703000  0.68147200  1
  O  O30  1  0.38891600  0.86856100  0.98704200  1
  O  O31  1  0.02727200  0.82713800  0.16939800  1
  O  O32  1  0.11205500  0.02146200  0.63345600  1
  O  O33  1  0.97272800  0.17286200  0.83060200  1
  O  O34  1  0.06173100  0.20297000  0.31852800  1
  O  O35  1  0.07713200  0.14219400  0.05257500  1
  O  O36  1  0.71657100  0.53549200  0.65393000  1
  O  O37  1  0.74471900  0.47292300  0.39241000  1
  O  O38  1  0.88794500  0.97853800  0.36654400  1
  O  O39  1  0.78420900  0.35498100  0.96376600  1
  O  O40  1  0.69753500  0.16001600  0.50039300  1
  O  O41  1  0.92286800  0.85780600  0.94742500  1
  F  F42  1  0.59176300  0.02639700  0.77257600  1
  F  F43  1  0.40823700  0.97360300  0.22742400  1
  F  F44  1  0.26764400  0.36593200  0.10376200  1
  F  F45  1  0.07723000  0.30266600  0.56180100  1
  F  F46  1  0.92277000  0.69733400  0.43819900  1
  F  F47  1  0.73235600  0.63406800  0.89623800  1
