# generated using pymatgen
data_Li3V3P8O29
_symmetry_space_group_name_H-M   'P 1'
_cell_length_a   9.73175700
_cell_length_b   9.77061483
_cell_length_c   14.21053000
_cell_angle_alpha   89.49774415
_cell_angle_beta   89.65793355
_cell_angle_gamma   60.32229468
_symmetry_Int_Tables_number   1
_chemical_formula_structural   Li3V3P8O29
_chemical_formula_sum   'Li6 V6 P16 O58'
_cell_volume   1173.91838192
_cell_formula_units_Z   2
loop_
 _symmetry_equiv_pos_site_id
 _symmetry_equiv_pos_as_xyz
  1  'x, y, z'
loop_
 _atom_site_type_symbol
 _atom_site_label
 _atom_site_symmetry_multiplicity
 _atom_site_fract_x
 _atom_site_fract_y
 _atom_site_fract_z
 _atom_site_occupancy
  Li  Li0  1  0.30646100  0.91636900  0.44438200  1
  Li  Li1  1  0.90277500  0.33195300  0.94048500  1
  Li  Li2  1  0.91625200  0.77720500  0.44432900  1
  Li  Li3  1  0.09507000  0.67208200  0.05335000  1
  Li  Li4  1  0.68347500  0.09224300  0.55829800  1
  Li  Li5  1  0.99873100  0.99907500  0.99351100  1
  V  V6  1  0.00196400  0.43151200  0.74323700  1
  V  V7  1  0.00123500  0.56080400  0.25239000  1
  V  V8  1  0.43395500  0.00183900  0.24012600  1
  V  V9  1  0.56493800  0.99594500  0.76153300  1
  V  V10  1  0.43680800  0.56679000  0.75002100  1
  V  V11  1  0.56389900  0.43405200  0.25143200  1
  P  P12  1  0.30697100  0.77307000  0.15841700  1
  P  P13  1  0.31853100  0.91323800  0.65965400  1
  P  P14  1  0.77060300  0.31385800  0.65588700  1
  P  P15  1  0.67127800  0.65855900  0.86960600  1
  P  P16  1  0.66222000  0.67199500  0.36677100  1
  P  P17  1  0.91120700  0.31382000  0.15955200  1
  P  P18  1  0.08847100  0.22242000  0.34096100  1
  P  P19  1  0.78346500  0.91265400  0.15772700  1
  P  P20  1  0.21528800  0.08616100  0.84129600  1
  P  P21  1  0.90735700  0.77484400  0.66021300  1
  P  P22  1  0.08874200  0.68339300  0.83915300  1
  P  P23  1  0.34188100  0.32918900  0.63255700  1
  P  P24  1  0.33168600  0.33867200  0.13164200  1
  P  P25  1  0.22908500  0.68512900  0.34412600  1
  P  P26  1  0.68093800  0.08642000  0.33950600  1
  P  P27  1  0.69365100  0.22517600  0.84132200  1
  O  O28  1  0.23665400  0.76785500  0.42890700  1
  O  O29  1  0.34472800  0.74377600  0.66998000  1
  O  O30  1  0.19289200  0.00779800  0.92479800  1
  O  O31  1  0.34546600  0.90998800  0.16508200  1
  O  O32  1  0.46306800  0.61490700  0.16999400  1
  O  O33  1  0.52231800  0.66549600  0.82308200  1
  O  O34  1  0.61877600  0.47362400  0.67483000  1
  O  O35  1  0.79702000  0.20699700  0.92307500  1
  O  O36  1  0.73992600  0.34587300  0.17214900  1
  O  O37  1  0.51748000  0.82115400  0.32216600  1
  O  O38  1  0.47729800  0.90648500  0.68498300  1
  O  O39  1  0.65715200  0.52834000  0.32157400  1
  O  O40  1  0.67176300  0.65647900  0.97397300  1
  O  O41  1  0.66260700  0.67586200  0.47101700  1
  O  O42  1  0.81868000  0.50790300  0.82887700  1
  O  O43  1  0.62006400  0.91756800  0.16857400  1
  O  O44  1  0.67369900  0.81021100  0.82793500  1
  O  O45  1  0.91294800  0.34461100  0.66400200  1
  O  O46  1  0.00793600  0.20139100  0.24567000  1
  O  O47  1  0.99997000  0.23462100  0.42754600  1
  O  O48  1  0.98015600  0.24223700  0.06710900  1
  O  O49  1  0.91023600  0.47232000  0.17730400  1
  O  O50  1  0.81680900  0.66877600  0.32561400  1
  O  O51  1  0.08073000  0.26156400  0.83479000  1
  O  O52  1  0.89902200  0.62108000  0.67930700  1
  O  O53  1  0.73909500  0.92021700  0.66601300  1
  O  O54  1  0.19969700  0.01057000  0.74399400  1
  O  O55  1  0.25474100  0.98925900  0.56769300  1
  O  O56  1  0.75150400  0.00186300  0.43019500  1
  O  O57  1  0.25947400  0.07966300  0.33468700  1
  O  O58  1  0.09638900  0.37814700  0.31986400  1
  O  O59  1  0.91923100  0.73765700  0.16473900  1
  O  O60  1  0.18552900  0.33764500  0.67631300  1
  O  O61  1  0.08555300  0.52852200  0.82421800  1
  O  O62  1  0.01665400  0.76607800  0.92912100  1
  O  O63  1  0.98738400  0.76567300  0.56942200  1
  O  O64  1  0.99815600  0.79366600  0.74932600  1
  O  O65  1  0.08339800  0.65885900  0.34166600  1
  O  O66  1  0.32751200  0.18917600  0.17297400  1
  O  O67  1  0.37866300  0.08231000  0.83257600  1
  O  O68  1  0.18314800  0.49054200  0.17422100  1
  O  O69  1  0.32447500  0.34786300  0.02751900  1
  O  O70  1  0.34036200  0.33178500  0.52835700  1
  O  O71  1  0.34521900  0.47252100  0.67918200  1
  O  O72  1  0.52190400  0.09363900  0.31745100  1
  O  O73  1  0.48507500  0.17811200  0.67548500  1
  O  O74  1  0.26096300  0.65052500  0.82948800  1
  O  O75  1  0.20479000  0.79281700  0.25213400  1
  O  O76  1  0.20730500  0.78762800  0.07575900  1
  O  O77  1  0.38104600  0.52523500  0.32499800  1
  O  O78  1  0.47975700  0.33321500  0.17759400  1
  O  O79  1  0.53910300  0.38408700  0.83189300  1
  O  O80  1  0.65278400  0.08976500  0.83541200  1
  O  O81  1  0.80376900  0.99195700  0.07416500  1
  O  O82  1  0.79956700  0.98978500  0.25506600  1
  O  O83  1  0.65571900  0.25516100  0.33349500  1
  O  O84  1  0.76434100  0.23219400  0.57049300  1
  O  O85  1  0.79443900  0.20381800  0.74677000  1
