# generated using pymatgen
data_Li3MnV(PO4)3
_symmetry_space_group_name_H-M   'P 1'
_cell_length_a   8.40032900
_cell_length_b   8.42630283
_cell_length_c   9.27432440
_cell_angle_alpha   90.26484692
_cell_angle_beta   116.79301258
_cell_angle_gamma   119.77794391
_symmetry_Int_Tables_number   1
_chemical_formula_structural   Li3MnV(PO4)3
_chemical_formula_sum   'Li6 Mn2 V2 P6 O24'
_cell_volume   485.99504333
_cell_formula_units_Z   2
loop_
 _symmetry_equiv_pos_site_id
 _symmetry_equiv_pos_as_xyz
  1  'x, y, z'
loop_
 _atom_site_type_symbol
 _atom_site_label
 _atom_site_symmetry_multiplicity
 _atom_site_fract_x
 _atom_site_fract_y
 _atom_site_fract_z
 _atom_site_occupancy
  Li  Li0  1  0.60106800  0.66906100  0.85811700  1
  Li  Li1  1  0.93887200  0.26657500  0.87223600  1
  Li  Li2  1  0.20692900  0.73653500  0.40996300  1
  Li  Li3  1  0.81068700  0.07301800  0.14964700  1
  Li  Li4  1  0.04273600  0.74524900  0.08623700  1
  Li  Li5  1  0.38586800  0.31956100  0.13170200  1
  Mn  Mn6  1  0.29821900  0.15235000  0.44362400  1
  Mn  Mn7  1  0.72447300  0.86131800  0.56892800  1
  V  V8  1  0.31199900  0.66295400  0.96308400  1
  V  V9  1  0.67947100  0.34166800  0.03252400  1
  P  P10  1  0.80176000  0.54037200  0.75143100  1
  P  P11  1  0.21467600  0.26451400  0.75749600  1
  P  P12  1  0.50167600  0.95272400  0.76135100  1
  P  P13  1  0.50407000  0.04635100  0.24633100  1
  P  P14  1  0.78770700  0.73525800  0.24357100  1
  P  P15  1  0.19256800  0.46025500  0.24358500  1
  O  O16  1  0.73523900  0.52009800  0.89473700  1
  O  O17  1  0.87676700  0.74380400  0.74893700  1
  O  O18  1  0.99815100  0.51692100  0.83443800  1
  O  O19  1  0.31601600  0.48511900  0.83155100  1
  O  O20  1  0.38096100  0.22710900  0.90007000  1
  O  O21  1  0.68101200  0.15820400  0.89765000  1
  O  O22  1  0.62165300  0.38210300  0.58921500  1
  O  O23  1  0.00512800  0.14759400  0.75485600  1
  O  O24  1  0.20543200  0.22976600  0.59458900  1
  O  O25  1  0.35006700  0.82572900  0.82507400  1
  O  O26  1  0.62457400  0.86859100  0.75691800  1
  O  O27  1  0.36884900  0.96605800  0.59025500  1
  O  O28  1  0.62886800  0.02550700  0.41299200  1
  O  O29  1  0.37172300  0.12441400  0.24042200  1
  O  O30  1  0.65131600  0.16745300  0.17520500  1
  O  O31  1  0.79943800  0.77911100  0.40583000  1
  O  O32  1  0.00969800  0.83962400  0.25846200  1
  O  O33  1  0.36807500  0.62027500  0.40864700  1
  O  O34  1  0.32776200  0.83498500  0.11069000  1
  O  O35  1  0.64425600  0.79124700  0.09995900  1
  O  O36  1  0.67655400  0.51360600  0.17329800  1
  O  O37  1  0.00004500  0.48985400  0.17349000  1
  O  O38  1  0.11179600  0.25568300  0.25492200  1
  O  O39  1  0.25730100  0.47327800  0.10521300  1
