# generated using pymatgen
data_Li4Nb3Fe3(SnO8)2
_symmetry_space_group_name_H-M   'P 1'
_cell_length_a   6.19607481
_cell_length_b   6.19607481
_cell_length_c   10.02095710
_cell_angle_alpha   89.19619045
_cell_angle_beta   89.19619045
_cell_angle_gamma   59.33228456
_symmetry_Int_Tables_number   1
_chemical_formula_structural   Li4Nb3Fe3(SnO8)2
_chemical_formula_sum   'Li4 Nb3 Fe3 Sn2 O16'
_cell_volume   330.86813996
_cell_formula_units_Z   1
loop_
 _symmetry_equiv_pos_site_id
 _symmetry_equiv_pos_as_xyz
  1  'x, y, z'
loop_
 _atom_site_type_symbol
 _atom_site_label
 _atom_site_symmetry_multiplicity
 _atom_site_fract_x
 _atom_site_fract_y
 _atom_site_fract_z
 _atom_site_occupancy
  Li  Li0  1  0.66969400  0.66969400  0.90438000  1
  Li  Li1  1  0.00287900  0.00287900  0.99722000  1
  Li  Li2  1  0.00712700  0.00712700  0.48225100  1
  Li  Li3  1  0.34021900  0.34021900  0.38904900  1
  Nb  Nb4  1  0.82480000  0.82480000  0.21774200  1
  Nb  Nb5  1  0.65125500  0.17366400  0.71406000  1
  Nb  Nb6  1  0.17366400  0.65125500  0.71406000  1
  Fe  Fe7  1  0.82928300  0.34254200  0.21127900  1
  Fe  Fe8  1  0.34254200  0.82928300  0.21127900  1
  Fe  Fe9  1  0.16806200  0.16806200  0.71386300  1
  Sn  Sn10  1  0.65877700  0.65877700  0.48296800  1
  Sn  Sn11  1  0.32567300  0.32567300  0.00270300  1
  O  O12  1  0.82368000  0.32411400  0.60106000  1
  O  O13  1  0.52155700  0.52155700  0.34321500  1
  O  O14  1  0.68426000  0.68426000  0.09499000  1
  O  O15  1  0.98875400  0.98875400  0.30244200  1
  O  O16  1  0.99129900  0.99129900  0.80933600  1
  O  O17  1  0.32411400  0.82368000  0.60106000  1
  O  O18  1  0.96930800  0.53183000  0.35044600  1
  O  O19  1  0.53183000  0.96930800  0.35044600  1
  O  O20  1  0.15788300  0.15788300  0.09360700  1
  O  O21  1  0.83014700  0.83014700  0.60722900  1
  O  O22  1  0.48929000  0.04612000  0.83953100  1
  O  O23  1  0.04612000  0.48929000  0.83953100  1
  O  O24  1  0.33980400  0.33980400  0.59358700  1
  O  O25  1  0.66462700  0.15307800  0.09854800  1
  O  O26  1  0.48397800  0.48397800  0.84294200  1
  O  O27  1  0.15307800  0.66462700  0.09854800  1
