# generated using pymatgen
data_LiVFe(P2O7)2
_symmetry_space_group_name_H-M   'P 1'
_cell_length_a   9.76287096
_cell_length_b   16.90506543
_cell_length_c   7.17343748
_cell_angle_alpha   83.95957618
_cell_angle_beta   68.15598500
_cell_angle_gamma   73.25358314
_symmetry_Int_Tables_number   1
_chemical_formula_structural   LiVFe(P2O7)2
_chemical_formula_sum   'Li4 V4 Fe4 P16 O56'
_cell_volume   1052.30505160
_cell_formula_units_Z   4
loop_
 _symmetry_equiv_pos_site_id
 _symmetry_equiv_pos_as_xyz
  1  'x, y, z'
loop_
 _atom_site_type_symbol
 _atom_site_label
 _atom_site_symmetry_multiplicity
 _atom_site_fract_x
 _atom_site_fract_y
 _atom_site_fract_z
 _atom_site_occupancy
  Li  Li0  1  0.03455130  0.43234926  0.67271569  1
  Li  Li1  1  0.40848242  0.67995198  0.32676809  1
  Li  Li2  1  0.65838884  0.18051587  0.32881296  1
  Li  Li3  1  0.28494126  0.93256609  0.67254472  1
  V  V4  1  0.11963705  0.24753701  0.72199416  1
  V  V5  1  0.37013955  0.74807556  0.72772474  1
  V  V6  1  0.61753784  0.25355069  0.72724532  1
  V  V7  1  0.86679034  0.75293687  0.72130570  1
  Fe  Fe8  1  0.00659105  0.50457047  0.26578666  1
  Fe  Fe9  1  0.25632975  0.00487133  0.26463366  1
  Fe  Fe10  1  0.50767309  0.49729224  0.27540601  1
  Fe  Fe11  1  0.75770766  0.99675015  0.27648776  1
  P  P12  1  0.14333982  0.59158087  0.52335718  1
  P  P13  1  0.39528677  0.09046193  0.52375341  1
  P  P14  1  0.11974793  0.89017839  0.08682672  1
  P  P15  1  0.36889657  0.39073810  0.08542803  1
  P  P16  1  0.11037486  0.64283127  0.91534494  1
  P  P17  1  0.36458053  0.14273764  0.91367249  1
  P  P18  1  0.14211047  0.84005780  0.47909676  1
  P  P19  1  0.38958780  0.34094895  0.47698082  1
  P  P20  1  0.64708519  0.58757534  0.52072511  1
  P  P21  1  0.89516031  0.08845637  0.51985657  1
  P  P22  1  0.61970048  0.89007015  0.08640833  1
  P  P23  1  0.87068616  0.38970470  0.08783362  1
  P  P24  1  0.61618654  0.64177025  0.91069698  1
  P  P25  1  0.86232833  0.14181863  0.91178994  1
  P  P26  1  0.64027569  0.83992538  0.47828753  1
  P  P27  1  0.89337073  0.33902631  0.47990787  1
  O  O28  1  0.05814170  0.08895647  0.39302540  1
  O  O29  1  0.01326590  0.26895155  0.53095900  1
  O  O30  1  0.01374682  0.16622160  0.85103350  1
  O  O31  1  0.08675994  0.59624536  0.11021847  1
  O  O32  1  0.33594854  0.09696054  0.11019543  1
  O  O33  1  0.19629426  0.41264349  0.14273942  1
  O  O34  1  0.09003992  0.52046605  0.48476672  1
  O  O35  1  0.34001440  0.02041860  0.48478178  1
  O  O36  1  0.03146699  0.67633128  0.52143553  1
  O  O37  1  0.28347532  0.17582336  0.52074842  1
  O  O38  1  0.22502561  0.33671373  0.60791124  1
  O  O39  1  0.23280695  0.21785099  0.90397346  1
  O  O40  1  0.13905275  0.57524639  0.75263004  1
  O  O41  1  0.38928960  0.07482511  0.75287048  1
  O  O42  1  0.16860296  0.82436654  0.24884758  1
  O  O43  1  0.41557721  0.32305227  0.24913205  1
  O  O44  1  0.17728191  0.96597640  0.07852815  1
  O  O45  1  0.42756661  0.46501043  0.08649685  1
  O  O46  1  0.30647613  0.59230616  0.38985264  1
  O  O47  1  0.55721980  0.09221174  0.38964457  1
  O  O48  1  0.16673117  0.92357969  0.49480499  1
  O  O49  1  0.40726426  0.42587601  0.49077501  1
  O  O50  1  0.26814830  0.76849106  0.51900698  1
  O  O51  1  0.51432181  0.27004095  0.52076462  1
  O  O52  1  0.26084661  0.67030588  0.85150353  1
  O  O53  1  0.51358752  0.16994941  0.84907957  1
  O  O54  1  0.20656623  0.84299437  0.88488840  1
  O  O55  1  0.45152296  0.34039926  0.88962124  1
  O  O56  1  0.57575003  0.60071015  0.11550567  1
  O  O57  1  0.82551104  0.10021265  0.11574020  1
  O  O58  1  0.44668511  0.91238960  0.14230164  1
  O  O59  1  0.69878928  0.40934966  0.14063296  1
  O  O60  1  0.59012792  0.52040021  0.47533998  1
  O  O61  1  0.84055483  0.02007380  0.47455404  1
  O  O62  1  0.53025068  0.67353632  0.51929913  1
  O  O63  1  0.77870539  0.17381620  0.51850770  1
  O  O64  1  0.47359121  0.83543395  0.60797350  1
  O  O65  1  0.72928211  0.33292182  0.60709602  1
  O  O66  1  0.48290200  0.71853370  0.90853227  1
  O  O67  1  0.73050758  0.21898534  0.91150333  1
  O  O68  1  0.63595126  0.57462269  0.75386824  1
  O  O69  1  0.88501890  0.07504965  0.75337044  1
  O  O70  1  0.66402896  0.82243760  0.25160281  1
  O  O71  1  0.91748103  0.32385452  0.25100272  1
  O  O72  1  0.67747900  0.96466424  0.08755828  1
  O  O73  1  0.92688138  0.46598438  0.08041421  1
  O  O74  1  0.80876872  0.58919365  0.39274457  1
  O  O75  1  0.65483803  0.92578212  0.49094560  1
  O  O76  1  0.91505022  0.42370341  0.49439916  1
  O  O77  1  0.75923883  0.77025819  0.53209998  1
  O  O78  1  0.76620841  0.66638222  0.84942586  1
  O  O79  1  0.70317062  0.83951211  0.89127901  1
  O  O80  1  0.95815065  0.34269858  0.88639801  1
  O  O81  1  0.94841829  0.90953037  0.14041139  1
  O  O82  1  0.97983291  0.83433185  0.60764690  1
  O  O83  1  0.98058214  0.71838070  0.90791753  1
