# generated using pymatgen
data_Li2MnSi3O8
_symmetry_space_group_name_H-M   'P 1'
_cell_length_a   7.00401155
_cell_length_b   9.99546910
_cell_length_c   10.28089242
_cell_angle_alpha   89.98864801
_cell_angle_beta   90.97723396
_cell_angle_gamma   90.01142494
_symmetry_Int_Tables_number   1
_chemical_formula_structural   Li2MnSi3O8
_chemical_formula_sum   'Li8 Mn4 Si12 O32'
_cell_volume   719.64391862
_cell_formula_units_Z   4
loop_
 _symmetry_equiv_pos_site_id
 _symmetry_equiv_pos_as_xyz
  1  'x, y, z'
loop_
 _atom_site_type_symbol
 _atom_site_label
 _atom_site_symmetry_multiplicity
 _atom_site_fract_x
 _atom_site_fract_y
 _atom_site_fract_z
 _atom_site_occupancy
  Li  Li0  1  0.00597300  0.12645200  0.09660200  1
  Li  Li1  1  0.00595700  0.12638200  0.59650200  1
  Li  Li2  1  0.49405700  0.62661000  0.15347000  1
  Li  Li3  1  0.49401800  0.62648500  0.65339000  1
  Li  Li4  1  0.52294400  0.34877900  0.31963200  1
  Li  Li5  1  0.52284900  0.34886700  0.81971200  1
  Li  Li6  1  0.97730400  0.84878100  0.43016800  1
  Li  Li7  1  0.97709100  0.84883100  0.93038800  1
  Mn  Mn8  1  0.51299200  0.17505800  0.57609100  1
  Mn  Mn9  1  0.98695000  0.67447300  0.17381400  1
  Mn  Mn10  1  0.51311400  0.17487700  0.07569400  1
  Mn  Mn11  1  0.98676300  0.67493300  0.67412300  1
  Si  Si12  1  0.97617100  0.33086300  0.36528000  1
  Si  Si13  1  0.97611500  0.33083200  0.86524800  1
  Si  Si14  1  0.52388400  0.83084600  0.38481100  1
  Si  Si15  1  0.52382100  0.83081000  0.88480600  1
  Si  Si16  1  0.28121400  0.91247500  0.12905900  1
  Si  Si17  1  0.28124900  0.91254900  0.62905700  1
  Si  Si18  1  0.21889500  0.41248100  0.12095700  1
  Si  Si19  1  0.21867600  0.41265300  0.62101500  1
  Si  Si20  1  0.77632600  0.59408300  0.42524500  1
  Si  Si21  1  0.77620300  0.59403900  0.92523800  1
  Si  Si22  1  0.72363700  0.09412400  0.32483500  1
  Si  Si23  1  0.72376900  0.09404100  0.82460500  1
  O  O24  1  0.06843100  0.85597500  0.10329400  1
  O  O25  1  0.06841100  0.85611700  0.60316500  1
  O  O26  1  0.43170100  0.35594600  0.14673000  1
  O  O27  1  0.43158500  0.35628900  0.64687400  1
  O  O28  1  0.05809600  0.33785100  0.21756600  1
  O  O29  1  0.05803500  0.33782300  0.71754100  1
  O  O30  1  0.44196700  0.83777500  0.03254500  1
  O  O31  1  0.44197800  0.83782700  0.53255300  1
  O  O32  1  0.35967700  0.86939400  0.27788000  1
  O  O33  1  0.35958600  0.86940700  0.77785700  1
  O  O34  1  0.14035400  0.36940800  0.47220900  1
  O  O35  1  0.14030000  0.36934100  0.97219600  1
  O  O36  1  0.22895600  0.57105500  0.14064600  1
  O  O37  1  0.22854300  0.57125100  0.64075000  1
  O  O38  1  0.27136300  0.07111600  0.10922800  1
  O  O39  1  0.27132300  0.07117600  0.60934000  1
  O  O40  1  0.58619500  0.67314500  0.35251200  1
  O  O41  1  0.58609200  0.67311500  0.85246400  1
  O  O42  1  0.91385000  0.17312400  0.39755500  1
  O  O43  1  0.91379800  0.17308800  0.89754200  1
  O  O44  1  0.53844000  0.17087900  0.37711600  1
  O  O45  1  0.53838300  0.17083200  0.87673800  1
  O  O46  1  0.96164400  0.67082400  0.37285700  1
  O  O47  1  0.96150500  0.67086300  0.87312800  1
  O  O48  1  0.71629400  0.93153000  0.37512700  1
  O  O49  1  0.71625600  0.93149100  0.87509100  1
  O  O50  1  0.78375500  0.43150800  0.37493400  1
  O  O51  1  0.78370000  0.43147100  0.87488000  1
  O  O52  1  0.74375000  0.60235200  0.07940800  1
  O  O53  1  0.74401400  0.60253500  0.57938500  1
  O  O54  1  0.75594800  0.10262500  0.17063100  1
  O  O55  1  0.75609900  0.10254000  0.67051700  1
