# generated using pymatgen
data_Li2Fe3TeO8
_symmetry_space_group_name_H-M   'P 1'
_cell_length_a   6.02798513
_cell_length_b   6.02798513
_cell_length_c   9.88862400
_cell_angle_alpha   90.00000000
_cell_angle_beta   90.00000000
_cell_angle_gamma   119.99999040
_symmetry_Int_Tables_number   1
_chemical_formula_structural   Li2Fe3TeO8
_chemical_formula_sum   'Li4 Fe6 Te2 O16'
_cell_volume   311.17943040
_cell_formula_units_Z   2
loop_
 _symmetry_equiv_pos_site_id
 _symmetry_equiv_pos_as_xyz
  1  'x, y, z'
loop_
 _atom_site_type_symbol
 _atom_site_label
 _atom_site_symmetry_multiplicity
 _atom_site_fract_x
 _atom_site_fract_y
 _atom_site_fract_z
 _atom_site_occupancy
  Li  Li0  1  0.33333300  0.66666700  0.90839200  1
  Li  Li1  1  0.00000000  0.00000000  0.98793600  1
  Li  Li2  1  0.00000000  0.00000000  0.48793600  1
  Li  Li3  1  0.66666700  0.33333300  0.40839200  1
  Fe  Fe4  1  0.16925400  0.83074600  0.21296100  1
  Fe  Fe5  1  0.16925400  0.33850800  0.21296100  1
  Fe  Fe6  1  0.66149200  0.83074600  0.21296100  1
  Fe  Fe7  1  0.33850800  0.16925400  0.71296100  1
  Fe  Fe8  1  0.83074600  0.66149200  0.71296100  1
  Fe  Fe9  1  0.83074600  0.16925400  0.71296100  1
  Te  Te10  1  0.33333300  0.66666700  0.48484000  1
  Te  Te11  1  0.66666700  0.33333300  0.98484000  1
  O  O12  1  0.16402400  0.83597600  0.59522300  1
  O  O13  1  0.03587500  0.51793700  0.34512100  1
  O  O14  1  0.33333300  0.66666700  0.10920200  1
  O  O15  1  0.00000000  0.00000000  0.30337600  1
  O  O16  1  0.00000000  0.00000000  0.80337600  1
  O  O17  1  0.16402400  0.32804800  0.59522300  1
  O  O18  1  0.48206300  0.96412500  0.34512100  1
  O  O19  1  0.48206300  0.51793700  0.34512100  1
  O  O20  1  0.32804800  0.16402400  0.09522300  1
  O  O21  1  0.67195200  0.83597600  0.59522300  1
  O  O22  1  0.51793700  0.48206300  0.84512100  1
  O  O23  1  0.51793700  0.03587500  0.84512100  1
  O  O24  1  0.66666700  0.33333300  0.60920200  1
  O  O25  1  0.83597600  0.67195200  0.09522300  1
  O  O26  1  0.96412500  0.48206300  0.84512100  1
  O  O27  1  0.83597600  0.16402400  0.09522300  1
