# generated using pymatgen
data_Li4V3P8O29
_symmetry_space_group_name_H-M   'P 1'
_cell_length_a   9.80166786
_cell_length_b   9.80166786
_cell_length_c   14.10619946
_cell_angle_alpha   89.96518687
_cell_angle_beta   89.96518687
_cell_angle_gamma   59.74016782
_symmetry_Int_Tables_number   1
_chemical_formula_structural   Li4V3P8O29
_chemical_formula_sum   'Li8 V6 P16 O58'
_cell_volume   1170.57018187
_cell_formula_units_Z   2
loop_
 _symmetry_equiv_pos_site_id
 _symmetry_equiv_pos_as_xyz
  1  'x, y, z'
loop_
 _atom_site_type_symbol
 _atom_site_label
 _atom_site_symmetry_multiplicity
 _atom_site_fract_x
 _atom_site_fract_y
 _atom_site_fract_z
 _atom_site_occupancy
  Li  Li0  1  0.68845700  0.22381200  0.05687900  1
  Li  Li1  1  0.68552900  0.08684700  0.56115600  1
  Li  Li2  1  0.22381200  0.68845700  0.55687900  1
  Li  Li3  1  0.08684700  0.68552900  0.06115600  1
  Li  Li4  1  0.22789300  0.09611400  0.05785300  1
  Li  Li5  1  0.09611400  0.22789300  0.55785300  1
  Li  Li6  1  0.77500500  0.31578500  0.44023300  1
  Li  Li7  1  0.31578500  0.77500500  0.94023300  1
  V  V8  1  0.99696400  0.56848200  0.25183000  1
  V  V9  1  0.00012500  0.43369500  0.75260700  1
  V  V10  1  0.56848200  0.99696400  0.75183000  1
  V  V11  1  0.43369500  0.00012500  0.25260700  1
  V  V12  1  0.56813800  0.43103800  0.24908300  1
  V  V13  1  0.43103800  0.56813800  0.74908300  1
  P  P14  1  0.68053200  0.23038900  0.84013500  1
  P  P15  1  0.68201300  0.08568500  0.34484900  1
  P  P16  1  0.23038900  0.68053200  0.34013500  1
  P  P17  1  0.33262900  0.33214100  0.12883200  1
  P  P18  1  0.33214100  0.33262900  0.62883200  1
  P  P19  1  0.08568500  0.68201300  0.84484900  1
  P  P20  1  0.91474800  0.76950900  0.66068800  1
  P  P21  1  0.23088700  0.08741000  0.84124500  1
  P  P22  1  0.76950900  0.91474800  0.16068800  1
  P  P23  1  0.08741000  0.23088700  0.34124500  1
  P  P24  1  0.91460000  0.31644500  0.15822800  1
  P  P25  1  0.66737100  0.66498400  0.37076000  1
  P  P26  1  0.66498400  0.66737100  0.87076000  1
  P  P27  1  0.77033100  0.32028500  0.65963100  1
  P  P28  1  0.31644500  0.91460000  0.65822800  1
  P  P29  1  0.32028500  0.77033100  0.15963100  1
  O  O30  1  0.76332600  0.23979000  0.57054600  1
  O  O31  1  0.66578600  0.25100100  0.33845600  1
  O  O32  1  0.76311900  0.00824500  0.07649900  1
  O  O33  1  0.65703000  0.08551600  0.82937500  1
  O  O34  1  0.51978500  0.38306600  0.82049100  1
  O  O35  1  0.48518400  0.32684800  0.16717800  1
  O  O36  1  0.38306600  0.51978500  0.32049100  1
  O  O37  1  0.23979000  0.76332600  0.07054600  1
  O  O38  1  0.25100100  0.66578600  0.83845600  1
  O  O39  1  0.48529200  0.18301000  0.67020100  1
  O  O40  1  0.51933300  0.09859500  0.32130500  1
  O  O41  1  0.32684800  0.48518400  0.66717800  1
  O  O42  1  0.32608300  0.33031100  0.02337800  1
  O  O43  1  0.33031100  0.32608300  0.52337800  1
  O  O44  1  0.18301000  0.48529200  0.17020100  1
  O  O45  1  0.38264100  0.09645800  0.82231200  1
  O  O46  1  0.32905900  0.18326700  0.17190300  1
  O  O47  1  0.08551600  0.65703000  0.32937500  1
  O  O48  1  0.98986800  0.79414700  0.75713300  1
  O  O49  1  0.00824500  0.76311900  0.57649900  1
  O  O50  1  0.00598800  0.74669000  0.93659400  1
  O  O51  1  0.09859500  0.51933300  0.82130500  1
  O  O52  1  0.18326700  0.32905900  0.67190300  1
  O  O53  1  0.91556900  0.74443000  0.16042900  1
  O  O54  1  0.09645800  0.38264100  0.32231200  1
  O  O55  1  0.25494900  0.08572000  0.33485800  1
  O  O56  1  0.79414700  0.98986800  0.25713300  1
  O  O57  1  0.74669000  0.00598800  0.43659400  1
  O  O58  1  0.23009100  0.00940500  0.57483700  1
  O  O59  1  0.74443000  0.91556900  0.66042900  1
  O  O60  1  0.90678800  0.61683200  0.67752800  1
  O  O61  1  0.08572000  0.25494900  0.83485800  1
  O  O62  1  0.81606400  0.66486800  0.32365400  1
  O  O63  1  0.90507700  0.47706700  0.17696900  1
  O  O64  1  0.00940500  0.23009100  0.07483700  1
  O  O65  1  0.00253300  0.24310600  0.43211800  1
  O  O66  1  0.99132500  0.21390400  0.25490900  1
  O  O67  1  0.92057900  0.33606400  0.66137800  1
  O  O68  1  0.66486800  0.81606400  0.82365400  1
  O  O69  1  0.61683200  0.90678800  0.17752800  1
  O  O70  1  0.81489900  0.51955300  0.82441200  1
  O  O71  1  0.66985100  0.67125600  0.97530800  1
  O  O72  1  0.67125600  0.66985100  0.47530800  1
  O  O73  1  0.67213000  0.51191700  0.33301300  1
  O  O74  1  0.47706700  0.90507700  0.67696900  1
  O  O75  1  0.51955300  0.81489900  0.32441200  1
  O  O76  1  0.74606600  0.33867700  0.15895400  1
  O  O77  1  0.79221700  0.21052100  0.75070400  1
  O  O78  1  0.75207900  0.23499000  0.93136400  1
  O  O79  1  0.62307000  0.48113200  0.67711000  1
  O  O80  1  0.51191700  0.67213000  0.83301300  1
  O  O81  1  0.48113200  0.62307000  0.17711000  1
  O  O82  1  0.33606400  0.92057900  0.16137800  1
  O  O83  1  0.24310600  0.00253300  0.93211800  1
  O  O84  1  0.21390400  0.99132500  0.75490900  1
  O  O85  1  0.33867700  0.74606600  0.65895400  1
  O  O86  1  0.23499000  0.75207900  0.43136400  1
  O  O87  1  0.21052100  0.79221700  0.25070400  1
