# generated using pymatgen
data_Li5TiV3O8
_symmetry_space_group_name_H-M   'P 1'
_cell_length_a   8.53999800
_cell_length_b   8.56956600
_cell_length_c   8.73075400
_cell_angle_alpha   90.00000000
_cell_angle_beta   90.00000000
_cell_angle_gamma   90.00000000
_symmetry_Int_Tables_number   1
_chemical_formula_structural   Li5TiV3O8
_chemical_formula_sum   'Li20 Ti4 V12 O32'
_cell_volume   638.95216865
_cell_formula_units_Z   4
loop_
 _symmetry_equiv_pos_site_id
 _symmetry_equiv_pos_as_xyz
  1  'x, y, z'
loop_
 _atom_site_type_symbol
 _atom_site_label
 _atom_site_symmetry_multiplicity
 _atom_site_fract_x
 _atom_site_fract_y
 _atom_site_fract_z
 _atom_site_occupancy
  Li  Li0  1  0.45005500  0.95204200  0.04505200  1
  Li  Li1  1  0.63705300  0.12775200  0.11239300  1
  Li  Li2  1  0.62252700  0.88688000  0.85108200  1
  Li  Li3  1  0.61194300  0.63628700  0.63423500  1
  Li  Li4  1  0.69429900  0.30533000  0.31384500  1
  Li  Li5  1  0.80570100  0.69467000  0.81384500  1
  Li  Li6  1  0.88805700  0.36371300  0.13423500  1
  Li  Li7  1  0.87747300  0.11312000  0.35108200  1
  Li  Li8  1  0.86294700  0.87224800  0.61239300  1
  Li  Li9  1  0.04994500  0.04795800  0.54505200  1
  Li  Li10  1  0.95005500  0.54795800  0.95494800  1
  Li  Li11  1  0.13705300  0.37224800  0.88760700  1
  Li  Li12  1  0.12252700  0.61312000  0.14891800  1
  Li  Li13  1  0.11194300  0.86371300  0.36576500  1
  Li  Li14  1  0.19429900  0.19467000  0.68615500  1
  Li  Li15  1  0.30570100  0.80533000  0.18615500  1
  Li  Li16  1  0.38805700  0.13628700  0.86576500  1
  Li  Li17  1  0.37747300  0.38688000  0.64891800  1
  Li  Li18  1  0.36294700  0.62775200  0.38760700  1
  Li  Li19  1  0.54994500  0.45204200  0.45494800  1
  Ti  Ti20  1  0.62076300  0.87461700  0.37662300  1
  Ti  Ti21  1  0.87923700  0.12538300  0.87662300  1
  Ti  Ti22  1  0.12076300  0.62538300  0.62337700  1
  Ti  Ti23  1  0.37923700  0.37461700  0.12337700  1
  V  V24  1  0.62182900  0.37579100  0.88283800  1
  V  V25  1  0.62415300  0.63054600  0.13132000  1
  V  V26  1  0.87584700  0.36945400  0.63132000  1
  V  V27  1  0.87817100  0.62420900  0.38283800  1
  V  V28  1  0.12182900  0.12420900  0.11716200  1
  V  V29  1  0.12415300  0.86945400  0.86868000  1
  V  V30  1  0.37584700  0.13054600  0.36868000  1
  V  V31  1  0.37817100  0.87579100  0.61716200  1
  V  V32  1  0.62660300  0.12883600  0.62483800  1
  V  V33  1  0.87339700  0.87116400  0.12483800  1
  V  V34  1  0.12660300  0.37116400  0.37516200  1
  V  V35  1  0.37339700  0.62883600  0.87516200  1
  O  O36  1  0.61060800  0.62803800  0.88169700  1
  O  O37  1  0.61320600  0.37690000  0.12830600  1
  O  O38  1  0.62796500  0.11028900  0.38134500  1
  O  O39  1  0.62875700  0.88307500  0.61044200  1
  O  O40  1  0.62415000  0.64339300  0.38266000  1
  O  O41  1  0.62446000  0.36659300  0.63743800  1
  O  O42  1  0.63684500  0.12398000  0.87017500  1
  O  O43  1  0.63204900  0.88082700  0.14429300  1
  O  O44  1  0.86795100  0.11917300  0.64429300  1
  O  O45  1  0.86315500  0.87602000  0.37017500  1
  O  O46  1  0.87554000  0.63340700  0.13743800  1
  O  O47  1  0.87585000  0.35660700  0.88266000  1
  O  O48  1  0.87124300  0.11692500  0.11044200  1
  O  O49  1  0.87203500  0.88971100  0.88134500  1
  O  O50  1  0.88679400  0.62310000  0.62830600  1
  O  O51  1  0.88939200  0.37196200  0.38169700  1
  O  O52  1  0.11320600  0.12310000  0.87169400  1
  O  O53  1  0.11060800  0.87196200  0.11830300  1
  O  O54  1  0.12796500  0.38971100  0.61865500  1
  O  O55  1  0.12875700  0.61692500  0.38955800  1
  O  O56  1  0.12415000  0.85660700  0.61734000  1
  O  O57  1  0.12446000  0.13340700  0.36256200  1
  O  O58  1  0.13684500  0.37602000  0.12982500  1
  O  O59  1  0.13204900  0.61917300  0.85570700  1
  O  O60  1  0.36795100  0.38082700  0.35570700  1
  O  O61  1  0.36315500  0.62398000  0.62982500  1
  O  O62  1  0.37554000  0.86659300  0.86256200  1
  O  O63  1  0.37585000  0.14339300  0.11734000  1
  O  O64  1  0.37124300  0.38307500  0.88955800  1
  O  O65  1  0.37203500  0.61028900  0.11865500  1
  O  O66  1  0.38939200  0.12803800  0.61830300  1
  O  O67  1  0.38679400  0.87690000  0.37169400  1
