# generated using pymatgen
data_LiVCoO4
_symmetry_space_group_name_H-M   'P 1'
_cell_length_a   5.97369201
_cell_length_b   8.23799100
_cell_length_c   5.97623101
_cell_angle_alpha   89.99930274
_cell_angle_beta   90.00787283
_cell_angle_gamma   90.00120242
_symmetry_Int_Tables_number   1
_chemical_formula_structural   LiVCoO4
_chemical_formula_sum   'Li4 V4 Co4 O16'
_cell_volume   294.09762265
_cell_formula_units_Z   4
loop_
 _symmetry_equiv_pos_site_id
 _symmetry_equiv_pos_as_xyz
  1  'x, y, z'
loop_
 _atom_site_type_symbol
 _atom_site_label
 _atom_site_symmetry_multiplicity
 _atom_site_fract_x
 _atom_site_fract_y
 _atom_site_fract_z
 _atom_site_occupancy
  Li  Li0  1  0.24401600  0.99997600  0.00003500  1
  Li  Li1  1  0.75596700  0.50002900  0.00000900  1
  Li  Li2  1  0.00002000  0.25000900  0.24407500  1
  Li  Li3  1  0.00000800  0.74999000  0.75592100  1
  V  V4  1  0.78036200  0.50003600  0.49991400  1
  V  V5  1  0.49992900  0.74995200  0.78042400  1
  V  V6  1  0.49997700  0.25002600  0.21962100  1
  V  V7  1  0.21972000  0.99996600  0.50003200  1
  Co  Co8  1  0.25849400  0.62508100  0.25849600  1
  Co  Co9  1  0.25851600  0.37495000  0.74153400  1
  Co  Co10  1  0.74154400  0.87492800  0.25847600  1
  Co  Co11  1  0.74151700  0.12509000  0.74148400  1
  O  O12  1  0.27209700  0.25822800  0.02950400  1
  O  O13  1  0.72781700  0.24179700  0.02945200  1
  O  O14  1  0.02941500  0.99175800  0.27223500  1
  O  O15  1  0.97068900  0.50826800  0.27218000  1
  O  O16  1  0.02938100  0.00820700  0.72781300  1
  O  O17  1  0.97061000  0.49181000  0.72776000  1
  O  O18  1  0.27218200  0.74173400  0.97062600  1
  O  O19  1  0.72784200  0.75826800  0.97047800  1
  O  O20  1  0.48512700  0.02272600  0.26913400  1
  O  O21  1  0.51482900  0.47730100  0.26911100  1
  O  O22  1  0.26922000  0.22724200  0.48508100  1
  O  O23  1  0.73077100  0.27275800  0.48500100  1
  O  O24  1  0.26920400  0.77269900  0.51490600  1
  O  O25  1  0.73074600  0.72721700  0.51488700  1
  O  O26  1  0.51491900  0.52271100  0.73093700  1
  O  O27  1  0.48508000  0.97724400  0.73087700  1
