# generated using pymatgen
data_Li3Sb2(PO4)3
_symmetry_space_group_name_H-M   'P 1'
_cell_length_a   9.32443600
_cell_length_b   8.81355700
_cell_length_c   15.42728068
_cell_angle_alpha   55.89259986
_cell_angle_beta   90.00000000
_cell_angle_gamma   90.00000000
_symmetry_Int_Tables_number   1
_chemical_formula_structural   Li3Sb2(PO4)3
_chemical_formula_sum   'Li12 Sb8 P12 O48'
_cell_volume   1049.75311082
_cell_formula_units_Z   4
loop_
 _symmetry_equiv_pos_site_id
 _symmetry_equiv_pos_as_xyz
  1  'x, y, z'
loop_
 _atom_site_type_symbol
 _atom_site_label
 _atom_site_symmetry_multiplicity
 _atom_site_fract_x
 _atom_site_fract_y
 _atom_site_fract_z
 _atom_site_occupancy
  Li  Li0  1  0.51120200  0.58892100  0.34901500  1
  Li  Li1  1  0.08751400  0.22759000  0.68585000  1
  Li  Li2  1  0.77833400  0.63812000  0.18265900  1
  Li  Li3  1  0.27833400  0.36188000  0.31734100  1
  Li  Li4  1  0.58751400  0.77241000  0.81415000  1
  Li  Li5  1  0.01120200  0.41107900  0.15098500  1
  Li  Li6  1  0.98879800  0.58892100  0.84901500  1
  Li  Li7  1  0.41248600  0.22759000  0.18585000  1
  Li  Li8  1  0.72166600  0.63812000  0.68265900  1
  Li  Li9  1  0.22166600  0.36188000  0.81734100  1
  Li  Li10  1  0.91248600  0.77241000  0.31415000  1
  Li  Li11  1  0.48879800  0.41107900  0.65098500  1
  Sb  Sb12  1  0.02702300  0.86851200  0.90258300  1
  Sb  Sb13  1  0.45538800  0.66477800  0.09602900  1
  Sb  Sb14  1  0.95538800  0.33522200  0.40397100  1
  Sb  Sb15  1  0.52702300  0.13148800  0.59741700  1
  Sb  Sb16  1  0.47297700  0.86851200  0.40258300  1
  Sb  Sb17  1  0.04461200  0.66477800  0.59602900  1
  Sb  Sb18  1  0.54461200  0.33522200  0.90397100  1
  Sb  Sb19  1  0.97297700  0.13148800  0.09741700  1
  P  P20  1  0.25824600  0.45417500  0.49070900  1
  P  P21  1  0.37944500  0.05936500  0.83135700  1
  P  P22  1  0.10322000  0.71852500  0.15968500  1
  P  P23  1  0.60322000  0.28147500  0.34031500  1
  P  P24  1  0.87944500  0.94063500  0.66864300  1
  P  P25  1  0.75824600  0.54582500  0.00929100  1
  P  P26  1  0.24175400  0.45417500  0.99070900  1
  P  P27  1  0.12055500  0.05936500  0.33135700  1
  P  P28  1  0.39678000  0.71852500  0.65968500  1
  P  P29  1  0.89678000  0.28147500  0.84031500  1
  P  P30  1  0.62055500  0.94063500  0.16864300  1
  P  P31  1  0.74175400  0.54582500  0.50929100  1
  O  O32  1  0.86327000  0.52173100  0.44869900  1
  O  O33  1  0.87861300  0.07186600  0.89829000  1
  O  O34  1  0.66571800  0.36753700  0.59285600  1
  O  O35  1  0.57086500  0.74435400  0.20007800  1
  O  O36  1  0.36741800  0.32071800  0.58006100  1
  O  O37  1  0.99435200  0.64126700  0.25285900  1
  O  O38  1  0.22035700  0.08291700  0.79992700  1
  O  O39  1  0.39520000  0.92211700  0.95129900  1
  O  O40  1  0.25090100  0.61954300  0.19830100  1
  O  O41  1  0.19615100  0.35696400  0.44020400  1
  O  O42  1  0.47413900  0.99731500  0.77323800  1
  O  O43  1  0.03474700  0.67092300  0.08486700  1
  O  O44  1  0.53474700  0.32907700  0.41513300  1
  O  O45  1  0.97413900  0.00268500  0.72676200  1
  O  O46  1  0.69615100  0.64303600  0.05979600  1
  O  O47  1  0.75090100  0.38045700  0.30169900  1
  O  O48  1  0.89520000  0.07788300  0.54870100  1
  O  O49  1  0.72035700  0.91708300  0.70007300  1
  O  O50  1  0.49435200  0.35873300  0.24714100  1
  O  O51  1  0.86741800  0.67928200  0.91993900  1
  O  O52  1  0.07086500  0.25564600  0.29992200  1
  O  O53  1  0.16571800  0.63246300  0.90714400  1
  O  O54  1  0.37861300  0.92813400  0.60171000  1
  O  O55  1  0.36327000  0.47826900  0.05130100  1
  O  O56  1  0.63673000  0.52173100  0.94869900  1
  O  O57  1  0.62138700  0.07186600  0.39829000  1
  O  O58  1  0.83428200  0.36753700  0.09285600  1
  O  O59  1  0.92913500  0.74435400  0.70007800  1
  O  O60  1  0.13258200  0.32071800  0.08006100  1
  O  O61  1  0.50564800  0.64126700  0.75285900  1
  O  O62  1  0.27964300  0.08291700  0.29992700  1
  O  O63  1  0.10480000  0.92211700  0.45129900  1
  O  O64  1  0.24909900  0.61954300  0.69830100  1
  O  O65  1  0.30384900  0.35696400  0.94020400  1
  O  O66  1  0.02586100  0.99731500  0.27323800  1
  O  O67  1  0.46525300  0.67092300  0.58486700  1
  O  O68  1  0.96525300  0.32907700  0.91513300  1
  O  O69  1  0.52586100  0.00268500  0.22676200  1
  O  O70  1  0.80384900  0.64303600  0.55979600  1
  O  O71  1  0.74909900  0.38045700  0.80169900  1
  O  O72  1  0.60480000  0.07788300  0.04870100  1
  O  O73  1  0.77964300  0.91708300  0.20007300  1
  O  O74  1  0.00564800  0.35873300  0.74714100  1
  O  O75  1  0.63258200  0.67928200  0.41993900  1
  O  O76  1  0.42913500  0.25564600  0.79992200  1
  O  O77  1  0.33428200  0.63246300  0.40714400  1
  O  O78  1  0.12138700  0.92813400  0.10171000  1
  O  O79  1  0.13673000  0.47826900  0.55130100  1
