# generated using pymatgen
data_Li4Cr3Cu3(TeO8)2
_symmetry_space_group_name_H-M   'P 1'
_cell_length_a   5.97263211
_cell_length_b   5.97263211
_cell_length_c   9.76651371
_cell_angle_alpha   87.20187520
_cell_angle_beta   87.20187520
_cell_angle_gamma   58.96833039
_symmetry_Int_Tables_number   1
_chemical_formula_structural   Li4Cr3Cu3(TeO8)2
_chemical_formula_sum   'Li4 Cr3 Cu3 Te2 O16'
_cell_volume   298.06320509
_cell_formula_units_Z   1
loop_
 _symmetry_equiv_pos_site_id
 _symmetry_equiv_pos_as_xyz
  1  'x, y, z'
loop_
 _atom_site_type_symbol
 _atom_site_label
 _atom_site_symmetry_multiplicity
 _atom_site_fract_x
 _atom_site_fract_y
 _atom_site_fract_z
 _atom_site_occupancy
  Li  Li0  1  0.66408100  0.66408100  0.91405400  1
  Li  Li1  1  0.99800500  0.99800500  0.98722700  1
  Li  Li2  1  0.00405500  0.00405500  0.47988600  1
  Li  Li3  1  0.34200200  0.34200200  0.41386500  1
  Cr  Cr4  1  0.82744500  0.82744500  0.21436500  1
  Cr  Cr5  1  0.65945100  0.16757300  0.71266500  1
  Cr  Cr6  1  0.16757300  0.65945100  0.71266500  1
  Cu  Cu7  1  0.82821800  0.33695700  0.20962200  1
  Cu  Cu8  1  0.33695700  0.82821800  0.20962200  1
  Cu  Cu9  1  0.16822400  0.16822400  0.71116500  1
  Te  Te10  1  0.67159200  0.67159200  0.48451100  1
  Te  Te11  1  0.32625700  0.32625700  0.98281500  1
  O  O12  1  0.82949500  0.33725300  0.58808100  1
  O  O13  1  0.52898900  0.52898900  0.35427800  1
  O  O14  1  0.66664100  0.66664100  0.11956700  1
  O  O15  1  0.99817500  0.99817500  0.29166600  1
  O  O16  1  0.99775500  0.99775500  0.80009000  1
  O  O17  1  0.33725300  0.82949500  0.58808100  1
  O  O18  1  0.97781200  0.53822900  0.36049500  1
  O  O19  1  0.53822900  0.97781200  0.36049500  1
  O  O20  1  0.15946400  0.15946400  0.08524900  1
  O  O21  1  0.83053200  0.83053200  0.59909700  1
  O  O22  1  0.48895800  0.03404900  0.85119600  1
  O  O23  1  0.03404900  0.48895800  0.85119600  1
  O  O24  1  0.33505800  0.33505800  0.61415800  1
  O  O25  1  0.64644400  0.16025600  0.08495200  1
  O  O26  1  0.47875100  0.47875100  0.84192100  1
  O  O27  1  0.16025600  0.64644400  0.08495200  1
