# generated using pymatgen
data_Li14Mn9(P2O7)8
_symmetry_space_group_name_H-M   'P 1'
_cell_length_a   10.90907249
_cell_length_b   9.80556510
_cell_length_c   13.06488568
_cell_angle_alpha   69.23538363
_cell_angle_beta   116.71550466
_cell_angle_gamma   107.24390457
_symmetry_Int_Tables_number   1
_chemical_formula_structural   Li14Mn9(P2O7)8
_chemical_formula_sum   'Li14 Mn9 P16 O56'
_cell_volume   1151.44718548
_cell_formula_units_Z   1
loop_
 _symmetry_equiv_pos_site_id
 _symmetry_equiv_pos_as_xyz
  1  'x, y, z'
loop_
 _atom_site_type_symbol
 _atom_site_label
 _atom_site_symmetry_multiplicity
 _atom_site_fract_x
 _atom_site_fract_y
 _atom_site_fract_z
 _atom_site_occupancy
  Li  Li0  1  0.37918581  0.54800528  0.41031511  1
  Li  Li1  1  0.62400916  0.95499898  0.08768797  1
  Li  Li2  1  0.37599084  0.04500102  0.91231203  1
  Li  Li3  1  0.86165316  0.06403517  0.40430415  1
  Li  Li4  1  0.13834684  0.93596483  0.59569585  1
  Li  Li5  1  0.49964482  0.63704284  0.18436846  1
  Li  Li6  1  0.51178722  0.13753754  0.67790778  1
  Li  Li7  1  0.98090794  0.85016787  0.10953311  1
  Li  Li8  1  0.48821278  0.86246246  0.32209222  1
  Li  Li9  1  0.14555089  0.43108578  0.10208385  1
  Li  Li10  1  0.50035518  0.36295716  0.81563154  1
  Li  Li11  1  0.85444911  0.56891422  0.89791615  1
  Li  Li12  1  0.62081419  0.45199472  0.58968489  1
  Li  Li13  1  0.01909206  0.14983213  0.89046689  1
  Mn  Mn14  1  0.78767919  0.30532386  0.08261684  1
  Mn  Mn15  1  0.72514989  0.43079289  0.28901132  1
  Mn  Mn16  1  0.21232081  0.69467614  0.91738316  1
  Mn  Mn17  1  0.74190234  0.93833437  0.79917416  1
  Mn  Mn18  1  0.27485011  0.56920711  0.71098868  1
  Mn  Mn19  1  0.25809766  0.06166563  0.20082584  1
  Mn  Mn20  1  0.21172897  0.19372120  0.41746417  1
  Mn  Mn21  1  0.78827103  0.80627880  0.58253583  1
  Mn  Mn22  1  0.00000000  0.50000000  0.50000000  1
  P  P23  1  0.69857925  0.64226031  0.00955184  1
  P  P24  1  0.30142075  0.35773969  0.99044816  1
  P  P25  1  0.05503890  0.47335816  0.27590148  1
  P  P26  1  0.05657328  0.97549321  0.77396349  1
  P  P27  1  0.20677992  0.23391412  0.66121474  1
  P  P28  1  0.29780657  0.85120540  0.49101797  1
  P  P29  1  0.94496110  0.52664284  0.72409852  1
  P  P30  1  0.53371838  0.18148527  0.13399468  1
  P  P31  1  0.53843680  0.68792783  0.63442261  1
  P  P32  1  0.79322008  0.76608588  0.33878526  1
  P  P33  1  0.94342672  0.02450679  0.22603651  1
  P  P34  1  0.79145287  0.27154069  0.83678236  1
  P  P35  1  0.46628162  0.81851473  0.86600532  1
  P  P36  1  0.46156320  0.31207217  0.36557739  1
  P  P37  1  0.70219343  0.14879460  0.50898203  1
  P  P38  1  0.20854713  0.72845931  0.16321764  1
  O  O39  1  0.00499278  0.09149077  0.33238733  1
  O  O40  1  0.54732158  0.68241362  0.91012667  1
  O  O41  1  0.90223855  0.84600697  0.27221570  1
  O  O42  1  0.27596514  0.97823596  0.52147322  1
  O  O43  1  0.69302534  0.10545445  0.62958437  1
  O  O44  1  0.99353644  0.40525352  0.17009260  1
  O  O45  1  0.20102543  0.70622697  0.52087418  1
  O  O46  1  0.95610275  0.96481201  0.82903645  1
  O  O47  1  0.54528874  0.17836347  0.41052597  1
  O  O48  1  0.71597251  0.51563813  0.97596153  1
  O  O49  1  0.90811220  0.34857098  0.77519550  1
  O  O50  1  0.09188780  0.65142902  0.22480450  1
  O  O51  1  0.31162558  0.24828069  0.28984568  1
  O  O52  1  0.72403486  0.02176404  0.47852678  1
  O  O53  1  0.80637306  0.57619320  0.63472239  1
  O  O54  1  0.30697466  0.89454555  0.37041563  1
  O  O55  1  0.68790160  0.59733378  0.12938096  1
  O  O56  1  0.45267842  0.31758638  0.08987333  1
  O  O57  1  0.04715187  0.54562903  0.66752926  1
  O  O58  1  0.19342825  0.92150067  0.86407933  1
  O  O59  1  0.83904022  0.84583147  0.43524343  1
  O  O60  1  0.19579069  0.21749116  0.01133576  1
  O  O61  1  0.46938316  0.55410544  0.70543680  1
  O  O62  1  0.46610045  0.84989904  0.97366416  1
  O  O63  1  0.31626982  0.75401245  0.79130370  1
  O  O64  1  0.45471126  0.82163653  0.58947403  1
  O  O65  1  0.09776145  0.15399303  0.72778430  1
  O  O66  1  0.35367030  0.70334251  0.25730782  1
  O  O67  1  0.46245533  0.05006657  0.20460307  1
  O  O68  1  0.64667963  0.78888037  0.24691537  1
  O  O69  1  0.17872086  0.88610185  0.11219212  1
  O  O70  1  0.28402749  0.48436187  0.02403847  1
  O  O71  1  0.53754467  0.94993343  0.79539693  1
  O  O72  1  0.31209840  0.40266622  0.87061904  1
  O  O73  1  0.81933801  0.60583478  0.38952885  1
  O  O74  1  0.95284813  0.45437097  0.33247074  1
  O  O75  1  0.68373018  0.24598755  0.20869630  1
  O  O76  1  0.46089362  0.34326955  0.47350493  1
  O  O77  1  0.82127914  0.11389815  0.88780788  1
  O  O78  1  0.18066199  0.39416522  0.61047115  1
  O  O79  1  0.00646356  0.59474648  0.82990740  1
  O  O80  1  0.80657175  0.07849933  0.13592067  1
  O  O81  1  0.19362694  0.42380680  0.36527761  1
  O  O82  1  0.35332037  0.21111963  0.75308463  1
  O  O83  1  0.99500722  0.90850923  0.66761267  1
  O  O84  1  0.16650979  0.64694040  0.06883987  1
  O  O85  1  0.68837442  0.75171931  0.71015432  1
  O  O86  1  0.53389955  0.15010096  0.02633584  1
  O  O87  1  0.83349021  0.35305960  0.93116013  1
  O  O88  1  0.04389725  0.03518799  0.17096355  1
  O  O89  1  0.53061684  0.44589456  0.29456320  1
  O  O90  1  0.79897457  0.29377303  0.47912582  1
  O  O91  1  0.53910638  0.65673045  0.52649507  1
  O  O92  1  0.16095978  0.15416853  0.56475657  1
  O  O93  1  0.64632970  0.29665749  0.74269218  1
  O  O94  1  0.80420931  0.78250884  0.98866424  1
