# generated using pymatgen
data_Li3CrFe3O8
_symmetry_space_group_name_H-M   'P 1'
_cell_length_a   5.19835000
_cell_length_b   7.86057655
_cell_length_c   7.88047732
_cell_angle_alpha   81.70537519
_cell_angle_beta   70.96019773
_cell_angle_gamma   83.96367540
_symmetry_Int_Tables_number   1
_chemical_formula_structural   Li3CrFe3O8
_chemical_formula_sum   'Li6 Cr2 Fe6 O16'
_cell_volume   300.62999212
_cell_formula_units_Z   2
loop_
 _symmetry_equiv_pos_site_id
 _symmetry_equiv_pos_as_xyz
  1  'x, y, z'
loop_
 _atom_site_type_symbol
 _atom_site_label
 _atom_site_symmetry_multiplicity
 _atom_site_fract_x
 _atom_site_fract_y
 _atom_site_fract_z
 _atom_site_occupancy
  Li  Li0  1  0.00000000  0.00000000  0.00000000  1
  Li  Li1  1  0.99875000  0.61764100  0.12010700  1
  Li  Li2  1  0.99963900  0.11716400  0.62506200  1
  Li  Li3  1  0.00000000  0.50000000  0.50000000  1
  Li  Li4  1  0.00036100  0.88283600  0.37493800  1
  Li  Li5  1  0.00125000  0.38235900  0.87989300  1
  Cr  Cr6  1  0.49110900  0.68768900  0.43770600  1
  Cr  Cr7  1  0.50889100  0.31231100  0.56229400  1
  Fe  Fe8  1  0.49595500  0.43333600  0.18655300  1
  Fe  Fe9  1  0.51700100  0.81313600  0.05694600  1
  Fe  Fe10  1  0.50546200  0.06403700  0.30756000  1
  Fe  Fe11  1  0.49453800  0.93596300  0.69244000  1
  Fe  Fe12  1  0.48299900  0.18686400  0.94305400  1
  Fe  Fe13  1  0.50404500  0.56666400  0.81344700  1
  O  O14  1  0.27664600  0.02181000  0.15148800  1
  O  O15  1  0.27577900  0.41378600  0.01812400  1
  O  O16  1  0.27505100  0.65469600  0.28752400  1
  O  O17  1  0.29322600  0.28162000  0.41223100  1
  O  O18  1  0.28446100  0.90148000  0.51481900  1
  O  O19  1  0.26974200  0.15973000  0.77138000  1
  O  O20  1  0.28741700  0.51620700  0.64175200  1
  O  O21  1  0.71545700  0.21929300  0.09517600  1
  O  O22  1  0.28454300  0.78070700  0.90482400  1
  O  O23  1  0.71258300  0.48379300  0.35824800  1
  O  O24  1  0.73025800  0.84027000  0.22862000  1
  O  O25  1  0.71553900  0.09852000  0.48518100  1
  O  O26  1  0.70677400  0.71838000  0.58776900  1
  O  O27  1  0.72494900  0.34530400  0.71247600  1
  O  O28  1  0.72422100  0.58621400  0.98187600  1
  O  O29  1  0.72335400  0.97819000  0.84851200  1
