# generated using pymatgen
data_Li5V3P8O29
_symmetry_space_group_name_H-M   'P 1'
_cell_length_a   9.77464400
_cell_length_b   9.79829269
_cell_length_c   14.06923677
_cell_angle_alpha   89.84221199
_cell_angle_beta   89.77219662
_cell_angle_gamma   60.08623028
_symmetry_Int_Tables_number   1
_chemical_formula_structural   Li5V3P8O29
_chemical_formula_sum   'Li10 V6 P16 O58'
_cell_volume   1167.95371400
_cell_formula_units_Z   2
loop_
 _symmetry_equiv_pos_site_id
 _symmetry_equiv_pos_as_xyz
  1  'x, y, z'
loop_
 _atom_site_type_symbol
 _atom_site_label
 _atom_site_symmetry_multiplicity
 _atom_site_fract_x
 _atom_site_fract_y
 _atom_site_fract_z
 _atom_site_occupancy
  Li  Li0  1  0.76279900  0.89859500  0.55889000  1
  Li  Li1  1  0.89884200  0.33521600  0.56142800  1
  Li  Li2  1  0.76493900  0.33873800  0.05860400  1
  Li  Li3  1  0.33102600  0.90598400  0.05879900  1
  Li  Li4  1  0.33039000  0.76383700  0.56070500  1
  Li  Li5  1  0.66954100  0.09599600  0.93970400  1
  Li  Li6  1  0.23417900  0.66326400  0.93995600  1
  Li  Li7  1  0.23423000  0.09848200  0.44179400  1
  Li  Li8  1  0.99744800  0.99966400  0.99885500  1
  Li  Li9  1  0.96993700  0.98719300  0.49775400  1
  V  V10  1  0.56520700  0.43417800  0.25709500  1
  V  V11  1  0.43499900  0.56397600  0.74591700  1
  V  V12  1  0.56725500  0.99925500  0.75179900  1
  V  V13  1  0.43634000  0.00069000  0.24651300  1
  V  V14  1  0.99932000  0.56630400  0.24679500  1
  V  V15  1  0.00124000  0.43569100  0.75282400  1
  P  P16  1  0.91807700  0.77711700  0.84443500  1
  P  P17  1  0.77716800  0.91014700  0.33958900  1
  P  P18  1  0.91623500  0.31224800  0.34317000  1
  P  P19  1  0.66708900  0.66234700  0.13113200  1
  P  P20  1  0.66778500  0.66666000  0.62986100  1
  P  P21  1  0.77199100  0.31502000  0.84152600  1
  P  P22  1  0.69325200  0.22113200  0.65858200  1
  P  P23  1  0.31362900  0.90997100  0.84223800  1
  P  P24  1  0.68868400  0.09169200  0.15851900  1
  P  P25  1  0.31243200  0.77694400  0.34322900  1
  P  P26  1  0.22657600  0.68689500  0.16108200  1
  P  P27  1  0.32729900  0.33390000  0.36826400  1
  P  P28  1  0.33428200  0.33423800  0.86901600  1
  P  P29  1  0.08106700  0.69406000  0.65705000  1
  P  P30  1  0.22611900  0.08808400  0.65995900  1
  P  P31  1  0.08393000  0.22243300  0.15790800  1
  O  O32  1  0.99214500  0.79444100  0.57385600  1
  O  O33  1  0.91698100  0.73925600  0.32829100  1
  O  O34  1  0.77351900  0.02062100  0.06765500  1
  O  O35  1  0.74616800  0.91887500  0.84184900  1
  O  O36  1  0.91832300  0.62127900  0.83291600  1
  O  O37  1  0.81203200  0.66501600  0.17728600  1
  O  O38  1  0.91618200  0.46792100  0.32758700  1
  O  O39  1  0.99045800  0.20936900  0.07833000  1
  O  O40  1  0.91385800  0.34291300  0.83283400  1
  O  O41  1  0.67725000  0.81128300  0.67029800  1
  O  O42  1  0.61963400  0.91402300  0.32783100  1
  O  O43  1  0.81112800  0.51319300  0.67125300  1
  O  O44  1  0.67171900  0.65384400  0.02550000  1
  O  O45  1  0.66924200  0.66583700  0.52339900  1
  O  O46  1  0.67124400  0.51213200  0.17427000  1
  O  O47  1  0.47035800  0.91107700  0.82822200  1
  O  O48  1  0.51282900  0.81175400  0.16801600  1
  O  O49  1  0.74633400  0.34085300  0.33755700  1
  O  O50  1  0.79004000  0.19866600  0.75621300  1
  O  O51  1  0.79859600  0.20622700  0.57698100  1
  O  O52  1  0.77823100  0.22979300  0.93270100  1
  O  O53  1  0.61723600  0.46987500  0.82786600  1
  O  O54  1  0.51018700  0.67878400  0.66852000  1
  O  O55  1  0.65778800  0.26299000  0.16654500  1
  O  O56  1  0.47005600  0.62095200  0.32762900  1
  O  O57  1  0.34153800  0.91867200  0.33642900  1
  O  O58  1  0.79626600  0.00280400  0.24944500  1
  O  O59  1  0.79327700  0.98012900  0.43002700  1
  O  O60  1  0.22553800  0.00123000  0.57119100  1
  O  O61  1  0.66008600  0.08149200  0.65981100  1
  O  O62  1  0.53780200  0.37900100  0.66771000  1
  O  O63  1  0.34193000  0.73950500  0.83558600  1
  O  O64  1  0.47700700  0.33427400  0.32651300  1
  O  O65  1  0.38265800  0.53289300  0.17477500  1
  O  O66  1  0.22244700  0.77607300  0.07244700  1
  O  O67  1  0.22988300  0.78328500  0.43371400  1
  O  O68  1  0.20386900  0.79633100  0.25241400  1
  O  O69  1  0.25452300  0.65954900  0.65722200  1
  O  O70  1  0.49074500  0.18711700  0.83102600  1
  O  O71  1  0.53157600  0.09089600  0.17122700  1
  O  O72  1  0.32585000  0.48775900  0.82780600  1
  O  O73  1  0.33404000  0.33743700  0.97518000  1
  O  O74  1  0.31778600  0.34121600  0.47351700  1
  O  O75  1  0.18389400  0.47791800  0.31769800  1
  O  O76  1  0.38022500  0.09051400  0.67339900  1
  O  O77  1  0.32553100  0.18552900  0.32900200  1
  O  O78  1  0.08554200  0.65722600  0.16369200  1
  O  O79  1  0.00142400  0.79796100  0.75046300  1
  O  O80  1  0.00629400  0.79145200  0.92728400  1
  O  O81  1  0.07655900  0.53947400  0.67005700  1
  O  O82  1  0.19274600  0.32747000  0.82262800  1
  O  O83  1  0.07872300  0.38182300  0.16809400  1
  O  O84  1  0.25679800  0.08368500  0.15669700  1
  O  O85  1  0.22980100  0.98245700  0.93348100  1
  O  O86  1  0.20413000  0.00056900  0.75191800  1
  O  O87  1  0.08091100  0.25616700  0.66046800  1
  O  O88  1  0.99763900  0.22877100  0.43363600  1
  O  O89  1  0.01256200  0.19754600  0.25684500  1
