# generated using pymatgen
data_Li2TiCrO4
_symmetry_space_group_name_H-M   'P 1'
_cell_length_a   5.22252087
_cell_length_b   10.43746925
_cell_length_c   10.00986362
_cell_angle_alpha   16.45089723
_cell_angle_beta   28.78421528
_cell_angle_gamma   32.79792681
_symmetry_Int_Tables_number   1
_chemical_formula_structural   Li2TiCrO4
_chemical_formula_sum   'Li2 Ti1 Cr1 O4'
_cell_volume   74.40364261
_cell_formula_units_Z   1
loop_
 _symmetry_equiv_pos_site_id
 _symmetry_equiv_pos_as_xyz
  1  'x, y, z'
loop_
 _atom_site_type_symbol
 _atom_site_label
 _atom_site_symmetry_multiplicity
 _atom_site_fract_x
 _atom_site_fract_y
 _atom_site_fract_z
 _atom_site_occupancy
  Li  Li0  1  0.00000000  0.00000000  0.00000000  1
  Li  Li1  1  0.00000000  0.50000000  0.00000000  1
  Ti  Ti2  1  0.50000000  0.00000000  0.50000000  1
  Cr  Cr3  1  0.50000200  0.49999900  0.50000000  1
  O  O4  1  0.25023800  0.00003600  0.23983800  1
  O  O5  1  0.24317600  0.50016600  0.24463400  1
  O  O6  1  0.74976100  0.99996500  0.76016200  1
  O  O7  1  0.75682400  0.49983500  0.75536600  1
