# generated using pymatgen
data_Li4Ti3V2Ni3O16
_symmetry_space_group_name_H-M   'P 1'
_cell_length_a   5.92573954
_cell_length_b   5.92573954
_cell_length_c   9.57950931
_cell_angle_alpha   89.92364414
_cell_angle_beta   89.92364414
_cell_angle_gamma   59.68667854
_symmetry_Int_Tables_number   1
_chemical_formula_structural   Li4Ti3V2Ni3O16
_chemical_formula_sum   'Li4 Ti3 V2 Ni3 O16'
_cell_volume   290.38799231
_cell_formula_units_Z   1
loop_
 _symmetry_equiv_pos_site_id
 _symmetry_equiv_pos_as_xyz
  1  'x, y, z'
loop_
 _atom_site_type_symbol
 _atom_site_label
 _atom_site_symmetry_multiplicity
 _atom_site_fract_x
 _atom_site_fract_y
 _atom_site_fract_z
 _atom_site_occupancy
  Li  Li0  1  0.66753100  0.66753100  0.09727700  1
  Li  Li1  1  0.99390200  0.99390200  0.01503700  1
  Li  Li2  1  0.99851300  0.99851300  0.50404700  1
  Li  Li3  1  0.33610600  0.33610600  0.59466800  1
  Ti  Ti4  1  0.34924900  0.84639600  0.77754300  1
  Ti  Ti5  1  0.84639600  0.34924900  0.77754300  1
  Ti  Ti6  1  0.18197900  0.18197900  0.26359300  1
  V  V7  1  0.66589600  0.66589600  0.49759500  1
  V  V8  1  0.35548100  0.35548100  0.01352200  1
  Ni  Ni9  1  0.82918100  0.82918100  0.79177300  1
  Ni  Ni10  1  0.16750500  0.65803800  0.29190800  1
  Ni  Ni11  1  0.65803800  0.16750500  0.29190800  1
  O  O12  1  0.35508100  0.82250000  0.41416100  1
  O  O13  1  0.51987400  0.51987400  0.66298000  1
  O  O14  1  0.65465600  0.65465600  0.89588200  1
  O  O15  1  0.00101900  0.00101900  0.69599700  1
  O  O16  1  0.00598600  0.00598600  0.20583400  1
  O  O17  1  0.82250000  0.35508100  0.41416100  1
  O  O18  1  0.50947100  0.96215200  0.65623700  1
  O  O19  1  0.96215200  0.50947100  0.65623700  1
  O  O20  1  0.16459500  0.16459500  0.89899900  1
  O  O21  1  0.82205500  0.82205500  0.41733000  1
  O  O22  1  0.03542500  0.47428700  0.14759000  1
  O  O23  1  0.47428700  0.03542500  0.14759000  1
  O  O24  1  0.32070100  0.32070100  0.39457600  1
  O  O25  1  0.17553300  0.64844200  0.91164400  1
  O  O26  1  0.47817200  0.47817200  0.14487600  1
  O  O27  1  0.64844200  0.17553300  0.91164400  1
