# generated using pymatgen
data_LiVGaO4
_symmetry_space_group_name_H-M   'P 1'
_cell_length_a   5.88352153
_cell_length_b   5.89653132
_cell_length_c   8.59651075
_cell_angle_alpha   90.00141396
_cell_angle_beta   90.00841830
_cell_angle_gamma   90.84360681
_symmetry_Int_Tables_number   1
_chemical_formula_structural   LiVGaO4
_chemical_formula_sum   'Li4 V4 Ga4 O16'
_cell_volume   298.20099288
_cell_formula_units_Z   4
loop_
 _symmetry_equiv_pos_site_id
 _symmetry_equiv_pos_as_xyz
  1  'x, y, z'
loop_
 _atom_site_type_symbol
 _atom_site_label
 _atom_site_symmetry_multiplicity
 _atom_site_fract_x
 _atom_site_fract_y
 _atom_site_fract_z
 _atom_site_occupancy
  Li  Li0  1  0.24981000  0.49995400  0.63420800  1
  Li  Li1  1  0.75000600  0.99988400  0.13371900  1
  Li  Li2  1  0.24999300  0.00009300  0.86629200  1
  Li  Li3  1  0.75019000  0.50004700  0.36579900  1
  V  V4  1  0.99998900  0.00007300  0.49999400  1
  V  V5  1  0.50006500  0.00005800  0.49994100  1
  V  V6  1  0.50002400  0.50002800  0.99999300  1
  V  V7  1  0.99994000  0.49991000  0.00002200  1
  Ga  Ga8  1  0.25011600  0.74995400  0.24996600  1
  Ga  Ga9  1  0.74987400  0.25001600  0.75004400  1
  Ga  Ga10  1  0.75035000  0.75028500  0.75013600  1
  Ga  Ga11  1  0.24964600  0.24972200  0.24984700  1
  O  O12  1  0.97525100  0.00850600  0.73262900  1
  O  O13  1  0.47515300  0.50806900  0.23224700  1
  O  O14  1  0.97474000  0.50824900  0.76746000  1
  O  O15  1  0.47495200  0.00825900  0.26741500  1
  O  O16  1  0.52507500  0.99174400  0.73258400  1
  O  O17  1  0.02522700  0.49172900  0.23254600  1
  O  O18  1  0.52487100  0.49190600  0.76775500  1
  O  O19  1  0.02472500  0.99150600  0.26737800  1
  O  O20  1  0.74174100  0.72132100  0.99360300  1
  O  O21  1  0.24204700  0.22102100  0.49363100  1
  O  O22  1  0.75841200  0.27876700  0.99390500  1
  O  O23  1  0.25794700  0.77903600  0.49365600  1
  O  O24  1  0.74206700  0.22102700  0.50633900  1
  O  O25  1  0.24156800  0.72116200  0.00611200  1
  O  O26  1  0.75795400  0.77898300  0.50637000  1
  O  O27  1  0.25826800  0.27869100  0.00640900  1
