# generated using pymatgen
data_Li2CoSiO4
_symmetry_space_group_name_H-M   'P 1'
_cell_length_a   5.37625621
_cell_length_b   5.37729436
_cell_length_c   12.37123933
_cell_angle_alpha   89.98633577
_cell_angle_beta   90.01441981
_cell_angle_gamma   109.75266799
_symmetry_Int_Tables_number   1
_chemical_formula_structural   Li2CoSiO4
_chemical_formula_sum   'Li8 Co4 Si4 O16'
_cell_volume   336.60498751
_cell_formula_units_Z   4
loop_
 _symmetry_equiv_pos_site_id
 _symmetry_equiv_pos_as_xyz
  1  'x, y, z'
loop_
 _atom_site_type_symbol
 _atom_site_label
 _atom_site_symmetry_multiplicity
 _atom_site_fract_x
 _atom_site_fract_y
 _atom_site_fract_z
 _atom_site_occupancy
  Li  Li0  1  0.49778500  0.00174200  0.62549700  1
  Li  Li1  1  0.99776200  0.50174800  0.87551900  1
  Li  Li2  1  0.49777100  0.00172700  0.12554100  1
  Li  Li3  1  0.99775600  0.50175000  0.37552100  1
  Li  Li4  1  0.49744700  0.00159800  0.87561400  1
  Li  Li5  1  0.99747200  0.50159500  0.12563800  1
  Li  Li6  1  0.49744800  0.00160700  0.37561600  1
  Li  Li7  1  0.99745800  0.50157800  0.62559200  1
  Co  Co8  1  0.49680900  0.50104600  0.00049700  1
  Co  Co9  1  0.99683000  0.00104400  0.75020900  1
  Co  Co10  1  0.99684400  0.00103000  0.25035200  1
  Co  Co11  1  0.49684100  0.50103000  0.50037000  1
  Si  Si12  1  0.99722900  0.00135000  0.00042200  1
  Si  Si13  1  0.49715400  0.50140800  0.25048400  1
  Si  Si14  1  0.99714300  0.00143100  0.50045400  1
  Si  Si15  1  0.49723100  0.50133600  0.75052100  1
  O  O16  1  0.16959500  0.39567200  0.75061200  1
  O  O17  1  0.66955800  0.89569200  0.00047200  1
  O  O18  1  0.16955000  0.39577000  0.25053800  1
  O  O19  1  0.66954200  0.89576600  0.50055200  1
  O  O20  1  0.10865900  0.88987000  0.60857600  1
  O  O21  1  0.60873100  0.38978000  0.85861100  1
  O  O22  1  0.10868700  0.88978300  0.10857300  1
  O  O23  1  0.60867100  0.38979500  0.35857900  1
  O  O24  1  0.10242000  0.32909600  0.00046100  1
  O  O25  1  0.60240200  0.82912700  0.25049500  1
  O  O26  1  0.10234200  0.32913100  0.50055100  1
  O  O27  1  0.60247100  0.82909800  0.75061700  1
  O  O28  1  0.60873600  0.39041900  0.64228500  1
  O  O29  1  0.10875200  0.89042400  0.89224700  1
  O  O30  1  0.60873000  0.39057200  0.14226500  1
  O  O31  1  0.10874200  0.89046700  0.39227300  1
