# generated using pymatgen
data_Li3B2SbO6
_symmetry_space_group_name_H-M   'P 1'
_cell_length_a   9.05334900
_cell_length_b   5.35283800
_cell_length_c   11.82582110
_cell_angle_alpha   64.39509904
_cell_angle_beta   90.00000000
_cell_angle_gamma   90.00000000
_symmetry_Int_Tables_number   1
_chemical_formula_structural   Li3B2SbO6
_chemical_formula_sum   'Li12 B8 Sb4 O24'
_cell_volume   516.81220506
_cell_formula_units_Z   4
loop_
 _symmetry_equiv_pos_site_id
 _symmetry_equiv_pos_as_xyz
  1  'x, y, z'
loop_
 _atom_site_type_symbol
 _atom_site_label
 _atom_site_symmetry_multiplicity
 _atom_site_fract_x
 _atom_site_fract_y
 _atom_site_fract_z
 _atom_site_occupancy
  Li  Li0  1  0.97412400  0.51815900  0.32494800  1
  Li  Li1  1  0.65318100  0.44385200  0.38371600  1
  Li  Li2  1  0.98627600  0.92429100  0.90542100  1
  Li  Li3  1  0.15318100  0.55614800  0.11628400  1
  Li  Li4  1  0.48627600  0.07570900  0.59457900  1
  Li  Li5  1  0.47412400  0.48184100  0.17505200  1
  Li  Li6  1  0.52587600  0.51815900  0.82494800  1
  Li  Li7  1  0.51372400  0.92429100  0.40542100  1
  Li  Li8  1  0.84681900  0.44385200  0.88371600  1
  Li  Li9  1  0.01372400  0.07570900  0.09457900  1
  Li  Li10  1  0.34681900  0.55614800  0.61628400  1
  Li  Li11  1  0.02587600  0.48184100  0.67505200  1
  B  B12  1  0.32858100  0.45976100  0.37920700  1
  B  B13  1  0.67205000  0.96874700  0.86701100  1
  B  B14  1  0.82858100  0.54023900  0.12079300  1
  B  B15  1  0.17205000  0.03125300  0.63298900  1
  B  B16  1  0.82795000  0.96874700  0.36701100  1
  B  B17  1  0.17141900  0.45976100  0.87920700  1
  B  B18  1  0.32795000  0.03125300  0.13298900  1
  B  B19  1  0.67141900  0.54023900  0.62079300  1
  Sb  Sb20  1  0.32694100  0.97440400  0.87408300  1
  Sb  Sb21  1  0.82694100  0.02559600  0.62591700  1
  Sb  Sb22  1  0.17305900  0.97440400  0.37408300  1
  Sb  Sb23  1  0.67305900  0.02559600  0.12591700  1
  O  O24  1  0.33178900  0.81211700  0.10004200  1
  O  O25  1  0.64165800  0.33164400  0.58240300  1
  O  O26  1  0.94213700  0.71229100  0.12247200  1
  O  O27  1  0.04433200  0.16829100  0.63984800  1
  O  O28  1  0.30414400  0.12594300  0.66371900  1
  O  O29  1  0.68406700  0.56600100  0.15601700  1
  O  O30  1  0.18406700  0.43399900  0.34398300  1
  O  O31  1  0.80414400  0.87405700  0.83628100  1
  O  O32  1  0.54433200  0.83170900  0.86015200  1
  O  O33  1  0.44213700  0.28770900  0.37752800  1
  O  O34  1  0.83178900  0.18788300  0.39995800  1
  O  O35  1  0.14165800  0.66835600  0.91759700  1
  O  O36  1  0.85834200  0.33164400  0.08240300  1
  O  O37  1  0.16821100  0.81211700  0.60004200  1
  O  O38  1  0.55786300  0.71229100  0.62247200  1
  O  O39  1  0.45566800  0.16829100  0.13984800  1
  O  O40  1  0.19585600  0.12594300  0.16371900  1
  O  O41  1  0.81593300  0.56600100  0.65601700  1
  O  O42  1  0.31593300  0.43399900  0.84398300  1
  O  O43  1  0.69585600  0.87405700  0.33628100  1
  O  O44  1  0.95566800  0.83170900  0.36015200  1
  O  O45  1  0.05786300  0.28770900  0.87752800  1
  O  O46  1  0.35834200  0.66835600  0.41759700  1
  O  O47  1  0.66821100  0.18788300  0.89995800  1
