# generated using pymatgen
data_Li2Mn3P9O28
_symmetry_space_group_name_H-M   'P 1'
_cell_length_a   7.08448100
_cell_length_b   8.88929103
_cell_length_c   9.18142401
_cell_angle_alpha   110.65880271
_cell_angle_beta   108.97730244
_cell_angle_gamma   98.47588843
_symmetry_Int_Tables_number   1
_chemical_formula_structural   Li2Mn3P9O28
_chemical_formula_sum   'Li2 Mn3 P9 O28'
_cell_volume   488.65868331
_cell_formula_units_Z   1
loop_
 _symmetry_equiv_pos_site_id
 _symmetry_equiv_pos_as_xyz
  1  'x, y, z'
loop_
 _atom_site_type_symbol
 _atom_site_label
 _atom_site_symmetry_multiplicity
 _atom_site_fract_x
 _atom_site_fract_y
 _atom_site_fract_z
 _atom_site_occupancy
  Li  Li0  1  0.71186700  0.96133200  0.22738500  1
  Li  Li1  1  0.28813300  0.03866800  0.77261500  1
  Mn  Mn2  1  0.50000000  0.50000000  0.00000000  1
  Mn  Mn3  1  0.24057100  0.98579000  0.24060700  1
  Mn  Mn4  1  0.75942900  0.01421000  0.75939300  1
  P  P5  1  0.30109700  0.75476700  0.44589600  1
  P  P6  1  0.78593800  0.76133500  0.93142300  1
  P  P7  1  0.68908600  0.70763300  0.42140000  1
  P  P8  1  0.15718400  0.68119600  0.89322200  1
  P  P9  1  0.00000000  0.50000000  0.50000000  1
  P  P10  1  0.31091400  0.29236700  0.57860000  1
  P  P11  1  0.84281600  0.31880400  0.10677800  1
  P  P12  1  0.69890300  0.24523300  0.55410400  1
  P  P13  1  0.21406200  0.23866500  0.06857700  1
  O  O14  1  0.40084900  0.90819000  0.61667100  1
  O  O15  1  0.90232000  0.90768700  0.10753100  1
  O  O16  1  0.28521500  0.86331400  0.02206300  1
  O  O17  1  0.81063300  0.88649300  0.56026700  1
  O  O18  1  0.72677400  0.81185700  0.78454500  1
  O  O19  1  0.22783700  0.79064700  0.28978000  1
  O  O20  1  0.65547400  0.70924900  0.25113900  1
  O  O21  1  0.11936900  0.66544300  0.70763900  1
  O  O22  1  0.58765000  0.64829700  0.91114600  1
  O  O23  1  0.10731200  0.62775700  0.42857000  1
  O  O24  1  0.46371600  0.64818700  0.42614000  1
  O  O25  1  0.93147200  0.64252500  0.89641200  1
  O  O26  1  0.23588000  0.54622400  0.93409000  1
  O  O27  1  0.78161000  0.56793100  0.45810100  1
  O  O28  1  0.76412000  0.45377600  0.06591000  1
  O  O29  1  0.21839000  0.43206900  0.54189900  1
  O  O30  1  0.53628400  0.35181300  0.57386000  1
  O  O31  1  0.06852800  0.35747500  0.10358800  1
  O  O32  1  0.41235000  0.35170300  0.08885400  1
  O  O33  1  0.89268800  0.37224300  0.57143000  1
  O  O34  1  0.34452600  0.29075100  0.74886100  1
  O  O35  1  0.88063100  0.33455700  0.29236100  1
  O  O36  1  0.27322600  0.18814300  0.21545500  1
  O  O37  1  0.77216300  0.20935300  0.71022000  1
  O  O38  1  0.71478500  0.13668600  0.97793700  1
  O  O39  1  0.18936700  0.11350700  0.43973300  1
  O  O40  1  0.59915100  0.09181000  0.38332900  1
  O  O41  1  0.09768000  0.09231300  0.89246900  1
