# generated using pymatgen
data_Li4VP2(O4F)2
_symmetry_space_group_name_H-M   'P 1'
_cell_length_a   10.94536900
_cell_length_b   6.46183800
_cell_length_c   10.58411781
_cell_angle_alpha   89.81560936
_cell_angle_beta   90.00000000
_cell_angle_gamma   90.00000000
_symmetry_Int_Tables_number   1
_chemical_formula_structural   Li4VP2(O4F)2
_chemical_formula_sum   'Li16 V4 P8 O32 F8'
_cell_volume   748.58115467
_cell_formula_units_Z   4
loop_
 _symmetry_equiv_pos_site_id
 _symmetry_equiv_pos_as_xyz
  1  'x, y, z'
loop_
 _atom_site_type_symbol
 _atom_site_label
 _atom_site_symmetry_multiplicity
 _atom_site_fract_x
 _atom_site_fract_y
 _atom_site_fract_z
 _atom_site_occupancy
  Li  Li0  1  0.47592600  0.74880800  0.96069300  1
  Li  Li1  1  0.52407400  0.74880800  0.46069300  1
  Li  Li2  1  0.15379300  0.72882500  0.72707600  1
  Li  Li3  1  0.84620700  0.72882500  0.22707600  1
  Li  Li4  1  0.24533000  0.49961200  0.49516300  1
  Li  Li5  1  0.75529000  0.50127700  0.51018200  1
  Li  Li6  1  0.24471000  0.50127700  0.01018200  1
  Li  Li7  1  0.75467000  0.49961200  0.99516300  1
  Li  Li8  1  0.41882900  0.49434300  0.76713100  1
  Li  Li9  1  0.58117100  0.49434300  0.26713100  1
  Li  Li10  1  0.66169400  0.26543800  0.77446000  1
  Li  Li11  1  0.33830600  0.26543800  0.27446000  1
  Li  Li12  1  0.97831400  0.26968000  0.53837300  1
  Li  Li13  1  0.02168600  0.26968000  0.03837300  1
  Li  Li14  1  0.91735300  0.03101800  0.75479000  1
  Li  Li15  1  0.08264700  0.03101800  0.25479000  1
  V  V16  1  0.25329500  0.99256400  0.50266200  1
  V  V17  1  0.74865700  0.99275000  0.50247900  1
  V  V18  1  0.25134300  0.99275000  0.00247900  1
  V  V19  1  0.74670500  0.99256400  0.00266200  1
  P  P20  1  0.00719800  0.75463100  0.96698200  1
  P  P21  1  0.99280200  0.75463100  0.46698200  1
  P  P22  1  0.66731600  0.73443100  0.76049700  1
  P  P23  1  0.33268400  0.73443100  0.26049700  1
  P  P24  1  0.17138200  0.25379400  0.74245100  1
  P  P25  1  0.82861800  0.25379400  0.24245100  1
  P  P26  1  0.50847600  0.26425200  0.52949100  1
  P  P27  1  0.49152400  0.26425200  0.02949100  1
  O  O28  1  0.91744700  0.93669500  0.53656500  1
  O  O29  1  0.08255300  0.93669500  0.03656500  1
  O  O30  1  0.73042000  0.93314900  0.82645900  1
  O  O31  1  0.26958000  0.93314900  0.32645900  1
  O  O32  1  0.69977500  0.76203900  0.61600500  1
  O  O33  1  0.30022500  0.76203900  0.11600500  1
  O  O34  1  0.12628800  0.76991500  0.52464900  1
  O  O35  1  0.87371200  0.76991500  0.02464900  1
  O  O36  1  0.00671400  0.80137200  0.82615200  1
  O  O37  1  0.99328600  0.80137200  0.32615200  1
  O  O38  1  0.53017600  0.74376200  0.78080500  1
  O  O39  1  0.46982400  0.74376200  0.28080500  1
  O  O40  1  0.93605200  0.55031800  0.50455800  1
  O  O41  1  0.06394800  0.55031800  0.00455800  1
  O  O42  1  0.72823400  0.54014200  0.81117300  1
  O  O43  1  0.27176600  0.54014200  0.31117300  1
  O  O44  1  0.23469100  0.45202100  0.69676200  1
  O  O45  1  0.76530900  0.45202100  0.19676200  1
  O  O46  1  0.43280700  0.44625400  0.95878500  1
  O  O47  1  0.56719300  0.44625400  0.45878500  1
  O  O48  1  0.03545500  0.24594000  0.71577300  1
  O  O49  1  0.96454500  0.24594000  0.21577300  1
  O  O50  1  0.51051100  0.28604500  0.67196600  1
  O  O51  1  0.48948900  0.28604500  0.17196600  1
  O  O52  1  0.62459200  0.22519200  0.97768900  1
  O  O53  1  0.37540800  0.22519200  0.47768900  1
  O  O54  1  0.20140800  0.21653600  0.88529600  1
  O  O55  1  0.79859200  0.21653600  0.38529600  1
  O  O56  1  0.23255100  0.06215500  0.66991400  1
  O  O57  1  0.76744900  0.06215500  0.16991400  1
  O  O58  1  0.41716400  0.06113200  0.99028200  1
  O  O59  1  0.58283600  0.06113200  0.49028200  1
  F  F60  1  0.36572700  0.77448100  0.53866200  1
  F  F61  1  0.63427300  0.77448100  0.03866200  1
  F  F62  1  0.26460400  0.78048100  0.87841600  1
  F  F63  1  0.73539600  0.78048100  0.37841600  1
  F  F64  1  0.77171400  0.20883300  0.62814600  1
  F  F65  1  0.22828600  0.20883300  0.12814600  1
  F  F66  1  0.86673500  0.19697700  0.95116800  1
  F  F67  1  0.13326500  0.19697700  0.45116800  1
