# generated using pymatgen
data_Li13Ni15O28
_symmetry_space_group_name_H-M   'P 1'
_cell_length_a   7.67451000
_cell_length_b   8.27517661
_cell_length_c   8.64331034
_cell_angle_alpha   104.21361952
_cell_angle_beta   104.38228263
_cell_angle_gamma   105.06017495
_symmetry_Int_Tables_number   1
_chemical_formula_structural   Li13Ni15O28
_chemical_formula_sum   'Li13 Ni15 O28'
_cell_volume   484.42066998
_cell_formula_units_Z   1
loop_
 _symmetry_equiv_pos_site_id
 _symmetry_equiv_pos_as_xyz
  1  'x, y, z'
loop_
 _atom_site_type_symbol
 _atom_site_label
 _atom_site_symmetry_multiplicity
 _atom_site_fract_x
 _atom_site_fract_y
 _atom_site_fract_z
 _atom_site_occupancy
  Li  Li0  1  0.92969400  0.78466300  0.21417300  1
  Li  Li1  1  0.21648800  0.64463300  0.35836900  1
  Li  Li2  1  0.00000000  0.50000000  0.00000000  1
  Li  Li3  1  0.85664000  0.07063200  0.42684500  1
  Li  Li4  1  0.14336000  0.92936800  0.57315500  1
  Li  Li5  1  0.78351200  0.35536700  0.64163100  1
  Li  Li6  1  0.28142300  0.35639400  0.14161700  1
  Li  Li7  1  0.42929000  0.78885900  0.71372800  1
  Li  Li8  1  0.07030600  0.21533700  0.78582700  1
  Li  Li9  1  0.57071000  0.21114100  0.28627200  1
  Li  Li10  1  0.71857700  0.64360600  0.85838300  1
  Li  Li11  1  0.35515600  0.06746200  0.92675200  1
  Li  Li12  1  0.64484400  0.93253800  0.07324800  1
  Ni  Ni13  1  0.85538600  0.56977600  0.42869300  1
  Ni  Ni14  1  0.14461400  0.43022400  0.57130700  1
  Ni  Ni15  1  0.57386400  0.71699200  0.28718500  1
  Ni  Ni16  1  0.50000000  0.50000000  0.50000000  1
  Ni  Ni17  1  0.06993800  0.71391000  0.78802700  1
  Ni  Ni18  1  0.93006200  0.28609000  0.21197300  1
  Ni  Ni19  1  0.21223600  0.14197200  0.35724200  1
  Ni  Ni20  1  0.35972500  0.57343300  0.93031900  1
  Ni  Ni21  1  0.50000000  0.00000000  0.50000000  1
  Ni  Ni22  1  0.64027500  0.42656700  0.06968100  1
  Ni  Ni23  1  0.00000000  0.00000000  0.00000000  1
  Ni  Ni24  1  0.78776400  0.85802800  0.64275800  1
  Ni  Ni25  1  0.42613600  0.28300800  0.71281500  1
  Ni  Ni26  1  0.28712800  0.85494200  0.14466200  1
  Ni  Ni27  1  0.71287200  0.14505800  0.85533800  1
  O  O28  1  0.78832900  0.60515000  0.63140900  1
  O  O29  1  0.83828400  0.81143600  0.41768900  1
  O  O30  1  0.11769200  0.67478900  0.57534500  1
  O  O31  1  0.50935500  0.75026300  0.49297100  1
  O  O32  1  0.88230800  0.32521100  0.42465500  1
  O  O33  1  0.00560000  0.74622100  0.99083400  1
  O  O34  1  0.91328300  0.51744300  0.21752900  1
  O  O35  1  0.16171600  0.18856400  0.58231100  1
  O  O36  1  0.35768200  0.80776900  0.94525000  1
  O  O37  1  0.30960900  0.62596500  0.15468900  1
  O  O38  1  0.21167100  0.39485000  0.36859100  1
  O  O39  1  0.93398000  0.05078200  0.20298600  1
  O  O40  1  0.99440000  0.25377900  0.00916600  1
  O  O41  1  0.49064500  0.24973700  0.50702900  1
  O  O42  1  0.58910000  0.46761300  0.29323800  1
  O  O43  1  0.63293100  0.65957800  0.07698500  1
  O  O44  1  0.08671700  0.48255700  0.78247100  1
  O  O45  1  0.22991000  0.89707100  0.34905200  1
  O  O46  1  0.41090000  0.53238700  0.70676200  1
  O  O47  1  0.36706900  0.34042200  0.92301500  1
  O  O48  1  0.26610900  0.08530100  0.13265000  1
  O  O49  1  0.64231800  0.19223100  0.05475000  1
  O  O50  1  0.56700500  0.96729800  0.29985900  1
  O  O51  1  0.06602000  0.94921800  0.79701400  1
  O  O52  1  0.69039100  0.37403500  0.84531100  1
  O  O53  1  0.43299500  0.03270200  0.70014100  1
  O  O54  1  0.73389100  0.91469900  0.86735000  1
  O  O55  1  0.77009000  0.10292900  0.65094800  1
