# generated using pymatgen
data_LiVF5
_symmetry_space_group_name_H-M   'P 1'
_cell_length_a   5.27747400
_cell_length_b   6.01972800
_cell_length_c   12.77857100
_cell_angle_alpha   90.00000000
_cell_angle_beta   90.00000000
_cell_angle_gamma   90.00000000
_symmetry_Int_Tables_number   1
_chemical_formula_structural   LiVF5
_chemical_formula_sum   'Li4 V4 F20'
_cell_volume   405.96188549
_cell_formula_units_Z   4
loop_
 _symmetry_equiv_pos_site_id
 _symmetry_equiv_pos_as_xyz
  1  'x, y, z'
loop_
 _atom_site_type_symbol
 _atom_site_label
 _atom_site_symmetry_multiplicity
 _atom_site_fract_x
 _atom_site_fract_y
 _atom_site_fract_z
 _atom_site_occupancy
  Li  Li0  1  0.01096900  0.63448400  0.64548400  1
  Li  Li1  1  0.51096900  0.86551600  0.35451600  1
  Li  Li2  1  0.48903100  0.36551600  0.14548400  1
  Li  Li3  1  0.98903100  0.13448400  0.85451600  1
  V  V4  1  0.32530500  0.12139200  0.58977900  1
  V  V5  1  0.82530500  0.37860800  0.41022100  1
  V  V6  1  0.17469500  0.87860800  0.08977900  1
  V  V7  1  0.67469500  0.62139200  0.91022100  1
  F  F8  1  0.59421800  0.08097800  0.67204400  1
  F  F9  1  0.12944300  0.92437000  0.66948600  1
  F  F10  1  0.18094700  0.35854300  0.65902500  1
  F  F11  1  0.53392400  0.33485600  0.50899600  1
  F  F12  1  0.41990500  0.89455700  0.49832200  1
  F  F13  1  0.91990500  0.60544300  0.50167800  1
  F  F14  1  0.03392400  0.16514400  0.49100400  1
  F  F15  1  0.68094700  0.14145700  0.34097500  1
  F  F16  1  0.62944300  0.57563000  0.33051400  1
  F  F17  1  0.09421800  0.41902200  0.32795600  1
  F  F18  1  0.90578200  0.91902200  0.17204400  1
  F  F19  1  0.37055700  0.07563000  0.16948600  1
  F  F20  1  0.31905300  0.64145700  0.15902500  1
  F  F21  1  0.96607600  0.66514400  0.00899600  1
  F  F22  1  0.08009500  0.10544300  0.99832200  1
  F  F23  1  0.58009500  0.39455700  0.00167800  1
  F  F24  1  0.46607600  0.83485600  0.99100400  1
  F  F25  1  0.81905300  0.85854300  0.84097500  1
  F  F26  1  0.87055700  0.42437000  0.83051400  1
  F  F27  1  0.40578200  0.58097800  0.82795600  1
