# generated using pymatgen
data_Li2FeSiO4
_symmetry_space_group_name_H-M   'P 1'
_cell_length_a   5.06921700
_cell_length_b   5.06900243
_cell_length_c   23.27632600
_cell_angle_alpha   89.99855144
_cell_angle_beta   90.00096198
_cell_angle_gamma   60.00143828
_symmetry_Int_Tables_number   1
_chemical_formula_structural   Li2FeSiO4
_chemical_formula_sum   'Li12 Fe6 Si6 O24'
_cell_volume   517.98208443
_cell_formula_units_Z   6
loop_
 _symmetry_equiv_pos_site_id
 _symmetry_equiv_pos_as_xyz
  1  'x, y, z'
loop_
 _atom_site_type_symbol
 _atom_site_label
 _atom_site_symmetry_multiplicity
 _atom_site_fract_x
 _atom_site_fract_y
 _atom_site_fract_z
 _atom_site_occupancy
  Li  Li0  1  0.44083100  0.88824500  0.29288200  1
  Li  Li1  1  0.44077000  0.88820600  0.79287100  1
  Li  Li2  1  0.67095400  0.44083800  0.45956700  1
  Li  Li3  1  0.67098100  0.44072600  0.95957900  1
  Li  Li4  1  0.88819800  0.67102100  0.12622600  1
  Li  Li5  1  0.88814500  0.67098400  0.62623500  1
  Li  Li6  1  0.32906200  0.11179500  0.04041900  1
  Li  Li7  1  0.32902600  0.11179100  0.54042700  1
  Li  Li8  1  0.11183700  0.55916200  0.37376800  1
  Li  Li9  1  0.11190200  0.55904600  0.87379300  1
  Li  Li10  1  0.55915800  0.32904200  0.20710700  1
  Li  Li11  1  0.55909400  0.32904100  0.70710200  1
  Fe  Fe12  1  0.54581600  0.45401100  0.58331500  1
  Fe  Fe13  1  0.99955600  0.54602100  0.25002600  1
  Fe  Fe14  1  0.45451700  0.99954300  0.91667600  1
  Fe  Fe15  1  0.54614400  0.45428000  0.08329000  1
  Fe  Fe16  1  0.99980900  0.54626500  0.75004700  1
  Fe  Fe17  1  0.45461000  0.99959400  0.41663600  1
  Si  Si18  1  0.80571700  0.19438100  0.33333800  1
  Si  Si19  1  0.80563100  0.19434000  0.83333500  1
  Si  Si20  1  0.19435200  0.00002800  0.16666800  1
  Si  Si21  1  0.19426600  0.00006700  0.66667600  1
  Si  Si22  1  0.99999600  0.80571500  0.49999900  1
  Si  Si23  1  0.00004700  0.80561800  0.00001500  1
  O  O24  1  0.28865900  0.85235500  0.48092400  1
  O  O25  1  0.28870300  0.85227400  0.98092800  1
  O  O26  1  0.85895500  0.28880900  0.14762400  1
  O  O27  1  0.85889100  0.28874500  0.64760900  1
  O  O28  1  0.14110900  0.14769400  0.35238000  1
  O  O29  1  0.14100700  0.14764600  0.85237200  1
  O  O30  1  0.85230200  0.85903900  0.31427500  1
  O  O31  1  0.85224700  0.85893700  0.81430700  1
  O  O32  1  0.14769800  0.71131700  0.18571600  1
  O  O33  1  0.14759700  0.71133800  0.68573700  1
  O  O34  1  0.71138800  0.14097300  0.01906700  1
  O  O35  1  0.71130000  0.14100700  0.51905400  1
  O  O36  1  0.67735500  0.43769400  0.27916700  1
  O  O37  1  0.67719900  0.43766700  0.77917700  1
  O  O38  1  0.43768400  0.88504200  0.11249300  1
  O  O39  1  0.43758000  0.88501500  0.61250300  1
  O  O40  1  0.88496800  0.67737600  0.44583900  1
  O  O41  1  0.88497700  0.67733500  0.94585600  1
  O  O42  1  0.11502300  0.56231300  0.05415100  1
  O  O43  1  0.11493000  0.56236300  0.55414500  1
  O  O44  1  0.32266800  0.11501600  0.22082500  1
  O  O45  1  0.32259300  0.11503400  0.72083000  1
  O  O46  1  0.56236800  0.32271100  0.38748500  1
  O  O47  1  0.56238000  0.32254400  0.88750500  1
