# generated using pymatgen
data_Li3La14(CuO7)4
_symmetry_space_group_name_H-M   'P 1'
_cell_length_a   11.62343509
_cell_length_b   11.62343509
_cell_length_c   11.88803734
_cell_angle_alpha   65.79931312
_cell_angle_beta   65.79931312
_cell_angle_gamma   68.93848632
_symmetry_Int_Tables_number   1
_chemical_formula_structural   Li3La14(CuO7)4
_chemical_formula_sum   'Li6 La28 Cu8 O56'
_cell_volume   1300.40807672
_cell_formula_units_Z   2
loop_
 _symmetry_equiv_pos_site_id
 _symmetry_equiv_pos_as_xyz
  1  'x, y, z'
loop_
 _atom_site_type_symbol
 _atom_site_label
 _atom_site_symmetry_multiplicity
 _atom_site_fract_x
 _atom_site_fract_y
 _atom_site_fract_z
 _atom_site_occupancy
  Li  Li0  1  0.28556800  0.28556800  0.07160800  1
  Li  Li1  1  0.14281000  0.14281000  0.78530300  1
  Li  Li2  1  0.85719000  0.85719000  0.21469700  1
  Li  Li3  1  0.71443200  0.71443200  0.92839200  1
  Li  Li4  1  0.57128100  0.57128100  0.64299200  1
  Li  Li5  1  0.42871900  0.42871900  0.35700800  1
  La  La6  1  0.35225700  0.07562500  0.92871700  1
  La  La7  1  0.07562500  0.35225700  0.92871700  1
  La  La8  1  0.00561100  0.28418300  0.28271300  1
  La  La9  1  0.29051800  0.56662600  0.85744500  1
  La  La10  1  0.28418300  0.00561100  0.28271300  1
  La  La11  1  0.13723900  0.86276100  0.00000000  1
  La  La12  1  0.56662600  0.29051800  0.85744500  1
  La  La13  1  0.86276100  0.13723900  0.00000000  1
  La  La14  1  0.21284200  0.93215500  0.64495700  1
  La  La15  1  0.49552800  0.21873600  0.21435300  1
  La  La16  1  0.06784500  0.78715800  0.35504300  1
  La  La17  1  0.93215500  0.21284200  0.64495700  1
  La  La18  1  0.92437500  0.64774300  0.07128300  1
  La  La19  1  0.78126400  0.50447200  0.78564700  1
  La  La20  1  0.21873600  0.49552800  0.21435300  1
  La  La21  1  0.64774300  0.92437500  0.07128300  1
  La  La22  1  0.50447200  0.78126400  0.78564700  1
  La  La23  1  0.78715800  0.06784500  0.35504300  1
  La  La24  1  0.42329300  0.14812300  0.57111700  1
  La  La25  1  0.70948200  0.43337400  0.14255500  1
  La  La26  1  0.14812300  0.42329300  0.57111700  1
  La  La27  1  0.85187700  0.57670700  0.42888300  1
  La  La28  1  0.43337400  0.70948200  0.14255500  1
  La  La29  1  0.71581700  0.99438900  0.71728700  1
  La  La30  1  0.57670700  0.85187700  0.42888300  1
  La  La31  1  0.99438900  0.71581700  0.71728700  1
  La  La32  1  0.63886800  0.36113200  0.50000000  1
  La  La33  1  0.36113200  0.63886800  0.50000000  1
  Cu  Cu34  1  0.21489700  0.21489700  0.42836000  1
  Cu  Cu35  1  0.07169500  0.07169500  0.14196000  1
  Cu  Cu36  1  0.92830500  0.92830500  0.85804000  1
  Cu  Cu37  1  0.00000000  0.00000000  0.50000000  1
  Cu  Cu38  1  0.35732900  0.35732900  0.71422500  1
  Cu  Cu39  1  0.78510300  0.78510300  0.57164000  1
  Cu  Cu40  1  0.50000000  0.50000000  0.00000000  1
  Cu  Cu41  1  0.64267100  0.64267100  0.28577500  1
  O  O42  1  0.25287600  0.25287600  0.74930800  1
  O  O43  1  0.32223700  0.32223700  0.88831900  1
  O  O44  1  0.32296600  0.96271400  0.78489900  1
  O  O45  1  0.96271400  0.32296600  0.78489900  1
  O  O46  1  0.24976300  0.24976300  0.25352700  1
  O  O47  1  0.10704200  0.10704200  0.96646400  1
  O  O48  1  0.32023000  0.32023000  0.39284300  1
  O  O49  1  0.03334600  0.03334600  0.82211800  1
  O  O50  1  0.17660100  0.17660100  0.10696900  1
  O  O51  1  0.68584400  0.31415600  0.00000000  1
  O  O52  1  0.25710400  0.88575700  0.14336000  1
  O  O53  1  0.88575700  0.25710400  0.14336000  1
  O  O54  1  0.31415600  0.68584400  0.00000000  1
  O  O55  1  0.11424300  0.74289600  0.85664000  1
  O  O56  1  0.74289600  0.11424300  0.85664000  1
  O  O57  1  0.82339900  0.82339900  0.89303100  1
  O  O58  1  0.17942300  0.17942300  0.60336200  1
  O  O59  1  0.89295800  0.89295800  0.03353600  1
  O  O60  1  0.75023700  0.75023700  0.74647300  1
  O  O61  1  0.03625200  0.03625200  0.31778700  1
  O  O62  1  0.10932800  0.10932800  0.46399600  1
  O  O63  1  0.96665400  0.96665400  0.17788200  1
  O  O64  1  0.10546600  0.46541400  0.07186300  1
  O  O65  1  0.60864900  0.24892400  0.35708400  1
  O  O66  1  0.82064400  0.17935600  0.50000000  1
  O  O67  1  0.53458600  0.89453400  0.92813700  1
  O  O68  1  0.89453400  0.53458600  0.92813700  1
  O  O69  1  0.67703400  0.03728600  0.21510100  1
  O  O70  1  0.17935600  0.82064400  0.50000000  1
  O  O71  1  0.24892400  0.60864900  0.35708400  1
  O  O72  1  0.03728600  0.67703400  0.21510100  1
  O  O73  1  0.46541400  0.10546600  0.07186300  1
  O  O74  1  0.67776300  0.67776300  0.11168100  1
  O  O75  1  0.53488900  0.53488900  0.82601100  1
  O  O76  1  0.82057700  0.82057700  0.39663800  1
  O  O77  1  0.96374800  0.96374800  0.68221300  1
  O  O78  1  0.89067200  0.89067200  0.53600400  1
  O  O79  1  0.74712400  0.74712400  0.25069200  1
  O  O80  1  0.60450300  0.60450300  0.96489100  1
  O  O81  1  0.54284900  0.17160100  0.71416100  1
  O  O82  1  0.82839900  0.45715100  0.28583900  1
  O  O83  1  0.97181300  0.60038800  0.57109400  1
  O  O84  1  0.45715100  0.82839900  0.28583900  1
  O  O85  1  0.02818700  0.39961200  0.42890600  1
  O  O86  1  0.17160100  0.54284900  0.71416100  1
  O  O87  1  0.60038800  0.97181300  0.57109400  1
  O  O88  1  0.39961200  0.02818700  0.42890600  1
  O  O89  1  0.53813300  0.53813300  0.32122600  1
  O  O90  1  0.39549700  0.39549700  0.03510900  1
  O  O91  1  0.67977000  0.67977000  0.60715700  1
  O  O92  1  0.60755200  0.60755200  0.45985800  1
  O  O93  1  0.46511100  0.46511100  0.17398900  1
  O  O94  1  0.39135100  0.75107600  0.64291600  1
  O  O95  1  0.75107600  0.39135100  0.64291600  1
  O  O96  1  0.39244800  0.39244800  0.54014200  1
  O  O97  1  0.46186700  0.46186700  0.67877400  1
