# generated using pymatgen
data_Li3(NiO2)4
_symmetry_space_group_name_H-M   'P 1'
_cell_length_a   5.64775925
_cell_length_b   5.71203253
_cell_length_c   5.80172547
_cell_angle_alpha   119.49086629
_cell_angle_beta   61.41548295
_cell_angle_gamma   90.00034411
_symmetry_Int_Tables_number   1
_chemical_formula_structural   Li3(NiO2)4
_chemical_formula_sum   'Li3 Ni4 O8'
_cell_volume   136.09588246
_cell_formula_units_Z   1
loop_
 _symmetry_equiv_pos_site_id
 _symmetry_equiv_pos_as_xyz
  1  'x, y, z'
loop_
 _atom_site_type_symbol
 _atom_site_label
 _atom_site_symmetry_multiplicity
 _atom_site_fract_x
 _atom_site_fract_y
 _atom_site_fract_z
 _atom_site_occupancy
  Li  Li0  1  0.00000000  0.00000000  0.50000000  1
  Li  Li1  1  0.50000000  0.50000000  0.00000000  1
  Li  Li2  1  0.50000000  0.00000000  0.00000000  1
  Ni  Ni3  1  0.00000000  0.50000000  0.99999900  1
  Ni  Ni4  1  0.00000000  0.00000100  0.00000000  1
  Ni  Ni5  1  0.50000000  0.50000000  0.50000000  1
  Ni  Ni6  1  0.00000000  0.50000000  0.50000000  1
  O  O7  1  0.79101100  0.72242000  0.94483600  1
  O  O8  1  0.20898900  0.27758000  0.05516400  1
  O  O9  1  0.21905400  0.75287200  0.00575000  1
  O  O10  1  0.78094600  0.24712800  0.99425000  1
  O  O11  1  0.75522500  0.72043100  0.49811600  1
  O  O12  1  0.75522400  0.27768000  0.49811600  1
  O  O13  1  0.24477600  0.72232000  0.50188500  1
  O  O14  1  0.24477500  0.27956800  0.50188400  1
