# generated using pymatgen
data_LiSn4(PO4)3
_symmetry_space_group_name_H-M   'P 1'
_cell_length_a   8.00524000
_cell_length_b   8.65205111
_cell_length_c   9.88747331
_cell_angle_alpha   97.56759778
_cell_angle_beta   109.05155367
_cell_angle_gamma   96.73127157
_symmetry_Int_Tables_number   1
_chemical_formula_structural   LiSn4(PO4)3
_chemical_formula_sum   'Li2 Sn8 P6 O24'
_cell_volume   632.22639735
_cell_formula_units_Z   2
loop_
 _symmetry_equiv_pos_site_id
 _symmetry_equiv_pos_as_xyz
  1  'x, y, z'
loop_
 _atom_site_type_symbol
 _atom_site_label
 _atom_site_symmetry_multiplicity
 _atom_site_fract_x
 _atom_site_fract_y
 _atom_site_fract_z
 _atom_site_occupancy
  Li  Li0  1  0.93315600  0.11094300  0.27705100  1
  Li  Li1  1  0.06684400  0.88905700  0.72294900  1
  Sn  Sn2  1  0.43712900  0.69844900  0.48445700  1
  Sn  Sn3  1  0.67721900  0.99739500  0.89980900  1
  Sn  Sn4  1  0.64908000  0.44370100  0.88384500  1
  Sn  Sn5  1  0.94276000  0.62309600  0.27610900  1
  Sn  Sn6  1  0.05724000  0.37690400  0.72389100  1
  Sn  Sn7  1  0.35092000  0.55629900  0.11615500  1
  Sn  Sn8  1  0.32278100  0.00260500  0.10019100  1
  Sn  Sn9  1  0.56287100  0.30155100  0.51554300  1
  P  P10  1  0.96238100  0.71709200  0.94239200  1
  P  P11  1  0.31630200  0.05062200  0.60187500  1
  P  P12  1  0.32966700  0.66892300  0.76817500  1
  P  P13  1  0.67033300  0.33107700  0.23182500  1
  P  P14  1  0.68369800  0.94937800  0.39812500  1
  P  P15  1  0.03761900  0.28290800  0.05760800  1
  O  O16  1  0.85139800  0.23932400  0.92945200  1
  O  O17  1  0.93075700  0.85372700  0.85761000  1
  O  O18  1  0.49997200  0.68396400  0.72137400  1
  O  O19  1  0.51164400  0.09874900  0.72001200  1
  O  O20  1  0.31057400  0.16564900  0.48955600  1
  O  O21  1  0.04883700  0.44356900  0.15582400  1
  O  O22  1  0.35386900  0.54342800  0.87640000  1
  O  O23  1  0.29230800  0.87759700  0.52019800  1
  O  O24  1  0.31165100  0.82915000  0.84376700  1
  O  O25  1  0.81459600  0.67946200  0.01287500  1
  O  O26  1  0.16950600  0.06790800  0.66658400  1
  O  O27  1  0.15981300  0.58775300  0.63712400  1
  O  O28  1  0.84018700  0.41224700  0.36287600  1
  O  O29  1  0.83049400  0.93209200  0.33341600  1
  O  O30  1  0.18540400  0.32053800  0.98712500  1
  O  O31  1  0.68834900  0.17085000  0.15623300  1
  O  O32  1  0.70769200  0.12240300  0.47980200  1
  O  O33  1  0.64613100  0.45657200  0.12360000  1
  O  O34  1  0.95116300  0.55643100  0.84417600  1
  O  O35  1  0.68942600  0.83435100  0.51044400  1
  O  O36  1  0.48835600  0.90125100  0.27998800  1
  O  O37  1  0.50002800  0.31603600  0.27862600  1
  O  O38  1  0.06924300  0.14627300  0.14239000  1
  O  O39  1  0.14860200  0.76067600  0.07054800  1
