# generated using pymatgen
data_Li3Mn4(BO3)4
_symmetry_space_group_name_H-M   'P 1'
_cell_length_a   6.18493300
_cell_length_b   9.16783917
_cell_length_c   9.26477719
_cell_angle_alpha   81.19175532
_cell_angle_beta   82.31769249
_cell_angle_gamma   77.06684512
_symmetry_Int_Tables_number   1
_chemical_formula_structural   Li3Mn4(BO3)4
_chemical_formula_sum   'Li6 Mn8 B8 O24'
_cell_volume   503.26828023
_cell_formula_units_Z   2
loop_
 _symmetry_equiv_pos_site_id
 _symmetry_equiv_pos_as_xyz
  1  'x, y, z'
loop_
 _atom_site_type_symbol
 _atom_site_label
 _atom_site_symmetry_multiplicity
 _atom_site_fract_x
 _atom_site_fract_y
 _atom_site_fract_z
 _atom_site_occupancy
  Li  Li0  1  0.71439000  0.80941100  0.46574100  1
  Li  Li1  1  0.47801900  0.30444100  0.71387000  1
  Li  Li2  1  0.52198100  0.69555900  0.28613000  1
  Li  Li3  1  0.28561000  0.19058900  0.53425900  1
  Li  Li4  1  0.20452000  0.81405700  0.95198800  1
  Li  Li5  1  0.79548000  0.18594300  0.04801200  1
  Mn  Mn6  1  0.51049800  0.61929000  0.74104000  1
  Mn  Mn7  1  0.22214000  0.87731400  0.52127700  1
  Mn  Mn8  1  0.73297900  0.87189000  0.00320600  1
  Mn  Mn9  1  0.48950200  0.38071000  0.25896000  1
  Mn  Mn10  1  0.01217100  0.60623300  0.23475300  1
  Mn  Mn11  1  0.77786000  0.12268600  0.47872300  1
  Mn  Mn12  1  0.26702100  0.12811000  0.99679400  1
  Mn  Mn13  1  0.98782900  0.39376700  0.76524700  1
  B  B14  1  0.50481700  0.96136100  0.73431300  1
  B  B15  1  0.26613600  0.53232500  0.51557600  1
  B  B16  1  0.71975900  0.54076500  0.01509100  1
  B  B17  1  0.49518300  0.03863900  0.26568700  1
  B  B18  1  0.00871700  0.94581700  0.23456700  1
  B  B19  1  0.73386400  0.46767500  0.48442400  1
  B  B20  1  0.28024100  0.45923500  0.98490900  1
  B  B21  1  0.99128300  0.05418300  0.76543300  1
  O  O22  1  0.52240500  0.84183500  0.65255000  1
  O  O23  1  0.69515400  0.43784200  0.63750600  1
  O  O24  1  0.53772000  0.10022300  0.66515600  1
  O  O25  1  0.28351600  0.64533100  0.59726300  1
  O  O26  1  0.46228000  0.89977700  0.33484400  1
  O  O27  1  0.22355600  0.39662100  0.58120400  1
  O  O28  1  0.30484600  0.56215800  0.36249400  1
  O  O29  1  0.05244100  0.07815300  0.61173000  1
  O  O30  1  0.71722200  0.64986900  0.10327000  1
  O  O31  1  0.47759500  0.15816500  0.34745000  1
  O  O32  1  0.94755900  0.92184700  0.38827000  1
  O  O33  1  0.69241500  0.39775100  0.07339700  1
  O  O34  1  0.77644400  0.60337900  0.41879600  1
  O  O35  1  0.56115300  0.06124800  0.11556400  1
  O  O36  1  0.02528600  0.82888500  0.15120500  1
  O  O37  1  0.71648400  0.35466900  0.40273700  1
  O  O38  1  0.43884700  0.93875200  0.88443600  1
  O  O39  1  0.23402800  0.42671300  0.13837800  1
  O  O40  1  0.30758500  0.60224900  0.92660300  1
  O  O41  1  0.03745100  0.08534800  0.17143300  1
  O  O42  1  0.28277800  0.35013100  0.89673000  1
  O  O43  1  0.96254900  0.91465200  0.82856700  1
  O  O44  1  0.76597200  0.57328700  0.86162200  1
  O  O45  1  0.97471400  0.17111500  0.84879500  1
