# generated using pymatgen
data_LiFe2(PO4)2
_symmetry_space_group_name_H-M   'P 1'
_cell_length_a   8.17902500
_cell_length_b   8.88316024
_cell_length_c   15.25044803
_cell_angle_alpha   90.27516860
_cell_angle_beta   90.36322446
_cell_angle_gamma   90.45348655
_symmetry_Int_Tables_number   1
_chemical_formula_structural   LiFe2(PO4)2
_chemical_formula_sum   'Li6 Fe12 P12 O48'
_cell_volume   1107.96027691
_cell_formula_units_Z   6
loop_
 _symmetry_equiv_pos_site_id
 _symmetry_equiv_pos_as_xyz
  1  'x, y, z'
loop_
 _atom_site_type_symbol
 _atom_site_label
 _atom_site_symmetry_multiplicity
 _atom_site_fract_x
 _atom_site_fract_y
 _atom_site_fract_z
 _atom_site_occupancy
  Li  Li0  1  0.05541300  0.22718000  0.90474400  1
  Li  Li1  1  0.30390600  0.25695500  0.25070500  1
  Li  Li2  1  0.56677900  0.24924800  0.58977600  1
  Li  Li3  1  0.68914200  0.74566500  0.75118900  1
  Li  Li4  1  0.94595900  0.77463200  0.09748100  1
  Li  Li5  1  0.05548800  0.76723700  0.44108000  1
  Fe  Fe6  1  0.26780100  0.04477700  0.09374300  1
  Fe  Fe7  1  0.20521500  0.07830700  0.72653900  1
  Fe  Fe8  1  0.26366500  0.10620600  0.43261200  1
  Fe  Fe9  1  0.78063200  0.38256900  0.07265800  1
  Fe  Fe10  1  0.72699700  0.40346800  0.76988500  1
  Fe  Fe11  1  0.78372200  0.44985700  0.40359300  1
  Fe  Fe12  1  0.22048400  0.54818700  0.60112600  1
  Fe  Fe13  1  0.28498600  0.59876900  0.22987000  1
  Fe  Fe14  1  0.22052500  0.61603800  0.92394100  1
  Fe  Fe15  1  0.73343700  0.88764400  0.57068400  1
  Fe  Fe16  1  0.78525000  0.92170400  0.27283600  1
  Fe  Fe17  1  0.72816900  0.95687200  0.90779500  1
  P  P18  1  0.67155700  0.04580000  0.09597000  1
  P  P19  1  0.82632600  0.08657400  0.72757500  1
  P  P20  1  0.66474500  0.11866700  0.42703100  1
  P  P21  1  0.16163600  0.39466800  0.07609500  1
  P  P22  1  0.33415600  0.40504900  0.77403700  1
  P  P23  1  0.16458600  0.44083900  0.40894800  1
  P  P24  1  0.83907500  0.55929100  0.59185600  1
  P  P25  1  0.67532400  0.59021500  0.22494100  1
  P  P26  1  0.84066900  0.60745900  0.92302800  1
  P  P27  1  0.33254700  0.87855800  0.57496000  1
  P  P28  1  0.16204100  0.91624700  0.27237700  1
  P  P29  1  0.32638100  0.95390300  0.90243900  1
  O  O30  1  0.34499200  0.02602500  0.63313800  1
  O  O31  1  0.49617700  0.01772800  0.88610700  1
  O  O32  1  0.22073400  0.05425600  0.96301600  1
  O  O33  1  0.24820100  0.06641500  0.29749800  1
  O  O34  1  0.77463600  0.07646100  0.50460500  1
  O  O35  1  0.76525800  0.06686300  0.18528300  1
  O  O36  1  0.85736600  0.10177600  0.82833900  1
  O  O37  1  0.99380800  0.09086500  0.67927700  1
  O  O38  1  0.49773900  0.17219300  0.46293600  1
  O  O39  1  0.65970700  0.20615500  0.05391400  1
  O  O40  1  0.71877400  0.21756800  0.69360500  1
  O  O41  1  0.74490700  0.24872700  0.37300200  1
  O  O42  1  0.25293100  0.27195700  0.12788700  1
  O  O43  1  0.22363200  0.26358800  0.79295400  1
  O  O44  1  0.12381300  0.28599700  0.44612500  1
  O  O45  1  0.99749700  0.32382600  0.03879900  1
  O  O46  1  0.49969400  0.39360800  0.81769700  1
  O  O47  1  0.35194600  0.41565300  0.67098300  1
  O  O48  1  0.26244400  0.43039800  0.32332500  1
  O  O49  1  0.26047300  0.44183700  0.99295500  1
  O  O50  1  0.77115700  0.45268900  0.18931100  1
  O  O51  1  0.73613900  0.45686700  0.52728500  1
  O  O52  1  0.00268300  0.48036200  0.61482600  1
  O  O53  1  0.87967700  0.46994900  0.86480000  1
  O  O54  1  0.12624200  0.53320500  0.13343900  1
  O  O55  1  0.00103900  0.52981300  0.39154600  1
  O  O56  1  0.25950600  0.53971200  0.47835400  1
  O  O57  1  0.24060000  0.54650100  0.80630200  1
  O  O58  1  0.74070400  0.55811500  0.00487000  1
  O  O59  1  0.73918800  0.57875400  0.67667600  1
  O  O60  1  0.66387300  0.57454600  0.32671700  1
  O  O61  1  0.50891400  0.59984600  0.18162800  1
  O  O62  1  0.00501400  0.67766400  0.95973000  1
  O  O63  1  0.87909400  0.71048000  0.54573500  1
  O  O64  1  0.78009000  0.73604900  0.20638800  1
  O  O65  1  0.74813300  0.72975400  0.87201300  1
  O  O66  1  0.24986200  0.75258800  0.63135500  1
  O  O67  1  0.26251400  0.78171100  0.30221200  1
  O  O68  1  0.34052000  0.79263100  0.94357900  1
  O  O69  1  0.50219000  0.83054100  0.54751100  1
  O  O70  1  0.99663900  0.90621200  0.32630400  1
  O  O71  1  0.12128400  0.91332000  0.17219600  1
  O  O72  1  0.22973800  0.93319900  0.81394500  1
  O  O73  1  0.21733600  0.91137800  0.49615100  1
  O  O74  1  0.74161500  0.93489600  0.70460800  1
  O  O75  1  0.77962400  0.94436400  0.03700100  1
  O  O76  1  0.50064300  0.98222500  0.11053500  1
  O  O77  1  0.64293100  0.98301800  0.36228000  1
