# generated using pymatgen
data_LiCrPO4
_symmetry_space_group_name_H-M   'P 1'
_cell_length_a   5.12072600
_cell_length_b   9.24874900
_cell_length_c   6.44572100
_cell_angle_alpha   90.00024834
_cell_angle_beta   89.99995096
_cell_angle_gamma   89.99993546
_symmetry_Int_Tables_number   1
_chemical_formula_structural   LiCrPO4
_chemical_formula_sum   'Li4 Cr4 P4 O16'
_cell_volume   305.27134133
_cell_formula_units_Z   4
loop_
 _symmetry_equiv_pos_site_id
 _symmetry_equiv_pos_as_xyz
  1  'x, y, z'
loop_
 _atom_site_type_symbol
 _atom_site_label
 _atom_site_symmetry_multiplicity
 _atom_site_fract_x
 _atom_site_fract_y
 _atom_site_fract_z
 _atom_site_occupancy
  Li  Li0  1  0.00000500  0.00000700  0.00000100  1
  Li  Li1  1  0.00000600  0.00000800  0.49999700  1
  Li  Li2  1  0.49999000  0.50000500  0.00000200  1
  Li  Li3  1  0.49999200  0.50000500  0.49999700  1
  Cr  Cr4  1  0.94970000  0.36193700  0.24999900  1
  Cr  Cr5  1  0.55027200  0.86193700  0.25000400  1
  Cr  Cr6  1  0.44960600  0.13798900  0.75000500  1
  Cr  Cr7  1  0.05043600  0.63799700  0.74999800  1
  P  P8  1  0.46339200  0.18839500  0.24999900  1
  P  P9  1  0.96341500  0.31161400  0.74999700  1
  P  P10  1  0.03660400  0.68839500  0.24999900  1
  P  P11  1  0.53658600  0.81161400  0.75000000  1
  O  O12  1  0.76365800  0.15958500  0.25000400  1
  O  O13  1  0.26368800  0.34043000  0.74999900  1
  O  O14  1  0.73634300  0.65958500  0.25000200  1
  O  O15  1  0.23631700  0.84043300  0.75000200  1
  O  O16  1  0.90286000  0.14644700  0.75000000  1
  O  O17  1  0.40281400  0.35356700  0.25000400  1
  O  O18  1  0.59714800  0.64644500  0.74999600  1
  O  O19  1  0.09718100  0.85356600  0.25000000  1
  O  O20  1  0.34036900  0.11421300  0.05684100  1
  O  O21  1  0.34036900  0.11421200  0.44315700  1
  O  O22  1  0.84040500  0.38579600  0.94316900  1
  O  O23  1  0.84040400  0.38579600  0.55682900  1
  O  O24  1  0.15963300  0.61421500  0.05684000  1
  O  O25  1  0.15963300  0.61421200  0.44315700  1
  O  O26  1  0.65958800  0.88579900  0.55683100  1
  O  O27  1  0.65958800  0.88579700  0.94317000  1
