# generated using pymatgen
data_Li2Hf2O5
_symmetry_space_group_name_H-M   'P 1'
_cell_length_a   3.89635700
_cell_length_b   10.26480800
_cell_length_c   12.94654217
_cell_angle_alpha   57.27274906
_cell_angle_beta   90.00000000
_cell_angle_gamma   90.00000000
_symmetry_Int_Tables_number   1
_chemical_formula_structural   Li2Hf2O5
_chemical_formula_sum   'Li8 Hf8 O20'
_cell_volume   435.60250617
_cell_formula_units_Z   4
loop_
 _symmetry_equiv_pos_site_id
 _symmetry_equiv_pos_as_xyz
  1  'x, y, z'
loop_
 _atom_site_type_symbol
 _atom_site_label
 _atom_site_symmetry_multiplicity
 _atom_site_fract_x
 _atom_site_fract_y
 _atom_site_fract_z
 _atom_site_occupancy
  Li  Li0  1  0.26012600  0.04907000  0.04585000  1
  Li  Li1  1  0.29870900  0.92519900  0.32836300  1
  Li  Li2  1  0.79870900  0.07480100  0.17163700  1
  Li  Li3  1  0.76012600  0.95093000  0.45415000  1
  Li  Li4  1  0.23987400  0.04907000  0.54585000  1
  Li  Li5  1  0.20129100  0.92519900  0.82836300  1
  Li  Li6  1  0.70129100  0.07480100  0.67163700  1
  Li  Li7  1  0.73987400  0.95093000  0.95415000  1
  Hf  Hf8  1  0.67831900  0.33135300  0.85266600  1
  Hf  Hf9  1  0.86813500  0.66637500  0.36642200  1
  Hf  Hf10  1  0.17831900  0.66864700  0.64733400  1
  Hf  Hf11  1  0.63186500  0.66637500  0.86642200  1
  Hf  Hf12  1  0.36813500  0.33362500  0.13357800  1
  Hf  Hf13  1  0.82168100  0.33135300  0.35266600  1
  Hf  Hf14  1  0.13186500  0.33362500  0.63357800  1
  Hf  Hf15  1  0.32168100  0.66864700  0.14733400  1
  O  O16  1  0.74615000  0.11894000  0.98347200  1
  O  O17  1  0.16923100  0.38404400  0.78704700  1
  O  O18  1  0.34746300  0.69869700  0.29813500  1
  O  O19  1  0.11830500  0.58603200  0.53509200  1
  O  O20  1  0.61830500  0.41396800  0.96490800  1
  O  O21  1  0.80692100  0.87437800  0.33658900  1
  O  O22  1  0.66923100  0.61595600  0.71295300  1
  O  O23  1  0.24615000  0.88106000  0.51652800  1
  O  O24  1  0.30692100  0.12562200  0.16341100  1
  O  O25  1  0.15253700  0.69869700  0.79813500  1
  O  O26  1  0.84746300  0.30130300  0.20186500  1
  O  O27  1  0.69307900  0.87437800  0.83658900  1
  O  O28  1  0.75385000  0.11894000  0.48347200  1
  O  O29  1  0.33076900  0.38404400  0.28704700  1
  O  O30  1  0.19307900  0.12562200  0.66341100  1
  O  O31  1  0.38169500  0.58603200  0.03509200  1
  O  O32  1  0.88169500  0.41396800  0.46490800  1
  O  O33  1  0.65253700  0.30130300  0.70186500  1
  O  O34  1  0.83076900  0.61595600  0.21295300  1
  O  O35  1  0.25385000  0.88106000  0.01652800  1
