# generated using pymatgen
data_Li6V3P8O29
_symmetry_space_group_name_H-M   'P 1'
_cell_length_a   9.79866500
_cell_length_b   9.80183883
_cell_length_c   13.90678432
_cell_angle_alpha   89.91508133
_cell_angle_beta   89.91538366
_cell_angle_gamma   60.11184313
_symmetry_Int_Tables_number   1
_chemical_formula_structural   Li6V3P8O29
_chemical_formula_sum   'Li12 V6 P16 O58'
_cell_volume   1158.02926215
_cell_formula_units_Z   2
loop_
 _symmetry_equiv_pos_site_id
 _symmetry_equiv_pos_as_xyz
  1  'x, y, z'
loop_
 _atom_site_type_symbol
 _atom_site_label
 _atom_site_symmetry_multiplicity
 _atom_site_fract_x
 _atom_site_fract_y
 _atom_site_fract_z
 _atom_site_occupancy
  Li  Li0  1  0.77713100  0.91969600  0.93992900  1
  Li  Li1  1  0.33370700  0.90061900  0.43865300  1
  Li  Li2  1  0.67442600  0.65973200  0.11487200  1
  Li  Li3  1  0.31342200  0.77602300  0.93881500  1
  Li  Li4  1  0.91301300  0.31145900  0.94192000  1
  Li  Li5  1  0.23394900  0.66133900  0.55909800  1
  Li  Li6  1  0.76319300  0.33377000  0.43626700  1
  Li  Li7  1  0.09203200  0.68134100  0.06356700  1
  Li  Li8  1  0.66476000  0.09789000  0.55930900  1
  Li  Li9  1  0.10109300  0.23286800  0.55894600  1
  Li  Li10  1  0.22532000  0.09579700  0.06053600  1
  Li  Li11  1  0.98706100  0.96323200  0.49174200  1
  V  V12  1  0.43296800  0.56534900  0.75100500  1
  V  V13  1  0.56407800  0.43244300  0.24561200  1
  V  V14  1  0.99593600  0.56894100  0.25689400  1
  V  V15  1  0.00088000  0.43346800  0.74843400  1
  V  V16  1  0.56825200  0.00123600  0.75001200  1
  V  V17  1  0.43794400  0.00000500  0.25143200  1
  P  P18  1  0.77233300  0.91006300  0.15707900  1
  P  P19  1  0.91576200  0.77575100  0.65846500  1
  P  P20  1  0.31690000  0.91180000  0.65791800  1
  P  P21  1  0.66670300  0.66810200  0.87199500  1
  P  P22  1  0.66478400  0.66235100  0.37225900  1
  P  P23  1  0.32146600  0.77243600  0.15770900  1
  P  P24  1  0.22854200  0.68706200  0.34281500  1
  P  P25  1  0.90892900  0.32027800  0.15732200  1
  P  P26  1  0.08647900  0.67942600  0.84457700  1
  P  P27  1  0.77010100  0.31603500  0.65505600  1
  P  P28  1  0.68441400  0.23112600  0.84138300  1
  P  P29  1  0.33438200  0.33153200  0.62690500  1
  P  P30  1  0.32530700  0.33753600  0.12907100  1
  P  P31  1  0.68956300  0.08608900  0.34278200  1
  P  P32  1  0.08748600  0.22687600  0.34246200  1
  P  P33  1  0.23226200  0.08897500  0.84171700  1
  O  O34  1  0.77896600  0.00746600  0.43288000  1
  O  O35  1  0.74500800  0.91813800  0.65929000  1
  O  O36  1  0.99986600  0.75205900  0.93640800  1
  O  O37  1  0.92203000  0.74597400  0.15956200  1
  O  O38  1  0.62976200  0.88303900  0.17846300  1
  O  O39  1  0.67361900  0.81509400  0.83292100  1
  O  O40  1  0.47390400  0.90754600  0.67025700  1
  O  O41  1  0.24516600  0.99923000  0.93224700  1
  O  O42  1  0.33491300  0.92255800  0.15536100  1
  O  O43  1  0.80983300  0.66893300  0.32744700  1
  O  O44  1  0.91776900  0.61888700  0.66538300  1
  O  O45  1  0.51069600  0.81141400  0.33217600  1
  O  O46  1  0.66689900  0.66856700  0.98026300  1
  O  O47  1  0.66474200  0.65732600  0.47904000  1
  O  O48  1  0.51225000  0.67455900  0.83402900  1
  O  O49  1  0.88943100  0.48613700  0.17310200  1
  O  O50  1  0.81354700  0.51555300  0.83196100  1
  O  O51  1  0.33811200  0.74382900  0.66091900  1
  O  O52  1  0.21315000  0.79373900  0.24928500  1
  O  O53  1  0.22033100  0.78152100  0.43157500  1
  O  O54  1  0.24473800  0.75396400  0.06879400  1
  O  O55  1  0.48945900  0.62999100  0.17346900  1
  O  O56  1  0.67361400  0.50981000  0.32867600  1
  O  O57  1  0.25090900  0.66525600  0.84241200  1
  O  O58  1  0.61909800  0.47321100  0.66940100  1
  O  O59  1  0.91765500  0.33681500  0.65944500  1
  O  O60  1  0.98946700  0.79641200  0.75831100  1
  O  O61  1  0.00818500  0.79297600  0.57792700  1
  O  O62  1  0.99758400  0.22628100  0.43102400  1
  O  O63  1  0.08696700  0.66267800  0.33944400  1
  O  O64  1  0.38552400  0.53358200  0.33325000  1
  O  O65  1  0.74459800  0.33853600  0.15775100  1
  O  O66  1  0.32087400  0.48821100  0.66712600  1
  O  O67  1  0.52226700  0.38183800  0.82306700  1
  O  O68  1  0.76958300  0.24121200  0.92613400  1
  O  O69  1  0.77455100  0.22802300  0.56474200  1
  O  O70  1  0.78796600  0.20511500  0.74473600  1
  O  O71  1  0.66176800  0.25502400  0.33820900  1
  O  O72  1  0.17590200  0.48383500  0.17294200  1
  O  O73  1  0.10068400  0.51840800  0.82262000  1
  O  O74  1  0.46973300  0.34270900  0.17529200  1
  O  O75  1  0.32067700  0.34294200  0.02254900  1
  O  O76  1  0.33504900  0.32832800  0.51938400  1
  O  O77  1  0.49118600  0.18969300  0.66826200  1
  O  O78  1  0.09477200  0.37904700  0.33206400  1
  O  O79  1  0.19153900  0.31741700  0.66845700  1
  O  O80  1  0.66284700  0.08487900  0.84140100  1
  O  O81  1  0.79209900  0.99908900  0.24903100  1
  O  O82  1  0.75303100  0.99833100  0.06701100  1
  O  O83  1  0.53258300  0.08521200  0.33250500  1
  O  O84  1  0.33171100  0.18318200  0.17029300  1
  O  O85  1  0.38052100  0.10135800  0.82232100  1
  O  O86  1  0.08283500  0.25319100  0.84163200  1
  O  O87  1  0.00403600  0.24233700  0.06885600  1
  O  O88  1  0.00114700  0.20947500  0.24841200  1
  O  O89  1  0.25298300  0.08006000  0.34185200  1
  O  O90  1  0.22683600  0.99760700  0.56877800  1
  O  O91  1  0.21010000  0.99814200  0.75145700  1
