# generated using pymatgen
data_Li4Cr3Fe2Sb3O16
_symmetry_space_group_name_H-M   'P 1'
_cell_length_a   6.08990953
_cell_length_b   6.12461961
_cell_length_c   9.91657327
_cell_angle_alpha   89.90964142
_cell_angle_beta   89.95779268
_cell_angle_gamma   120.20596338
_symmetry_Int_Tables_number   1
_chemical_formula_structural   Li4Cr3Fe2Sb3O16
_chemical_formula_sum   'Li4 Cr3 Fe2 Sb3 O16'
_cell_volume   319.65088110
_cell_formula_units_Z   1
loop_
 _symmetry_equiv_pos_site_id
 _symmetry_equiv_pos_as_xyz
  1  'x, y, z'
loop_
 _atom_site_type_symbol
 _atom_site_label
 _atom_site_symmetry_multiplicity
 _atom_site_fract_x
 _atom_site_fract_y
 _atom_site_fract_z
 _atom_site_occupancy
  Li  Li0  1  0.34356000  0.67133800  0.90307900  1
  Li  Li1  1  0.01604700  0.00827200  0.00585400  1
  Li  Li2  1  0.02179100  0.01138000  0.49091200  1
  Li  Li3  1  0.67234900  0.33611800  0.36837600  1
  Cr  Cr4  1  0.16782800  0.83179200  0.21496000  1
  Cr  Cr5  1  0.16779500  0.33637600  0.21511800  1
  Cr  Cr6  1  0.33433700  0.16709100  0.71700200  1
  Fe  Fe7  1  0.30863500  0.65475800  0.47624200  1
  Fe  Fe8  1  0.65271900  0.32724900  0.01434300  1
  Sb  Sb9  1  0.66129600  0.83072500  0.21523700  1
  Sb  Sb10  1  0.82943600  0.66224400  0.71573800  1
  Sb  Sb11  1  0.82945500  0.16696400  0.71585600  1
  O  O12  1  0.14690100  0.83945900  0.60782800  1
  O  O13  1  0.03504400  0.51846300  0.33013800  1
  O  O14  1  0.33502600  0.66817500  0.10552800  1
  O  O15  1  0.99816400  0.99874600  0.31286300  1
  O  O16  1  0.99845500  0.99881900  0.82047800  1
  O  O17  1  0.14670500  0.30767900  0.60781200  1
  O  O18  1  0.48712100  0.96762700  0.33271300  1
  O  O19  1  0.48750800  0.51940700  0.33318800  1
  O  O20  1  0.31434000  0.15566200  0.10651200  1
  O  O21  1  0.68600100  0.84294500  0.60385800  1
  O  O22  1  0.51958600  0.48787500  0.82765300  1
  O  O23  1  0.51958500  0.03140600  0.82767600  1
  O  O24  1  0.66525700  0.33281200  0.60430500  1
  O  O25  1  0.84007600  0.68902200  0.10261400  1
  O  O26  1  0.97512500  0.48744900  0.82965500  1
  O  O27  1  0.83985500  0.15044600  0.10230500  1
