# generated using pymatgen
data_Li2VBO4
_symmetry_space_group_name_H-M   'P 1'
_cell_length_a   4.71815700
_cell_length_b   5.86864500
_cell_length_c   10.89453200
_cell_angle_alpha   90.00001502
_cell_angle_beta   90.00024766
_cell_angle_gamma   89.99969569
_symmetry_Int_Tables_number   1
_chemical_formula_structural   Li2VBO4
_chemical_formula_sum   'Li8 V4 B4 O16'
_cell_volume   301.66075003
_cell_formula_units_Z   4
loop_
 _symmetry_equiv_pos_site_id
 _symmetry_equiv_pos_as_xyz
  1  'x, y, z'
loop_
 _atom_site_type_symbol
 _atom_site_label
 _atom_site_symmetry_multiplicity
 _atom_site_fract_x
 _atom_site_fract_y
 _atom_site_fract_z
 _atom_site_occupancy
  Li  Li0  1  0.98994500  0.25428500  0.17082600  1
  Li  Li1  1  0.98995100  0.25429700  0.67083400  1
  Li  Li2  1  0.48994500  0.24571400  0.32917300  1
  Li  Li3  1  0.48995100  0.24570000  0.82916600  1
  Li  Li4  1  0.98994600  0.74571300  0.17082600  1
  Li  Li5  1  0.98995200  0.74570100  0.67083300  1
  Li  Li6  1  0.48994500  0.75428300  0.32917300  1
  Li  Li7  1  0.48995100  0.75429700  0.82916600  1
  V  V8  1  0.98328700  0.99999900  0.93187400  1
  V  V9  1  0.48328900  0.49999400  0.56813100  1
  V  V10  1  0.98319700  0.00000400  0.43194900  1
  V  V11  1  0.48319400  0.50000200  0.06804900  1
  B  B12  1  0.50406700  0.00000000  0.08864800  1
  B  B13  1  0.50404700  0.99999600  0.58866700  1
  B  B14  1  0.00407000  0.50000100  0.41135100  1
  B  B15  1  0.00404500  0.49999800  0.91133200  1
  O  O16  1  0.81984600  0.99999900  0.09056400  1
  O  O17  1  0.81982000  0.99999900  0.59062000  1
  O  O18  1  0.31984900  0.49999800  0.40943900  1
  O  O19  1  0.31982300  0.49999800  0.90938000  1
  O  O20  1  0.40696600  0.99999800  0.45527600  1
  O  O21  1  0.40692200  0.99999800  0.95524000  1
  O  O22  1  0.90696600  0.49999900  0.04472400  1
  O  O23  1  0.90692100  0.49999800  0.54476100  1
  O  O24  1  0.90306600  0.28869500  0.34655500  1
  O  O25  1  0.90297900  0.28868300  0.84651300  1
  O  O26  1  0.40306700  0.21130400  0.15344400  1
  O  O27  1  0.40295200  0.21134700  0.65348600  1
  O  O28  1  0.40306800  0.78869400  0.15344400  1
  O  O29  1  0.40295300  0.78864900  0.65348700  1
  O  O30  1  0.90306900  0.71130600  0.34655600  1
  O  O31  1  0.90295300  0.71135100  0.84651300  1
