# generated using pymatgen
data_Li3Mn2(SiO4)2
_symmetry_space_group_name_H-M   'P 1'
_cell_length_a   7.53923326
_cell_length_b   8.14652066
_cell_length_c   7.38217100
_cell_angle_alpha   63.76772627
_cell_angle_beta   93.89621858
_cell_angle_gamma   65.45523624
_symmetry_Int_Tables_number   1
_chemical_formula_structural   Li3Mn2(SiO4)2
_chemical_formula_sum   'Li6 Mn4 Si4 O16'
_cell_volume   351.93332433
_cell_formula_units_Z   2
loop_
 _symmetry_equiv_pos_site_id
 _symmetry_equiv_pos_as_xyz
  1  'x, y, z'
loop_
 _atom_site_type_symbol
 _atom_site_label
 _atom_site_symmetry_multiplicity
 _atom_site_fract_x
 _atom_site_fract_y
 _atom_site_fract_z
 _atom_site_occupancy
  Li  Li0  1  0.78100100  0.25382800  0.44598500  1
  Li  Li1  1  0.28106400  0.25375100  0.94616400  1
  Li  Li2  1  0.53098600  0.75374200  0.19929200  1
  Li  Li3  1  0.03113300  0.75361500  0.69946000  1
  Li  Li4  1  0.96753000  0.74701200  0.29439300  1
  Li  Li5  1  0.46742100  0.74707500  0.79437500  1
  Mn  Mn6  1  0.57154900  0.00762500  0.39255800  1
  Mn  Mn7  1  0.92329200  0.48961000  0.09838600  1
  Mn  Mn8  1  0.07179400  0.00779200  0.89208000  1
  Mn  Mn9  1  0.42347700  0.48964500  0.59847500  1
  Si  Si10  1  0.66768400  0.99380200  0.83197800  1
  Si  Si11  1  0.16751400  0.99356100  0.33220500  1
  Si  Si12  1  0.32843200  0.50801000  0.17376400  1
  Si  Si13  1  0.82850300  0.50793000  0.67380700  1
  O  O14  1  0.85737000  0.97423200  0.98581600  1
  O  O15  1  0.35731500  0.97409500  0.48582200  1
  O  O16  1  0.24670400  0.00155900  0.12310300  1
  O  O17  1  0.74723100  0.00185300  0.62300500  1
  O  O18  1  0.95397700  0.19995800  0.27531700  1
  O  O19  1  0.45403600  0.20009300  0.77521000  1
  O  O20  1  0.93207200  0.29066200  0.65909000  1
  O  O21  1  0.43218800  0.29046700  0.15957300  1
  O  O22  1  0.13275200  0.52131000  0.25766300  1
  O  O23  1  0.63308200  0.52090900  0.75833000  1
  O  O24  1  0.50501600  0.50123400  0.32518400  1
  O  O25  1  0.00504700  0.50117500  0.82521200  1
  O  O26  1  0.74346100  0.72788800  0.43113800  1
  O  O27  1  0.24351900  0.72787900  0.93105500  1
  O  O28  1  0.65004900  0.78009700  0.96703300  1
  O  O29  1  0.15015600  0.77972900  0.46750100  1
