# generated using pymatgen
data_Li3Ti2V3O10
_symmetry_space_group_name_H-M   'P 1'
_cell_length_a   5.14568367
_cell_length_b   10.17133098
_cell_length_c   8.09769622
_cell_angle_alpha   69.72483116
_cell_angle_beta   82.09858206
_cell_angle_gamma   99.95991410
_symmetry_Int_Tables_number   1
_chemical_formula_structural   Li3Ti2V3O10
_chemical_formula_sum   'Li6 Ti4 V6 O20'
_cell_volume   382.52656229
_cell_formula_units_Z   2
loop_
 _symmetry_equiv_pos_site_id
 _symmetry_equiv_pos_as_xyz
  1  'x, y, z'
loop_
 _atom_site_type_symbol
 _atom_site_label
 _atom_site_symmetry_multiplicity
 _atom_site_fract_x
 _atom_site_fract_y
 _atom_site_fract_z
 _atom_site_occupancy
  Li  Li0  1  0.99996800  0.00000200  0.50000100  1
  Li  Li1  1  0.49996600  0.50000300  0.00001000  1
  Li  Li2  1  0.60447600  0.08895900  0.30692500  1
  Li  Li3  1  0.10404000  0.58909900  0.80681800  1
  Li  Li4  1  0.39546300  0.91103600  0.69307700  1
  Li  Li5  1  0.89589600  0.41090100  0.19323000  1
  Ti  Ti6  1  0.31267500  0.28671900  0.40097900  1
  Ti  Ti7  1  0.81165600  0.78687400  0.90032700  1
  Ti  Ti8  1  0.68732300  0.71327900  0.59903800  1
  Ti  Ti9  1  0.18829800  0.21312900  0.09966400  1
  V  V10  1  0.99997000  0.49996300  0.49999800  1
  V  V11  1  0.06904100  0.10532300  0.79364800  1
  V  V12  1  0.93091500  0.89469400  0.20634500  1
  V  V13  1  0.50007500  0.99990000  0.00003100  1
  V  V14  1  0.56923800  0.60542600  0.29308700  1
  V  V15  1  0.43088300  0.39458700  0.70689600  1
  O  O16  1  0.63245900  0.40779800  0.44817500  1
  O  O17  1  0.13238100  0.90802200  0.94785200  1
  O  O18  1  0.36764000  0.59223200  0.55182200  1
  O  O19  1  0.86756600  0.09198500  0.05215900  1
  O  O20  1  0.99310700  0.20977400  0.31460000  1
  O  O21  1  0.49262300  0.70999000  0.81421400  1
  O  O22  1  0.00686700  0.79024500  0.68541000  1
  O  O23  1  0.50735700  0.29001300  0.18578500  1
  O  O24  1  0.09592800  0.31043600  0.62958000  1
  O  O25  1  0.59546000  0.81042400  0.12925900  1
  O  O26  1  0.90418700  0.68960800  0.37037700  1
  O  O27  1  0.40450000  0.18955800  0.87076500  1
  O  O28  1  0.27185200  0.01226800  0.21628600  1
  O  O29  1  0.77195400  0.51247100  0.71597500  1
  O  O30  1  0.72809200  0.98773300  0.78373500  1
  O  O31  1  0.22814600  0.48755400  0.28397600  1
  O  O32  1  0.29970800  0.10415000  0.56196700  1
  O  O33  1  0.79938600  0.60433200  0.06170500  1
  O  O34  1  0.70025900  0.89585400  0.43802400  1
  O  O35  1  0.20064600  0.39565700  0.93826300  1
