# generated using pymatgen
data_Li4Co13O28
_symmetry_space_group_name_H-M   'P 1'
_cell_length_a   7.44741200
_cell_length_b   8.22592580
_cell_length_c   8.51550215
_cell_angle_alpha   100.70836035
_cell_angle_beta   104.53278825
_cell_angle_gamma   105.47353904
_symmetry_Int_Tables_number   1
_chemical_formula_structural   Li4Co13O28
_chemical_formula_sum   'Li4 Co13 O28'
_cell_volume   468.47767936
_cell_formula_units_Z   1
loop_
 _symmetry_equiv_pos_site_id
 _symmetry_equiv_pos_as_xyz
  1  'x, y, z'
loop_
 _atom_site_type_symbol
 _atom_site_label
 _atom_site_symmetry_multiplicity
 _atom_site_fract_x
 _atom_site_fract_y
 _atom_site_fract_z
 _atom_site_occupancy
  Li  Li0  1  0.19790900  0.14628200  0.32866700  1
  Li  Li1  1  0.99847800  0.49468100  0.01011800  1
  Li  Li2  1  0.77802800  0.86466100  0.65271600  1
  Li  Li3  1  0.08091000  0.73281400  0.79370300  1
  Co  Co4  1  0.71752800  0.14022100  0.86265200  1
  Co  Co5  1  0.35634100  0.07683700  0.93659900  1
  Co  Co6  1  0.07168100  0.20902800  0.79049500  1
  Co  Co7  1  0.77859800  0.34805500  0.63613800  1
  Co  Co8  1  0.43080400  0.29443500  0.72162100  1
  Co  Co9  1  0.14426500  0.43126800  0.57405200  1
  Co  Co10  1  0.50100200  0.50126800  0.50127400  1
  Co  Co11  1  0.85277300  0.56279600  0.42082900  1
  Co  Co12  1  0.56894000  0.70546700  0.27764500  1
  Co  Co13  1  0.22108400  0.65328800  0.36444200  1
  Co  Co14  1  0.92925500  0.78729000  0.20643800  1
  Co  Co15  1  0.64625300  0.92468400  0.06809200  1
  Co  Co16  1  0.28576800  0.86195400  0.14252000  1
  O  O17  1  0.90542300  0.99614100  0.19923000  1
  O  O18  1  0.79608800  0.12662900  0.66517200  1
  O  O19  1  0.44338700  0.07483200  0.74519100  1
  O  O20  1  0.98053300  0.24296400  0.96744800  1
  O  O21  1  0.29630200  0.08007900  0.13315100  1
  O  O22  1  0.70603400  0.36569000  0.83399700  1
  O  O23  1  0.63145700  0.14814100  0.04968200  1
  O  O24  1  0.34250100  0.29730600  0.91042600  1
  O  O25  1  0.50720000  0.27748100  0.52418200  1
  O  O26  1  0.16085500  0.21284800  0.59651600  1
  O  O27  1  0.87074000  0.34521000  0.45142700  1
  O  O28  1  0.04999100  0.43470200  0.76362200  1
  O  O29  1  0.41215600  0.51078400  0.69177300  1
  O  O30  1  0.77854200  0.57846600  0.61967900  1
  O  O31  1  0.22951300  0.42528200  0.38397100  1
  O  O32  1  0.58615800  0.48841900  0.30838200  1
  O  O33  1  0.95118500  0.56565800  0.23741100  1
  O  O34  1  0.12516500  0.65182500  0.55271900  1
  O  O35  1  0.83950600  0.78419000  0.40076800  1
  O  O36  1  0.49521800  0.72474000  0.47704500  1
  O  O37  1  0.65592500  0.70282800  0.08750700  1
  O  O38  1  0.36682600  0.85178100  0.94795400  1
  O  O39  1  0.29539600  0.63517800  0.16927000  1
  O  O40  1  0.70556800  0.92160300  0.86744600  1
  O  O41  1  0.02403400  0.75318100  0.02775500  1
  O  O42  1  0.55980700  0.92625100  0.25519100  1
  O  O43  1  0.20206200  0.87123900  0.33648700  1
  O  O44  1  0.09347700  0.99674300  0.79742000  1
