# generated using pymatgen
data_Li3MnV(PO4)3
_symmetry_space_group_name_H-M   'P 1'
_cell_length_a   8.38348500
_cell_length_b   8.41869894
_cell_length_c   9.27458995
_cell_angle_alpha   90.09839179
_cell_angle_beta   116.74923572
_cell_angle_gamma   119.72576208
_symmetry_Int_Tables_number   1
_chemical_formula_structural   Li3MnV(PO4)3
_chemical_formula_sum   'Li6 Mn2 V2 P6 O24'
_cell_volume   485.79812591
_cell_formula_units_Z   2
loop_
 _symmetry_equiv_pos_site_id
 _symmetry_equiv_pos_as_xyz
  1  'x, y, z'
loop_
 _atom_site_type_symbol
 _atom_site_label
 _atom_site_symmetry_multiplicity
 _atom_site_fract_x
 _atom_site_fract_y
 _atom_site_fract_z
 _atom_site_occupancy
  Li  Li0  1  0.60411800  0.67045400  0.86222800  1
  Li  Li1  1  0.96009900  0.26502700  0.90699100  1
  Li  Li2  1  0.79485900  0.26455000  0.59029100  1
  Li  Li3  1  0.80981000  0.07026300  0.14871100  1
  Li  Li4  1  0.05599800  0.73862500  0.11656300  1
  Li  Li5  1  0.39236200  0.32742600  0.13267600  1
  Mn  Mn6  1  0.28547100  0.14041500  0.43838400  1
  Mn  Mn7  1  0.71048200  0.84834400  0.56306200  1
  V  V8  1  0.31164600  0.66298900  0.96091400  1
  V  V9  1  0.68030700  0.34228900  0.03345600  1
  P  P10  1  0.80217200  0.53840500  0.75207900  1
  P  P11  1  0.21363800  0.26471200  0.75742700  1
  P  P12  1  0.50057900  0.95376200  0.75815400  1
  P  P13  1  0.49487000  0.04408900  0.23882800  1
  P  P14  1  0.78924300  0.73949100  0.24392100  1
  P  P15  1  0.19564400  0.46380600  0.24551500  1
  O  O16  1  0.73251900  0.51810800  0.89041700  1
  O  O17  1  0.87465000  0.73949700  0.74142300  1
  O  O18  1  0.99277600  0.50613900  0.82166200  1
  O  O19  1  0.32018400  0.48548200  0.82860300  1
  O  O20  1  0.36910400  0.22188000  0.90441200  1
  O  O21  1  0.67952700  0.15625100  0.90096700  1
  O  O22  1  0.62753600  0.37406000  0.59008200  1
  O  O23  1  0.99214700  0.15904300  0.74322200  1
  O  O24  1  0.20157700  0.22206200  0.59446700  1
  O  O25  1  0.35426800  0.82532200  0.82952600  1
  O  O26  1  0.62772800  0.87096400  0.75924400  1
  O  O27  1  0.37444200  0.97623900  0.59399500  1
  O  O28  1  0.63440400  0.03835100  0.41202200  1
  O  O29  1  0.37590700  0.13387600  0.24204800  1
  O  O30  1  0.64497700  0.16141800  0.16845200  1
  O  O31  1  0.79608700  0.77674300  0.40452100  1
  O  O32  1  0.00391800  0.85700300  0.25086700  1
  O  O33  1  0.38003700  0.61362700  0.40921500  1
  O  O34  1  0.31999500  0.83542000  0.11198800  1
  O  O35  1  0.63465300  0.78513500  0.09870000  1
  O  O36  1  0.69076100  0.51902100  0.17597700  1
  O  O37  1  0.99881100  0.48588000  0.16593800  1
  O  O38  1  0.10942700  0.25478000  0.24747800  1
  O  O39  1  0.26118800  0.47956800  0.10295000  1
