# generated using pymatgen
data_LiMn3P3O11
_symmetry_space_group_name_H-M   'P 1'
_cell_length_a   9.84601200
_cell_length_b   10.12680000
_cell_length_c   10.74588861
_cell_angle_alpha   58.01651123
_cell_angle_beta   90.00000000
_cell_angle_gamma   90.00000000
_symmetry_Int_Tables_number   1
_chemical_formula_structural   LiMn3P3O11
_chemical_formula_sum   'Li4 Mn12 P12 O44'
_cell_volume   908.81103311
_cell_formula_units_Z   4
loop_
 _symmetry_equiv_pos_site_id
 _symmetry_equiv_pos_as_xyz
  1  'x, y, z'
loop_
 _atom_site_type_symbol
 _atom_site_label
 _atom_site_symmetry_multiplicity
 _atom_site_fract_x
 _atom_site_fract_y
 _atom_site_fract_z
 _atom_site_occupancy
  Li  Li0  1  0.80474200  0.34998600  0.11520400  1
  Li  Li1  1  0.69525800  0.34998600  0.61520400  1
  Li  Li2  1  0.30474200  0.65001400  0.38479600  1
  Li  Li3  1  0.19525800  0.65001400  0.88479600  1
  Mn  Mn4  1  0.88263300  0.71718200  0.65139700  1
  Mn  Mn5  1  0.63911400  0.09256000  0.39045000  1
  Mn  Mn6  1  0.36491400  0.08402100  0.22912100  1
  Mn  Mn7  1  0.38263300  0.28281800  0.84860300  1
  Mn  Mn8  1  0.86491400  0.91597900  0.27087900  1
  Mn  Mn9  1  0.86088600  0.09256000  0.89045000  1
  Mn  Mn10  1  0.13911400  0.90744000  0.10955000  1
  Mn  Mn11  1  0.13508600  0.08402100  0.72912100  1
  Mn  Mn12  1  0.61736700  0.71718200  0.15139700  1
  Mn  Mn13  1  0.63508600  0.91597900  0.77087900  1
  Mn  Mn14  1  0.36088600  0.90744000  0.60955000  1
  Mn  Mn15  1  0.11736700  0.28281800  0.34860300  1
  P  P16  1  0.56461100  0.59888600  0.76095200  1
  P  P17  1  0.06461100  0.40111400  0.73904800  1
  P  P18  1  0.06956500  0.23981700  0.05963800  1
  P  P19  1  0.65461900  0.11725000  0.05721900  1
  P  P20  1  0.15461900  0.88275000  0.44278100  1
  P  P21  1  0.43043500  0.23981700  0.55963800  1
  P  P22  1  0.56956500  0.76018300  0.44036200  1
  P  P23  1  0.84538100  0.11725000  0.55721900  1
  P  P24  1  0.34538100  0.88275000  0.94278100  1
  P  P25  1  0.93043500  0.76018300  0.94036200  1
  P  P26  1  0.93538900  0.59888600  0.26095200  1
  P  P27  1  0.43538900  0.40111400  0.23904800  1
  O  O28  1  0.21199800  0.76762000  0.59615600  1
  O  O29  1  0.71680400  0.57658800  0.78720900  1
  O  O30  1  0.53094700  0.61699500  0.60034600  1
  O  O31  1  0.47079700  0.46716900  0.86345300  1
  O  O32  1  0.47825900  0.24146800  0.26429600  1
  O  O33  1  0.01027200  0.28515800  0.16319100  1
  O  O34  1  0.97079700  0.53283100  0.63654700  1
  O  O35  1  0.03094700  0.38300500  0.89965400  1
  O  O36  1  0.21680400  0.42341200  0.71279100  1
  O  O37  1  0.21278600  0.04882200  0.39676000  1
  O  O38  1  0.22387600  0.21821900  0.05994900  1
  O  O39  1  0.71619400  0.14796000  0.17532800  1
  O  O40  1  0.71199800  0.23238000  0.90384400  1
  O  O41  1  0.49750300  0.11975400  0.05729100  1
  O  O42  1  0.49862300  0.91055300  0.41792900  1
  O  O43  1  0.99862300  0.08944700  0.08207100  1
  O  O44  1  0.02174100  0.24146800  0.76429600  1
  O  O45  1  0.99750400  0.88024600  0.44270900  1
  O  O46  1  0.48972800  0.28515800  0.66319100  1
  O  O47  1  0.21619400  0.85204000  0.32467200  1
  O  O48  1  0.28721400  0.04882200  0.89676000  1
  O  O49  1  0.27612400  0.21821900  0.55994900  1
  O  O50  1  0.72387600  0.78178100  0.44005100  1
  O  O51  1  0.71278600  0.95117800  0.10324000  1
  O  O52  1  0.78380600  0.14796000  0.67532800  1
  O  O53  1  0.51027200  0.71484200  0.33680900  1
  O  O54  1  0.00249700  0.11975400  0.55729100  1
  O  O55  1  0.97825900  0.75853200  0.23570400  1
  O  O56  1  0.00137700  0.91055300  0.91792900  1
  O  O57  1  0.50137700  0.08944700  0.58207100  1
  O  O58  1  0.50249700  0.88024600  0.94270900  1
  O  O59  1  0.28800200  0.76762000  0.09615600  1
  O  O60  1  0.28380600  0.85204000  0.82467200  1
  O  O61  1  0.77612400  0.78178100  0.94005100  1
  O  O62  1  0.78721400  0.95117800  0.60324000  1
  O  O63  1  0.78319600  0.57658800  0.28720900  1
  O  O64  1  0.96905300  0.61699500  0.10034600  1
  O  O65  1  0.02920300  0.46716900  0.36345300  1
  O  O66  1  0.98972800  0.71484200  0.83680900  1
  O  O67  1  0.52174100  0.75853200  0.73570400  1
  O  O68  1  0.52920300  0.53283100  0.13654700  1
  O  O69  1  0.46905300  0.38300500  0.39965400  1
  O  O70  1  0.28319600  0.42341200  0.21279100  1
  O  O71  1  0.78800200  0.23238000  0.40384400  1
