# generated using pymatgen
data_LiP4WO12
_symmetry_space_group_name_H-M   'P 1'
_cell_length_a   13.06249900
_cell_length_b   7.47960800
_cell_length_c   11.76814326
_cell_angle_alpha   53.55082186
_cell_angle_beta   90.00000000
_cell_angle_gamma   90.00000000
_symmetry_Int_Tables_number   1
_chemical_formula_structural   LiP4WO12
_chemical_formula_sum   'Li4 P16 W4 O48'
_cell_volume   924.86120540
_cell_formula_units_Z   4
loop_
 _symmetry_equiv_pos_site_id
 _symmetry_equiv_pos_as_xyz
  1  'x, y, z'
loop_
 _atom_site_type_symbol
 _atom_site_label
 _atom_site_symmetry_multiplicity
 _atom_site_fract_x
 _atom_site_fract_y
 _atom_site_fract_z
 _atom_site_occupancy
  Li  Li0  1  0.23418700  0.91305900  0.06385400  1
  Li  Li1  1  0.73418700  0.08694100  0.43614600  1
  Li  Li2  1  0.26581300  0.91305900  0.56385400  1
  Li  Li3  1  0.76581300  0.08694100  0.93614600  1
  P  P4  1  0.37603500  0.42782300  0.19080800  1
  P  P5  1  0.59334000  0.49201700  0.19421600  1
  P  P6  1  0.11764700  0.15095600  0.26768700  1
  P  P7  1  0.90658200  0.05422500  0.22754800  1
  P  P8  1  0.40658200  0.94577500  0.27245200  1
  P  P9  1  0.61764700  0.84904400  0.23231300  1
  P  P10  1  0.09334000  0.50798300  0.30578400  1
  P  P11  1  0.87603500  0.57217700  0.30919200  1
  P  P12  1  0.12396500  0.42782300  0.69080800  1
  P  P13  1  0.90666000  0.49201700  0.69421600  1
  P  P14  1  0.38235300  0.15095600  0.76768700  1
  P  P15  1  0.59341800  0.05422500  0.72754800  1
  P  P16  1  0.09341800  0.94577500  0.77245200  1
  P  P17  1  0.88235300  0.84904400  0.73231300  1
  P  P18  1  0.40666000  0.50798300  0.80578400  1
  P  P19  1  0.62396500  0.57217700  0.80919200  1
  W  W20  1  0.80291700  0.46836100  0.06343500  1
  W  W21  1  0.30291700  0.53163900  0.43656500  1
  W  W22  1  0.69708300  0.46836100  0.56343500  1
  W  W23  1  0.19708300  0.53163900  0.93656500  1
  O  O24  1  0.66892300  0.62456100  0.07317400  1
  O  O25  1  0.91618900  0.23710100  0.06964400  1
  O  O26  1  0.15429000  0.21684000  0.12548100  1
  O  O27  1  0.29122200  0.55537100  0.08461100  1
  O  O28  1  0.48432700  0.52890400  0.11495000  1
  O  O29  1  0.68734600  0.97332600  0.10922300  1
  O  O30  1  0.87252900  0.58220400  0.17809200  1
  O  O31  1  0.38039400  0.17951500  0.23648100  1
  O  O32  1  0.32262400  0.87242800  0.21755800  1
  O  O33  1  0.51260500  0.99361200  0.19147600  1
  O  O34  1  0.07367200  0.37648800  0.23863900  1
  O  O35  1  0.11500800  0.74625400  0.19355400  1
  O  O36  1  0.61500800  0.25374600  0.30644600  1
  O  O37  1  0.57367200  0.62351200  0.26136100  1
  O  O38  1  0.01260500  0.00638800  0.30852400  1
  O  O39  1  0.82262400  0.12757200  0.28244200  1
  O  O40  1  0.88039400  0.82048500  0.26351900  1
  O  O41  1  0.37252900  0.41779600  0.32190800  1
  O  O42  1  0.18734600  0.02667400  0.39077700  1
  O  O43  1  0.98432700  0.47109600  0.38505000  1
  O  O44  1  0.79122200  0.44462900  0.41538900  1
  O  O45  1  0.65429000  0.78316000  0.37451900  1
  O  O46  1  0.41618900  0.76289900  0.43035600  1
  O  O47  1  0.16892300  0.37543900  0.42682600  1
  O  O48  1  0.83107700  0.62456100  0.57317400  1
  O  O49  1  0.58381100  0.23710100  0.56964400  1
  O  O50  1  0.34571000  0.21684000  0.62548100  1
  O  O51  1  0.20877800  0.55537100  0.58461100  1
  O  O52  1  0.01567300  0.52890400  0.61495000  1
  O  O53  1  0.81265400  0.97332600  0.60922300  1
  O  O54  1  0.62747100  0.58220400  0.67809200  1
  O  O55  1  0.11960600  0.17951500  0.73648100  1
  O  O56  1  0.17737600  0.87242800  0.71755800  1
  O  O57  1  0.98739500  0.99361200  0.69147600  1
  O  O58  1  0.42632800  0.37648800  0.73863900  1
  O  O59  1  0.38499200  0.74625400  0.69355400  1
  O  O60  1  0.88499200  0.25374600  0.80644600  1
  O  O61  1  0.92632800  0.62351200  0.76136100  1
  O  O62  1  0.48739500  0.00638800  0.80852400  1
  O  O63  1  0.67737600  0.12757200  0.78244200  1
  O  O64  1  0.61960600  0.82048500  0.76351900  1
  O  O65  1  0.12747100  0.41779600  0.82190800  1
  O  O66  1  0.31265400  0.02667400  0.89077700  1
  O  O67  1  0.51567300  0.47109600  0.88505000  1
  O  O68  1  0.70877800  0.44462900  0.91538900  1
  O  O69  1  0.84571000  0.78316000  0.87451900  1
  O  O70  1  0.08381100  0.76289900  0.93035600  1
  O  O71  1  0.33107700  0.37543900  0.92682600  1
