# generated using pymatgen
data_Li3Mn(PO4)2
_symmetry_space_group_name_H-M   'P 1'
_cell_length_a   6.05966000
_cell_length_b   9.48100986
_cell_length_c   10.09973215
_cell_angle_alpha   92.23856262
_cell_angle_beta   89.99975156
_cell_angle_gamma   90.00008250
_symmetry_Int_Tables_number   1
_chemical_formula_structural   Li3Mn(PO4)2
_chemical_formula_sum   'Li12 Mn4 P8 O32'
_cell_volume   579.80392998
_cell_formula_units_Z   4
loop_
 _symmetry_equiv_pos_site_id
 _symmetry_equiv_pos_as_xyz
  1  'x, y, z'
loop_
 _atom_site_type_symbol
 _atom_site_label
 _atom_site_symmetry_multiplicity
 _atom_site_fract_x
 _atom_site_fract_y
 _atom_site_fract_z
 _atom_site_occupancy
  Li  Li0  1  0.00000400  0.99999900  0.00000300  1
  Li  Li1  1  0.00000300  0.50000300  0.99999900  1
  Li  Li2  1  0.49999700  0.99999800  0.00000300  1
  Li  Li3  1  0.49999700  0.50000200  0.00000000  1
  Li  Li4  1  0.74999900  0.23785100  0.21532100  1
  Li  Li5  1  0.74999900  0.73783800  0.21533000  1
  Li  Li6  1  0.25000200  0.26216000  0.78466100  1
  Li  Li7  1  0.25000000  0.76214700  0.78467100  1
  Li  Li8  1  0.00000700  0.24999700  0.50000200  1
  Li  Li9  1  0.99998900  0.75000200  0.49999600  1
  Li  Li10  1  0.49999200  0.24999800  0.50000200  1
  Li  Li11  1  0.50001300  0.75000200  0.49999500  1
  Mn  Mn12  1  0.24999800  0.98490000  0.28328700  1
  Mn  Mn13  1  0.75000300  0.01510400  0.71674500  1
  Mn  Mn14  1  0.24999500  0.48487100  0.28325500  1
  Mn  Mn15  1  0.74999900  0.51510300  0.71673700  1
  P  P16  1  0.25000100  0.20253000  0.10369800  1
  P  P17  1  0.24999500  0.70253800  0.10371200  1
  P  P18  1  0.75000200  0.29746700  0.89628800  1
  P  P19  1  0.75000000  0.79746500  0.89630100  1
  P  P20  1  0.74999900  0.46647800  0.40881700  1
  P  P21  1  0.75000400  0.96648200  0.40882200  1
  P  P22  1  0.25000000  0.03352200  0.59119100  1
  P  P23  1  0.24999800  0.53352200  0.59117900  1
  O  O24  1  0.74999700  0.34735100  0.04254400  1
  O  O25  1  0.74999900  0.84734400  0.04255400  1
  O  O26  1  0.25001100  0.15265400  0.95744200  1
  O  O27  1  0.25000300  0.65265800  0.95745200  1
  O  O28  1  0.24999800  0.36912900  0.11675800  1
  O  O29  1  0.25000200  0.86912300  0.11679800  1
  O  O30  1  0.75000600  0.13088100  0.88321900  1
  O  O31  1  0.74999600  0.63086600  0.88323800  1
  O  O32  1  0.75000100  0.12629900  0.41634700  1
  O  O33  1  0.75000300  0.62629400  0.41635000  1
  O  O34  1  0.25000000  0.37370600  0.58364500  1
  O  O35  1  0.25000200  0.87370500  0.58364700  1
  O  O36  1  0.24999800  0.09859500  0.44686700  1
  O  O37  1  0.24999600  0.59858200  0.44685400  1
  O  O38  1  0.75000200  0.40141200  0.55314000  1
  O  O39  1  0.75000400  0.90141900  0.55314900  1
  O  O40  1  0.04700000  0.13675600  0.17384700  1
  O  O41  1  0.04698900  0.63674300  0.17384900  1
  O  O42  1  0.45299500  0.13675400  0.17385300  1
  O  O43  1  0.45299100  0.63673800  0.17385700  1
  O  O44  1  0.54700300  0.36325700  0.82613600  1
  O  O45  1  0.54700500  0.86324700  0.82614900  1
  O  O46  1  0.95300300  0.36326000  0.82614000  1
  O  O47  1  0.95299800  0.86324400  0.82615000  1
  O  O48  1  0.54457400  0.39690000  0.33992100  1
  O  O49  1  0.54457600  0.89690000  0.33993400  1
  O  O50  1  0.95542400  0.39689800  0.33991800  1
  O  O51  1  0.95543700  0.89690200  0.33993400  1
  O  O52  1  0.04456200  0.10310100  0.66007400  1
  O  O53  1  0.04457000  0.60309900  0.66007400  1
  O  O54  1  0.45543300  0.10310200  0.66007200  1
  O  O55  1  0.45542600  0.60310000  0.66007200  1
