# generated using pymatgen
data_Li3V2(PO4)3
_symmetry_space_group_name_H-M   'P 1'
_cell_length_a   9.17538785
_cell_length_b   9.17538785
_cell_length_c   16.55749599
_cell_angle_alpha   65.16547252
_cell_angle_beta   65.16547252
_cell_angle_gamma   58.06002062
_symmetry_Int_Tables_number   1
_chemical_formula_structural   Li3V2(PO4)3
_chemical_formula_sum   'Li12 V8 P12 O48'
_cell_volume   1037.49592481
_cell_formula_units_Z   4
loop_
 _symmetry_equiv_pos_site_id
 _symmetry_equiv_pos_as_xyz
  1  'x, y, z'
loop_
 _atom_site_type_symbol
 _atom_site_label
 _atom_site_symmetry_multiplicity
 _atom_site_fract_x
 _atom_site_fract_y
 _atom_site_fract_z
 _atom_site_occupancy
  Li  Li0  1  0.46859900  0.76550400  0.10053800  1
  Li  Li1  1  0.09089700  0.24400200  0.69608300  1
  Li  Li2  1  0.62540100  0.37459900  0.00000000  1
  Li  Li3  1  0.75599800  0.90910300  0.30391700  1
  Li  Li4  1  0.23449600  0.53140100  0.89946200  1
  Li  Li5  1  0.99966200  0.50411200  0.24624900  1
  Li  Li6  1  0.76570900  0.46860400  0.60037000  1
  Li  Li7  1  0.24417500  0.09270700  0.19859700  1
  Li  Li8  1  0.37579900  0.62420100  0.50000000  1
  Li  Li9  1  0.90729300  0.75582500  0.80140300  1
  Li  Li10  1  0.53139600  0.23429100  0.39963000  1
  Li  Li11  1  0.49588800  0.00033800  0.75375100  1
  V  V12  1  0.21106000  0.70796500  0.28248800  1
  V  V13  1  0.84618600  0.80416000  0.58660600  1
  V  V14  1  0.19584000  0.15381400  0.41339400  1
  V  V15  1  0.29203500  0.78894000  0.71751200  1
  V  V16  1  0.71006400  0.21027300  0.78242900  1
  V  V17  1  0.80451900  0.84506900  0.08644400  1
  V  V18  1  0.15493100  0.19548100  0.91355600  1
  V  V19  1  0.78972700  0.28993600  0.21757100  1
  P  P20  1  0.02798000  0.96148500  0.12369300  1
  P  P21  1  0.02752900  0.56117600  0.43904600  1
  P  P22  1  0.66105200  0.59667200  0.77872600  1
  P  P23  1  0.40332800  0.33894800  0.22127400  1
  P  P24  1  0.43882400  0.97247100  0.56095400  1
  P  P25  1  0.03851500  0.97202000  0.87630700  1
  P  P26  1  0.96348100  0.02758300  0.62351500  1
  P  P27  1  0.56260700  0.02759300  0.93881700  1
  P  P28  1  0.59829900  0.65751400  0.27898300  1
  P  P29  1  0.34248600  0.40170100  0.72101700  1
  P  P30  1  0.97240700  0.43739300  0.06118300  1
  P  P31  1  0.97241700  0.03651900  0.37648500  1
  O  O32  1  0.60007700  0.91463100  0.03553000  1
  O  O33  1  0.71623700  0.94871900  0.85826000  1
  O  O34  1  0.81287600  0.99732100  0.62389400  1
  O  O35  1  0.13373400  0.94416400  0.30184100  1
  O  O36  1  0.46468700  0.68824800  0.23177000  1
  O  O37  1  0.98002900  0.89130400  0.46666500  1
  O  O38  1  0.20717900  0.87256600  0.14827200  1
  O  O39  1  0.21973700  0.54825100  0.41129400  1
  O  O40  1  0.80792100  0.66880000  0.71855300  1
  O  O41  1  0.61186100  0.96919800  0.55526100  1
  O  O42  1  0.67164900  0.51549100  0.87792700  1
  O  O43  1  0.91491900  0.59964400  0.53540700  1
  O  O44  1  0.23629000  0.51944700  0.23506900  1
  O  O45  1  0.94904800  0.71424800  0.35782700  1
  O  O46  1  0.48055300  0.76371000  0.76493100  1
  O  O47  1  0.99823200  0.81033800  0.12424400  1
  O  O48  1  0.48450900  0.32835100  0.12207300  1
  O  O49  1  0.94665600  0.13212800  0.80194200  1
  O  O50  1  0.03080200  0.38813900  0.44473900  1
  O  O51  1  0.68972400  0.46380600  0.73185300  1
  O  O52  1  0.89425400  0.97726900  0.96656300  1
  O  O53  1  0.33120000  0.19207900  0.28144700  1
  O  O54  1  0.12743400  0.79282100  0.85172800  1
  O  O55  1  0.45174900  0.78026300  0.58870600  1
  O  O56  1  0.54960500  0.21954600  0.91122800  1
  O  O57  1  0.87489400  0.20649500  0.64823200  1
  O  O58  1  0.67212000  0.80353800  0.21901800  1
  O  O59  1  0.10869600  0.01997100  0.53333500  1
  O  O60  1  0.31175200  0.53531300  0.76823000  1
  O  O61  1  0.96904000  0.60902500  0.05751900  1
  O  O62  1  0.05583600  0.86626600  0.69815900  1
  O  O63  1  0.51731500  0.66772500  0.37809500  1
  O  O64  1  0.00267900  0.18712400  0.37610600  1
  O  O65  1  0.52184900  0.23587800  0.73497700  1
  O  O66  1  0.05128100  0.28376300  0.14174000  1
  O  O67  1  0.76412200  0.47815100  0.26502300  1
  O  O68  1  0.08536900  0.39992300  0.96447000  1
  O  O69  1  0.33227500  0.48268500  0.62190500  1
  O  O70  1  0.39097500  0.03096000  0.94248100  1
  O  O71  1  0.19646200  0.32788000  0.78098200  1
  O  O72  1  0.78045400  0.45039500  0.08877200  1
  O  O73  1  0.79350500  0.12510600  0.35176800  1
  O  O74  1  0.02273100  0.10574600  0.03343700  1
  O  O75  1  0.53619400  0.31027600  0.26814700  1
  O  O76  1  0.86787200  0.05334400  0.19805800  1
  O  O77  1  0.18966200  0.00176800  0.87575600  1
  O  O78  1  0.28575200  0.05095200  0.64217300  1
  O  O79  1  0.40035600  0.08508100  0.46459300  1
