# generated using pymatgen
data_Li3Zn2Fe19O32
_symmetry_space_group_name_H-M   'P 1'
_cell_length_a   6.01247400
_cell_length_b   6.01326157
_cell_length_c   19.92504734
_cell_angle_alpha   89.97496946
_cell_angle_beta   98.66276034
_cell_angle_gamma   119.87994122
_symmetry_Int_Tables_number   1
_chemical_formula_structural   Li3Zn2Fe19O32
_chemical_formula_sum   'Li3 Zn2 Fe19 O32'
_cell_volume   615.15365822
_cell_formula_units_Z   1
loop_
 _symmetry_equiv_pos_site_id
 _symmetry_equiv_pos_as_xyz
  1  'x, y, z'
loop_
 _atom_site_type_symbol
 _atom_site_label
 _atom_site_symmetry_multiplicity
 _atom_site_fract_x
 _atom_site_fract_y
 _atom_site_fract_z
 _atom_site_occupancy
  Li  Li0  1  0.12596500  0.56661800  0.68775400  1
  Li  Li1  1  0.62396000  0.80931600  0.43819200  1
  Li  Li2  1  0.12731900  0.06648600  0.18612600  1
  Zn  Zn3  1  0.55682100  0.78060900  0.84225000  1
  Zn  Zn4  1  0.31281900  0.65820100  0.96848300  1
  Fe  Fe5  1  0.00302300  0.00155400  0.00185900  1
  Fe  Fe6  1  0.06396700  0.28862600  0.84281200  1
  Fe  Fe7  1  0.06353900  0.77922600  0.84282800  1
  Fe  Fe8  1  0.61504400  0.30993400  0.93531900  1
  Fe  Fe9  1  0.81256700  0.90822200  0.71419400  1
  Fe  Fe10  1  0.50894000  0.25406800  0.74742400  1
  Fe  Fe11  1  0.56811500  0.54353600  0.59374600  1
  Fe  Fe12  1  0.56716500  0.02786700  0.59359800  1
  Fe  Fe13  1  0.06900600  0.27753800  0.34476900  1
  Fe  Fe14  1  0.30925400  0.14942900  0.46628900  1
  Fe  Fe15  1  0.05193600  0.02680800  0.59361400  1
  Fe  Fe16  1  0.55329600  0.27585400  0.34500900  1
  Fe  Fe17  1  0.99667700  0.49554400  0.50064600  1
  Fe  Fe18  1  0.50276000  0.75455900  0.25201400  1
  Fe  Fe19  1  0.06693300  0.79112500  0.34462400  1
  Fe  Fe20  1  0.56714900  0.03718500  0.09623300  1
  Fe  Fe21  1  0.06103300  0.53065400  0.09577700  1
  Fe  Fe22  1  0.81280900  0.41106600  0.21662300  1
  Fe  Fe23  1  0.56726200  0.53217500  0.09527100  1
  O  O24  1  0.41915000  0.46732900  0.90463100  1
  O  O25  1  0.94222800  0.47334200  0.90265600  1
  O  O26  1  0.18127200  0.59264000  0.79090700  1
  O  O27  1  0.93972800  0.97143300  0.90286100  1
  O  O28  1  0.70650600  0.09252600  0.78048700  1
  O  O29  1  0.19730900  0.33246500  0.53195900  1
  O  O30  1  0.70522900  0.61480700  0.77978600  1
  O  O31  1  0.91243800  0.18869700  0.65011600  1
  O  O32  1  0.41826800  0.95678100  0.90515300  1
  O  O33  1  0.96234900  0.98100900  0.40338400  1
  O  O34  1  0.68927000  0.85023000  0.53964100  1
  O  O35  1  0.46901500  0.74028100  0.65138900  1
  O  O36  1  0.17472800  0.08944700  0.78207400  1
  O  O37  1  0.43694100  0.21442400  0.64823900  1
  O  O38  1  0.66531400  0.32620700  0.53313500  1
  O  O39  1  0.20367600  0.86047900  0.53379100  1
  O  O40  1  0.69915400  0.11680600  0.28276900  1
  O  O41  1  0.42088200  0.43691900  0.40384500  1
  O  O42  1  0.41954400  0.97783300  0.40300400  1
  O  O43  1  0.92345600  0.73375100  0.65176500  1
  O  O44  1  0.19413300  0.09733800  0.28890900  1
  O  O45  1  0.43645300  0.71828600  0.15315700  1
  O  O46  1  0.17128600  0.58579600  0.28296100  1
  O  O47  1  0.67736700  0.84043100  0.03663900  1
  O  O48  1  0.93122600  0.46566800  0.40061900  1
  O  O49  1  0.19819600  0.36121500  0.03661600  1
  O  O50  1  0.69985400  0.58979700  0.28309400  1
  O  O51  1  0.20064800  0.83981300  0.03737200  1
  O  O52  1  0.92208400  0.69006200  0.15292100  1
  O  O53  1  0.92034900  0.23538500  0.15352500  1
  O  O54  1  0.46917800  0.23731400  0.15326700  1
  O  O55  1  0.69149400  0.34797300  0.03555200  1
