# generated using pymatgen
data_Li2U(WO5)2
_symmetry_space_group_name_H-M   'P 1'
_cell_length_a   7.63243900
_cell_length_b   7.81124300
_cell_length_c   12.94894800
_cell_angle_alpha   90.00000000
_cell_angle_beta   90.00000000
_cell_angle_gamma   90.00000000
_symmetry_Int_Tables_number   1
_chemical_formula_structural   Li2U(WO5)2
_chemical_formula_sum   'Li8 U4 W8 O40'
_cell_volume   772.00120345
_cell_formula_units_Z   4
loop_
 _symmetry_equiv_pos_site_id
 _symmetry_equiv_pos_as_xyz
  1  'x, y, z'
loop_
 _atom_site_type_symbol
 _atom_site_label
 _atom_site_symmetry_multiplicity
 _atom_site_fract_x
 _atom_site_fract_y
 _atom_site_fract_z
 _atom_site_occupancy
  Li  Li0  1  0.00000000  0.50000000  0.23836000  1
  Li  Li1  1  0.50000000  0.50000000  0.25850800  1
  Li  Li2  1  0.74933200  0.69062700  0.25609600  1
  Li  Li3  1  0.24933200  0.80937300  0.74390400  1
  Li  Li4  1  0.00000000  0.00000000  0.74149200  1
  Li  Li5  1  0.50000000  0.00000000  0.76164000  1
  Li  Li6  1  0.75066800  0.19062700  0.74390400  1
  Li  Li7  1  0.25066800  0.30937300  0.25609600  1
  U  U8  1  0.00000000  0.50000000  0.76997500  1
  U  U9  1  0.50000000  0.50000000  0.73026100  1
  U  U10  1  0.00000000  0.00000000  0.26973900  1
  U  U11  1  0.50000000  0.00000000  0.23002500  1
  W  W12  1  0.25069700  0.51756100  0.49199500  1
  W  W13  1  0.75031300  0.52292900  0.00752500  1
  W  W14  1  0.25031300  0.97707100  0.99247500  1
  W  W15  1  0.75069700  0.98243900  0.50800500  1
  W  W16  1  0.74968700  0.02292900  0.99247500  1
  W  W17  1  0.24930300  0.01756100  0.50800500  1
  W  W18  1  0.24968700  0.47707100  0.00752500  1
  W  W19  1  0.74930300  0.48243900  0.49199500  1
  O  O20  1  0.00000000  0.50000000  0.96245600  1
  O  O21  1  0.50000000  0.50000000  0.02101300  1
  O  O22  1  0.00000000  0.50000000  0.47860700  1
  O  O23  1  0.50000000  0.50000000  0.53848200  1
  O  O24  1  0.71966400  0.49835900  0.84814600  1
  O  O25  1  0.21906000  0.51001200  0.65134100  1
  O  O26  1  0.79887400  0.52560000  0.14420200  1
  O  O27  1  0.30024900  0.48615400  0.35662100  1
  O  O28  1  0.00951900  0.73920600  0.77205800  1
  O  O29  1  0.49102200  0.73924400  0.72713500  1
  O  O30  1  0.24642800  0.73977200  0.00694700  1
  O  O31  1  0.75307000  0.74598800  0.50689200  1
  O  O32  1  0.74642800  0.76022800  0.99305300  1
  O  O33  1  0.25307000  0.75401200  0.49310800  1
  O  O34  1  0.99102200  0.76075600  0.27286500  1
  O  O35  1  0.50951900  0.76079400  0.22794200  1
  O  O36  1  0.29887400  0.97440000  0.85579800  1
  O  O37  1  0.80024900  0.01384600  0.64337900  1
  O  O38  1  0.21966400  0.00164100  0.15185400  1
  O  O39  1  0.71906000  0.98998800  0.34865900  1
  O  O40  1  0.00000000  0.00000000  0.97898700  1
  O  O41  1  0.00000000  0.00000000  0.46151800  1
  O  O42  1  0.50000000  0.00000000  0.52139300  1
  O  O43  1  0.50000000  0.00000000  0.03754400  1
  O  O44  1  0.78033600  0.99835900  0.15185400  1
  O  O45  1  0.28094000  0.01001200  0.34865900  1
  O  O46  1  0.70112600  0.02560000  0.85579800  1
  O  O47  1  0.19975100  0.98615400  0.64337900  1
  O  O48  1  0.49048100  0.23920600  0.22794200  1
  O  O49  1  0.00897800  0.23924400  0.27286500  1
  O  O50  1  0.25357200  0.23977200  0.99305300  1
  O  O51  1  0.74693000  0.24598800  0.49310800  1
  O  O52  1  0.75357200  0.26022800  0.00694700  1
  O  O53  1  0.24693000  0.25401200  0.50689200  1
  O  O54  1  0.99048100  0.26079400  0.77205800  1
  O  O55  1  0.50897800  0.26075600  0.72713500  1
  O  O56  1  0.20112600  0.47440000  0.14420200  1
  O  O57  1  0.69975100  0.51384600  0.35662100  1
  O  O58  1  0.28033600  0.50164100  0.84814600  1
  O  O59  1  0.78094000  0.48998800  0.65134100  1
