# generated using pymatgen
data_Li6V3P8O29
_symmetry_space_group_name_H-M   'P 1'
_cell_length_a   9.76431000
_cell_length_b   9.77661549
_cell_length_c   13.94781638
_cell_angle_alpha   89.74550470
_cell_angle_beta   90.59325648
_cell_angle_gamma   119.85323667
_symmetry_Int_Tables_number   1
_chemical_formula_structural   Li6V3P8O29
_chemical_formula_sum   'Li12 V6 P16 O58'
_cell_volume   1154.73915693
_cell_formula_units_Z   2
loop_
 _symmetry_equiv_pos_site_id
 _symmetry_equiv_pos_as_xyz
  1  'x, y, z'
loop_
 _atom_site_type_symbol
 _atom_site_label
 _atom_site_symmetry_multiplicity
 _atom_site_fract_x
 _atom_site_fract_y
 _atom_site_fract_z
 _atom_site_occupancy
  Li  Li0  1  0.23576000  0.90210400  0.44149400  1
  Li  Li1  1  0.31243400  0.65760400  0.11062500  1
  Li  Li2  1  0.23227400  0.32448400  0.93873700  1
  Li  Li3  1  0.67422300  0.90620100  0.93671900  1
  Li  Li4  1  0.33634900  0.23872800  0.56210200  1
  Li  Li5  1  0.66933100  0.76637300  0.43861100  1
  Li  Li6  1  0.33477800  0.10020800  0.05931800  1
  Li  Li7  1  0.76480200  0.66198700  0.05770800  1
  Li  Li8  1  0.90319200  0.66850000  0.56270200  1
  Li  Li9  1  0.76463400  0.10227900  0.55921400  1
  Li  Li10  1  0.00249400  0.99800300  0.99950700  1
  Li  Li11  1  0.01495800  0.05542200  0.49051000  1
  V  V12  1  0.43179600  0.43371800  0.74901400  1
  V  V13  1  0.56605200  0.56379100  0.25315800  1
  V  V14  1  0.43497000  0.00026300  0.24985500  1
  V  V15  1  0.56802100  0.00182400  0.75081200  1
  V  V16  1  0.00117400  0.56405300  0.75347300  1
  V  V17  1  0.99792700  0.43346700  0.24846000  1
  P  P18  1  0.08453800  0.78194600  0.15880400  1
  P  P19  1  0.22556600  0.91266800  0.66099400  1
  P  P20  1  0.08064100  0.30585500  0.65670100  1
  P  P21  1  0.33618800  0.66622600  0.87123500  1
  P  P22  1  0.33172900  0.66811700  0.36986100  1
  P  P23  1  0.22302300  0.31395400  0.15892300  1
  P  P24  1  0.31244800  0.22517400  0.34450000  1
  P  P25  1  0.68211200  0.90457200  0.15442000  1
  P  P26  1  0.31402300  0.08801500  0.84526200  1
  P  P27  1  0.68379900  0.77268300  0.65669000  1
  P  P28  1  0.77457300  0.68477700  0.84038400  1
  P  P29  1  0.66558800  0.33409400  0.63020700  1
  P  P30  1  0.66580900  0.33588100  0.12848200  1
  P  P31  1  0.91772300  0.68725700  0.34672300  1
  P  P32  1  0.77917100  0.08569500  0.33808400  1
  P  P33  1  0.91933000  0.22151000  0.84483400  1
  O  O34  1  0.00306100  0.77435100  0.43732100  1
  O  O35  1  0.08157500  0.74471200  0.65960900  1
  O  O36  1  0.22717200  0.01510500  0.93591500  1
  O  O37  1  0.25685800  0.92491200  0.15805100  1
  O  O38  1  0.09583200  0.62966800  0.16304900  1
  O  O39  1  0.19597900  0.67486700  0.82440600  1
  O  O40  1  0.07464300  0.45946100  0.66859100  1
  O  O41  1  0.00471500  0.20137600  0.92855000  1
  O  O42  1  0.08094900  0.33862100  0.15723400  1
  O  O43  1  0.32344200  0.81574900  0.32923500  1
  O  O44  1  0.38160000  0.91012700  0.67532500  1
  O  O45  1  0.19025600  0.52333600  0.31895600  1
  O  O46  1  0.33771700  0.66293100  0.97917000  1
  O  O47  1  0.33051500  0.67237700  0.47653800  1
  O  O48  1  0.32455900  0.50924500  0.83336700  1
  O  O49  1  0.51868900  0.89156700  0.16940300  1
  O  O50  1  0.49267300  0.81075100  0.83403300  1
  O  O51  1  0.25338400  0.33878000  0.65721300  1
  O  O52  1  0.20454700  0.20652800  0.25199700  1
  O  O53  1  0.22598800  0.21353700  0.43530700  1
  O  O54  1  0.23027200  0.22761200  0.07112000  1
  O  O55  1  0.37399100  0.47774200  0.17281500  1
  O  O56  1  0.48858400  0.67702700  0.33240300  1
  O  O57  1  0.33908300  0.25843400  0.83772300  1
  O  O58  1  0.52572200  0.61970100  0.67132400  1
  O  O59  1  0.66228500  0.91899600  0.65656100  1
  O  O60  1  0.20293700  0.99786800  0.75304600  1
  O  O61  1  0.22846800  0.00207200  0.57142900  1
  O  O62  1  0.78147500  0.99988400  0.42868200  1
  O  O63  1  0.33896800  0.08184500  0.33900000  1
  O  O64  1  0.46808000  0.38231100  0.33306100  1
  O  O65  1  0.65822900  0.73531900  0.15981800  1
  O  O66  1  0.50891000  0.32111100  0.67038400  1
  O  O67  1  0.61941300  0.52980000  0.82793500  1
  O  O68  1  0.78096400  0.77462500  0.92969600  1
  O  O69  1  0.76923000  0.77033800  0.56746200  1
  O  O70  1  0.79455200  0.79578900  0.74885700  1
  O  O71  1  0.75102400  0.66943300  0.34281700  1
  O  O72  1  0.51467500  0.18663800  0.16677900  1
  O  O73  1  0.46967600  0.08880400  0.83188600  1
  O  O74  1  0.67107000  0.48740400  0.17289200  1
  O  O75  1  0.66625000  0.34523300  0.02202100  1
  O  O76  1  0.66102900  0.33006300  0.52287000  1
  O  O77  1  0.80953000  0.48907600  0.67007600  1
  O  O78  1  0.61900900  0.08128400  0.32497200  1
  O  O79  1  0.67764100  0.18862700  0.67046200  1
  O  O80  1  0.91684000  0.65727300  0.83544900  1
  O  O81  1  0.01282600  0.80120400  0.25840100  1
  O  O82  1  0.98852200  0.79580100  0.07900700  1
  O  O83  1  0.91178600  0.52974700  0.33272400  1
  O  O84  1  0.81287100  0.33682100  0.17595000  1
  O  O85  1  0.91910900  0.37710300  0.83435800  1
  O  O86  1  0.74632700  0.07976800  0.83904500  1
  O  O87  1  0.76478500  0.98205900  0.06384300  1
  O  O88  1  0.79295100  0.99349400  0.24630600  1
  O  O89  1  0.91800100  0.25225800  0.33622900  1
  O  O90  1  0.99134900  0.20377800  0.57267400  1
  O  O91  1  0.00244500  0.20111200  0.75058500  1
