# generated using pymatgen
data_Li5Fe8(BO3)8
_symmetry_space_group_name_H-M   'P 1'
_cell_length_a   5.26514900
_cell_length_b   9.09788926
_cell_length_c   10.18913771
_cell_angle_alpha   89.41786899
_cell_angle_beta   88.78633367
_cell_angle_gamma   89.73371338
_symmetry_Int_Tables_number   1
_chemical_formula_structural   Li5Fe8(BO3)8
_chemical_formula_sum   'Li5 Fe8 B8 O24'
_cell_volume   487.93797455
_cell_formula_units_Z   1
loop_
 _symmetry_equiv_pos_site_id
 _symmetry_equiv_pos_as_xyz
  1  'x, y, z'
loop_
 _atom_site_type_symbol
 _atom_site_label
 _atom_site_symmetry_multiplicity
 _atom_site_fract_x
 _atom_site_fract_y
 _atom_site_fract_z
 _atom_site_occupancy
  Li  Li0  1  0.66613500  0.98781000  0.84598800  1
  Li  Li1  1  0.34568100  0.99658200  0.09325200  1
  Li  Li2  1  0.14751900  0.51541000  0.33399300  1
  Li  Li3  1  0.15912800  0.49209600  0.83471900  1
  Li  Li4  1  0.35515900  0.00521500  0.58194600  1
  Fe  Fe5  1  0.83687900  0.82686800  0.12398000  1
  Fe  Fe6  1  0.15504500  0.84694200  0.37124400  1
  Fe  Fe7  1  0.66939400  0.65709300  0.86599500  1
  Fe  Fe8  1  0.34472700  0.66135700  0.61695000  1
  Fe  Fe9  1  0.65887900  0.32633700  0.36425500  1
  Fe  Fe10  1  0.84404800  0.17478500  0.62248100  1
  Fe  Fe11  1  0.34075600  0.34390100  0.11629200  1
  Fe  Fe12  1  0.15827700  0.15876100  0.87429400  1
  B  B13  1  0.84470100  0.84299400  0.62450300  1
  B  B14  1  0.65378900  0.65618400  0.36412800  1
  B  B15  1  0.17002800  0.82886400  0.87630400  1
  B  B16  1  0.33531800  0.67817400  0.12391100  1
  B  B17  1  0.66249200  0.33261400  0.86787500  1
  B  B18  1  0.33479400  0.32410800  0.62318900  1
  B  B19  1  0.84193500  0.15524700  0.12611600  1
  B  B20  1  0.17449100  0.17789900  0.37830100  1
  O  O21  1  0.71543200  0.97881300  0.63934500  1
  O  O22  1  0.91146600  0.83412000  0.91462600  1
  O  O23  1  0.31121300  0.95750800  0.88466200  1
  O  O24  1  0.79145200  0.77942000  0.31960200  1
  O  O25  1  0.71144600  0.71883900  0.65610600  1
  O  O26  1  0.20442000  0.81108100  0.15308200  1
  O  O27  1  0.09845700  0.84348800  0.58410000  1
  O  O28  1  0.58184700  0.69077700  0.07467400  1
  O  O29  1  0.77960600  0.52213600  0.36660100  1
  O  O30  1  0.39934400  0.66653500  0.40219900  1
  O  O31  1  0.27876000  0.69805900  0.83580000  1
  O  O32  1  0.80786100  0.45476000  0.87174700  1
  O  O33  1  0.22129600  0.54710700  0.14431800  1
  O  O34  1  0.71029800  0.27711500  0.17392700  1
  O  O35  1  0.57756000  0.30703700  0.56671800  1
  O  O36  1  0.22691100  0.45564200  0.64462600  1
  O  O37  1  0.40599300  0.33174900  0.90606700  1
  O  O38  1  0.92080700  0.18749600  0.42313400  1
  O  O39  1  0.77494600  0.19882300  0.82263300  1
  O  O40  1  0.28981200  0.30988600  0.33762600  1
  O  O41  1  0.20756600  0.19125400  0.65722100  1
  O  O42  1  0.70867900  0.02489400  0.11358600  1
  O  O43  1  0.09724100  0.16292100  0.08864100  1
  O  O44  1  0.30084400  0.04814600  0.38328500  1
