# generated using pymatgen
data_Li2V2Si2O9
_symmetry_space_group_name_H-M   'P 1'
_cell_length_a   5.26542000
_cell_length_b   8.41531100
_cell_length_c   14.17530600
_cell_angle_alpha   90.00000000
_cell_angle_beta   90.00000000
_cell_angle_gamma   90.00000000
_symmetry_Int_Tables_number   1
_chemical_formula_structural   Li2V2Si2O9
_chemical_formula_sum   'Li8 V8 Si8 O36'
_cell_volume   628.10989044
_cell_formula_units_Z   4
loop_
 _symmetry_equiv_pos_site_id
 _symmetry_equiv_pos_as_xyz
  1  'x, y, z'
loop_
 _atom_site_type_symbol
 _atom_site_label
 _atom_site_symmetry_multiplicity
 _atom_site_fract_x
 _atom_site_fract_y
 _atom_site_fract_z
 _atom_site_occupancy
  Li  Li0  1  0.40098900  0.96339500  0.15685300  1
  Li  Li1  1  0.90098900  0.53660500  0.15685300  1
  Li  Li2  1  0.90098900  0.46339500  0.34314700  1
  Li  Li3  1  0.40098900  0.03660500  0.34314700  1
  Li  Li4  1  0.59901100  0.96339500  0.65685300  1
  Li  Li5  1  0.09901100  0.53660500  0.65685300  1
  Li  Li6  1  0.09901100  0.46339500  0.84314700  1
  Li  Li7  1  0.59901100  0.03660500  0.84314700  1
  V  V8  1  0.37530500  0.34143400  0.17237600  1
  V  V9  1  0.87530500  0.15856600  0.17237600  1
  V  V10  1  0.87530500  0.84143400  0.32762400  1
  V  V11  1  0.37530500  0.65856600  0.32762400  1
  V  V12  1  0.62469500  0.34143400  0.67237600  1
  V  V13  1  0.12469500  0.15856600  0.67237600  1
  V  V14  1  0.12469500  0.84143400  0.82762400  1
  V  V15  1  0.62469500  0.65856600  0.82762400  1
  Si  Si16  1  0.78527700  0.84473000  0.02705400  1
  Si  Si17  1  0.28527700  0.65527000  0.02705400  1
  Si  Si18  1  0.28527700  0.34473000  0.47294600  1
  Si  Si19  1  0.78527700  0.15527000  0.47294600  1
  Si  Si20  1  0.21472300  0.84473000  0.52705400  1
  Si  Si21  1  0.71472300  0.65527000  0.52705400  1
  Si  Si22  1  0.71472300  0.34473000  0.97294600  1
  Si  Si23  1  0.21472300  0.15527000  0.97294600  1
  O  O24  1  0.54507900  0.73821600  0.06792900  1
  O  O25  1  0.04507900  0.76178400  0.06792900  1
  O  O26  1  0.24169800  0.48373800  0.07617600  1
  O  O27  1  0.74169800  0.01626200  0.07617600  1
  O  O28  1  0.71140400  0.34827000  0.08863000  1
  O  O29  1  0.21140400  0.15173000  0.08863000  1
  O  O30  1  0.54421600  0.17149300  0.22866200  1
  O  O31  1  0.04421600  0.32850700  0.22866200  1
  O  O32  1  0.01050100  0.00000000  0.25000000  1
  O  O33  1  0.51050100  0.50000000  0.25000000  1
  O  O34  1  0.54421600  0.82850700  0.27133800  1
  O  O35  1  0.04421600  0.67149300  0.27133800  1
  O  O36  1  0.21140400  0.84827000  0.41137000  1
  O  O37  1  0.71140400  0.65173000  0.41137000  1
  O  O38  1  0.74169800  0.98373800  0.42382400  1
  O  O39  1  0.24169800  0.51626200  0.42382400  1
  O  O40  1  0.54507900  0.26178400  0.43207100  1
  O  O41  1  0.04507900  0.23821600  0.43207100  1
  O  O42  1  0.95492100  0.76178400  0.56792900  1
  O  O43  1  0.45492100  0.73821600  0.56792900  1
  O  O44  1  0.75830200  0.48373800  0.57617600  1
  O  O45  1  0.25830200  0.01626200  0.57617600  1
  O  O46  1  0.28859600  0.34827000  0.58863000  1
  O  O47  1  0.78859600  0.15173000  0.58863000  1
  O  O48  1  0.95578400  0.32850700  0.72866200  1
  O  O49  1  0.45578400  0.17149300  0.72866200  1
  O  O50  1  0.98949900  0.00000000  0.75000000  1
  O  O51  1  0.48949900  0.50000000  0.75000000  1
  O  O52  1  0.45578400  0.82850700  0.77133800  1
  O  O53  1  0.95578400  0.67149300  0.77133800  1
  O  O54  1  0.78859600  0.84827000  0.91137000  1
  O  O55  1  0.28859600  0.65173000  0.91137000  1
  O  O56  1  0.25830200  0.98373800  0.92382400  1
  O  O57  1  0.75830200  0.51626200  0.92382400  1
  O  O58  1  0.45492100  0.26178400  0.93207100  1
  O  O59  1  0.95492100  0.23821600  0.93207100  1
