# generated using pymatgen
data_Li6V3P8O29
_symmetry_space_group_name_H-M   'P 1'
_cell_length_a   9.78978400
_cell_length_b   9.79955606
_cell_length_c   13.95757481
_cell_angle_alpha   90.10669680
_cell_angle_beta   90.11652448
_cell_angle_gamma   119.94225944
_symmetry_Int_Tables_number   1
_chemical_formula_structural   Li6V3P8O29
_chemical_formula_sum   'Li12 V6 P16 O58'
_cell_volume   1160.29710254
_cell_formula_units_Z   2
loop_
 _symmetry_equiv_pos_site_id
 _symmetry_equiv_pos_as_xyz
  1  'x, y, z'
loop_
 _atom_site_type_symbol
 _atom_site_label
 _atom_site_symmetry_multiplicity
 _atom_site_fract_x
 _atom_site_fract_y
 _atom_site_fract_z
 _atom_site_occupancy
  Li  Li0  1  0.09183200  0.32779300  0.05903800  1
  Li  Li1  1  0.10043500  0.76484400  0.56222200  1
  Li  Li2  1  0.33950700  0.66064100  0.88361900  1
  Li  Li3  1  0.23232600  0.91008900  0.06019900  1
  Li  Li4  1  0.67574300  0.76860800  0.05842700  1
  Li  Li5  1  0.33785800  0.10230400  0.44390100  1
  Li  Li6  1  0.66337000  0.90241900  0.56402200  1
  Li  Li7  1  0.90347900  0.23756000  0.44128400  1
  Li  Li8  1  0.76585700  0.66833800  0.44213400  1
  Li  Li9  1  0.89849800  0.66397200  0.93878700  1
  Li  Li10  1  0.01352900  0.04260000  0.98684400  1
  Li  Li11  1  0.04279700  0.05343200  0.51505300  1
  V  V12  1  0.43490200  0.00085000  0.24822200  1
  V  V13  1  0.56487300  0.00436500  0.75596200  1
  V  V14  1  0.43376000  0.43367200  0.74726300  1
  V  V15  1  0.56148000  0.56264500  0.24993400  1
  V  V16  1  0.00056500  0.43185000  0.24977700  1
  V  V17  1  0.99839400  0.56054300  0.74650300  1
  P  P18  1  0.09221900  0.31270300  0.84178700  1
  P  P19  1  0.22428300  0.30610800  0.34397400  1
  P  P20  1  0.08804500  0.77224700  0.34185000  1
  P  P21  1  0.33130200  0.66603500  0.12676900  1
  P  P22  1  0.33919600  0.67225000  0.63083800  1
  P  P23  1  0.21954500  0.90465200  0.84375800  1
  P  P24  1  0.30878500  0.08420100  0.65976400  1
  P  P25  1  0.68645600  0.77655300  0.84255200  1
  P  P26  1  0.30579200  0.22375900  0.15529000  1
  P  P27  1  0.68470200  0.91370800  0.34402500  1
  P  P28  1  0.77658900  0.08324400  0.15798500  1
  P  P29  1  0.66894500  0.33397800  0.36900700  1
  P  P30  1  0.66598600  0.33938700  0.87027000  1
  P  P31  1  0.91213300  0.22050300  0.65756600  1
  P  P32  1  0.77248800  0.68659000  0.65638900  1
  P  P33  1  0.91090000  0.68273400  0.15817400  1
  O  O34  1  0.99079700  0.21119000  0.56728300  1
  O  O35  1  0.08445000  0.33811400  0.34245900  1
  O  O36  1  0.20318300  0.20801800  0.07149400  1
  O  O37  1  0.25868200  0.33922400  0.83765900  1
  O  O38  1  0.10252200  0.47563700  0.82852100  1
  O  O39  1  0.18821200  0.51022000  0.16575900  1
  O  O40  1  0.09137600  0.61797800  0.32671900  1
  O  O41  1  0.99618600  0.76854900  0.06843900  1
  O  O42  1  0.07538400  0.73520600  0.83917800  1
  O  O43  1  0.33424700  0.52496200  0.67730900  1
  O  O44  1  0.38291500  0.46185500  0.33217500  1
  O  O45  1  0.18906300  0.67716400  0.66818100  1
  O  O46  1  0.32995700  0.66517000  0.01866500  1
  O  O47  1  0.34767800  0.67985700  0.52405800  1
  O  O48  1  0.31950300  0.80971100  0.16604600  1
  O  O49  1  0.52360500  0.62587700  0.83318100  1
  O  O50  1  0.48640000  0.67717900  0.16700700  1
  O  O51  1  0.25564100  0.91754900  0.34140400  1
  O  O52  1  0.20102600  0.99220600  0.75188800  1
  O  O53  1  0.21450000  0.99788900  0.57018100  1
  O  O54  1  0.21183800  0.98434800  0.93359800  1
  O  O55  1  0.36994100  0.89029800  0.83313700  1
  O  O56  1  0.48955400  0.81797400  0.67569500  1
  O  O57  1  0.33831900  0.08313700  0.15955400  1
  O  O58  1  0.52678700  0.90996600  0.32648600  1
  O  O59  1  0.66120000  0.74527600  0.34111400  1
  O  O60  1  0.20206700  0.20219200  0.24996500  1
  O  O61  1  0.21344000  0.20633500  0.42819300  1
  O  O62  1  0.77829700  0.78135100  0.56873800  1
  O  O63  1  0.33402100  0.24974000  0.66205300  1
  O  O64  1  0.46193100  0.07906500  0.66841100  1
  O  O65  1  0.66413600  0.91977900  0.84217000  1
  O  O66  1  0.51264200  0.18890400  0.32933100  1
  O  O67  1  0.62012300  0.08188700  0.16731300  1
  O  O68  1  0.79268800  0.99357900  0.07598800  1
  O  O69  1  0.76595200  0.99809000  0.43544300  1
  O  O70  1  0.79947600  0.00798200  0.25690800  1
  O  O71  1  0.74196700  0.08310600  0.66106800  1
  O  O72  1  0.52429400  0.34305600  0.82154100  1
  O  O73  1  0.46058100  0.37986300  0.16694500  1
  O  O74  1  0.66007700  0.18801100  0.82596900  1
  O  O75  1  0.66691400  0.34489300  0.97661200  1
  O  O76  1  0.67217400  0.33529800  0.47619400  1
  O  O77  1  0.81261900  0.32095400  0.32885800  1
  O  O78  1  0.61914800  0.53087300  0.66446500  1
  O  O79  1  0.67882700  0.48868300  0.32821700  1
  O  O80  1  0.91794500  0.25542000  0.15976900  1
  O  O81  1  0.99866900  0.20307600  0.75057200  1
  O  O82  1  0.00860500  0.22820600  0.93173700  1
  O  O83  1  0.91725100  0.38058200  0.66795500  1
  O  O84  1  0.81730000  0.48624100  0.82839600  1
  O  O85  1  0.90667400  0.52635300  0.17256900  1
  O  O86  1  0.74205900  0.66015100  0.16034000  1
  O  O87  1  0.77744900  0.77504400  0.93056300  1
  O  O88  1  0.79334200  0.79181600  0.75052000  1
  O  O89  1  0.91875400  0.66497900  0.65682200  1
  O  O90  1  0.00091400  0.76978800  0.43175300  1
  O  O91  1  0.99992300  0.79425500  0.24997300  1
