# generated using pymatgen
data_Li6V2OF11
_symmetry_space_group_name_H-M   'P 1'
_cell_length_a   5.12406943
_cell_length_b   9.77255290
_cell_length_c   8.79955159
_cell_angle_alpha   107.72498720
_cell_angle_beta   89.36513467
_cell_angle_gamma   89.73746090
_symmetry_Int_Tables_number   1
_chemical_formula_structural   Li6V2OF11
_chemical_formula_sum   'Li12 V4 O2 F22'
_cell_volume   419.68155426
_cell_formula_units_Z   2
loop_
 _symmetry_equiv_pos_site_id
 _symmetry_equiv_pos_as_xyz
  1  'x, y, z'
loop_
 _atom_site_type_symbol
 _atom_site_label
 _atom_site_symmetry_multiplicity
 _atom_site_fract_x
 _atom_site_fract_y
 _atom_site_fract_z
 _atom_site_occupancy
  Li  Li0  1  0.00089400  0.19994400  0.05568200  1
  Li  Li1  1  0.50043700  0.69840800  0.05498500  1
  Li  Li2  1  0.50580600  0.55089100  0.69424900  1
  Li  Li3  1  0.00530300  0.05115300  0.69398600  1
  Li  Li4  1  0.50481700  0.47044500  0.33171600  1
  Li  Li5  1  0.00388000  0.97143300  0.33338000  1
  Li  Li6  1  0.98344200  0.77470600  0.93091700  1
  Li  Li7  1  0.48208300  0.27503300  0.93070900  1
  Li  Li8  1  0.01024900  0.28082300  0.41300400  1
  Li  Li9  1  0.51186700  0.78104200  0.41200000  1
  Li  Li10  1  0.97839800  0.47314500  0.81480200  1
  Li  Li11  1  0.47729400  0.97238800  0.81424200  1
  V  V12  1  0.51181700  0.23111600  0.56414800  1
  V  V13  1  0.49571900  0.01310100  0.16912700  1
  V  V14  1  0.01059300  0.73112800  0.56465900  1
  V  V15  1  0.99671400  0.51386200  0.17093500  1
  O  O16  1  0.14599900  0.62994900  0.38414100  1
  O  O17  1  0.65142800  0.13055800  0.38577600  1
  F  F18  1  0.14887100  0.63036100  0.70578900  1
  F  F19  1  0.64858800  0.13139600  0.70651400  1
  F  F20  1  0.16289900  0.12161100  0.21898900  1
  F  F21  1  0.66223500  0.62235900  0.22042800  1
  F  F22  1  0.30704700  0.38662800  0.13470800  1
  F  F23  1  0.80609900  0.88700600  0.13469200  1
  F  F24  1  0.35032500  0.37130000  0.47200200  1
  F  F25  1  0.85002900  0.87185900  0.47228400  1
  F  F26  1  0.34927500  0.87462800  0.97234800  1
  F  F27  1  0.84946200  0.37641300  0.97456300  1
  F  F28  1  0.67550500  0.63114000  0.53468600  1
  F  F29  1  0.17703300  0.13149600  0.53451600  1
  F  F30  1  0.65219200  0.11861800  0.03666500  1
  F  F31  1  0.15175900  0.61870300  0.03711800  1
  F  F32  1  0.70665500  0.62423300  0.87473300  1
  F  F33  1  0.20584200  0.12395500  0.87460100  1
  F  F34  1  0.80410800  0.36458100  0.61579900  1
  F  F35  1  0.30487100  0.86341100  0.61426100  1
  F  F36  1  0.84910000  0.37888700  0.27644300  1
  F  F37  1  0.34846800  0.87968100  0.27650900  1
  F  F38  1  0.85454500  0.86711700  0.76094900  1
  F  F39  1  0.35468200  0.36739400  0.76138400  1
