# generated using pymatgen
data_LiV3OF11
_symmetry_space_group_name_H-M   'P 1'
_cell_length_a   5.29962400
_cell_length_b   5.45030589
_cell_length_c   15.30508907
_cell_angle_alpha   99.92109171
_cell_angle_beta   90.26762555
_cell_angle_gamma   90.37525321
_symmetry_Int_Tables_number   1
_chemical_formula_structural   LiV3OF11
_chemical_formula_sum   'Li2 V6 O2 F22'
_cell_volume   435.45316704
_cell_formula_units_Z   2
loop_
 _symmetry_equiv_pos_site_id
 _symmetry_equiv_pos_as_xyz
  1  'x, y, z'
loop_
 _atom_site_type_symbol
 _atom_site_label
 _atom_site_symmetry_multiplicity
 _atom_site_fract_x
 _atom_site_fract_y
 _atom_site_fract_z
 _atom_site_occupancy
  Li  Li0  1  0.68634800  0.54067000  0.50481800  1
  Li  Li1  1  0.19356300  0.96894300  0.48932800  1
  V  V2  1  0.50679700  0.16250400  0.32534900  1
  V  V3  1  0.99673600  0.33960100  0.67519000  1
  V  V4  1  0.49965100  0.49999300  0.99988300  1
  V  V5  1  0.98411200  0.62924600  0.32200100  1
  V  V6  1  0.48898800  0.84202400  0.66638500  1
  V  V7  1  0.99951400  0.99972000  0.99958600  1
  O  O8  1  0.78852800  0.37036700  0.31552600  1
  O  O9  1  0.42842600  0.79090100  0.55531400  1
  F  F10  1  0.80807700  0.03409700  0.64563300  1
  F  F11  1  0.70071600  0.19327600  0.97711400  1
  F  F12  1  0.29574500  0.15593500  0.69391100  1
  F  F13  1  0.91809900  0.04196500  0.11322400  1
  F  F14  1  0.56640400  0.21380100  0.44806400  1
  F  F15  1  0.90401100  0.37574800  0.78606300  1
  F  F16  1  0.40554500  0.12180500  0.21471900  1
  F  F17  1  0.08081500  0.28694300  0.55513700  1
  F  F18  1  0.41490200  0.45848000  0.88640400  1
  F  F19  1  0.79913900  0.69185400  0.97673300  1
  F  F20  1  0.71082900  0.52059400  0.63744100  1
  F  F21  1  0.20096200  0.30782800  0.02305900  1
  F  F22  1  0.29324200  0.45888500  0.35286500  1
  F  F23  1  0.19063300  0.64160400  0.69397200  1
  F  F24  1  0.58518600  0.54098300  0.11342400  1
  F  F25  1  0.59687600  0.86833300  0.78044300  1
  F  F26  1  0.93017600  0.72419700  0.45055600  1
  F  F27  1  0.10337100  0.64210300  0.21431500  1
  F  F28  1  0.08198700  0.96069200  0.88638300  1
  F  F29  1  0.70604500  0.86366900  0.30711000  1
  F  F30  1  0.21608200  0.95975300  0.35961600  1
  F  F31  1  0.29882400  0.80701100  0.02262200  1
