# generated using pymatgen
data_LiFeSiO4
_symmetry_space_group_name_H-M   'P 1'
_cell_length_a   10.17259800
_cell_length_b   5.20489400
_cell_length_c   8.48180264
_cell_angle_alpha   53.67972128
_cell_angle_beta   90.00000000
_cell_angle_gamma   90.00000000
_symmetry_Int_Tables_number   1
_chemical_formula_structural   LiFeSiO4
_chemical_formula_sum   'Li4 Fe4 Si4 O16'
_cell_volume   361.83900300
_cell_formula_units_Z   4
loop_
 _symmetry_equiv_pos_site_id
 _symmetry_equiv_pos_as_xyz
  1  'x, y, z'
loop_
 _atom_site_type_symbol
 _atom_site_label
 _atom_site_symmetry_multiplicity
 _atom_site_fract_x
 _atom_site_fract_y
 _atom_site_fract_z
 _atom_site_occupancy
  Li  Li0  1  0.35986900  0.28641000  0.01868200  1
  Li  Li1  1  0.85986900  0.71359000  0.48131800  1
  Li  Li2  1  0.14013100  0.28641000  0.51868200  1
  Li  Li3  1  0.64013100  0.71359000  0.98131800  1
  Fe  Fe4  1  0.08961100  0.50382700  0.79764700  1
  Fe  Fe5  1  0.58961100  0.49617300  0.70235300  1
  Fe  Fe6  1  0.41038900  0.50382700  0.29764700  1
  Fe  Fe7  1  0.91038900  0.49617300  0.20235300  1
  Si  Si8  1  0.31372900  0.79797200  0.50979500  1
  Si  Si9  1  0.81372900  0.20202800  0.99020500  1
  Si  Si10  1  0.18627100  0.79797200  0.00979500  1
  Si  Si11  1  0.68627100  0.20202800  0.49020500  1
  O  O12  1  0.87728000  0.15394700  0.18408900  1
  O  O13  1  0.69440700  0.85477200  0.52684600  1
  O  O14  1  0.66365600  0.35780500  0.94867700  1
  O  O15  1  0.40781900  0.55983800  0.70364500  1
  O  O16  1  0.90781900  0.44016200  0.79635500  1
  O  O17  1  0.16365600  0.64219500  0.55132300  1
  O  O18  1  0.19440700  0.14522800  0.97315400  1
  O  O19  1  0.37728000  0.84605300  0.31591100  1
  O  O20  1  0.62272000  0.15394700  0.68408900  1
  O  O21  1  0.80559300  0.85477200  0.02684600  1
  O  O22  1  0.83634400  0.35780500  0.44867700  1
  O  O23  1  0.09218100  0.55983800  0.20364500  1
  O  O24  1  0.59218100  0.44016200  0.29635500  1
  O  O25  1  0.33634400  0.64219500  0.05132300  1
  O  O26  1  0.30559300  0.14522800  0.47315400  1
  O  O27  1  0.12272000  0.84605300  0.81591100  1
