# generated using pymatgen
data_Li2Fe3(SiO4)2
_symmetry_space_group_name_H-M   'P 1'
_cell_length_a   5.06315700
_cell_length_b   8.94267978
_cell_length_c   13.44848456
_cell_angle_alpha   108.48354840
_cell_angle_beta   99.31954209
_cell_angle_gamma   90.96058935
_symmetry_Int_Tables_number   1
_chemical_formula_structural   Li2Fe3(SiO4)2
_chemical_formula_sum   'Li6 Fe9 Si6 O24'
_cell_volume   568.37784642
_cell_formula_units_Z   3
loop_
 _symmetry_equiv_pos_site_id
 _symmetry_equiv_pos_as_xyz
  1  'x, y, z'
loop_
 _atom_site_type_symbol
 _atom_site_label
 _atom_site_symmetry_multiplicity
 _atom_site_fract_x
 _atom_site_fract_y
 _atom_site_fract_z
 _atom_site_occupancy
  Li  Li0  1  0.45592100  0.36235400  0.77773100  1
  Li  Li1  1  0.38562100  0.62357900  0.68589100  1
  Li  Li2  1  0.25743400  0.52221000  0.46894400  1
  Li  Li3  1  0.48108300  0.09644900  0.85643400  1
  Li  Li4  1  0.73246700  0.34691400  0.35848400  1
  Li  Li5  1  0.62738700  0.22984100  0.09884200  1
  Fe  Fe6  1  0.01237900  0.01382200  0.99464500  1
  Fe  Fe7  1  0.27453500  0.20989500  0.49365700  1
  Fe  Fe8  1  0.20053800  0.45031300  0.18654000  1
  Fe  Fe9  1  0.28769800  0.86365100  0.34589100  1
  Fe  Fe10  1  0.92957900  0.59870900  0.83298200  1
  Fe  Fe11  1  0.59487300  0.53401900  0.03589400  1
  Fe  Fe12  1  0.69136600  0.92650300  0.18952500  1
  Fe  Fe13  1  0.92334300  0.12553400  0.69097700  1
  Fe  Fe14  1  0.84997400  0.71232300  0.54030300  1
  Si  Si15  1  0.02699900  0.32030100  0.93399700  1
  Si  Si16  1  0.49345900  0.80198900  0.93475500  1
  Si  Si17  1  0.19758900  0.15409600  0.25063100  1
  Si  Si18  1  0.37850300  0.92531500  0.60191300  1
  Si  Si19  1  0.82533000  0.40533900  0.59385100  1
  Si  Si20  1  0.75726200  0.63789600  0.28629600  1
  O  O21  1  0.04356200  0.53985100  0.58883800  1
  O  O22  1  0.00696300  0.25363500  0.59799400  1
  O  O23  1  0.17427700  0.25035700  0.82989200  1
  O  O24  1  0.07134700  0.91235200  0.62566100  1
  O  O25  1  0.37827800  0.97906900  0.95837700  1
  O  O26  1  0.07120200  0.23999900  0.35751800  1
  O  O27  1  0.31326000  0.65721800  0.83797900  1
  O  O28  1  0.37940100  0.99098600  0.49902100  1
  O  O29  1  0.39965800  0.27660500  0.22229200  1
  O  O30  1  0.47620800  0.74298300  0.57208900  1
  O  O31  1  0.55858100  0.05805900  0.70701900  1
  O  O32  1  0.38267400  0.00937400  0.26411500  1
  O  O33  1  0.27958000  0.39105500  0.03484500  1
  O  O34  1  0.42964700  0.65040600  0.27976600  1
  O  O35  1  0.78793100  0.81354100  0.89963800  1
  O  O36  1  0.57989200  0.36093500  0.48983000  1
  O  O37  1  0.67884500  0.46398800  0.70026800  1
  O  O38  1  0.82235700  0.45769400  0.91817800  1
  O  O39  1  0.83062900  0.19459500  0.96078500  1
  O  O40  1  0.53124200  0.75756200  0.04781700  1
  O  O41  1  0.89206100  0.58315100  0.38656200  1
  O  O42  1  0.80863500  0.49994200  0.17449000  1
  O  O43  1  0.88126400  0.81158800  0.28898700  1
  O  O44  1  0.93626800  0.08190500  0.15065900  1
