# generated using pymatgen
data_Li5Mn4O8
_symmetry_space_group_name_H-M   'P 1'
_cell_length_a   6.32822732
_cell_length_b   6.32822732
_cell_length_c   10.08675300
_cell_angle_alpha   90.00000000
_cell_angle_beta   90.00000000
_cell_angle_gamma   125.34586279
_symmetry_Int_Tables_number   1
_chemical_formula_structural   Li5Mn4O8
_chemical_formula_sum   'Li10 Mn8 O16'
_cell_volume   329.48265884
_cell_formula_units_Z   2
loop_
 _symmetry_equiv_pos_site_id
 _symmetry_equiv_pos_as_xyz
  1  'x, y, z'
loop_
 _atom_site_type_symbol
 _atom_site_label
 _atom_site_symmetry_multiplicity
 _atom_site_fract_x
 _atom_site_fract_y
 _atom_site_fract_z
 _atom_site_occupancy
  Li  Li0  1  0.87522300  0.68707400  0.06097100  1
  Li  Li1  1  0.15839400  0.84160600  0.27350000  1
  Li  Li2  1  0.29277500  0.70722500  0.05919700  1
  Li  Li3  1  0.31292600  0.12477700  0.06097100  1
  Li  Li4  1  0.68707400  0.87522300  0.56097100  1
  Li  Li5  1  0.84160600  0.15839400  0.77350000  1
  Li  Li6  1  0.12477700  0.31292600  0.56097100  1
  Li  Li7  1  0.70722500  0.29277500  0.55919700  1
  Li  Li8  1  0.47275200  0.52724800  0.98147600  1
  Li  Li9  1  0.52724800  0.47275200  0.48147600  1
  Mn  Mn10  1  0.18044200  0.81955800  0.52705800  1
  Mn  Mn11  1  0.81955800  0.18044200  0.02705800  1
  Mn  Mn12  1  0.32251900  0.67748100  0.78702200  1
  Mn  Mn13  1  0.83135900  0.67091700  0.78459800  1
  Mn  Mn14  1  0.32908300  0.16864100  0.78459800  1
  Mn  Mn15  1  0.67091700  0.83135900  0.28459800  1
  Mn  Mn16  1  0.16864100  0.32908300  0.28459800  1
  Mn  Mn17  1  0.67748100  0.32251900  0.28702200  1
  O  O18  1  0.37041300  0.62958700  0.40737600  1
  O  O19  1  0.01978800  0.50028300  0.66649600  1
  O  O20  1  0.84981200  0.62371800  0.40521700  1
  O  O21  1  0.13673400  0.86326600  0.90357100  1
  O  O22  1  0.49971700  0.98021200  0.66649600  1
  O  O23  1  0.01416300  0.98583700  0.67188300  1
  O  O24  1  0.62371800  0.84981200  0.90521700  1
  O  O25  1  0.37628200  0.15018800  0.40521700  1
  O  O26  1  0.98583700  0.01416300  0.17188300  1
  O  O27  1  0.50028300  0.01978800  0.16649600  1
  O  O28  1  0.86326600  0.13673400  0.40357100  1
  O  O29  1  0.15018800  0.37628200  0.90521700  1
  O  O30  1  0.98021200  0.49971700  0.16649600  1
  O  O31  1  0.62958700  0.37041300  0.90737600  1
  O  O32  1  0.48206900  0.51793100  0.17109500  1
  O  O33  1  0.51793100  0.48206900  0.67109500  1
