# generated using pymatgen
data_Li24MnCr11O36
_symmetry_space_group_name_H-M   'P 1'
_cell_length_a   5.07960000
_cell_length_b   10.58652554
_cell_length_c   13.02582052
_cell_angle_alpha   112.85563378
_cell_angle_beta   96.68796653
_cell_angle_gamma   95.61801201
_symmetry_Int_Tables_number   1
_chemical_formula_structural   Li24MnCr11O36
_chemical_formula_sum   'Li24 Mn1 Cr11 O36'
_cell_volume   633.19078762
_cell_formula_units_Z   1
loop_
 _symmetry_equiv_pos_site_id
 _symmetry_equiv_pos_as_xyz
  1  'x, y, z'
loop_
 _atom_site_type_symbol
 _atom_site_label
 _atom_site_symmetry_multiplicity
 _atom_site_fract_x
 _atom_site_fract_y
 _atom_site_fract_z
 _atom_site_occupancy
  Li  Li0  1  0.77969200  0.06036500  0.06072400  1
  Li  Li1  1  0.66741100  0.33378100  0.08374000  1
  Li  Li2  1  0.88690300  0.27368700  0.27316800  1
  Li  Li3  1  0.33389600  0.16799700  0.16723600  1
  Li  Li4  1  0.55307500  0.60602100  0.10746000  1
  Li  Li5  1  0.00006400  0.00016400  0.25019600  1
  Li  Li6  1  0.99924900  0.49983800  0.00095600  1
  Li  Li7  1  0.77941000  0.06063500  0.56024600  1
  Li  Li8  1  0.44679900  0.39335000  0.39269400  1
  Li  Li9  1  0.66633200  0.33325200  0.58307100  1
  Li  Li10  1  0.66501300  0.83319900  0.33312300  1
  Li  Li11  1  0.11509500  0.72521500  0.22619700  1
  Li  Li12  1  0.88722000  0.27269000  0.77282400  1
  Li  Li13  1  0.33385400  0.16645200  0.66639000  1
  Li  Li14  1  0.33391400  0.66572900  0.41590700  1
  Li  Li15  1  0.55281800  0.60659600  0.60648900  1
  Li  Li16  1  0.00050300  0.49991500  0.50038200  1
  Li  Li17  1  0.21985100  0.94019800  0.44008400  1
  Li  Li18  1  0.44770500  0.39438300  0.89358500  1
  Li  Li19  1  0.66718500  0.83325200  0.83294300  1
  Li  Li20  1  0.11304700  0.72696800  0.72702400  1
  Li  Li21  1  0.33342100  0.66650500  0.91671100  1
  Li  Li22  1  0.99937600  0.99962900  0.74961600  1
  Li  Li23  1  0.21934900  0.93966500  0.93958300  1
  Mn  Mn24  1  0.22397900  0.44495300  0.19405900  1
  Cr  Cr25  1  0.89070000  0.78084200  0.03078600  1
  Cr  Cr26  1  0.55588300  0.11373000  0.36419700  1
  Cr  Cr27  1  0.78224400  0.55466300  0.30351500  1
  Cr  Cr28  1  0.44360800  0.88628700  0.13554400  1
  Cr  Cr29  1  0.10891900  0.21921200  0.46928600  1
  Cr  Cr30  1  0.88573100  0.77944400  0.53147500  1
  Cr  Cr31  1  0.55790800  0.11494300  0.86424900  1
  Cr  Cr32  1  0.77644000  0.55247500  0.80262400  1
  Cr  Cr33  1  0.22355800  0.44741800  0.69742200  1
  Cr  Cr34  1  0.43969800  0.88586600  0.63680900  1
  Cr  Cr35  1  0.10987300  0.21852400  0.96860400  1
  O  O36  1  0.43243500  0.13681200  0.99971300  1
  O  O37  1  0.64211600  0.07624100  0.21176500  1
  O  O38  1  0.90960500  0.52550200  0.16368400  1
  O  O39  1  0.31107100  0.40927700  0.04550600  1
  O  O40  1  0.88599200  0.04535000  0.40843700  1
  O  O41  1  0.02352300  0.25767200  0.12125200  1
  O  O42  1  0.54448000  0.37932500  0.24045800  1
  O  O43  1  0.78021300  0.28747700  0.42436900  1
  O  O44  1  0.76534700  0.80374800  0.16644800  1
  O  O45  1  0.23435600  0.19591600  0.33338400  1
  O  O46  1  0.21971100  0.71273600  0.07524800  1
  O  O47  1  0.45144400  0.62256800  0.26032100  1
  O  O48  1  0.43239300  0.13758100  0.50052300  1
  O  O49  1  0.97071600  0.74138000  0.37686500  1
  O  O50  1  0.11374500  0.95474800  0.09139000  1
  O  O51  1  0.69346000  0.59093800  0.45626000  1
  O  O52  1  0.09408400  0.47297000  0.33419200  1
  O  O53  1  0.64311200  0.07675800  0.71258200  1
  O  O54  1  0.35824800  0.92416100  0.28820900  1
  O  O55  1  0.90130200  0.52937100  0.66663400  1
  O  O56  1  0.30876900  0.40934000  0.54521000  1
  O  O57  1  0.88651400  0.04573100  0.90907000  1
  O  O58  1  0.02447100  0.25710100  0.62135200  1
  O  O59  1  0.57040000  0.86292400  0.50090700  1
  O  O60  1  0.55274500  0.37885400  0.74184800  1
  O  O61  1  0.78068100  0.28794200  0.92469500  1
  O  O62  1  0.76388100  0.80546700  0.66855400  1
  O  O63  1  0.23503000  0.19699600  0.83355200  1
  O  O64  1  0.21659400  0.71214700  0.57494000  1
  O  O65  1  0.44711500  0.62100100  0.75807600  1
  O  O66  1  0.97536900  0.74280400  0.87857800  1
  O  O67  1  0.11505100  0.95345900  0.59102800  1
  O  O68  1  0.69137900  0.59045600  0.95469500  1
  O  O69  1  0.09895300  0.47051800  0.83347200  1
  O  O70  1  0.35817700  0.92416600  0.78832300  1
  O  O71  1  0.56779600  0.86271600  0.99954200  1
