# generated using pymatgen
data_Li4Mn3Fe(BO3)4
_symmetry_space_group_name_H-M   'P 1'
_cell_length_a   5.23196600
_cell_length_b   6.03984728
_cell_length_c   16.25224476
_cell_angle_alpha   82.11345629
_cell_angle_beta   88.93060437
_cell_angle_gamma   89.35619897
_symmetry_Int_Tables_number   1
_chemical_formula_structural   Li4Mn3Fe(BO3)4
_chemical_formula_sum   'Li8 Mn6 Fe2 B8 O24'
_cell_volume   508.60975067
_cell_formula_units_Z   2
loop_
 _symmetry_equiv_pos_site_id
 _symmetry_equiv_pos_as_xyz
  1  'x, y, z'
loop_
 _atom_site_type_symbol
 _atom_site_label
 _atom_site_symmetry_multiplicity
 _atom_site_fract_x
 _atom_site_fract_y
 _atom_site_fract_z
 _atom_site_occupancy
  Li  Li0  1  0.84945200  0.06212600  0.38988400  1
  Li  Li1  1  0.15037400  0.43610400  0.10991800  1
  Li  Li2  1  0.65041400  0.18702200  0.85947800  1
  Li  Li3  1  0.34798200  0.31267800  0.63959000  1
  Li  Li4  1  0.65083200  0.68695700  0.35862200  1
  Li  Li5  1  0.35035800  0.81284400  0.14192000  1
  Li  Li6  1  0.84878900  0.56313200  0.89142600  1
  Li  Li7  1  0.15089100  0.93856500  0.60816900  1
  Mn  Mn8  1  0.66739400  0.27278200  0.04113100  1
  Mn  Mn9  1  0.16706300  0.02474300  0.78991600  1
  Mn  Mn10  1  0.16705500  0.52285300  0.29099600  1
  Mn  Mn11  1  0.83273700  0.47562800  0.71045700  1
  Mn  Mn12  1  0.66574900  0.77335600  0.53986100  1
  Mn  Mn13  1  0.33259000  0.72441400  0.96025400  1
  Fe  Fe14  1  0.33888300  0.22563700  0.46028700  1
  Fe  Fe15  1  0.82922600  0.97546400  0.21117200  1
  B  B16  1  0.32907400  0.03562100  0.29741600  1
  B  B17  1  0.82952500  0.28718300  0.54645700  1
  B  B18  1  0.67036900  0.46424100  0.20248300  1
  B  B19  1  0.16970500  0.21479100  0.95220600  1
  B  B20  1  0.83182000  0.78504000  0.04905800  1
  B  B21  1  0.33014600  0.53525300  0.79795500  1
  B  B22  1  0.17006300  0.71408600  0.45218500  1
  B  B23  1  0.66919000  0.96557100  0.70166400  1
  O  O24  1  0.59113600  0.01587200  0.30835300  1
  O  O25  1  0.18663400  0.16670200  0.34639300  1
  O  O26  1  0.70749500  0.17357600  0.48899600  1
  O  O27  1  0.28694300  0.33305400  0.00860200  1
  O  O28  1  0.78580200  0.08326600  0.75834200  1
  O  O29  1  0.81911800  0.32717700  0.15710200  1
  O  O30  1  0.31943100  0.07942200  0.90613800  1
  O  O31  1  0.08942900  0.26307200  0.55820800  1
  O  O32  1  0.41077100  0.48591900  0.18908500  1
  O  O33  1  0.90995900  0.23615600  0.93869000  1
  O  O34  1  0.68210000  0.41937400  0.59409600  1
  O  O35  1  0.21448000  0.41715200  0.74102700  1
  O  O36  1  0.78808000  0.58246800  0.25875400  1
  O  O37  1  0.32009900  0.57760500  0.40673700  1
  O  O38  1  0.09191900  0.76364600  0.06220300  1
  O  O39  1  0.58967500  0.51459000  0.81201200  1
  O  O40  1  0.91002000  0.73629500  0.43827600  1
  O  O41  1  0.68283000  0.91844600  0.09581200  1
  O  O42  1  0.17922700  0.67011000  0.84367600  1
  O  O43  1  0.20630900  0.92160300  0.24088500  1
  O  O44  1  0.71338900  0.66898300  0.99210100  1
  O  O45  1  0.28632400  0.83249200  0.50862700  1
  O  O46  1  0.81953600  0.83052300  0.65555900  1
  O  O47  1  0.40961200  0.98640700  0.68782000  1
