# generated using pymatgen
data_Li2Cr(Si2O5)3
_symmetry_space_group_name_H-M   'P 1'
_cell_length_a   11.04215607
_cell_length_b   11.04215607
_cell_length_c   10.04982900
_cell_angle_alpha   90.00000000
_cell_angle_beta   90.00000000
_cell_angle_gamma   100.10972911
_symmetry_Int_Tables_number   1
_chemical_formula_structural   Li2Cr(Si2O5)3
_chemical_formula_sum   'Li8 Cr4 Si24 O60'
_cell_volume   1206.34190745
_cell_formula_units_Z   4
loop_
 _symmetry_equiv_pos_site_id
 _symmetry_equiv_pos_as_xyz
  1  'x, y, z'
loop_
 _atom_site_type_symbol
 _atom_site_label
 _atom_site_symmetry_multiplicity
 _atom_site_fract_x
 _atom_site_fract_y
 _atom_site_fract_z
 _atom_site_occupancy
  Li  Li0  1  0.48676600  0.01323400  0.75000000  1
  Li  Li1  1  0.24136200  0.24136200  0.00000000  1
  Li  Li2  1  0.25863800  0.25863800  0.50000000  1
  Li  Li3  1  0.98676600  0.51323400  0.75000000  1
  Li  Li4  1  0.01323400  0.48676600  0.25000000  1
  Li  Li5  1  0.74136200  0.74136200  0.50000000  1
  Li  Li6  1  0.75863800  0.75863800  0.00000000  1
  Li  Li7  1  0.51323400  0.98676600  0.25000000  1
  Cr  Cr8  1  0.33912000  0.16088000  0.25000000  1
  Cr  Cr9  1  0.16088000  0.33912000  0.75000000  1
  Cr  Cr10  1  0.83912000  0.66088000  0.25000000  1
  Cr  Cr11  1  0.66088000  0.83912000  0.75000000  1
  Si  Si12  1  0.75941700  0.02076500  0.48987500  1
  Si  Si13  1  0.70540600  0.07523200  0.95464100  1
  Si  Si14  1  0.18327400  0.04376900  0.80173200  1
  Si  Si15  1  0.97923500  0.24058300  0.48987500  1
  Si  Si16  1  0.57523200  0.20540600  0.45464100  1
  Si  Si17  1  0.92476800  0.29459400  0.95464100  1
  Si  Si18  1  0.52076500  0.25941700  0.98987500  1
  Si  Si19  1  0.04376900  0.18327400  0.19826800  1
  Si  Si20  1  0.45623100  0.31672600  0.69826800  1
  Si  Si21  1  0.79459400  0.42476800  0.45464100  1
  Si  Si22  1  0.74058300  0.47923500  0.98987500  1
  Si  Si23  1  0.31672600  0.45623100  0.30173200  1
  Si  Si24  1  0.68327400  0.54376900  0.69826800  1
  Si  Si25  1  0.25941700  0.52076500  0.01012500  1
  Si  Si26  1  0.20540600  0.57523200  0.54535900  1
  Si  Si27  1  0.54376900  0.68327400  0.30173200  1
  Si  Si28  1  0.95623100  0.81672600  0.80173200  1
  Si  Si29  1  0.47923500  0.74058300  0.01012500  1
  Si  Si30  1  0.07523200  0.70540600  0.04535900  1
  Si  Si31  1  0.42476800  0.79459400  0.54535900  1
  Si  Si32  1  0.02076500  0.75941700  0.51012500  1
  Si  Si33  1  0.81672600  0.95623100  0.19826800  1
  Si  Si34  1  0.29459400  0.92476800  0.04535900  1
  Si  Si35  1  0.24058300  0.97923500  0.51012500  1
  O  O36  1  0.94194000  0.05806000  0.19855600  1
  O  O37  1  0.64743800  0.00019400  0.82466500  1
  O  O38  1  0.89683700  0.10316300  0.50340500  1
  O  O39  1  0.27507600  0.01545200  0.92161500  1
  O  O40  1  0.26139200  0.03078900  0.66464300  1
  O  O41  1  0.65514800  0.10596900  0.51475900  1
  O  O42  1  0.83435900  0.16564100  0.91837300  1
  O  O43  1  0.60596900  0.15514800  0.01475900  1
  O  O44  1  0.25666700  0.09575600  0.41109700  1
  O  O45  1  0.50019400  0.14743800  0.32466500  1
  O  O46  1  0.18037000  0.15733300  0.16831900  1
  O  O47  1  0.48454800  0.22492400  0.57838500  1
  O  O48  1  0.15733300  0.18037000  0.83168100  1
  O  O49  1  0.46921100  0.23860800  0.83535700  1
  O  O50  1  0.99980600  0.35256200  0.82466500  1
  O  O51  1  0.40424400  0.24333300  0.08890300  1
  O  O52  1  0.89403100  0.34485200  0.51475900  1
  O  O53  1  0.66564100  0.33435900  0.41837300  1
  O  O54  1  0.84485200  0.39403100  0.01475900  1
  O  O55  1  0.09575600  0.25666700  0.58890300  1
  O  O56  1  0.03078900  0.26139200  0.33535700  1
  O  O57  1  0.34266700  0.31963000  0.33168100  1
  O  O58  1  0.01545200  0.27507600  0.07838500  1
  O  O59  1  0.60316300  0.39683700  0.00340500  1
  O  O60  1  0.31963000  0.34266700  0.66831900  1
  O  O61  1  0.85256200  0.49980600  0.32466500  1
  O  O62  1  0.55806000  0.44194000  0.69855600  1
  O  O63  1  0.24333300  0.40424400  0.91109700  1
  O  O64  1  0.77507600  0.51545200  0.57838500  1
  O  O65  1  0.76139200  0.53078900  0.83535700  1
  O  O66  1  0.23860800  0.46921100  0.16464300  1
  O  O67  1  0.22492400  0.48454800  0.42161500  1
  O  O68  1  0.75666700  0.59575600  0.08890300  1
  O  O69  1  0.44194000  0.55806000  0.30144400  1
  O  O70  1  0.14743800  0.50019400  0.67533500  1
  O  O71  1  0.68037000  0.65733300  0.33168100  1
  O  O72  1  0.39683700  0.60316300  0.99659500  1
  O  O73  1  0.98454800  0.72492400  0.92161500  1
  O  O74  1  0.65733300  0.68037000  0.66831900  1
  O  O75  1  0.96921100  0.73860800  0.66464300  1
  O  O76  1  0.90424400  0.74333300  0.41109700  1
  O  O77  1  0.15514800  0.60596900  0.98524100  1
  O  O78  1  0.33435900  0.66564100  0.58162700  1
  O  O79  1  0.10596900  0.65514800  0.48524100  1
  O  O80  1  0.59575600  0.75666700  0.91109700  1
  O  O81  1  0.00019400  0.64743800  0.17533500  1
  O  O82  1  0.53078900  0.76139200  0.16464300  1
  O  O83  1  0.84266700  0.81963000  0.16831900  1
  O  O84  1  0.51545200  0.77507600  0.42161500  1
  O  O85  1  0.81963000  0.84266700  0.83168100  1
  O  O86  1  0.49980600  0.85256200  0.67533500  1
  O  O87  1  0.74333300  0.90424400  0.58890300  1
  O  O88  1  0.39403100  0.84485200  0.98524100  1
  O  O89  1  0.16564100  0.83435900  0.08162700  1
  O  O90  1  0.34485200  0.89403100  0.48524100  1
  O  O91  1  0.73860800  0.96921100  0.33535700  1
  O  O92  1  0.72492400  0.98454800  0.07838500  1
  O  O93  1  0.10316300  0.89683700  0.49659500  1
  O  O94  1  0.35256200  0.99980600  0.17533500  1
  O  O95  1  0.05806000  0.94194000  0.80144400  1
