# generated using pymatgen
data_Li4Mn2(PO4)3
_symmetry_space_group_name_H-M   'P 1'
_cell_length_a   8.88844200
_cell_length_b   8.64876700
_cell_length_c   14.93486204
_cell_angle_alpha   56.52907429
_cell_angle_beta   90.00000000
_cell_angle_gamma   90.00000000
_symmetry_Int_Tables_number   1
_chemical_formula_structural   Li4Mn2(PO4)3
_chemical_formula_sum   'Li16 Mn8 P12 O48'
_cell_volume   957.70869544
_cell_formula_units_Z   4
loop_
 _symmetry_equiv_pos_site_id
 _symmetry_equiv_pos_as_xyz
  1  'x, y, z'
loop_
 _atom_site_type_symbol
 _atom_site_label
 _atom_site_symmetry_multiplicity
 _atom_site_fract_x
 _atom_site_fract_y
 _atom_site_fract_z
 _atom_site_occupancy
  Li  Li0  1  0.47398800  0.27853800  0.65219500  1
  Li  Li1  1  0.91187100  0.61830900  0.30626300  1
  Li  Li2  1  0.28130800  0.64416400  0.23115400  1
  Li  Li3  1  0.22637000  0.97715700  0.82071900  1
  Li  Li4  1  0.72637000  0.02284300  0.67928100  1
  Li  Li5  1  0.78130800  0.35583600  0.26884600  1
  Li  Li6  1  0.41187100  0.38169100  0.19373700  1
  Li  Li7  1  0.97398800  0.72146200  0.84780500  1
  Li  Li8  1  0.02601200  0.27853800  0.15219500  1
  Li  Li9  1  0.58812900  0.61830900  0.80626300  1
  Li  Li10  1  0.21869200  0.64416400  0.73115400  1
  Li  Li11  1  0.27363000  0.97715700  0.32071900  1
  Li  Li12  1  0.77363000  0.02284300  0.17928100  1
  Li  Li13  1  0.71869200  0.35583600  0.76884600  1
  Li  Li14  1  0.08812900  0.38169100  0.69373700  1
  Li  Li15  1  0.52601200  0.72146200  0.34780500  1
  Mn  Mn16  1  0.95199600  0.65762400  0.09527300  1
  Mn  Mn17  1  0.45199600  0.34237600  0.40472700  1
  Mn  Mn18  1  0.04405200  0.13812500  0.60361600  1
  Mn  Mn19  1  0.54405200  0.86187500  0.89638400  1
  Mn  Mn20  1  0.45594800  0.13812500  0.10361600  1
  Mn  Mn21  1  0.95594800  0.86187500  0.39638400  1
  Mn  Mn22  1  0.54800400  0.65762400  0.59527300  1
  Mn  Mn23  1  0.04800400  0.34237600  0.90472700  1
  P  P24  1  0.74821400  0.44713800  0.50642900  1
  P  P25  1  0.61279800  0.74770700  0.14556500  1
  P  P26  1  0.90092700  0.05691100  0.83889300  1
  P  P27  1  0.11279800  0.25229300  0.35443500  1
  P  P28  1  0.40092700  0.94308900  0.66110700  1
  P  P29  1  0.24821400  0.55286200  0.99357100  1
  P  P30  1  0.75178600  0.44713800  0.00642900  1
  P  P31  1  0.59907300  0.05691100  0.33889300  1
  P  P32  1  0.88720200  0.74770700  0.64556500  1
  P  P33  1  0.09907300  0.94308900  0.16110700  1
  P  P34  1  0.38720200  0.25229300  0.85443500  1
  P  P35  1  0.25178600  0.55286200  0.49357100  1
  O  O36  1  0.14268400  0.39492700  0.55824200  1
  O  O37  1  0.09886900  0.79725000  0.13139000  1
  O  O38  1  0.32794300  0.55496100  0.39704000  1
  O  O39  1  0.40888200  0.12507900  0.81116700  1
  O  O40  1  0.62599000  0.47892800  0.42302700  1
  O  O41  1  0.61225000  0.85801100  0.02305400  1
  O  O42  1  0.77550500  0.66038800  0.18505800  1
  O  O43  1  0.02364100  0.12086800  0.74990800  1
  O  O44  1  0.74068000  0.05960900  0.79812600  1
  O  O45  1  0.82125700  0.25597300  0.55808100  1
  O  O46  1  0.49144200  0.59470400  0.19871500  1
  O  O47  1  0.94876100  0.85772900  0.92866000  1
  O  O48  1  0.99144200  0.40529600  0.30128500  1
  O  O49  1  0.44876100  0.14227100  0.57134000  1
  O  O50  1  0.27550500  0.33961200  0.31494200  1
  O  O51  1  0.32125700  0.74402700  0.94191900  1
  O  O52  1  0.11225000  0.14198900  0.47694600  1
  O  O53  1  0.24068000  0.94039100  0.70187400  1
  O  O54  1  0.52364100  0.87913200  0.75009200  1
  O  O55  1  0.12599000  0.52107200  0.07697300  1
  O  O56  1  0.82794300  0.44503900  0.10296000  1
  O  O57  1  0.59886900  0.20275000  0.36861000  1
  O  O58  1  0.90888200  0.87492100  0.68883300  1
  O  O59  1  0.64268400  0.60507300  0.94175800  1
  O  O60  1  0.35731600  0.39492700  0.05824200  1
  O  O61  1  0.09111800  0.12507900  0.31116700  1
  O  O62  1  0.40113100  0.79725000  0.63139000  1
  O  O63  1  0.17205700  0.55496100  0.89704000  1
  O  O64  1  0.87401000  0.47892800  0.92302700  1
  O  O65  1  0.47635900  0.12086800  0.24990800  1
  O  O66  1  0.75932000  0.05960900  0.29812600  1
  O  O67  1  0.88775000  0.85801100  0.52305400  1
  O  O68  1  0.67874300  0.25597300  0.05808100  1
  O  O69  1  0.72449500  0.66038800  0.68505800  1
  O  O70  1  0.55123900  0.85772900  0.42866000  1
  O  O71  1  0.00855800  0.59470400  0.69871500  1
  O  O72  1  0.05123900  0.14227100  0.07134000  1
  O  O73  1  0.50855800  0.40529600  0.80128500  1
  O  O74  1  0.17874300  0.74402700  0.44191900  1
  O  O75  1  0.25932000  0.94039100  0.20187400  1
  O  O76  1  0.97635900  0.87913200  0.25009200  1
  O  O77  1  0.22449500  0.33961200  0.81494200  1
  O  O78  1  0.38775000  0.14198900  0.97694600  1
  O  O79  1  0.37401000  0.52107200  0.57697300  1
  O  O80  1  0.59111800  0.87492100  0.18883300  1
  O  O81  1  0.67205700  0.44503900  0.60296000  1
  O  O82  1  0.90113100  0.20275000  0.86861000  1
  O  O83  1  0.85731600  0.60507300  0.44175800  1
