# generated using pymatgen
data_LiNiPO4
_symmetry_space_group_name_H-M   'P 1'
_cell_length_a   5.75278500
_cell_length_b   7.46736300
_cell_length_c   13.95621600
_cell_angle_alpha   90.00000000
_cell_angle_beta   90.00000000
_cell_angle_gamma   90.00000000
_symmetry_Int_Tables_number   1
_chemical_formula_structural   LiNiPO4
_chemical_formula_sum   'Li8 Ni8 P8 O32'
_cell_volume   599.53299505
_cell_formula_units_Z   8
loop_
 _symmetry_equiv_pos_site_id
 _symmetry_equiv_pos_as_xyz
  1  'x, y, z'
loop_
 _atom_site_type_symbol
 _atom_site_label
 _atom_site_symmetry_multiplicity
 _atom_site_fract_x
 _atom_site_fract_y
 _atom_site_fract_z
 _atom_site_occupancy
  Li  Li0  1  0.15287000  0.19309100  0.72075800  1
  Li  Li1  1  0.65287000  0.19309100  0.77924200  1
  Li  Li2  1  0.65287000  0.30690900  0.27924200  1
  Li  Li3  1  0.15287000  0.30690900  0.22075800  1
  Li  Li4  1  0.34713000  0.69309100  0.72075800  1
  Li  Li5  1  0.84713000  0.69309100  0.77924200  1
  Li  Li6  1  0.34713000  0.80690900  0.22075800  1
  Li  Li7  1  0.84713000  0.80690900  0.27924200  1
  Ni  Ni8  1  0.40088600  0.17923800  0.03353400  1
  Ni  Ni9  1  0.90088600  0.17923800  0.46646600  1
  Ni  Ni10  1  0.40088600  0.32076200  0.53353400  1
  Ni  Ni11  1  0.90088600  0.32076200  0.96646600  1
  Ni  Ni12  1  0.09911400  0.67923800  0.03353400  1
  Ni  Ni13  1  0.59911400  0.67923800  0.46646600  1
  Ni  Ni14  1  0.09911400  0.82076200  0.53353400  1
  Ni  Ni15  1  0.59911400  0.82076200  0.96646600  1
  P  P16  1  0.90148400  0.04471500  0.12639700  1
  P  P17  1  0.40148400  0.04471500  0.37360300  1
  P  P18  1  0.90148400  0.45528500  0.62639700  1
  P  P19  1  0.40148400  0.45528500  0.87360300  1
  P  P20  1  0.59851600  0.54471500  0.12639700  1
  P  P21  1  0.09851600  0.54471500  0.37360300  1
  P  P22  1  0.59851600  0.95528500  0.62639700  1
  P  P23  1  0.09851600  0.95528500  0.87360300  1
  O  O24  1  0.81852300  0.97686800  0.56131700  1
  O  O25  1  0.31852300  0.97686800  0.93868300  1
  O  O26  1  0.34373600  0.10907200  0.27348000  1
  O  O27  1  0.84373600  0.10907200  0.22652000  1
  O  O28  1  0.46764200  0.13482300  0.63325500  1
  O  O29  1  0.96764200  0.13482300  0.86674500  1
  O  O30  1  0.06057400  0.19074200  0.07738500  1
  O  O31  1  0.56057400  0.19074200  0.42261500  1
  O  O32  1  0.06057400  0.30925800  0.57738500  1
  O  O33  1  0.56057400  0.30925800  0.92261500  1
  O  O34  1  0.46764200  0.36517700  0.13325500  1
  O  O35  1  0.96764200  0.36517700  0.36674500  1
  O  O36  1  0.84373600  0.39092800  0.72652000  1
  O  O37  1  0.34373600  0.39092800  0.77348000  1
  O  O38  1  0.81852300  0.52313200  0.06131700  1
  O  O39  1  0.31852300  0.52313200  0.43868300  1
  O  O40  1  0.18147700  0.47686800  0.93868300  1
  O  O41  1  0.68147700  0.47686800  0.56131700  1
  O  O42  1  0.65626400  0.60907200  0.22652000  1
  O  O43  1  0.15626400  0.60907200  0.27348000  1
  O  O44  1  0.03235800  0.63482300  0.63325500  1
  O  O45  1  0.53235800  0.63482300  0.86674500  1
  O  O46  1  0.43942600  0.69074200  0.07738500  1
  O  O47  1  0.93942600  0.69074200  0.42261500  1
  O  O48  1  0.43942600  0.80925800  0.57738500  1
  O  O49  1  0.93942600  0.80925800  0.92261500  1
  O  O50  1  0.03235800  0.86517700  0.13325500  1
  O  O51  1  0.53235800  0.86517700  0.36674500  1
  O  O52  1  0.65626400  0.89092800  0.72652000  1
  O  O53  1  0.15626400  0.89092800  0.77348000  1
  O  O54  1  0.68147700  0.02313200  0.06131700  1
  O  O55  1  0.18147700  0.02313200  0.43868300  1
