# generated using pymatgen
data_Li5V2Ni3O10
_symmetry_space_group_name_H-M   'P 1'
_cell_length_a   5.10197956
_cell_length_b   7.77124706
_cell_length_c   10.22098245
_cell_angle_alpha   108.81428939
_cell_angle_beta   79.54391506
_cell_angle_gamma   108.40480082
_symmetry_Int_Tables_number   1
_chemical_formula_structural   Li5V2Ni3O10
_chemical_formula_sum   'Li10 V4 Ni6 O20'
_cell_volume   362.54068725
_cell_formula_units_Z   2
loop_
 _symmetry_equiv_pos_site_id
 _symmetry_equiv_pos_as_xyz
  1  'x, y, z'
loop_
 _atom_site_type_symbol
 _atom_site_label
 _atom_site_symmetry_multiplicity
 _atom_site_fract_x
 _atom_site_fract_y
 _atom_site_fract_z
 _atom_site_occupancy
  Li  Li0  1  0.49920400  0.50167600  0.50194400  1
  Li  Li1  1  0.50084100  0.49837700  0.99804100  1
  Li  Li2  1  0.21337100  0.39963700  0.24934200  1
  Li  Li3  1  0.21143000  0.39665200  0.75027300  1
  Li  Li4  1  0.78861900  0.60336400  0.74971600  1
  Li  Li5  1  0.78669000  0.60038400  0.25059000  1
  Li  Li6  1  0.39587200  0.79353500  0.74494500  1
  Li  Li7  1  0.41169200  0.80427500  0.24782100  1
  Li  Li8  1  0.58845500  0.19587900  0.25221900  1
  Li  Li9  1  0.60431500  0.20661700  0.75504700  1
  V  V10  1  0.10010100  0.69087100  0.49090800  1
  V  V11  1  0.10344100  0.69772100  0.99316500  1
  V  V12  1  0.89656600  0.30216900  0.50677900  1
  V  V13  1  0.89995100  0.30908100  0.00906700  1
  Ni  Ni14  1  0.00013100  0.99995400  0.25007800  1
  Ni  Ni15  1  0.69664900  0.89967500  0.50240100  1
  Ni  Ni16  1  0.30323700  0.10015900  0.99754200  1
  Ni  Ni17  1  0.99985000  0.99986500  0.75002500  1
  Ni  Ni18  1  0.69589800  0.89879400  0.00141700  1
  Ni  Ni19  1  0.30407700  0.10128000  0.49873200  1
  O  O20  1  0.04854000  0.84705500  0.88054500  1
  O  O21  1  0.04991300  0.83938800  0.38205200  1
  O  O22  1  0.95013500  0.16067600  0.11795100  1
  O  O23  1  0.95122900  0.15286200  0.61948200  1
  O  O24  1  0.32690300  0.92801000  0.61482800  1
  O  O25  1  0.33494900  0.93847900  0.11881300  1
  O  O26  1  0.66508400  0.06152400  0.38120900  1
  O  O27  1  0.67293900  0.07195200  0.88520000  1
  O  O28  1  0.13632100  0.54995500  0.60913100  1
  O  O29  1  0.12905500  0.53239200  0.11048500  1
  O  O30  1  0.87094400  0.46764500  0.38949100  1
  O  O31  1  0.86372500  0.45007400  0.89080800  1
  O  O32  1  0.21841100  0.24824900  0.38149400  1
  O  O33  1  0.21758300  0.24697100  0.88287700  1
  O  O34  1  0.78224300  0.75292100  0.61708500  1
  O  O35  1  0.78165800  0.75179700  0.11856400  1
  O  O36  1  0.42128700  0.65819800  0.38430900  1
  O  O37  1  0.42195700  0.65727600  0.88490200  1
  O  O38  1  0.57802800  0.34283300  0.61512200  1
  O  O39  1  0.57870500  0.34177700  0.11560000  1
