# generated using pymatgen
data_Li4Ti9O20
_symmetry_space_group_name_H-M   'P 1'
_cell_length_a   10.54412490
_cell_length_b   10.54412490
_cell_length_c   10.54412490
_cell_angle_alpha   99.05350384
_cell_angle_beta   99.05350384
_cell_angle_gamma   133.25814795
_symmetry_Int_Tables_number   1
_chemical_formula_structural   Li4Ti9O20
_chemical_formula_sum   'Li8 Ti18 O40'
_cell_volume   783.69671758
_cell_formula_units_Z   2
loop_
 _symmetry_equiv_pos_site_id
 _symmetry_equiv_pos_as_xyz
  1  'x, y, z'
loop_
 _atom_site_type_symbol
 _atom_site_label
 _atom_site_symmetry_multiplicity
 _atom_site_fract_x
 _atom_site_fract_y
 _atom_site_fract_z
 _atom_site_occupancy
  Li  Li0  1  0.89185000  0.07462100  0.59064500  1
  Li  Li1  1  0.32462100  0.23397600  0.68277100  1
  Li  Li2  1  0.55120500  0.64185000  0.31722900  1
  Li  Li3  1  0.76602400  0.44879500  0.09064500  1
  Li  Li4  1  0.48397600  0.30120500  0.40935500  1
  Li  Li5  1  0.69879500  0.10815000  0.18277100  1
  Li  Li6  1  0.92537900  0.51602400  0.81722900  1
  Li  Li7  1  0.35815000  0.67537900  0.90935500  1
  Ti  Ti8  1  0.04478000  0.07934100  0.84138100  1
  Ti  Ti9  1  0.79660000  0.95522000  0.03456000  1
  Ti  Ti10  1  0.32934100  0.98796000  0.53456000  1
  Ti  Ti11  1  0.50000000  0.50000000  0.00000000  1
  Ti  Ti12  1  0.23796000  0.20340000  0.15861900  1
  Ti  Ti13  1  0.52674300  0.08554100  0.83193500  1
  Ti  Ti14  1  0.99639400  0.05519100  0.33193500  1
  Ti  Ti15  1  0.30519100  0.47325700  0.55879800  1
  Ti  Ti16  1  0.33554100  0.00360600  0.05879800  1
  Ti  Ti17  1  0.91445900  0.74639400  0.44120200  1
  Ti  Ti18  1  0.94480900  0.27674300  0.94120200  1
  Ti  Ti19  1  0.72325700  0.66445900  0.66806500  1
  Ti  Ti20  1  0.25360600  0.69480900  0.16806500  1
  Ti  Ti21  1  0.01204000  0.54660000  0.34138100  1
  Ti  Ti22  1  0.75000000  0.25000000  0.50000000  1
  Ti  Ti23  1  0.45340000  0.79478000  0.46544000  1
  Ti  Ti24  1  0.92065900  0.76204000  0.96544000  1
  Ti  Ti25  1  0.20522000  0.67065900  0.65861900  1
  O  O26  1  0.82123400  0.82662800  0.35612300  1
  O  O27  1  0.93816500  0.16331800  0.78697400  1
  O  O28  1  0.94344900  0.91897300  0.66432800  1
  O  O29  1  0.16897300  0.00464500  0.47552400  1
  O  O30  1  0.28885900  0.29484800  0.85008200  1
  O  O31  1  0.05612200  0.19364800  0.03445400  1
  O  O32  1  0.41331800  0.12634400  0.72515300  1
  O  O33  1  0.84880900  0.06183500  0.22515300  1
  O  O34  1  0.15919400  0.02166700  0.96554600  1
  O  O35  1  0.70515200  0.55523400  0.99401000  1
  O  O36  1  0.68877600  0.03885900  0.49401000  1
  O  O37  1  0.44364800  0.90919400  0.63752700  1
  O  O38  1  0.97833300  0.94387800  0.13752700  1
  O  O39  1  0.44476600  0.43877600  0.14991800  1
  O  O40  1  0.52912100  0.69344900  0.52447600  1
  O  O41  1  0.25464500  0.27912100  0.33567200  1
  O  O42  1  0.07662800  0.22050500  0.50539500  1
  O  O43  1  0.53489000  0.17876600  0.00539500  1
  O  O44  1  0.77949500  0.28489000  0.85612300  1
  O  O45  1  0.37634400  0.15119100  0.21302600  1
  O  O46  1  0.87365600  0.59880900  0.28697400  1
  O  O47  1  0.47050500  0.46511000  0.64387700  1
  O  O48  1  0.71511000  0.57123400  0.49460500  1
  O  O49  1  0.17337200  0.52949500  0.99460500  1
  O  O50  1  0.99535500  0.47087900  0.16432800  1
  O  O51  1  0.72087900  0.05655100  0.97552400  1
  O  O52  1  0.80523400  0.31122400  0.35008200  1
  O  O53  1  0.80635200  0.84080600  0.86247300  1
  O  O54  1  0.27166700  0.80612200  0.36247300  1
  O  O55  1  0.56122400  0.71114100  0.00599000  1
  O  O56  1  0.54484800  0.19476600  0.50599000  1
  O  O57  1  0.09080600  0.72833300  0.53445400  1
  O  O58  1  0.83668200  0.62365600  0.77484700  1
  O  O59  1  0.40119100  0.68816500  0.27484700  1
  O  O60  1  0.19387800  0.55635200  0.46554600  1
  O  O61  1  0.96114100  0.45515200  0.64991800  1
  O  O62  1  0.08102700  0.74535500  0.02447600  1
  O  O63  1  0.30655100  0.83102700  0.83567200  1
  O  O64  1  0.31183500  0.58668200  0.71302600  1
  O  O65  1  0.42876600  0.92337200  0.14387700  1
