# generated using pymatgen
data_LiFePO4
_symmetry_space_group_name_H-M   'P 1'
_cell_length_a   4.93536700
_cell_length_b   7.70223500
_cell_length_c   18.47944730
_cell_angle_alpha   89.25448525
_cell_angle_beta   90.00000000
_cell_angle_gamma   90.00000000
_symmetry_Int_Tables_number   1
_chemical_formula_structural   LiFePO4
_chemical_formula_sum   'Li8 Fe8 P8 O32'
_cell_volume   702.40635283
_cell_formula_units_Z   8
loop_
 _symmetry_equiv_pos_site_id
 _symmetry_equiv_pos_as_xyz
  1  'x, y, z'
loop_
 _atom_site_type_symbol
 _atom_site_label
 _atom_site_symmetry_multiplicity
 _atom_site_fract_x
 _atom_site_fract_y
 _atom_site_fract_z
 _atom_site_occupancy
  Li  Li0  1  0.77370800  0.01571600  0.58649700  1
  Li  Li1  1  0.72629200  0.01571600  0.08649700  1
  Li  Li2  1  0.35326100  0.51078600  0.81415800  1
  Li  Li3  1  0.14673900  0.51078600  0.31415800  1
  Li  Li4  1  0.85326100  0.48921400  0.68584200  1
  Li  Li5  1  0.64673900  0.48921400  0.18584200  1
  Li  Li6  1  0.27370800  0.98428400  0.91350300  1
  Li  Li7  1  0.22629200  0.98428400  0.41350300  1
  Fe  Fe8  1  0.77987300  0.16603700  0.77339900  1
  Fe  Fe9  1  0.72012700  0.16603700  0.27339900  1
  Fe  Fe10  1  0.22533200  0.34268800  0.51733900  1
  Fe  Fe11  1  0.27466800  0.34268800  0.01733900  1
  Fe  Fe12  1  0.72533200  0.65731200  0.98266100  1
  Fe  Fe13  1  0.77466800  0.65731200  0.48266100  1
  Fe  Fe14  1  0.27987300  0.83396300  0.72660100  1
  Fe  Fe15  1  0.22012700  0.83396300  0.22660100  1
  P  P16  1  0.35148400  0.24522100  0.68227700  1
  P  P17  1  0.14851600  0.24522100  0.18227700  1
  P  P18  1  0.71814500  0.24992000  0.93620200  1
  P  P19  1  0.78185500  0.24992000  0.43620200  1
  P  P20  1  0.21814500  0.75008000  0.56379800  1
  P  P21  1  0.28185500  0.75008000  0.06379800  1
  P  P22  1  0.85148400  0.75477900  0.81772300  1
  P  P23  1  0.64851600  0.75477900  0.31772300  1
  O  O24  1  0.46834600  0.06875600  0.71194500  1
  O  O25  1  0.03165400  0.06875600  0.21194500  1
  O  O26  1  0.60284000  0.17417700  0.00773600  1
  O  O27  1  0.60322500  0.14579000  0.87173800  1
  O  O28  1  0.43396200  0.25295100  0.60247700  1
  O  O29  1  0.04011900  0.25812100  0.69428200  1
  O  O30  1  0.89716000  0.17417700  0.50773600  1
  O  O31  1  0.89677500  0.14579000  0.37173800  1
  O  O32  1  0.06603800  0.25295100  0.10247700  1
  O  O33  1  0.45988100  0.25812100  0.19428200  1
  O  O34  1  0.03257100  0.24684700  0.93531500  1
  O  O35  1  0.46742900  0.24684700  0.43531500  1
  O  O36  1  0.50163600  0.38683400  0.72724600  1
  O  O37  1  0.99836400  0.38683400  0.22724600  1
  O  O38  1  0.59795200  0.43933700  0.92940200  1
  O  O39  1  0.90204800  0.43933700  0.42940200  1
  O  O40  1  0.09795200  0.56066300  0.57059800  1
  O  O41  1  0.40204800  0.56066300  0.07059800  1
  O  O42  1  0.00163600  0.61316600  0.77275400  1
  O  O43  1  0.49836400  0.61316600  0.27275400  1
  O  O44  1  0.53257100  0.75315300  0.56468500  1
  O  O45  1  0.96742900  0.75315300  0.06468500  1
  O  O46  1  0.54011900  0.74187900  0.80571800  1
  O  O47  1  0.93396200  0.74704900  0.89752300  1
  O  O48  1  0.10322500  0.85421000  0.62826200  1
  O  O49  1  0.10284000  0.82582300  0.49226400  1
  O  O50  1  0.95988100  0.74187900  0.30571800  1
  O  O51  1  0.56603800  0.74704900  0.39752300  1
  O  O52  1  0.39677500  0.85421000  0.12826200  1
  O  O53  1  0.39716000  0.82582300  0.99226400  1
  O  O54  1  0.96834600  0.93124400  0.78805500  1
  O  O55  1  0.53165400  0.93124400  0.28805500  1
