# generated using pymatgen
data_Li7CoOF7
_symmetry_space_group_name_H-M   'P 1'
_cell_length_a   5.87549866
_cell_length_b   10.17328197
_cell_length_c   10.17325801
_cell_angle_alpha   70.62985060
_cell_angle_beta   90.05961687
_cell_angle_gamma   90.06656551
_symmetry_Int_Tables_number   1
_chemical_formula_structural   Li7CoOF7
_chemical_formula_sum   'Li28 Co4 O4 F28'
_cell_volume   573.66626789
_cell_formula_units_Z   4
loop_
 _symmetry_equiv_pos_site_id
 _symmetry_equiv_pos_as_xyz
  1  'x, y, z'
loop_
 _atom_site_type_symbol
 _atom_site_label
 _atom_site_symmetry_multiplicity
 _atom_site_fract_x
 _atom_site_fract_y
 _atom_site_fract_z
 _atom_site_occupancy
  Li  Li0  1  0.76843000  0.75002700  0.50002800  1
  Li  Li1  1  0.76942600  0.00096300  0.25011900  1
  Li  Li2  1  0.76842300  0.50023900  0.75005100  1
  Li  Li3  1  0.76868700  0.25015500  0.00089400  1
  Li  Li4  1  0.75329700  0.99989700  0.74983700  1
  Li  Li5  1  0.75326900  0.25008500  0.49976000  1
  Li  Li6  1  0.75327800  0.74986600  0.99999800  1
  Li  Li7  1  0.75331100  0.49984200  0.25008700  1
  Li  Li8  1  0.24828400  0.99987000  0.74976300  1
  Li  Li9  1  0.24827400  0.24996500  0.49952300  1
  Li  Li10  1  0.24832800  0.74982700  0.00004700  1
  Li  Li11  1  0.24819400  0.49981800  0.25010000  1
  Li  Li12  1  0.50799500  0.24464000  0.74561000  1
  Li  Li13  1  0.50874300  0.49515600  0.49519000  1
  Li  Li14  1  0.50759200  0.99509500  0.99482400  1
  Li  Li15  1  0.50826500  0.74558300  0.24484600  1
  Li  Li16  1  0.50761000  0.00542300  0.50410200  1
  Li  Li17  1  0.50586300  0.25527500  0.25491500  1
  Li  Li18  1  0.50867400  0.75475600  0.75479000  1
  Li  Li19  1  0.50717500  0.50416000  0.00570500  1
  Li  Li20  1  0.98768300  0.75151600  0.25086900  1
  Li  Li21  1  0.98801600  0.00239200  0.00188800  1
  Li  Li22  1  0.98691100  0.50136600  0.50105200  1
  Li  Li23  1  0.98792800  0.25041800  0.75190100  1
  Li  Li24  1  0.98770700  0.00007400  0.49715400  1
  Li  Li25  1  0.98998100  0.24788100  0.24762900  1
  Li  Li26  1  0.98693300  0.74842400  0.74895000  1
  Li  Li27  1  0.98815800  0.49724700  0.99994300  1
  Co  Co28  1  0.22073400  0.75028500  0.50043300  1
  Co  Co29  1  0.22084800  0.49932200  0.74947500  1
  Co  Co30  1  0.22273600  0.99816900  0.24960100  1
  Co  Co31  1  0.22258200  0.24976800  0.99816700  1
  O  O32  1  0.00345000  0.87555200  0.37487500  1
  O  O33  1  0.00195000  0.12602100  0.12574300  1
  O  O34  1  0.00071800  0.62501600  0.62505500  1
  O  O35  1  0.00357100  0.37471100  0.87555900  1
  F  F36  1  0.50244500  0.87645500  0.37271400  1
  F  F37  1  0.49699200  0.12569400  0.12488400  1
  F  F38  1  0.49908800  0.62484300  0.62525100  1
  F  F39  1  0.50203100  0.37205800  0.87731700  1
  F  F40  1  0.00055100  0.12497600  0.62497900  1
  F  F41  1  0.00021900  0.37567500  0.37584400  1
  F  F42  1  0.00067900  0.87457800  0.87465000  1
  F  F43  1  0.00044900  0.62538300  0.12504200  1
  F  F44  1  0.50226600  0.12493100  0.62497900  1
  F  F45  1  0.50252900  0.37527800  0.37539700  1
  F  F46  1  0.50215900  0.87487200  0.87494800  1
  F  F47  1  0.50238200  0.62527800  0.12494700  1
  F  F48  1  0.25778200  0.12005100  0.86961900  1
  F  F49  1  0.26192800  0.37138200  0.62160400  1
  F  F50  1  0.25888900  0.87003000  0.12057800  1
  F  F51  1  0.26093700  0.62128300  0.37123800  1
  F  F52  1  0.26172200  0.87857600  0.62838900  1
  F  F53  1  0.25712400  0.13054700  0.37946100  1
  F  F54  1  0.26071200  0.62860200  0.87871500  1
  F  F55  1  0.25677500  0.38024100  0.13053100  1
  F  F56  1  0.74603600  0.12154600  0.87188900  1
  F  F57  1  0.74685400  0.37155100  0.62222100  1
  F  F58  1  0.74630500  0.87218000  0.12147900  1
  F  F59  1  0.74675100  0.62206000  0.37169600  1
  F  F60  1  0.74663700  0.87832500  0.62814900  1
  F  F61  1  0.74513900  0.12836700  0.37825200  1
  F  F62  1  0.74633500  0.62795800  0.87834200  1
  F  F63  1  0.74524300  0.37847700  0.12840400  1
