# generated using pymatgen
data_Li5V18O44
_symmetry_space_group_name_H-M   'P 1'
_cell_length_a   3.67351800
_cell_length_b   10.37041900
_cell_length_c   21.42347937
_cell_angle_alpha   79.77296707
_cell_angle_beta   90.00000000
_cell_angle_gamma   90.00000000
_symmetry_Int_Tables_number   1
_chemical_formula_structural   Li5V18O44
_chemical_formula_sum   'Li5 V18 O44'
_cell_volume   803.18018536
_cell_formula_units_Z   1
loop_
 _symmetry_equiv_pos_site_id
 _symmetry_equiv_pos_as_xyz
  1  'x, y, z'
loop_
 _atom_site_type_symbol
 _atom_site_label
 _atom_site_symmetry_multiplicity
 _atom_site_fract_x
 _atom_site_fract_y
 _atom_site_fract_z
 _atom_site_occupancy
  Li  Li0  1  0.50000000  0.53410100  0.83841400  1
  Li  Li1  1  0.50000000  0.89390300  0.81744300  1
  Li  Li2  1  0.00000000  0.01656100  0.51641800  1
  Li  Li3  1  0.00000000  0.10775500  0.18150800  1
  Li  Li4  1  0.00000000  0.46561800  0.16108200  1
  V  V5  1  0.00000000  0.61872200  0.97391100  1
  V  V6  1  0.50000000  0.22058200  0.91370600  1
  V  V7  1  0.00000000  0.96994900  0.93845200  1
  V  V8  1  0.00000000  0.45358900  0.71750000  1
  V  V9  1  0.50000000  0.20593200  0.74637200  1
  V  V10  1  0.00000000  0.80427800  0.68541600  1
  V  V11  1  0.50000000  0.04432600  0.63596000  1
  V  V12  1  0.00000000  0.65245600  0.57054000  1
  V  V13  1  0.50000000  0.39915800  0.59562200  1
  V  V14  1  0.00000000  0.60507800  0.40430900  1
  V  V15  1  0.50000000  0.35212400  0.42946700  1
  V  V16  1  0.00000000  0.95708700  0.36341500  1
  V  V17  1  0.50000000  0.19565000  0.31415900  1
  V  V18  1  0.00000000  0.79506000  0.25378900  1
  V  V19  1  0.50000000  0.54596300  0.28282200  1
  V  V20  1  0.50000000  0.02974300  0.06170200  1
  V  V21  1  0.00000000  0.77967400  0.08696100  1
  V  V22  1  0.50000000  0.38179600  0.02612200  1
  O  O23  1  0.50000000  0.57677800  0.99286000  1
  O  O24  1  0.00000000  0.16996100  0.91887500  1
  O  O25  1  0.00000000  0.78571300  0.98792600  1
  O  O26  1  0.50000000  0.38319400  0.90813700  1
  O  O27  1  0.50000000  0.00815400  0.95574100  1
  O  O28  1  0.00000000  0.63482000  0.89639500  1
  O  O29  1  0.50000000  0.21082200  0.82774000  1
  O  O30  1  0.00000000  0.92554800  0.86689900  1
  O  O31  1  0.00000000  0.49775700  0.78914400  1
  O  O32  1  0.00000000  0.78450800  0.76308800  1
  O  O33  1  0.50000000  0.41309100  0.69895100  1
  O  O34  1  0.50000000  0.04336800  0.74634300  1
  O  O35  1  0.00000000  0.63945800  0.66839800  1
  O  O36  1  0.00000000  0.25523700  0.73566900  1
  O  O37  1  0.00000000  0.43133800  0.61203800  1
  O  O38  1  0.50000000  0.84631200  0.66763800  1
  O  O39  1  0.00000000  0.00084000  0.65305100  1
  O  O40  1  0.50000000  0.59566900  0.57464200  1
  O  O41  1  0.50000000  0.21308200  0.64333600  1
  O  O42  1  0.00000000  0.81375700  0.56498400  1
  O  O43  1  0.50000000  0.05267500  0.55797700  1
  O  O44  1  0.00000000  0.63979300  0.47905200  1
  O  O45  1  0.50000000  0.36259600  0.52066200  1
  O  O46  1  0.00000000  0.94534400  0.43994800  1
  O  O47  1  0.50000000  0.19150300  0.43570800  1
  O  O48  1  0.00000000  0.78737800  0.35432100  1
  O  O49  1  0.00000000  0.40551600  0.42545600  1
  O  O50  1  0.50000000  0.00099200  0.34426100  1
  O  O51  1  0.00000000  0.15546400  0.33256400  1
  O  O52  1  0.50000000  0.57020000  0.38725700  1
  O  O53  1  0.50000000  0.74411000  0.26340900  1
  O  O54  1  0.50000000  0.36158700  0.33192600  1
  O  O55  1  0.00000000  0.95767400  0.25163400  1
  O  O56  1  0.00000000  0.58165600  0.30017900  1
  O  O57  1  0.50000000  0.21690300  0.23646400  1
  O  O58  1  0.50000000  0.50225000  0.21118800  1
  O  O59  1  0.50000000  0.07465400  0.13320200  1
  O  O60  1  0.00000000  0.78765400  0.17195200  1
  O  O61  1  0.50000000  0.36537100  0.10363400  1
  O  O62  1  0.00000000  0.98984300  0.04413500  1
  O  O63  1  0.00000000  0.61709500  0.09157600  1
  O  O64  1  0.50000000  0.21451000  0.01181400  1
  O  O65  1  0.50000000  0.82963900  0.08097600  1
  O  O66  1  0.00000000  0.42310600  0.00712900  1
