# generated using pymatgen
data_Li4Co3Ni3(SbO8)2
_symmetry_space_group_name_H-M   'P 1'
_cell_length_a   5.81468971
_cell_length_b   5.76955333
_cell_length_c   9.50160992
_cell_angle_alpha   89.99718284
_cell_angle_beta   91.57143774
_cell_angle_gamma   119.69392943
_symmetry_Int_Tables_number   1
_chemical_formula_structural   Li4Co3Ni3(SbO8)2
_chemical_formula_sum   'Li4 Co3 Ni3 Sb2 O16'
_cell_volume   276.76529281
_cell_formula_units_Z   1
loop_
 _symmetry_equiv_pos_site_id
 _symmetry_equiv_pos_as_xyz
  1  'x, y, z'
loop_
 _atom_site_type_symbol
 _atom_site_label
 _atom_site_symmetry_multiplicity
 _atom_site_fract_x
 _atom_site_fract_y
 _atom_site_fract_z
 _atom_site_occupancy
  Li  Li0  1  0.32521500  0.66312200  0.90082200  1
  Li  Li1  1  0.00479700  0.00228400  0.99179000  1
  Li  Li2  1  0.00845500  0.00420800  0.49195700  1
  Li  Li3  1  0.66605300  0.33269700  0.40048900  1
  Co  Co4  1  0.17036100  0.83034100  0.21483700  1
  Co  Co5  1  0.17034200  0.34008400  0.21482900  1
  Co  Co6  1  0.34184300  0.17084300  0.71517600  1
  Ni  Ni7  1  0.66310600  0.83150800  0.21321000  1
  Ni  Ni8  1  0.83141700  0.66271500  0.71410200  1
  Ni  Ni9  1  0.83166800  0.16897300  0.71414400  1
  Sb  Sb10  1  0.33783900  0.66856500  0.48633600  1
  Sb  Sb11  1  0.65847900  0.32949500  0.98953300  1
  O  O12  1  0.17479100  0.84264600  0.59475500  1
  O  O13  1  0.03256000  0.51644000  0.33363100  1
  O  O14  1  0.33154700  0.66560800  0.11693600  1
  O  O15  1  0.00213300  0.00124000  0.30306000  1
  O  O16  1  0.01211400  0.00583200  0.80207900  1
  O  O17  1  0.17395000  0.33158200  0.59480600  1
  O  O18  1  0.47801900  0.96889900  0.34173700  1
  O  O19  1  0.47746000  0.50794200  0.34203700  1
  O  O20  1  0.32369600  0.16182200  0.10304600  1
  O  O21  1  0.68721200  0.84326300  0.59407900  1
  O  O22  1  0.49755500  0.47223700  0.84390700  1
  O  O23  1  0.49865800  0.02600000  0.84396000  1
  O  O24  1  0.65688800  0.32859000  0.61819100  1
  O  O25  1  0.84194100  0.67744000  0.09362400  1
  O  O26  1  0.95933300  0.48039900  0.84139100  1
  O  O27  1  0.84256700  0.16552600  0.09337200  1
