# generated using pymatgen
data_Li6Hf2O7
_symmetry_space_group_name_H-M   'P 1'
_cell_length_a   6.04786700
_cell_length_b   5.35198600
_cell_length_c   10.35216748
_cell_angle_alpha   69.70296220
_cell_angle_beta   90.00000000
_cell_angle_gamma   90.00000000
_symmetry_Int_Tables_number   1
_chemical_formula_structural   Li6Hf2O7
_chemical_formula_sum   'Li12 Hf4 O14'
_cell_volume   314.27382201
_cell_formula_units_Z   2
loop_
 _symmetry_equiv_pos_site_id
 _symmetry_equiv_pos_as_xyz
  1  'x, y, z'
loop_
 _atom_site_type_symbol
 _atom_site_label
 _atom_site_symmetry_multiplicity
 _atom_site_fract_x
 _atom_site_fract_y
 _atom_site_fract_z
 _atom_site_occupancy
  Li  Li0  1  0.78506100  0.21083000  0.14313300  1
  Li  Li1  1  0.23640500  0.21596300  0.13740700  1
  Li  Li2  1  0.49730400  0.83977100  0.12421000  1
  Li  Li3  1  0.99730400  0.16022900  0.37579000  1
  Li  Li4  1  0.73640500  0.78403700  0.36259300  1
  Li  Li5  1  0.28506100  0.78917000  0.35686700  1
  Li  Li6  1  0.71493900  0.21083000  0.64313300  1
  Li  Li7  1  0.26359500  0.21596300  0.63740700  1
  Li  Li8  1  0.00269600  0.83977100  0.62421000  1
  Li  Li9  1  0.50269600  0.16022900  0.87579000  1
  Li  Li10  1  0.76359500  0.78403700  0.86259300  1
  Li  Li11  1  0.21493900  0.78917000  0.85686700  1
  Hf  Hf12  1  0.00873300  0.72992100  0.13383400  1
  Hf  Hf13  1  0.50873300  0.27007900  0.36616600  1
  Hf  Hf14  1  0.49126700  0.72992100  0.63383400  1
  Hf  Hf15  1  0.99126700  0.27007900  0.86616600  1
  O  O16  1  0.00000000  0.50000000  0.00000000  1
  O  O17  1  0.76796600  0.98874100  0.00414700  1
  O  O18  1  0.51056200  0.04531100  0.24459800  1
  O  O19  1  0.28197400  0.52118900  0.23636300  1
  O  O20  1  0.78197400  0.47881100  0.26363700  1
  O  O21  1  0.01056200  0.95468900  0.25540200  1
  O  O22  1  0.26796600  0.01125900  0.49585300  1
  O  O23  1  0.50000000  0.50000000  0.50000000  1
  O  O24  1  0.73203400  0.98874100  0.50414700  1
  O  O25  1  0.98943800  0.04531100  0.74459800  1
  O  O26  1  0.21802600  0.52118900  0.73636300  1
  O  O27  1  0.71802600  0.47881100  0.76363700  1
  O  O28  1  0.48943800  0.95468900  0.75540200  1
  O  O29  1  0.23203400  0.01125900  0.99585300  1
