# generated using pymatgen
data_LiVCrP2(O4F)2
_symmetry_space_group_name_H-M   'P 1'
_cell_length_a   5.16698400
_cell_length_b   7.35418607
_cell_length_c   10.43299605
_cell_angle_alpha   104.08293863
_cell_angle_beta   97.07436222
_cell_angle_gamma   108.88871065
_symmetry_Int_Tables_number   1
_chemical_formula_structural   LiVCrP2(O4F)2
_chemical_formula_sum   'Li2 V2 Cr2 P4 O16 F4'
_cell_volume   354.90399063
_cell_formula_units_Z   2
loop_
 _symmetry_equiv_pos_site_id
 _symmetry_equiv_pos_as_xyz
  1  'x, y, z'
loop_
 _atom_site_type_symbol
 _atom_site_label
 _atom_site_symmetry_multiplicity
 _atom_site_fract_x
 _atom_site_fract_y
 _atom_site_fract_z
 _atom_site_occupancy
  Li  Li0  1  0.04884300  0.12837800  0.30518300  1
  Li  Li1  1  0.95115700  0.87162200  0.69481700  1
  V  V2  1  0.50000000  0.50000000  0.50000000  1
  V  V3  1  0.00000000  0.00000000  0.00000000  1
  Cr  Cr4  1  0.50000000  0.00000000  0.50000000  1
  Cr  Cr5  1  0.00000000  0.50000000  0.00000000  1
  P  P6  1  0.50609700  0.06713500  0.82270000  1
  P  P7  1  0.99572700  0.56029700  0.31905800  1
  P  P8  1  0.00427300  0.43970300  0.68094200  1
  P  P9  1  0.49390300  0.93286500  0.17730000  1
  O  O10  1  0.71816600  0.95782200  0.83580100  1
  O  O11  1  0.19055700  0.44134600  0.34217700  1
  O  O12  1  0.63603800  0.29135700  0.89249800  1
  O  O13  1  0.35681700  0.00642500  0.67146000  1
  O  O14  1  0.14106200  0.78753300  0.39235500  1
  O  O15  1  0.86629800  0.51018200  0.17058400  1
  O  O16  1  0.25060100  0.97160700  0.88551100  1
  O  O17  1  0.74098100  0.47832300  0.38677800  1
  O  O18  1  0.25901900  0.52167700  0.61322200  1
  O  O19  1  0.74939900  0.02839300  0.11448900  1
  O  O20  1  0.13370200  0.48981800  0.82941600  1
  O  O21  1  0.85893800  0.21246700  0.60764500  1
  O  O22  1  0.64318300  0.99357500  0.32854000  1
  O  O23  1  0.36396200  0.70864300  0.10750200  1
  O  O24  1  0.80944300  0.55865400  0.65782300  1
  O  O25  1  0.28183400  0.04217800  0.16419900  1
  F  F26  1  0.85938300  0.71369500  0.97295000  1
  F  F27  1  0.34433200  0.20262600  0.46676800  1
  F  F28  1  0.65566800  0.79737400  0.53323200  1
  F  F29  1  0.14061700  0.28630500  0.02705000  1
