# generated using pymatgen
data_Li7Fe2P7O24
_symmetry_space_group_name_H-M   'P 1'
_cell_length_a   5.08712100
_cell_length_b   12.11112600
_cell_length_c   15.06291843
_cell_angle_alpha   83.73476590
_cell_angle_beta   90.00000000
_cell_angle_gamma   90.00000000
_symmetry_Int_Tables_number   1
_chemical_formula_structural   Li7Fe2P7O24
_chemical_formula_sum   'Li14 Fe4 P14 O48'
_cell_volume   922.49506481
_cell_formula_units_Z   2
loop_
 _symmetry_equiv_pos_site_id
 _symmetry_equiv_pos_as_xyz
  1  'x, y, z'
loop_
 _atom_site_type_symbol
 _atom_site_label
 _atom_site_symmetry_multiplicity
 _atom_site_fract_x
 _atom_site_fract_y
 _atom_site_fract_z
 _atom_site_occupancy
  Li  Li0  1  0.25542900  0.48341900  0.05295300  1
  Li  Li1  1  0.20213400  0.11484400  0.13698400  1
  Li  Li2  1  0.74457100  0.98341900  0.05295300  1
  Li  Li3  1  0.79786600  0.61484400  0.13698400  1
  Li  Li4  1  0.83108100  0.43075400  0.40692500  1
  Li  Li5  1  0.16891900  0.93075400  0.40692500  1
  Li  Li6  1  0.30013700  0.25000000  0.50000000  1
  Li  Li7  1  0.69986300  0.75000000  0.50000000  1
  Li  Li8  1  0.83108100  0.06924600  0.59307500  1
  Li  Li9  1  0.16891900  0.56924600  0.59307500  1
  Li  Li10  1  0.20213400  0.38515600  0.86301600  1
  Li  Li11  1  0.25542900  0.01658100  0.94704700  1
  Li  Li12  1  0.79786600  0.88515600  0.86301600  1
  Li  Li13  1  0.74457100  0.51658100  0.94704700  1
  Fe  Fe14  1  0.36872600  0.29604800  0.28219400  1
  Fe  Fe15  1  0.63127400  0.79604800  0.28219400  1
  Fe  Fe16  1  0.36872600  0.20395200  0.71780600  1
  Fe  Fe17  1  0.63127400  0.70395200  0.71780600  1
  P  P18  1  0.54846400  0.25000000  0.00000000  1
  P  P19  1  0.45153600  0.75000000  0.00000000  1
  P  P20  1  0.86862900  0.34089000  0.13997300  1
  P  P21  1  0.13137100  0.84089000  0.13997300  1
  P  P22  1  0.61764200  0.04683500  0.27375200  1
  P  P23  1  0.38235800  0.54683500  0.27375200  1
  P  P24  1  0.86629800  0.19106100  0.39391600  1
  P  P25  1  0.13370200  0.69106100  0.39391600  1
  P  P26  1  0.86629800  0.30893900  0.60608400  1
  P  P27  1  0.13370200  0.80893900  0.60608400  1
  P  P28  1  0.61764200  0.45316500  0.72624800  1
  P  P29  1  0.38235800  0.95316500  0.72624800  1
  P  P30  1  0.86862900  0.15911000  0.86002700  1
  P  P31  1  0.13137100  0.65911000  0.86002700  1
  O  O32  1  0.40031200  0.14151500  0.01543100  1
  O  O33  1  0.59968800  0.64151500  0.01543100  1
  O  O34  1  0.75003200  0.24622700  0.08203900  1
  O  O35  1  0.87406400  0.45078500  0.08031300  1
  O  O36  1  0.24996800  0.74622700  0.08203900  1
  O  O37  1  0.12593600  0.95078500  0.08031300  1
  O  O38  1  0.13655800  0.28993600  0.16799000  1
  O  O39  1  0.72436000  0.00925200  0.18899700  1
  O  O40  1  0.68530600  0.34295200  0.21937000  1
  O  O41  1  0.86344200  0.78993600  0.16799000  1
  O  O42  1  0.27564000  0.50925200  0.18899700  1
  O  O43  1  0.39820100  0.13474200  0.25659500  1
  O  O44  1  0.31469400  0.84295200  0.21937000  1
  O  O45  1  0.60179900  0.63474200  0.25659500  1
  O  O46  1  0.86655300  0.10621700  0.31823200  1
  O  O47  1  0.13344700  0.60621700  0.31823200  1
  O  O48  1  0.05196000  0.28829700  0.35890700  1
  O  O49  1  0.46650500  0.45065000  0.34396800  1
  O  O50  1  0.58320700  0.23480000  0.40124900  1
  O  O51  1  0.94804000  0.78829700  0.35890700  1
  O  O52  1  0.53349500  0.95065000  0.34396800  1
  O  O53  1  0.41679300  0.73480000  0.40124900  1
  O  O54  1  0.97899200  0.12824200  0.47763800  1
  O  O55  1  0.02100800  0.62824200  0.47763800  1
  O  O56  1  0.97899200  0.37175800  0.52236200  1
  O  O57  1  0.02100800  0.87175800  0.52236200  1
  O  O58  1  0.58320700  0.26520000  0.59875100  1
  O  O59  1  0.46650500  0.04935000  0.65603200  1
  O  O60  1  0.05196000  0.21170300  0.64109300  1
  O  O61  1  0.41679300  0.76520000  0.59875100  1
  O  O62  1  0.53349500  0.54935000  0.65603200  1
  O  O63  1  0.94804000  0.71170300  0.64109300  1
  O  O64  1  0.86655300  0.39378300  0.68176800  1
  O  O65  1  0.13344700  0.89378300  0.68176800  1
  O  O66  1  0.39820100  0.36525800  0.74340500  1
  O  O67  1  0.68530600  0.15704800  0.78063000  1
  O  O68  1  0.60179900  0.86525800  0.74340500  1
  O  O69  1  0.72436000  0.49074800  0.81100300  1
  O  O70  1  0.13655800  0.21006400  0.83201000  1
  O  O71  1  0.31469400  0.65704800  0.78063000  1
  O  O72  1  0.27564000  0.99074800  0.81100300  1
  O  O73  1  0.86344200  0.71006400  0.83201000  1
  O  O74  1  0.87406400  0.04921500  0.91968700  1
  O  O75  1  0.75003200  0.25377300  0.91796100  1
  O  O76  1  0.12593600  0.54921500  0.91968700  1
  O  O77  1  0.24996800  0.75377300  0.91796100  1
  O  O78  1  0.40031200  0.35848500  0.98456900  1
  O  O79  1  0.59968800  0.85848500  0.98456900  1
