# generated using pymatgen
data_LiSiBiO4
_symmetry_space_group_name_H-M   'P 1'
_cell_length_a   8.96321253
_cell_length_b   8.96321253
_cell_length_c   8.96321167
_cell_angle_alpha   107.34999399
_cell_angle_beta   107.34999399
_cell_angle_gamma   107.34999004
_symmetry_Int_Tables_number   1
_chemical_formula_structural   LiSiBiO4
_chemical_formula_sum   'Li6 Si6 Bi6 O24'
_cell_volume   593.88508997
_cell_formula_units_Z   6
loop_
 _symmetry_equiv_pos_site_id
 _symmetry_equiv_pos_as_xyz
  1  'x, y, z'
loop_
 _atom_site_type_symbol
 _atom_site_label
 _atom_site_symmetry_multiplicity
 _atom_site_fract_x
 _atom_site_fract_y
 _atom_site_fract_z
 _atom_site_occupancy
  Li  Li0  1  0.95454100  0.52721300  0.79005100  1
  Li  Li1  1  0.45061500  0.23242100  0.05887800  1
  Li  Li2  1  0.23242100  0.05887800  0.45061500  1
  Li  Li3  1  0.79005100  0.95454100  0.52721300  1
  Li  Li4  1  0.52721300  0.79005100  0.95454100  1
  Li  Li5  1  0.05887800  0.45061500  0.23242100  1
  Si  Si6  1  0.88077300  0.09027700  0.28174800  1
  Si  Si7  1  0.81341700  0.55132600  0.38649100  1
  Si  Si8  1  0.55132600  0.38649100  0.81341700  1
  Si  Si9  1  0.09027700  0.28174800  0.88077300  1
  Si  Si10  1  0.38649100  0.81341700  0.55132600  1
  Si  Si11  1  0.28174800  0.88077300  0.09027700  1
  Bi  Bi12  1  0.71710000  0.11017400  0.87873500  1
  Bi  Bi13  1  0.60452900  0.21650900  0.46038200  1
  Bi  Bi14  1  0.87873500  0.71710000  0.11017400  1
  Bi  Bi15  1  0.46038200  0.60452900  0.21650900  1
  Bi  Bi16  1  0.21650900  0.46038200  0.60452900  1
  Bi  Bi17  1  0.11017400  0.87873500  0.71710000  1
  O  O18  1  0.75654000  0.98715300  0.07240000  1
  O  O19  1  0.98077300  0.33082200  0.98992000  1
  O  O20  1  0.75816300  0.08541400  0.38735200  1
  O  O21  1  0.53998600  0.23880800  0.89040700  1
  O  O22  1  0.33763200  0.01680500  0.28770900  1
  O  O23  1  0.72525300  0.42796700  0.77791000  1
  O  O24  1  0.89040700  0.53998600  0.23880800  1
  O  O25  1  0.62684100  0.37850300  0.30702900  1
  O  O26  1  0.95405600  0.56876300  0.56861200  1
  O  O27  1  0.56876300  0.56861200  0.95405600  1
  O  O28  1  0.37850300  0.30702900  0.62684100  1
  O  O29  1  0.98992000  0.98077300  0.33082200  1
  O  O30  1  0.98715300  0.07240000  0.75654000  1
  O  O31  1  0.77791000  0.72525300  0.42796700  1
  O  O32  1  0.28770900  0.33763200  0.01680500  1
  O  O33  1  0.01680500  0.28770900  0.33763200  1
  O  O34  1  0.42796700  0.77791000  0.72525300  1
  O  O35  1  0.08541400  0.38735200  0.75816300  1
  O  O36  1  0.30702900  0.62684100  0.37850300  1
  O  O37  1  0.56861200  0.95405600  0.56876300  1
  O  O38  1  0.38735200  0.75816300  0.08541400  1
  O  O39  1  0.23880800  0.89040700  0.53998600  1
  O  O40  1  0.07240000  0.75654000  0.98715300  1
  O  O41  1  0.33082200  0.98992000  0.98077300  1
