# generated using pymatgen
data_LiMn2F7
_symmetry_space_group_name_H-M   'P 1'
_cell_length_a   5.09576000
_cell_length_b   7.50873500
_cell_length_c   13.25818487
_cell_angle_alpha   81.87453145
_cell_angle_beta   90.00000000
_cell_angle_gamma   90.00000000
_symmetry_Int_Tables_number   1
_chemical_formula_structural   LiMn2F7
_chemical_formula_sum   'Li4 Mn8 F28'
_cell_volume   502.20134029
_cell_formula_units_Z   4
loop_
 _symmetry_equiv_pos_site_id
 _symmetry_equiv_pos_as_xyz
  1  'x, y, z'
loop_
 _atom_site_type_symbol
 _atom_site_label
 _atom_site_symmetry_multiplicity
 _atom_site_fract_x
 _atom_site_fract_y
 _atom_site_fract_z
 _atom_site_occupancy
  Li  Li0  1  0.28034400  0.85781000  0.55975900  1
  Li  Li1  1  0.77294100  0.59956000  0.42820100  1
  Li  Li2  1  0.27294100  0.40044000  0.57179900  1
  Li  Li3  1  0.78034400  0.14219000  0.44024100  1
  Mn  Mn4  1  0.77035100  0.97539800  0.10658100  1
  Mn  Mn5  1  0.26143100  0.91869400  0.31748400  1
  Mn  Mn6  1  0.76132900  0.58231100  0.68338800  1
  Mn  Mn7  1  0.26111300  0.52508000  0.89470000  1
  Mn  Mn8  1  0.76111300  0.47492000  0.10530000  1
  Mn  Mn9  1  0.26132900  0.41768900  0.31661200  1
  Mn  Mn10  1  0.76143100  0.08130600  0.68251600  1
  Mn  Mn11  1  0.27035100  0.02460200  0.89341900  1
  F  F12  1  0.95195800  0.98912300  0.79843800  1
  F  F13  1  0.53702300  0.94900100  0.41019800  1
  F  F14  1  0.61227400  0.82394700  0.66538900  1
  F  F15  1  0.37224500  0.78216000  0.88197200  1
  F  F16  1  0.05693400  0.82801400  0.42807400  1
  F  F17  1  0.09054400  0.94196800  0.01323500  1
  F  F18  1  0.95954200  0.88642100  0.22784300  1
  F  F19  1  0.96095400  0.59381000  0.82000100  1
  F  F20  1  0.06962500  0.65277100  0.61671700  1
  F  F21  1  0.66038100  0.73375900  0.09698100  1
  F  F22  1  0.40098200  0.65929000  0.31020300  1
  F  F23  1  0.57024500  0.56203100  0.55053400  1
  F  F24  1  0.46142100  0.49888800  0.75999900  1
  F  F25  1  0.56075800  0.45754700  0.97230500  1
  F  F26  1  0.06075800  0.54245300  0.02769500  1
  F  F27  1  0.96142100  0.50111200  0.24000100  1
  F  F28  1  0.07024500  0.43796900  0.44946600  1
  F  F29  1  0.90098200  0.34071000  0.68979700  1
  F  F30  1  0.16038100  0.26624100  0.90301900  1
  F  F31  1  0.56962500  0.34722900  0.38328300  1
  F  F32  1  0.46095400  0.40619000  0.17999900  1
  F  F33  1  0.45954200  0.11357900  0.77215700  1
  F  F34  1  0.59054400  0.05803200  0.98676500  1
  F  F35  1  0.55693400  0.17198600  0.57192600  1
  F  F36  1  0.87224500  0.21784000  0.11802800  1
  F  F37  1  0.11227400  0.17605300  0.33461100  1
  F  F38  1  0.03702300  0.05099900  0.58980200  1
  F  F39  1  0.45195800  0.01087700  0.20156200  1
