# generated using pymatgen
data_Li8Mn7Fe(BO3)8
_symmetry_space_group_name_H-M   'P 1'
_cell_length_a   6.06556600
_cell_length_b   8.30142503
_cell_length_c   10.50096864
_cell_angle_alpha   90.86111448
_cell_angle_beta   90.66410991
_cell_angle_gamma   103.47123206
_symmetry_Int_Tables_number   1
_chemical_formula_structural   Li8Mn7Fe(BO3)8
_chemical_formula_sum   'Li8 Mn7 Fe1 B8 O24'
_cell_volume   514.08601380
_cell_formula_units_Z   1
loop_
 _symmetry_equiv_pos_site_id
 _symmetry_equiv_pos_as_xyz
  1  'x, y, z'
loop_
 _atom_site_type_symbol
 _atom_site_label
 _atom_site_symmetry_multiplicity
 _atom_site_fract_x
 _atom_site_fract_y
 _atom_site_fract_z
 _atom_site_occupancy
  Li  Li0  1  0.95433600  0.28170500  0.32515600  1
  Li  Li1  1  0.95254000  0.28314800  0.82553900  1
  Li  Li2  1  0.54700400  0.21898900  0.42466300  1
  Li  Li3  1  0.54593400  0.21858500  0.92380700  1
  Li  Li4  1  0.45430300  0.78138800  0.07482300  1
  Li  Li5  1  0.45381400  0.78167800  0.57541100  1
  Li  Li6  1  0.04645900  0.71872500  0.17452300  1
  Li  Li7  1  0.04672500  0.71757800  0.67539600  1
  Mn  Mn8  1  0.81483300  0.58065800  0.41653700  1
  Mn  Mn9  1  0.68554100  0.92003900  0.33346900  1
  Mn  Mn10  1  0.68770300  0.91706500  0.83376100  1
  Mn  Mn11  1  0.31375600  0.07942400  0.16638400  1
  Mn  Mn12  1  0.31424300  0.07969500  0.66655200  1
  Mn  Mn13  1  0.18700600  0.41965400  0.08225500  1
  Mn  Mn14  1  0.18582000  0.42009900  0.58394100  1
  Fe  Fe15  1  0.81449200  0.57849600  0.91928600  1
  B  B16  1  0.83313900  0.09627000  0.08434800  1
  B  B17  1  0.83338700  0.09620400  0.58492000  1
  B  B18  1  0.66498900  0.40487700  0.16409300  1
  B  B19  1  0.66731100  0.40601600  0.66604200  1
  B  B20  1  0.33320200  0.59586000  0.33455700  1
  B  B21  1  0.33452900  0.59534600  0.83507800  1
  B  B22  1  0.16639200  0.90393000  0.41532500  1
  B  B23  1  0.16537400  0.90178800  0.91537200  1
  O  O24  1  0.82523200  0.12322600  0.45528600  1
  O  O25  1  0.82452900  0.12261500  0.95475800  1
  O  O26  1  0.98577400  0.81207000  0.34026500  1
  O  O27  1  0.98467500  0.80731800  0.84167600  1
  O  O28  1  0.83602400  0.52023400  0.10448400  1
  O  O29  1  0.84147100  0.51705400  0.60630800  1
  O  O30  1  0.67687700  0.37826600  0.29342300  1
  O  O31  1  0.67633100  0.38318700  0.79601500  1
  O  O32  1  0.48501100  0.31087300  0.09021700  1
  O  O33  1  0.48700700  0.31178200  0.59194600  1
  O  O34  1  0.34074600  0.01683400  0.35701000  1
  O  O35  1  0.65945200  0.98357700  0.14320400  1
  O  O36  1  0.33796400  0.01558800  0.85657600  1
  O  O37  1  0.65956000  0.98341900  0.64359600  1
  O  O38  1  0.51425200  0.68817700  0.40907900  1
  O  O39  1  0.51601500  0.68628100  0.90978400  1
  O  O40  1  0.32418200  0.62247600  0.20497200  1
  O  O41  1  0.32652300  0.62316600  0.70554400  1
  O  O42  1  0.15963100  0.48316800  0.39335300  1
  O  O43  1  0.15902100  0.48314100  0.89293200  1
  O  O44  1  0.01408800  0.18897200  0.15891800  1
  O  O45  1  0.01424700  0.18842000  0.65955600  1
  O  O46  1  0.17445700  0.87638200  0.04510400  1
  O  O47  1  0.17410200  0.87655400  0.54475100  1
