# generated using pymatgen
data_LiCrSiO4
_symmetry_space_group_name_H-M   'P 1'
_cell_length_a   4.77336800
_cell_length_b   5.77826400
_cell_length_c   10.19376700
_cell_angle_alpha   89.99998446
_cell_angle_beta   90.00112060
_cell_angle_gamma   89.99996817
_symmetry_Int_Tables_number   1
_chemical_formula_structural   LiCrSiO4
_chemical_formula_sum   'Li4 Cr4 Si4 O16'
_cell_volume   281.16224356
_cell_formula_units_Z   4
loop_
 _symmetry_equiv_pos_site_id
 _symmetry_equiv_pos_as_xyz
  1  'x, y, z'
loop_
 _atom_site_type_symbol
 _atom_site_label
 _atom_site_symmetry_multiplicity
 _atom_site_fract_x
 _atom_site_fract_y
 _atom_site_fract_z
 _atom_site_occupancy
  Li  Li0  1  0.00017700  0.25625800  0.50014400  1
  Li  Li1  1  0.49982100  0.25626000  0.00014400  1
  Li  Li2  1  0.50017700  0.75625800  0.99985400  1
  Li  Li3  1  0.99982000  0.75625600  0.49985500  1
  Cr  Cr4  1  0.49905000  0.00662000  0.73115300  1
  Cr  Cr5  1  0.99905100  0.50658300  0.76887500  1
  Cr  Cr6  1  0.00098300  0.00658900  0.23113400  1
  Cr  Cr7  1  0.50093600  0.50664200  0.26885400  1
  Si  Si8  1  0.05917400  0.50661200  0.09179500  1
  Si  Si9  1  0.44084500  0.50660500  0.59179200  1
  Si  Si10  1  0.55915700  0.00660300  0.40820500  1
  Si  Si11  1  0.94081800  0.00661200  0.90820700  1
  O  O12  1  0.18920900  0.50649100  0.94347200  1
  O  O13  1  0.31082600  0.50649200  0.44346400  1
  O  O14  1  0.68917700  0.00649300  0.55653200  1
  O  O15  1  0.81078400  0.00648500  0.05653000  1
  O  O16  1  0.22043800  0.00651100  0.39990400  1
  O  O17  1  0.27952900  0.00651000  0.89991100  1
  O  O18  1  0.72047100  0.50651100  0.10009100  1
  O  O19  1  0.77955900  0.50650900  0.60009200  1
  O  O20  1  0.22068500  0.28897100  0.17114000  1
  O  O21  1  0.22065300  0.72425100  0.17112800  1
  O  O22  1  0.27934600  0.72424700  0.67112600  1
  O  O23  1  0.27932600  0.28898300  0.67113600  1
  O  O24  1  0.72067800  0.78897900  0.32886100  1
  O  O25  1  0.72064600  0.22425100  0.32887300  1
  O  O26  1  0.77934500  0.22425500  0.82887000  1
  O  O27  1  0.77932000  0.78896500  0.82885700  1
