# generated using pymatgen
data_LiV24O58
_symmetry_space_group_name_H-M   'P 1'
_cell_length_a   7.34765400
_cell_length_b   10.94079525
_cell_length_c   14.33816699
_cell_angle_alpha   77.44164619
_cell_angle_beta   82.65900855
_cell_angle_gamma   70.39430717
_symmetry_Int_Tables_number   1
_chemical_formula_structural   LiV24O58
_chemical_formula_sum   'Li1 V24 O58'
_cell_volume   1057.94563884
_cell_formula_units_Z   1
loop_
 _symmetry_equiv_pos_site_id
 _symmetry_equiv_pos_as_xyz
  1  'x, y, z'
loop_
 _atom_site_type_symbol
 _atom_site_label
 _atom_site_symmetry_multiplicity
 _atom_site_fract_x
 _atom_site_fract_y
 _atom_site_fract_z
 _atom_site_occupancy
  Li  Li0  1  0.14080800  0.46166300  0.51355200  1
  V  V1  1  0.85975300  0.86723200  0.82641500  1
  V  V2  1  0.35830100  0.86959200  0.82683300  1
  V  V3  1  0.48412900  0.09467600  0.87758600  1
  V  V4  1  0.98242100  0.09438700  0.87811700  1
  V  V5  1  0.03166900  0.54404900  0.78537700  1
  V  V6  1  0.53248800  0.54315100  0.78418100  1
  V  V7  1  0.39759000  0.34741800  0.70662900  1
  V  V8  1  0.90176800  0.34742600  0.70669100  1
  V  V9  1  0.95445600  0.78919300  0.60464900  1
  V  V10  1  0.45112400  0.79309900  0.60744300  1
  V  V11  1  0.07544500  0.02838300  0.64357900  1
  V  V12  1  0.57491000  0.02798000  0.64285300  1
  V  V13  1  0.92427800  0.97122200  0.35686900  1
  V  V14  1  0.42801600  0.96722000  0.35495500  1
  V  V15  1  0.54702700  0.20380200  0.39597600  1
  V  V16  1  0.04715000  0.20912100  0.39541500  1
  V  V17  1  0.09965200  0.65414000  0.29101000  1
  V  V18  1  0.60158600  0.65036100  0.29451500  1
  V  V19  1  0.46821300  0.45636700  0.21500000  1
  V  V20  1  0.96819300  0.45521900  0.21551900  1
  V  V21  1  0.01676000  0.90640000  0.12096400  1
  V  V22  1  0.51566200  0.90806600  0.12039000  1
  V  V23  1  0.64084200  0.13257300  0.17258200  1
  V  V24  1  0.14028000  0.13328000  0.17245800  1
  O  O25  1  0.87611300  0.78132700  0.93219600  1
  O  O26  1  0.37615800  0.78121800  0.93183900  1
  O  O27  1  0.99999500  0.99983600  0.99993500  1
  O  O28  1  0.50030500  0.99982300  0.99952100  1
  O  O29  1  0.01686700  0.51689200  0.89903200  1
  O  O30  1  0.51766600  0.51587600  0.89787500  1
  O  O31  1  0.40478700  0.24813000  0.88989200  1
  O  O32  1  0.90219900  0.24795200  0.89004300  1
  O  O33  1  0.09406700  0.91211300  0.80001400  1
  O  O34  1  0.59367300  0.91257800  0.79939600  1
  O  O35  1  0.76086700  0.04914400  0.85855800  1
  O  O36  1  0.26028500  0.04996900  0.85867100  1
  O  O37  1  0.94710400  0.72910300  0.75344700  1
  O  O38  1  0.44697900  0.73037400  0.75144700  1
  O  O39  1  0.80111900  0.52146500  0.75272400  1
  O  O40  1  0.30118200  0.52142400  0.75275900  1
  O  O41  1  0.84161900  0.98385100  0.66570100  1
  O  O42  1  0.33795200  0.99034600  0.66845100  1
  O  O43  1  0.12954000  0.36882200  0.74467900  1
  O  O44  1  0.62926600  0.37313600  0.73662900  1
  O  O45  1  0.48664500  0.16858700  0.72507100  1
  O  O46  1  0.98244300  0.16839400  0.72509800  1
  O  O47  1  0.18255800  0.84655400  0.61125900  1
  O  O48  1  0.66503700  0.84716900  0.61120000  1
  O  O49  1  0.03514900  0.63285000  0.59409700  1
  O  O50  1  0.53076200  0.64105300  0.59386600  1
  O  O51  1  0.38630000  0.39010300  0.59140900  1
  O  O52  1  0.92814900  0.39033200  0.59163400  1
  O  O53  1  0.94467800  0.87688400  0.46783700  1
  O  O54  1  0.44502500  0.87670000  0.46624300  1
  O  O55  1  0.05649100  0.12168800  0.53251400  1
  O  O56  1  0.55513400  0.12378900  0.53081200  1
  O  O57  1  0.09350200  0.60966900  0.40636200  1
  O  O58  1  0.59299000  0.60972600  0.40847800  1
  O  O59  1  0.45623700  0.35788600  0.40689600  1
  O  O60  1  0.98069600  0.36380900  0.40693200  1
  O  O61  1  0.81737400  0.15324200  0.38752600  1
  O  O62  1  0.33599700  0.14998400  0.38772000  1
  O  O63  1  0.51432000  0.83448300  0.27715900  1
  O  O64  1  0.01501700  0.83200300  0.27400500  1
  O  O65  1  0.87000400  0.62933200  0.25844600  1
  O  O66  1  0.37116700  0.62959400  0.25854000  1
  O  O67  1  0.65372300  0.01093900  0.33368000  1
  O  O68  1  0.16869700  0.01212200  0.33461100  1
  O  O69  1  0.19929900  0.47898700  0.24612800  1
  O  O70  1  0.69892600  0.47654300  0.24936100  1
  O  O71  1  0.55320500  0.26962000  0.24817300  1
  O  O72  1  0.05320100  0.27003800  0.24637200  1
  O  O73  1  0.23891000  0.95124000  0.14164400  1
  O  O74  1  0.73904400  0.95140800  0.14150800  1
  O  O75  1  0.90615600  0.08704500  0.20164100  1
  O  O76  1  0.40618200  0.08917200  0.19786100  1
  O  O77  1  0.09635300  0.75207900  0.11024600  1
  O  O78  1  0.59548800  0.75352700  0.11079800  1
  O  O79  1  0.98098800  0.48343800  0.10180200  1
  O  O80  1  0.48433600  0.48370600  0.10131500  1
  O  O81  1  0.62606400  0.21967900  0.06718600  1
  O  O82  1  0.12119000  0.21952600  0.06680000  1
