# generated using pymatgen
data_Li6TiMn3(PO4)6
_symmetry_space_group_name_H-M   'P 1'
_cell_length_a   8.62003700
_cell_length_b   8.65660093
_cell_length_c   8.76631981
_cell_angle_alpha   61.44259836
_cell_angle_beta   61.38097025
_cell_angle_gamma   61.40644062
_symmetry_Int_Tables_number   1
_chemical_formula_structural   Li6TiMn3(PO4)6
_chemical_formula_sum   'Li6 Ti1 Mn3 P6 O24'
_cell_volume   477.19925772
_cell_formula_units_Z   1
loop_
 _symmetry_equiv_pos_site_id
 _symmetry_equiv_pos_as_xyz
  1  'x, y, z'
loop_
 _atom_site_type_symbol
 _atom_site_label
 _atom_site_symmetry_multiplicity
 _atom_site_fract_x
 _atom_site_fract_y
 _atom_site_fract_z
 _atom_site_occupancy
  Li  Li0  1  0.00338000  0.98093100  0.97398100  1
  Li  Li1  1  0.64866200  0.83531000  0.25776600  1
  Li  Li2  1  0.50754900  0.49267100  0.52132200  1
  Li  Li3  1  0.34304700  0.15259300  0.71943400  1
  Li  Li4  1  0.15335900  0.71417300  0.34632800  1
  Li  Li5  1  0.72511200  0.34581700  0.14383600  1
  Ti  Ti6  1  0.14868900  0.15125800  0.14869500  1
  Mn  Mn7  1  0.85459400  0.85650700  0.85433500  1
  Mn  Mn8  1  0.64320100  0.63996500  0.64612300  1
  Mn  Mn9  1  0.35411600  0.34678500  0.35028500  1
  P  P10  1  0.55966600  0.24901900  0.94613400  1
  P  P11  1  0.24863400  0.95130600  0.55250200  1
  P  P12  1  0.95572600  0.55162700  0.25161600  1
  P  P13  1  0.04127100  0.45913500  0.75752600  1
  P  P14  1  0.74981000  0.04082900  0.44729700  1
  P  P15  1  0.45930800  0.75570600  0.04874500  1
  O  O16  1  0.49135700  0.73046300  0.87560000  1
  O  O17  1  0.87973300  0.47893200  0.71375800  1
  O  O18  1  0.74278400  0.07810900  0.93433600  1
  O  O19  1  0.70909700  0.88490200  0.44857800  1
  O  O20  1  0.55839100  0.40288200  0.76120200  1
  O  O21  1  0.38839400  0.18373300  0.01556500  1
  O  O22  1  0.09018500  0.92245400  0.73698900  1
  O  O23  1  0.41725700  0.77121300  0.53466600  1
  O  O24  1  0.76189300  0.55545500  0.39696900  1
  O  O25  1  0.99757500  0.61805300  0.81908900  1
  O  O26  1  0.07757000  0.26439600  0.91581300  1
  O  O27  1  0.78988600  0.99382700  0.61716500  1
  O  O28  1  0.18380600  0.01973100  0.38493400  1
  O  O29  1  0.93484000  0.74307700  0.10066000  1
  O  O30  1  0.02335500  0.38690100  0.18068000  1
  O  O31  1  0.23122100  0.44242200  0.59845300  1
  O  O32  1  0.58777400  0.23199100  0.42910600  1
  O  O33  1  0.91383600  0.08262300  0.26152700  1
  O  O34  1  0.61824600  0.80336900  0.03593000  1
  O  O35  1  0.43803000  0.58774700  0.22947700  1
  O  O36  1  0.30589000  0.10250800  0.53917100  1
  O  O37  1  0.26327000  0.91277300  0.08795500  1
  O  O38  1  0.10424400  0.52143000  0.32254400  1
  O  O39  1  0.54424500  0.30837500  0.09390700  1
