# generated using pymatgen
data_Li2VPO4F
_symmetry_space_group_name_H-M   'P 1'
_cell_length_a   6.51064500
_cell_length_b   10.75210400
_cell_length_c   11.17077500
_cell_angle_alpha   90.00000000
_cell_angle_beta   90.00000000
_cell_angle_gamma   90.00000000
_symmetry_Int_Tables_number   1
_chemical_formula_structural   Li2VPO4F
_chemical_formula_sum   'Li16 V8 P8 O32 F8'
_cell_volume   781.98923851
_cell_formula_units_Z   8
loop_
 _symmetry_equiv_pos_site_id
 _symmetry_equiv_pos_as_xyz
  1  'x, y, z'
loop_
 _atom_site_type_symbol
 _atom_site_label
 _atom_site_symmetry_multiplicity
 _atom_site_fract_x
 _atom_site_fract_y
 _atom_site_fract_z
 _atom_site_occupancy
  Li  Li0  1  0.75000000  0.02656800  0.27071100  1
  Li  Li1  1  0.25000000  0.23123100  0.08422100  1
  Li  Li2  1  0.50589600  0.23969200  0.33206900  1
  Li  Li3  1  0.99410400  0.23969200  0.33206900  1
  Li  Li4  1  0.00589600  0.26030800  0.83206900  1
  Li  Li5  1  0.49410400  0.26030800  0.83206900  1
  Li  Li6  1  0.75000000  0.26876900  0.58422100  1
  Li  Li7  1  0.25000000  0.47343200  0.77071100  1
  Li  Li8  1  0.75000000  0.52656800  0.22928900  1
  Li  Li9  1  0.25000000  0.73123100  0.41577900  1
  Li  Li10  1  0.50589600  0.73969200  0.16793100  1
  Li  Li11  1  0.99410400  0.73969200  0.16793100  1
  Li  Li12  1  0.00589600  0.76030800  0.66793100  1
  Li  Li13  1  0.49410400  0.76030800  0.66793100  1
  Li  Li14  1  0.75000000  0.76876900  0.91577900  1
  Li  Li15  1  0.25000000  0.97343200  0.72928900  1
  V  V16  1  0.00000000  0.00000000  0.00000000  1
  V  V17  1  0.50000000  0.00000000  0.00000000  1
  V  V18  1  0.00000000  0.00000000  0.50000000  1
  V  V19  1  0.50000000  0.00000000  0.50000000  1
  V  V20  1  0.00000000  0.50000000  0.50000000  1
  V  V21  1  0.50000000  0.50000000  0.50000000  1
  V  V22  1  0.00000000  0.50000000  0.00000000  1
  V  V23  1  0.50000000  0.50000000  0.00000000  1
  P  P24  1  0.75000000  0.02076200  0.74612800  1
  P  P25  1  0.75000000  0.24586700  0.08007000  1
  P  P26  1  0.25000000  0.25413300  0.58007000  1
  P  P27  1  0.25000000  0.47923800  0.24612800  1
  P  P28  1  0.75000000  0.52076200  0.75387200  1
  P  P29  1  0.75000000  0.74586700  0.41993000  1
  P  P30  1  0.25000000  0.75413300  0.91993000  1
  P  P31  1  0.25000000  0.97923800  0.25387200  1
  O  O32  1  0.25000000  0.02899000  0.12229200  1
  O  O33  1  0.05607000  0.03495700  0.31486500  1
  O  O34  1  0.44393000  0.03495700  0.31486500  1
  O  O35  1  0.25000000  0.11043200  0.56165200  1
  O  O36  1  0.75000000  0.16526100  0.74462000  1
  O  O37  1  0.55369500  0.19585500  0.01668800  1
  O  O38  1  0.94630500  0.19585500  0.01668800  1
  O  O39  1  0.75000000  0.21579100  0.21569400  1
  O  O40  1  0.25000000  0.28420900  0.71569400  1
  O  O41  1  0.05369500  0.30414500  0.51668800  1
  O  O42  1  0.44630500  0.30414500  0.51668800  1
  O  O43  1  0.25000000  0.33473900  0.24462000  1
  O  O44  1  0.75000000  0.38956800  0.06165200  1
  O  O45  1  0.55607000  0.46504300  0.81486500  1
  O  O46  1  0.94393000  0.46504300  0.81486500  1
  O  O47  1  0.75000000  0.47101000  0.62229200  1
  O  O48  1  0.25000000  0.52899000  0.37770800  1
  O  O49  1  0.05607000  0.53495700  0.18513500  1
  O  O50  1  0.44393000  0.53495700  0.18513500  1
  O  O51  1  0.25000000  0.61043200  0.93834800  1
  O  O52  1  0.75000000  0.66526100  0.75538000  1
  O  O53  1  0.55369500  0.69585500  0.48331200  1
  O  O54  1  0.94630500  0.69585500  0.48331200  1
  O  O55  1  0.75000000  0.71579100  0.28430600  1
  O  O56  1  0.25000000  0.78420900  0.78430600  1
  O  O57  1  0.05369500  0.80414500  0.98331200  1
  O  O58  1  0.44630500  0.80414500  0.98331200  1
  O  O59  1  0.25000000  0.83473900  0.25538000  1
  O  O60  1  0.75000000  0.88956800  0.43834800  1
  O  O61  1  0.55607000  0.96504300  0.68513500  1
  O  O62  1  0.94393000  0.96504300  0.68513500  1
  O  O63  1  0.75000000  0.97101000  0.87770800  1
  F  F64  1  0.25000000  0.05211800  0.88335200  1
  F  F65  1  0.75000000  0.12896800  0.46871800  1
  F  F66  1  0.25000000  0.37103200  0.96871800  1
  F  F67  1  0.75000000  0.44788200  0.38335200  1
  F  F68  1  0.25000000  0.55211800  0.61664800  1
  F  F69  1  0.75000000  0.62896800  0.03128200  1
  F  F70  1  0.25000000  0.87103200  0.53128200  1
  F  F71  1  0.75000000  0.94788200  0.11664800  1
