# generated using pymatgen
data_LiMn2(BO3)2
_symmetry_space_group_name_H-M   'P 1'
_cell_length_a   5.32549800
_cell_length_b   9.09815117
_cell_length_c   10.33022701
_cell_angle_alpha   88.60733000
_cell_angle_beta   87.91583354
_cell_angle_gamma   89.21672168
_symmetry_Int_Tables_number   1
_chemical_formula_structural   LiMn2(BO3)2
_chemical_formula_sum   'Li4 Mn8 B8 O24'
_cell_volume   500.00226472
_cell_formula_units_Z   4
loop_
 _symmetry_equiv_pos_site_id
 _symmetry_equiv_pos_as_xyz
  1  'x, y, z'
loop_
 _atom_site_type_symbol
 _atom_site_label
 _atom_site_symmetry_multiplicity
 _atom_site_fract_x
 _atom_site_fract_y
 _atom_site_fract_z
 _atom_site_occupancy
  Li  Li0  1  0.83974800  0.00070000  0.66039100  1
  Li  Li1  1  0.35959400  0.51344700  0.67244500  1
  Li  Li2  1  0.36116100  0.49236900  0.16166600  1
  Li  Li3  1  0.15333400  0.97956300  0.34414000  1
  Mn  Mn4  1  0.85510600  0.31780900  0.63469500  1
  Mn  Mn5  1  0.85307400  0.68995000  0.12478000  1
  Mn  Mn6  1  0.63810300  0.81125800  0.87270900  1
  Mn  Mn7  1  0.66776500  0.16445200  0.38262300  1
  Mn  Mn8  1  0.33602000  0.84692800  0.62050600  1
  Mn  Mn9  1  0.35805100  0.16905300  0.13449600  1
  Mn  Mn10  1  0.15028400  0.34057500  0.89051400  1
  Mn  Mn11  1  0.15333600  0.65221500  0.38492900  1
  B  B12  1  0.84264800  0.65568500  0.63600900  1
  B  B13  1  0.83504300  0.34872100  0.13431400  1
  B  B14  1  0.65484600  0.16195100  0.87245400  1
  B  B15  1  0.66638300  0.83374700  0.37189000  1
  B  B16  1  0.32683100  0.17791700  0.63132600  1
  B  B17  1  0.33295600  0.82925800  0.12425200  1
  B  B18  1  0.16936500  0.68301000  0.87519200  1
  B  B19  1  0.16685400  0.31696200  0.37342800  1
  O  O20  1  0.92848800  0.69749600  0.93526900  1
  O  O21  1  0.94643200  0.30124300  0.44917500  1
  O  O22  1  0.80712100  0.95258600  0.39805800  1
  O  O23  1  0.78504200  0.28724900  0.82165400  1
  O  O24  1  0.78442000  0.71300300  0.30923100  1
  O  O25  1  0.72834700  0.02635300  0.83973900  1
  O  O26  1  0.72291800  0.78689200  0.68382800  1
  O  O27  1  0.71229300  0.52994300  0.63244200  1
  O  O28  1  0.71638300  0.48052900  0.12426800  1
  O  O29  1  0.70901000  0.22301000  0.18181200  1
  O  O30  1  0.58119000  0.17670100  0.59128400  1
  O  O31  1  0.57165600  0.81772400  0.06268300  1
  O  O32  1  0.44095700  0.19374400  0.95127500  1
  O  O33  1  0.41388300  0.82500000  0.41217300  1
  O  O34  1  0.28576800  0.81362200  0.83479300  1
  O  O35  1  0.27417600  0.55031800  0.85571200  1
  O  O36  1  0.27653400  0.44594800  0.34479500  1
  O  O37  1  0.27246100  0.18313900  0.32418700  1
  O  O38  1  0.22304900  0.31129300  0.67613500  1
  O  O39  1  0.23234100  0.96078400  0.15516900  1
  O  O40  1  0.21504400  0.69567300  0.15693600  1
  O  O41  1  0.18448000  0.05656900  0.62224200  1
  O  O42  1  0.09264800  0.66664100  0.59152800  1
  O  O43  1  0.09100800  0.33320200  0.09576100  1
