# generated using pymatgen
data_Li2Mn2F7
_symmetry_space_group_name_H-M   'P 1'
_cell_length_a   7.43576100
_cell_length_b   7.89825200
_cell_length_c   11.05671700
_cell_angle_alpha   90.00000000
_cell_angle_beta   90.00000000
_cell_angle_gamma   90.00000000
_symmetry_Int_Tables_number   1
_chemical_formula_structural   Li2Mn2F7
_chemical_formula_sum   'Li8 Mn8 F28'
_cell_volume   649.35561794
_cell_formula_units_Z   4
loop_
 _symmetry_equiv_pos_site_id
 _symmetry_equiv_pos_as_xyz
  1  'x, y, z'
loop_
 _atom_site_type_symbol
 _atom_site_label
 _atom_site_symmetry_multiplicity
 _atom_site_fract_x
 _atom_site_fract_y
 _atom_site_fract_z
 _atom_site_occupancy
  Li  Li0  1  0.82276000  0.07000200  0.76254100  1
  Li  Li1  1  0.83923500  0.94698200  0.52523200  1
  Li  Li2  1  0.16076500  0.44698200  0.97476800  1
  Li  Li3  1  0.17724000  0.57000200  0.73745900  1
  Li  Li4  1  0.32276000  0.42999800  0.23745900  1
  Li  Li5  1  0.33923500  0.55301800  0.47476800  1
  Li  Li6  1  0.66076500  0.05301800  0.02523200  1
  Li  Li7  1  0.67724000  0.92999800  0.26254100  1
  Mn  Mn8  1  0.86482500  0.36823800  0.20360000  1
  Mn  Mn9  1  0.89864500  0.39962700  0.55157000  1
  Mn  Mn10  1  0.10135500  0.89962700  0.94843000  1
  Mn  Mn11  1  0.13517500  0.86823800  0.29640000  1
  Mn  Mn12  1  0.36482500  0.13176200  0.79640000  1
  Mn  Mn13  1  0.39864500  0.10037300  0.44843000  1
  Mn  Mn14  1  0.60135500  0.60037300  0.05157000  1
  Mn  Mn15  1  0.63517500  0.63176200  0.70360000  1
  F  F16  1  0.85150000  0.45520500  0.04192600  1
  F  F17  1  0.76700900  0.85258400  0.68020400  1
  F  F18  1  0.84604200  0.50141400  0.72953300  1
  F  F19  1  0.87051300  0.15990100  0.60455600  1
  F  F20  1  0.86903100  0.02538200  0.93237400  1
  F  F21  1  0.89669000  0.81123800  0.33075800  1
  F  F22  1  0.90788200  0.34876000  0.37033400  1
  F  F23  1  0.09211800  0.84876000  0.12966600  1
  F  F24  1  0.10331000  0.31123800  0.16924200  1
  F  F25  1  0.13096900  0.52538200  0.56762600  1
  F  F26  1  0.12948700  0.65990100  0.89544400  1
  F  F27  1  0.15395800  0.00141400  0.77046700  1
  F  F28  1  0.23299100  0.35258400  0.81979600  1
  F  F29  1  0.14850000  0.95520500  0.45807400  1
  F  F30  1  0.35150000  0.04479500  0.95807400  1
  F  F31  1  0.26700900  0.64741600  0.31979600  1
  F  F32  1  0.34604200  0.99858600  0.27046700  1
  F  F33  1  0.37051300  0.34009900  0.39544400  1
  F  F34  1  0.36903100  0.47461800  0.06762600  1
  F  F35  1  0.39669000  0.68876200  0.66924200  1
  F  F36  1  0.40788200  0.15124000  0.62966600  1
  F  F37  1  0.59211800  0.65124000  0.87033400  1
  F  F38  1  0.60331000  0.18876200  0.83075800  1
  F  F39  1  0.63096900  0.97461800  0.43237400  1
  F  F40  1  0.62948700  0.84009900  0.10455600  1
  F  F41  1  0.65395800  0.49858600  0.22953300  1
  F  F42  1  0.73299100  0.14741600  0.18020400  1
  F  F43  1  0.64850000  0.54479500  0.54192600  1
