# generated using pymatgen
data_LiNiPO4
_symmetry_space_group_name_H-M   'P 1'
_cell_length_a   8.11732300
_cell_length_b   5.00599100
_cell_length_c   10.35557921
_cell_angle_alpha   61.98335507
_cell_angle_beta   90.00000000
_cell_angle_gamma   90.00000000
_symmetry_Int_Tables_number   1
_chemical_formula_structural   LiNiPO4
_chemical_formula_sum   'Li4 Ni4 P4 O16'
_cell_volume   371.48827119
_cell_formula_units_Z   4
loop_
 _symmetry_equiv_pos_site_id
 _symmetry_equiv_pos_as_xyz
  1  'x, y, z'
loop_
 _atom_site_type_symbol
 _atom_site_label
 _atom_site_symmetry_multiplicity
 _atom_site_fract_x
 _atom_site_fract_y
 _atom_site_fract_z
 _atom_site_occupancy
  Li  Li0  1  0.04478100  0.05365000  0.62246300  1
  Li  Li1  1  0.54478100  0.94635000  0.87753700  1
  Li  Li2  1  0.45521900  0.05365000  0.12246300  1
  Li  Li3  1  0.95521900  0.94635000  0.37753700  1
  Ni  Ni4  1  0.32823300  0.33146900  0.41575300  1
  Ni  Ni5  1  0.82823300  0.66853100  0.08424700  1
  Ni  Ni6  1  0.17176700  0.33146900  0.91575300  1
  Ni  Ni7  1  0.67176700  0.66853100  0.58424700  1
  P  P8  1  0.25161500  0.68048500  0.07462700  1
  P  P9  1  0.75161500  0.31951500  0.42537300  1
  P  P10  1  0.24838500  0.68048500  0.57462700  1
  P  P11  1  0.74838500  0.31951500  0.92537300  1
  O  O12  1  0.18730100  0.41124600  0.55186600  1
  O  O13  1  0.32273400  0.98386200  0.94824100  1
  O  O14  1  0.32276200  0.66668600  0.21663400  1
  O  O15  1  0.56397800  0.30651400  0.42943200  1
  O  O16  1  0.06397800  0.69348600  0.07056800  1
  O  O17  1  0.82276200  0.33331400  0.28336600  1
  O  O18  1  0.82273400  0.01613800  0.55175900  1
  O  O19  1  0.68730100  0.58875400  0.94813400  1
  O  O20  1  0.31269900  0.41124600  0.05186600  1
  O  O21  1  0.17726600  0.98386200  0.44824100  1
  O  O22  1  0.17723800  0.66668600  0.71663400  1
  O  O23  1  0.93602200  0.30651400  0.92943200  1
  O  O24  1  0.43602200  0.69348600  0.57056800  1
  O  O25  1  0.67723800  0.33331400  0.78336600  1
  O  O26  1  0.67726600  0.01613800  0.05175900  1
  O  O27  1  0.81269900  0.58875400  0.44813400  1
