# generated using pymatgen
data_Li2Mn(SiO3)2
_symmetry_space_group_name_H-M   'P 1'
_cell_length_a   7.22742800
_cell_length_b   10.08134300
_cell_length_c   10.30425200
_cell_angle_alpha   90.00000000
_cell_angle_beta   90.00000000
_cell_angle_gamma   90.00000000
_symmetry_Int_Tables_number   1
_chemical_formula_structural   Li2Mn(SiO3)2
_chemical_formula_sum   'Li12 Mn6 Si12 O36'
_cell_volume   750.79027095
_cell_formula_units_Z   6
loop_
 _symmetry_equiv_pos_site_id
 _symmetry_equiv_pos_as_xyz
  1  'x, y, z'
loop_
 _atom_site_type_symbol
 _atom_site_label
 _atom_site_symmetry_multiplicity
 _atom_site_fract_x
 _atom_site_fract_y
 _atom_site_fract_z
 _atom_site_occupancy
  Li  Li0  1  0.78220200  0.24390100  0.00000000  1
  Li  Li1  1  0.76148000  0.76261700  0.00000000  1
  Li  Li2  1  0.28640000  0.45175200  0.23339600  1
  Li  Li3  1  0.22224800  0.04128900  0.23768900  1
  Li  Li4  1  0.77775200  0.54128900  0.26231100  1
  Li  Li5  1  0.71360000  0.95175200  0.26660400  1
  Li  Li6  1  0.23852000  0.26261700  0.50000000  1
  Li  Li7  1  0.21779800  0.74390100  0.50000000  1
  Li  Li8  1  0.71360000  0.95175200  0.73339600  1
  Li  Li9  1  0.77775200  0.54128900  0.73768900  1
  Li  Li10  1  0.22224800  0.04128900  0.76231100  1
  Li  Li11  1  0.28640000  0.45175200  0.76660400  1
  Mn  Mn12  1  0.25172400  0.24669800  0.00000000  1
  Mn  Mn13  1  0.98144900  0.01188300  0.00000000  1
  Mn  Mn14  1  0.52182900  0.48006400  0.00000000  1
  Mn  Mn15  1  0.01855100  0.51188300  0.50000000  1
  Mn  Mn16  1  0.47817100  0.98006400  0.50000000  1
  Mn  Mn17  1  0.74827600  0.74669800  0.50000000  1
  Si  Si18  1  0.98802100  0.52712100  0.00000000  1
  Si  Si19  1  0.51280700  0.96866700  0.00000000  1
  Si  Si20  1  0.02485400  0.74753900  0.22481000  1
  Si  Si21  1  0.47428200  0.74887100  0.22499200  1
  Si  Si22  1  0.52571800  0.24887100  0.27500800  1
  Si  Si23  1  0.97514600  0.24753900  0.27519000  1
  Si  Si24  1  0.48719300  0.46866700  0.50000000  1
  Si  Si25  1  0.01197900  0.02712100  0.50000000  1
  Si  Si26  1  0.97514600  0.24753900  0.72481000  1
  Si  Si27  1  0.52571800  0.24887100  0.72499200  1
  Si  Si28  1  0.47428200  0.74887100  0.77500800  1
  Si  Si29  1  0.02485400  0.74753900  0.77519000  1
  O  O30  1  0.30288100  0.02521600  0.00000000  1
  O  O31  1  0.68782000  0.06852200  0.00000000  1
  O  O32  1  0.19654900  0.46964100  0.00000000  1
  O  O33  1  0.81201400  0.42837200  0.00000000  1
  O  O34  1  0.04243100  0.18812500  0.13642500  1
  O  O35  1  0.55260100  0.86282200  0.12134400  1
  O  O36  1  0.94942400  0.63053800  0.12354600  1
  O  O37  1  0.44907600  0.30911200  0.13933800  1
  O  O38  1  0.94252400  0.88803900  0.17329700  1
  O  O39  1  0.54350300  0.60297400  0.17901900  1
  O  O40  1  0.75103100  0.25600000  0.27854500  1
  O  O41  1  0.24896900  0.75600000  0.22145500  1
  O  O42  1  0.45649700  0.10297400  0.32098100  1
  O  O43  1  0.05747600  0.38803900  0.32670300  1
  O  O44  1  0.55092400  0.80911200  0.36066200  1
  O  O45  1  0.05057600  0.13053800  0.37645400  1
  O  O46  1  0.44739900  0.36282200  0.37865600  1
  O  O47  1  0.95756900  0.68812500  0.36357500  1
  O  O48  1  0.69711900  0.52521600  0.50000000  1
  O  O49  1  0.31218000  0.56852200  0.50000000  1
  O  O50  1  0.18798600  0.92837200  0.50000000  1
  O  O51  1  0.80345100  0.96964100  0.50000000  1
  O  O52  1  0.95756900  0.68812500  0.63642500  1
  O  O53  1  0.44739900  0.36282200  0.62134400  1
  O  O54  1  0.05057600  0.13053800  0.62354600  1
  O  O55  1  0.55092400  0.80911200  0.63933800  1
  O  O56  1  0.05747600  0.38803900  0.67329700  1
  O  O57  1  0.45649700  0.10297400  0.67901900  1
  O  O58  1  0.24896900  0.75600000  0.77854500  1
  O  O59  1  0.75103100  0.25600000  0.72145500  1
  O  O60  1  0.54350300  0.60297400  0.82098100  1
  O  O61  1  0.94252400  0.88803900  0.82670300  1
  O  O62  1  0.44907600  0.30911200  0.86066200  1
  O  O63  1  0.94942400  0.63053800  0.87645400  1
  O  O64  1  0.55260100  0.86282200  0.87865600  1
  O  O65  1  0.04243100  0.18812500  0.86357500  1
