# generated using pymatgen
data_Li4V2(SiO4)3
_symmetry_space_group_name_H-M   'P 1'
_cell_length_a   8.46864802
_cell_length_b   8.46864802
_cell_length_c   8.46864863
_cell_angle_alpha   63.62632172
_cell_angle_beta   63.62632172
_cell_angle_gamma   63.62631709
_symmetry_Int_Tables_number   1
_chemical_formula_structural   Li4V2(SiO4)3
_chemical_formula_sum   'Li8 V4 Si6 O24'
_cell_volume   463.86837849
_cell_formula_units_Z   2
loop_
 _symmetry_equiv_pos_site_id
 _symmetry_equiv_pos_as_xyz
  1  'x, y, z'
loop_
 _atom_site_type_symbol
 _atom_site_label
 _atom_site_symmetry_multiplicity
 _atom_site_fract_x
 _atom_site_fract_y
 _atom_site_fract_z
 _atom_site_occupancy
  Li  Li0  1  0.33590000  0.75000000  0.16410000  1
  Li  Li1  1  0.83590000  0.66410000  0.25000000  1
  Li  Li2  1  0.50000000  0.50000000  0.50000000  1
  Li  Li3  1  0.75000000  0.16410000  0.33590000  1
  Li  Li4  1  0.25000000  0.83590000  0.66410000  1
  Li  Li5  1  0.16410000  0.33590000  0.75000000  1
  Li  Li6  1  0.00000000  0.00000000  0.00000000  1
  Li  Li7  1  0.66410000  0.25000000  0.83590000  1
  V  V8  1  0.13926800  0.13926800  0.13926800  1
  V  V9  1  0.63926800  0.63926800  0.63926800  1
  V  V10  1  0.36073200  0.36073200  0.36073200  1
  V  V11  1  0.86073200  0.86073200  0.86073200  1
  Si  Si12  1  0.03992200  0.75000000  0.46007800  1
  Si  Si13  1  0.75000000  0.46007800  0.03992200  1
  Si  Si14  1  0.53992200  0.96007800  0.25000000  1
  Si  Si15  1  0.46007800  0.03992200  0.75000000  1
  Si  Si16  1  0.25000000  0.53992200  0.96007800  1
  Si  Si17  1  0.96007800  0.25000000  0.53992200  1
  O  O18  1  0.81030600  0.63241600  0.00936800  1
  O  O19  1  0.31030600  0.50936800  0.13241600  1
  O  O20  1  0.24303400  0.58831200  0.44077600  1
  O  O21  1  0.05922400  0.91168800  0.25696600  1
  O  O22  1  0.00936800  0.81030600  0.63241600  1
  O  O23  1  0.86758400  0.68969400  0.49063200  1
  O  O24  1  0.91168800  0.25696600  0.05922400  1
  O  O25  1  0.74303400  0.94077600  0.08831200  1
  O  O26  1  0.55922400  0.75696600  0.41168800  1
  O  O27  1  0.50936800  0.13241600  0.31030600  1
  O  O28  1  0.36758400  0.99063200  0.18969400  1
  O  O29  1  0.58831200  0.44077600  0.24303400  1
  O  O30  1  0.41168800  0.55922400  0.75696600  1
  O  O31  1  0.63241600  0.00936800  0.81030600  1
  O  O32  1  0.49063200  0.86758400  0.68969400  1
  O  O33  1  0.44077600  0.24303400  0.58831200  1
  O  O34  1  0.25696600  0.05922400  0.91168800  1
  O  O35  1  0.08831200  0.74303400  0.94077600  1
  O  O36  1  0.13241600  0.31030600  0.50936800  1
  O  O37  1  0.99063200  0.18969400  0.36758400  1
  O  O38  1  0.94077600  0.08831200  0.74303400  1
  O  O39  1  0.75696600  0.41168800  0.55922400  1
  O  O40  1  0.68969400  0.49063200  0.86758400  1
  O  O41  1  0.18969400  0.36758400  0.99063200  1
