# generated using pymatgen
data_LiCoPO4
_symmetry_space_group_name_H-M   'P 1'
_cell_length_a   10.51116483
_cell_length_b   10.51116483
_cell_length_c   12.08981000
_cell_angle_alpha   90.00000000
_cell_angle_beta   90.00000000
_cell_angle_gamma   120.00000519
_symmetry_Int_Tables_number   1
_chemical_formula_structural   LiCoPO4
_chemical_formula_sum   'Li12 Co12 P12 O48'
_cell_volume   1156.78267925
_cell_formula_units_Z   12
loop_
 _symmetry_equiv_pos_site_id
 _symmetry_equiv_pos_as_xyz
  1  'x, y, z'
loop_
 _atom_site_type_symbol
 _atom_site_label
 _atom_site_symmetry_multiplicity
 _atom_site_fract_x
 _atom_site_fract_y
 _atom_site_fract_z
 _atom_site_occupancy
  Li  Li0  1  0.00000000  0.74523800  0.83333300  1
  Li  Li1  1  0.00000000  0.25476200  0.83333300  1
  Li  Li2  1  0.25049000  0.74951000  0.16666700  1
  Li  Li3  1  0.25049000  0.50098100  0.50000000  1
  Li  Li4  1  0.49901900  0.74951000  0.83333300  1
  Li  Li5  1  0.25476200  0.25476200  0.16666700  1
  Li  Li6  1  0.25476200  0.00000000  0.50000000  1
  Li  Li7  1  0.74523800  0.74523800  0.16666700  1
  Li  Li8  1  0.50098100  0.25049000  0.83333300  1
  Li  Li9  1  0.74951000  0.49901900  0.50000000  1
  Li  Li10  1  0.74951000  0.25049000  0.16666700  1
  Li  Li11  1  0.74523800  0.00000000  0.50000000  1
  Co  Co12  1  0.00000000  0.50000000  0.00821100  1
  Co  Co13  1  0.00000000  0.50000000  0.65845500  1
  Co  Co14  1  0.00000000  0.50000000  0.33333300  1
  Co  Co15  1  0.00000000  0.00000000  0.16666700  1
  Co  Co16  1  0.00000000  0.00000000  0.50000000  1
  Co  Co17  1  0.00000000  0.00000000  0.83333300  1
  Co  Co18  1  0.50000000  0.50000000  0.34154500  1
  Co  Co19  1  0.50000000  0.50000000  0.66666700  1
  Co  Co20  1  0.50000000  0.50000000  0.99178900  1
  Co  Co21  1  0.50000000  0.00000000  0.32512200  1
  Co  Co22  1  0.50000000  0.00000000  0.00000000  1
  Co  Co23  1  0.50000000  0.00000000  0.67487800  1
  P  P24  1  0.00000000  0.75581900  0.33333300  1
  P  P25  1  0.24744300  0.75255700  0.66666700  1
  P  P26  1  0.00000000  0.24418100  0.33333300  1
  P  P27  1  0.24744300  0.49488500  0.00000000  1
  P  P28  1  0.24418100  0.24418100  0.66666700  1
  P  P29  1  0.50511500  0.75255700  0.33333300  1
  P  P30  1  0.24418100  0.00000000  0.00000000  1
  P  P31  1  0.49488500  0.24744300  0.33333300  1
  P  P32  1  0.75581900  0.75581900  0.66666700  1
  P  P33  1  0.75255700  0.50511500  0.00000000  1
  P  P34  1  0.75255700  0.24744300  0.66666700  1
  P  P35  1  0.75581900  0.00000000  0.00000000  1
  O  O36  1  0.07195500  0.87987400  0.42139700  1
  O  O37  1  0.12012600  0.92804500  0.91193600  1
  O  O38  1  0.10190200  0.69759700  0.73245900  1
  O  O39  1  0.10821900  0.71316200  0.27840700  1
  O  O40  1  0.28683800  0.89178100  0.05492700  1
  O  O41  1  0.30240300  0.89809800  0.60087400  1
  O  O42  1  0.20135200  0.61721700  0.59024800  1
  O  O43  1  0.10190200  0.40430400  0.93420800  1
  O  O44  1  0.20135200  0.58413500  0.07641900  1
  O  O45  1  0.10821900  0.39505700  0.38826000  1
  O  O46  1  0.07195500  0.19208100  0.24526900  1
  O  O47  1  0.38278300  0.79864800  0.74308500  1
  O  O48  1  0.41586500  0.79864800  0.25691500  1
  O  O49  1  0.12012600  0.19208100  0.75473100  1
  O  O50  1  0.28683800  0.39505700  0.61174000  1
  O  O51  1  0.38278300  0.58413500  0.92358100  1
  O  O52  1  0.30240300  0.40430400  0.06579200  1
  O  O53  1  0.41586500  0.61721700  0.40975200  1
  O  O54  1  0.19208100  0.12012600  0.57860300  1
  O  O55  1  0.19208100  0.07195500  0.08806400  1
  O  O56  1  0.59569600  0.89809800  0.39912600  1
  O  O57  1  0.60494300  0.89178100  0.94507300  1
  O  O58  1  0.60494300  0.71316200  0.72159300  1
  O  O59  1  0.40430400  0.30240300  0.26754100  1
  O  O60  1  0.59569600  0.69759700  0.26754100  1
  O  O61  1  0.39505700  0.28683800  0.72159300  1
  O  O62  1  0.39505700  0.10821900  0.94507300  1
  O  O63  1  0.40430400  0.10190200  0.39912600  1
  O  O64  1  0.80791900  0.92804500  0.08806400  1
  O  O65  1  0.80791900  0.87987400  0.57860300  1
  O  O66  1  0.58413500  0.38278300  0.40975200  1
  O  O67  1  0.69759700  0.59569600  0.06579200  1
  O  O68  1  0.61721700  0.41586500  0.92358100  1
  O  O69  1  0.71316200  0.60494300  0.61174000  1
  O  O70  1  0.87987400  0.80791900  0.75473100  1
  O  O71  1  0.58413500  0.20135200  0.25691500  1
  O  O72  1  0.61721700  0.20135200  0.74308500  1
  O  O73  1  0.92804500  0.80791900  0.24526900  1
  O  O74  1  0.89178100  0.60494300  0.38826000  1
  O  O75  1  0.79864800  0.41586500  0.07641900  1
  O  O76  1  0.89809800  0.59569600  0.93420800  1
  O  O77  1  0.79864800  0.38278300  0.59024800  1
  O  O78  1  0.69759700  0.10190200  0.60087400  1
  O  O79  1  0.71316200  0.10821900  0.05492700  1
  O  O80  1  0.89178100  0.28683800  0.27840700  1
  O  O81  1  0.89809800  0.30240300  0.73245900  1
  O  O82  1  0.87987400  0.07195500  0.91193600  1
  O  O83  1  0.92804500  0.12012600  0.42139700  1
