# generated using pymatgen
data_LiVOF3
_symmetry_space_group_name_H-M   'P 1'
_cell_length_a   7.52122900
_cell_length_b   8.84771300
_cell_length_c   8.86391800
_cell_angle_alpha   90.00000000
_cell_angle_beta   90.00000000
_cell_angle_gamma   90.00000000
_symmetry_Int_Tables_number   1
_chemical_formula_structural   LiVOF3
_chemical_formula_sum   'Li8 V8 O8 F24'
_cell_volume   589.85541177
_cell_formula_units_Z   8
loop_
 _symmetry_equiv_pos_site_id
 _symmetry_equiv_pos_as_xyz
  1  'x, y, z'
loop_
 _atom_site_type_symbol
 _atom_site_label
 _atom_site_symmetry_multiplicity
 _atom_site_fract_x
 _atom_site_fract_y
 _atom_site_fract_z
 _atom_site_occupancy
  Li  Li0  1  0.50012700  0.75052900  0.00053200  1
  Li  Li1  1  0.00012700  0.74947100  0.99946800  1
  Li  Li2  1  0.12563600  0.60028800  0.34971800  1
  Li  Li3  1  0.37436400  0.39971200  0.84971800  1
  Li  Li4  1  0.49987300  0.25052900  0.49946800  1
  Li  Li5  1  0.99987300  0.24947100  0.50053200  1
  Li  Li6  1  0.87436400  0.10028800  0.15028200  1
  Li  Li7  1  0.62563600  0.89971200  0.65028200  1
  V  V8  1  0.35688900  0.62637500  0.62304000  1
  V  V9  1  0.85487600  0.61850800  0.63185900  1
  V  V10  1  0.64512400  0.38149200  0.13185900  1
  V  V11  1  0.14311100  0.37362500  0.12304000  1
  V  V12  1  0.64311100  0.12637500  0.87696000  1
  V  V13  1  0.14512400  0.11850800  0.86814100  1
  V  V14  1  0.35487600  0.88149200  0.36814100  1
  V  V15  1  0.85688900  0.87362500  0.37696000  1
  O  O16  1  0.62895400  0.64030100  0.62512500  1
  O  O17  1  0.13175200  0.62638900  0.60983500  1
  O  O18  1  0.36824800  0.37361100  0.10983500  1
  O  O19  1  0.87104600  0.35969900  0.12512500  1
  O  O20  1  0.37104600  0.14030100  0.87487500  1
  O  O21  1  0.86824800  0.12638900  0.89016500  1
  O  O22  1  0.63175200  0.87361100  0.39016500  1
  O  O23  1  0.12895400  0.85969900  0.37487500  1
  F  F24  1  0.37680000  0.64742300  0.39584400  1
  F  F25  1  0.88239500  0.64707100  0.39939200  1
  F  F26  1  0.38026500  0.62329600  0.84041000  1
  F  F27  1  0.89159200  0.63534500  0.84020000  1
  F  F28  1  0.61826200  0.59086700  0.11115500  1
  F  F29  1  0.10984800  0.59057000  0.12824800  1
  F  F30  1  0.39015200  0.40943000  0.62824800  1
  F  F31  1  0.88173800  0.40913300  0.61115500  1
  F  F32  1  0.60840800  0.36465500  0.34020000  1
  F  F33  1  0.11973500  0.37670400  0.34041000  1
  F  F34  1  0.61760500  0.35292900  0.89939200  1
  F  F35  1  0.12320000  0.35257700  0.89584400  1
  F  F36  1  0.62320000  0.14742300  0.10415600  1
  F  F37  1  0.11760500  0.14707100  0.10060800  1
  F  F38  1  0.61973500  0.12329600  0.65959000  1
  F  F39  1  0.10840800  0.13534500  0.65980000  1
  F  F40  1  0.38173800  0.09086700  0.38884500  1
  F  F41  1  0.89015200  0.09057000  0.37175200  1
  F  F42  1  0.60984800  0.90943000  0.87175200  1
  F  F43  1  0.11826200  0.90913300  0.88884500  1
  F  F44  1  0.39159200  0.86465500  0.15980000  1
  F  F45  1  0.88026500  0.87670400  0.15959000  1
  F  F46  1  0.38239500  0.85292900  0.60060800  1
  F  F47  1  0.87680000  0.85257700  0.60415600  1
