# generated using pymatgen
data_Li3MnP2H2O9
_symmetry_space_group_name_H-M   'P 1'
_cell_length_a   8.05346158
_cell_length_b   8.05346158
_cell_length_c   6.82303412
_cell_angle_alpha   88.22192807
_cell_angle_beta   88.22192807
_cell_angle_gamma   51.83080804
_symmetry_Int_Tables_number   1
_chemical_formula_structural   Li3MnP2H2O9
_chemical_formula_sum   'Li6 Mn2 P4 H4 O18'
_cell_volume   347.70527697
_cell_formula_units_Z   2
loop_
 _symmetry_equiv_pos_site_id
 _symmetry_equiv_pos_as_xyz
  1  'x, y, z'
loop_
 _atom_site_type_symbol
 _atom_site_label
 _atom_site_symmetry_multiplicity
 _atom_site_fract_x
 _atom_site_fract_y
 _atom_site_fract_z
 _atom_site_occupancy
  Li  Li0  1  0.37637000  0.37637000  0.69879900  1
  Li  Li1  1  0.00000000  0.50000000  0.50000000  1
  Li  Li2  1  0.50000000  0.00000000  0.50000000  1
  Li  Li3  1  0.62363000  0.62363000  0.30120100  1
  Li  Li4  1  0.76586200  0.23413800  0.00000000  1
  Li  Li5  1  0.23413800  0.76586200  0.00000000  1
  Mn  Mn6  1  0.00000000  0.50000000  0.00000000  1
  Mn  Mn7  1  0.50000000  0.00000000  0.00000000  1
  P  P8  1  0.88068600  0.88068600  0.67794800  1
  P  P9  1  0.39317600  0.39317600  0.23579400  1
  P  P10  1  0.60682400  0.60682400  0.76420600  1
  P  P11  1  0.11931400  0.11931400  0.32205200  1
  H  H12  1  0.94999800  0.94999800  0.35451800  1
  H  H13  1  0.81304800  0.81304800  0.21611300  1
  H  H14  1  0.18695200  0.18695200  0.78388700  1
  H  H15  1  0.05000200  0.05000200  0.64548200  1
  O  O16  1  0.97557000  0.97557000  0.77652100  1
  O  O17  1  0.49794300  0.49794300  0.24164100  1
  O  O18  1  0.88749900  0.88749900  0.44489800  1
  O  O19  1  0.64406200  0.00988500  0.73075500  1
  O  O20  1  0.00988500  0.64406200  0.73075500  1
  O  O21  1  0.33803600  0.33803600  0.43160600  1
  O  O22  1  0.18613100  0.54910300  0.11102700  1
  O  O23  1  0.54910300  0.18613100  0.11102700  1
  O  O24  1  0.24046500  0.24046500  0.86932900  1
  O  O25  1  0.75953500  0.75953500  0.13067100  1
  O  O26  1  0.81386900  0.45089700  0.88897300  1
  O  O27  1  0.45089700  0.81386900  0.88897300  1
  O  O28  1  0.66196400  0.66196400  0.56839400  1
  O  O29  1  0.35593800  0.99011500  0.26924500  1
  O  O30  1  0.99011500  0.35593800  0.26924500  1
  O  O31  1  0.11250100  0.11250100  0.55510200  1
  O  O32  1  0.50205700  0.50205700  0.75835900  1
  O  O33  1  0.02443000  0.02443000  0.22347900  1
