# generated using pymatgen
data_NaLi5Mn2P2(CO7)2
_symmetry_space_group_name_H-M   'P 1'
_cell_length_a   6.67204900
_cell_length_b   8.64415400
_cell_length_c   9.99528352
_cell_angle_alpha   87.64463576
_cell_angle_beta   90.00000000
_cell_angle_gamma   90.00000000
_symmetry_Int_Tables_number   1
_chemical_formula_structural   NaLi5Mn2P2(CO7)2
_chemical_formula_sum   'Na2 Li10 Mn4 P4 C4 O28'
_cell_volume   575.98314012
_cell_formula_units_Z   2
loop_
 _symmetry_equiv_pos_site_id
 _symmetry_equiv_pos_as_xyz
  1  'x, y, z'
loop_
 _atom_site_type_symbol
 _atom_site_label
 _atom_site_symmetry_multiplicity
 _atom_site_fract_x
 _atom_site_fract_y
 _atom_site_fract_z
 _atom_site_occupancy
  Na  Na0  1  0.24897800  0.24709700  0.62784200  1
  Na  Na1  1  0.75102200  0.24709700  0.12784200  1
  Li  Li2  1  0.50696300  0.08506300  0.87242800  1
  Li  Li3  1  0.49303700  0.08506300  0.37242800  1
  Li  Li4  1  0.72267000  0.27071600  0.61578400  1
  Li  Li5  1  0.27733000  0.27071600  0.11578400  1
  Li  Li6  1  0.77689400  0.73405800  0.88542400  1
  Li  Li7  1  0.22445200  0.73617500  0.88368600  1
  Li  Li8  1  0.77554800  0.73617500  0.38368600  1
  Li  Li9  1  0.22310600  0.73405800  0.38542400  1
  Li  Li10  1  0.98842200  0.91137800  0.62844200  1
  Li  Li11  1  0.01157800  0.91137800  0.12844200  1
  Mn  Mn12  1  0.00264100  0.35481200  0.88660500  1
  Mn  Mn13  1  0.99735900  0.35481200  0.38660500  1
  Mn  Mn14  1  0.49776300  0.64995700  0.61064900  1
  Mn  Mn15  1  0.50223700  0.64995700  0.11064900  1
  P  P16  1  0.50541900  0.40992200  0.85224500  1
  P  P17  1  0.49458100  0.40992200  0.35224500  1
  P  P18  1  0.99364300  0.59514200  0.64221700  1
  P  P19  1  0.00635700  0.59514200  0.14221700  1
  C  C20  1  0.99841200  0.03846500  0.86527500  1
  C  C21  1  0.00158800  0.03846500  0.36527500  1
  C  C22  1  0.50954700  0.95809500  0.63960800  1
  C  C23  1  0.49045300  0.95809500  0.13960800  1
  O  O24  1  0.53485800  0.10089800  0.67229800  1
  O  O25  1  0.46514200  0.10089800  0.17229800  1
  O  O26  1  0.99612600  0.07893300  0.98887100  1
  O  O27  1  0.00387400  0.07893300  0.48887100  1
  O  O28  1  0.00058900  0.14389700  0.76872500  1
  O  O29  1  0.99941100  0.14389700  0.26872500  1
  O  O30  1  0.32031500  0.31024500  0.89755700  1
  O  O31  1  0.68856500  0.31498800  0.90441400  1
  O  O32  1  0.31143500  0.31498800  0.40441400  1
  O  O33  1  0.67968500  0.31024500  0.39755700  1
  O  O34  1  0.51393000  0.42316700  0.69595800  1
  O  O35  1  0.97853600  0.42686100  0.59380600  1
  O  O36  1  0.48607000  0.42316700  0.19595800  1
  O  O37  1  0.02146400  0.42686100  0.09380600  1
  O  O38  1  0.49756700  0.57731400  0.90338700  1
  O  O39  1  0.99893700  0.58447100  0.79916800  1
  O  O40  1  0.50243300  0.57731400  0.40338700  1
  O  O41  1  0.00106300  0.58447100  0.29916800  1
  O  O42  1  0.81525800  0.69843800  0.59266100  1
  O  O43  1  0.18115500  0.68340500  0.58786100  1
  O  O44  1  0.81884500  0.68340500  0.08786100  1
  O  O45  1  0.18474200  0.69843800  0.09266100  1
  O  O46  1  0.49396900  0.85165300  0.73515000  1
  O  O47  1  0.50603100  0.85165300  0.23515000  1
  O  O48  1  0.49890900  0.92131300  0.51527500  1
  O  O49  1  0.50109100  0.92131300  0.01527500  1
  O  O50  1  0.99863500  0.89353400  0.83466300  1
  O  O51  1  0.00136500  0.89353400  0.33466300  1
