# generated using pymatgen
data_Li6V3P8O29
_symmetry_space_group_name_H-M   'P 1'
_cell_length_a   9.80799800
_cell_length_b   9.82674436
_cell_length_c   13.88212152
_cell_angle_alpha   89.63486440
_cell_angle_beta   89.60572349
_cell_angle_gamma   60.31259620
_symmetry_Int_Tables_number   1
_chemical_formula_structural   Li6V3P8O29
_chemical_formula_sum   'Li12 V6 P16 O58'
_cell_volume   1162.31297006
_cell_formula_units_Z   2
loop_
 _symmetry_equiv_pos_site_id
 _symmetry_equiv_pos_as_xyz
  1  'x, y, z'
loop_
 _atom_site_type_symbol
 _atom_site_label
 _atom_site_symmetry_multiplicity
 _atom_site_fract_x
 _atom_site_fract_y
 _atom_site_fract_z
 _atom_site_occupancy
  Li  Li0  1  0.68477100  0.09100700  0.44353300  1
  Li  Li1  1  0.22776500  0.68245700  0.44053800  1
  Li  Li2  1  0.33877200  0.33256500  0.61981500  1
  Li  Li3  1  0.33766000  0.33367300  0.11478900  1
  Li  Li4  1  0.08936600  0.68294400  0.93681300  1
  Li  Li5  1  0.22574300  0.09298900  0.93588900  1
  Li  Li6  1  0.90104500  0.77344100  0.56313700  1
  Li  Li7  1  0.08486900  0.22622400  0.44038800  1
  Li  Li8  1  0.77311400  0.90942900  0.05882400  1
  Li  Li9  1  0.90187400  0.32217200  0.05606700  1
  Li  Li10  1  0.32413700  0.90450800  0.56305700  1
  Li  Li11  1  0.32066200  0.77355300  0.05742400  1
  V  V12  1  0.99782400  0.56768000  0.75190800  1
  V  V13  1  0.99668900  0.43140600  0.25173600  1
  V  V14  1  0.57086900  0.99965200  0.25192600  1
  V  V15  1  0.43328400  0.99773300  0.75206500  1
  V  V16  1  0.57310900  0.43065700  0.74909200  1
  V  V17  1  0.43864700  0.56502700  0.24933700  1
  P  P18  1  0.68435400  0.23041500  0.15715800  1
  P  P19  1  0.68124200  0.09059700  0.65813000  1
  P  P20  1  0.23151400  0.67869100  0.65811000  1
  P  P21  1  0.33284500  0.33525600  0.87286800  1
  P  P22  1  0.33309300  0.33334200  0.37411300  1
  P  P23  1  0.09053600  0.67909400  0.15657100  1
  P  P24  1  0.91399700  0.76630800  0.34203800  1
  P  P25  1  0.23134300  0.09077900  0.15755600  1
  P  P26  1  0.76814500  0.91364900  0.84286400  1
  P  P27  1  0.09183000  0.23028900  0.65677900  1
  P  P28  1  0.91279900  0.31528100  0.84109200  1
  P  P29  1  0.66400800  0.66970900  0.62581600  1
  P  P30  1  0.66941700  0.66666700  0.12591200  1
  P  P31  1  0.76683300  0.31571300  0.34485200  1
  P  P32  1  0.31828100  0.91275500  0.34242900  1
  P  P33  1  0.32133800  0.76429600  0.84257300  1
  O  O34  1  0.76037900  0.23101800  0.43198200  1
  O  O35  1  0.66407100  0.25313800  0.65921000  1
  O  O36  1  0.75858700  0.99499500  0.93437800  1
  O  O37  1  0.66362500  0.08185600  0.16045800  1
  O  O38  1  0.51642500  0.37364000  0.17332400  1
  O  O39  1  0.47734100  0.33691500  0.82680400  1
  O  O40  1  0.37426500  0.51379800  0.67121900  1
  O  O41  1  0.23822800  0.75752200  0.93257300  1
  O  O42  1  0.25363400  0.66608400  0.15599600  1
  O  O43  1  0.48716400  0.18605900  0.33622800  1
  O  O44  1  0.51530500  0.11001300  0.67436900  1
  O  O45  1  0.32947200  0.48579600  0.33311400  1
  O  O46  1  0.33032100  0.33684000  0.98114900  1
  O  O47  1  0.33104900  0.33555800  0.48251900  1
  O  O48  1  0.18222800  0.48895400  0.83607900  1
  O  O49  1  0.37464000  0.11326700  0.17365200  1
  O  O50  1  0.32736500  0.18652300  0.83636500  1
  O  O51  1  0.08019200  0.66469400  0.65877900  1
  O  O52  1  0.00191900  0.78775200  0.24948700  1
  O  O53  1  0.00239800  0.75362500  0.43259500  1
  O  O54  1  0.99765800  0.75744800  0.06761300  1
  O  O55  1  0.11188500  0.51397500  0.17460600  1
  O  O56  1  0.18607700  0.32679400  0.33508600  1
  O  O57  1  0.91478300  0.74729000  0.83938200  1
  O  O58  1  0.11439300  0.37382600  0.67452800  1
  O  O59  1  0.25877700  0.08106300  0.66112400  1
  O  O60  1  0.79024800  0.99893500  0.74981700  1
  O  O61  1  0.75847700  0.99624500  0.56920200  1
  O  O62  1  0.24360500  0.00198200  0.43306000  1
  O  O63  1  0.74999800  0.91474800  0.34213800  1
  O  O64  1  0.90339600  0.61697500  0.32290300  1
  O  O65  1  0.08137800  0.25543300  0.15836700  1
  O  O66  1  0.81275200  0.67129200  0.66619100  1
  O  O67  1  0.90642000  0.47518300  0.82176400  1
  O  O68  1  0.00399000  0.24270500  0.93148100  1
  O  O69  1  0.00941300  0.23620200  0.56649800  1
  O  O70  1  0.00502800  0.20785000  0.74956100  1
  O  O71  1  0.91583800  0.33377300  0.34084300  1
  O  O72  1  0.67301900  0.81296600  0.16733600  1
  O  O73  1  0.61681000  0.90487300  0.82238500  1
  O  O74  1  0.81332400  0.51358900  0.16714300  1
  O  O75  1  0.66493100  0.66715200  0.01860200  1
  O  O76  1  0.66160000  0.67122400  0.51860700  1
  O  O77  1  0.66076400  0.52353200  0.67290700  1
  O  O78  1  0.47697800  0.90609500  0.32119400  1
  O  O79  1  0.51142800  0.81629100  0.66677700  1
  O  O80  1  0.74907200  0.33670600  0.83944700  1
  O  O81  1  0.78864100  0.20984800  0.25034900  1
  O  O82  1  0.76708500  0.23838100  0.06935500  1
  O  O83  1  0.61918000  0.47642000  0.32690600  1
  O  O84  1  0.51495200  0.66878000  0.16851900  1
  O  O85  1  0.47972700  0.61839400  0.82731300  1
  O  O86  1  0.33240400  0.91628600  0.84157600  1
  O  O87  1  0.24262100  0.00057100  0.06808600  1
  O  O88  1  0.20988900  0.00221800  0.25002400  1
  O  O89  1  0.33537600  0.74927200  0.34203000  1
  O  O90  1  0.24095700  0.76011500  0.56820100  1
  O  O91  1  0.21161400  0.78570200  0.74992000  1
