# generated using pymatgen
data_LiVCO4
_symmetry_space_group_name_H-M   'P 1'
_cell_length_a   3.18529243
_cell_length_b   9.42964291
_cell_length_c   9.36382990
_cell_angle_alpha   90.04973581
_cell_angle_beta   90.00158004
_cell_angle_gamma   88.50205553
_symmetry_Int_Tables_number   1
_chemical_formula_structural   LiVCO4
_chemical_formula_sum   'Li4 V4 C4 O16'
_cell_volume   281.15736801
_cell_formula_units_Z   4
loop_
 _symmetry_equiv_pos_site_id
 _symmetry_equiv_pos_as_xyz
  1  'x, y, z'
loop_
 _atom_site_type_symbol
 _atom_site_label
 _atom_site_symmetry_multiplicity
 _atom_site_fract_x
 _atom_site_fract_y
 _atom_site_fract_z
 _atom_site_occupancy
  Li  Li0  1  0.25263000  0.40862400  0.80806300  1
  Li  Li1  1  0.25279600  0.90839100  0.69192400  1
  Li  Li2  1  0.74719400  0.09159500  0.30806100  1
  Li  Li3  1  0.74736600  0.59135000  0.19196100  1
  V  V4  1  0.23984800  0.88131100  0.06157600  1
  V  V5  1  0.76013600  0.11867000  0.93842500  1
  V  V6  1  0.24025900  0.38102600  0.43873400  1
  V  V7  1  0.75980300  0.61896900  0.56129300  1
  C  C8  1  0.25576800  0.33401100  0.13013300  1
  C  C9  1  0.25600400  0.83401100  0.36978600  1
  C  C10  1  0.74398100  0.16599900  0.63022500  1
  C  C11  1  0.74423300  0.66601500  0.86984700  1
  O  O12  1  0.25139900  0.99845400  0.88735000  1
  O  O13  1  0.25151200  0.49883100  0.61268100  1
  O  O14  1  0.74854100  0.50116100  0.38731900  1
  O  O15  1  0.74861600  0.00152700  0.11265600  1
  O  O16  1  0.24006600  0.26065100  0.24880400  1
  O  O17  1  0.24093400  0.76045700  0.25117600  1
  O  O18  1  0.75909200  0.23954700  0.74883000  1
  O  O19  1  0.75994200  0.73938900  0.75118800  1
  O  O20  1  0.26532700  0.26006200  0.00708700  1
  O  O21  1  0.26533900  0.76028600  0.49285500  1
  O  O22  1  0.73467100  0.23971200  0.50714600  1
  O  O23  1  0.73469500  0.73993800  0.99291300  1
  O  O24  1  0.25690000  0.46682400  0.12768400  1
  O  O25  1  0.25685400  0.96683100  0.37212900  1
  O  O26  1  0.74306300  0.03317100  0.62788400  1
  O  O27  1  0.74304700  0.53319500  0.87227200  1
