# generated using pymatgen
data_LiMn3(BO3)3
_symmetry_space_group_name_H-M   'P 1'
_cell_length_a   5.97426400
_cell_length_b   7.82076782
_cell_length_c   9.10451522
_cell_angle_alpha   110.44733846
_cell_angle_beta   107.88415536
_cell_angle_gamma   97.97889739
_symmetry_Int_Tables_number   1
_chemical_formula_structural   LiMn3(BO3)3
_chemical_formula_sum   'Li2 Mn6 B6 O18'
_cell_volume   364.59945129
_cell_formula_units_Z   2
loop_
 _symmetry_equiv_pos_site_id
 _symmetry_equiv_pos_as_xyz
  1  'x, y, z'
loop_
 _atom_site_type_symbol
 _atom_site_label
 _atom_site_symmetry_multiplicity
 _atom_site_fract_x
 _atom_site_fract_y
 _atom_site_fract_z
 _atom_site_occupancy
  Li  Li0  1  0.77945200  0.45506500  0.61461500  1
  Li  Li1  1  0.22054800  0.54493500  0.38538500  1
  Mn  Mn2  1  0.36182400  0.10482200  0.25273100  1
  Mn  Mn3  1  0.94297200  0.18471500  0.39642100  1
  Mn  Mn4  1  0.29936000  0.55412100  0.06453700  1
  Mn  Mn5  1  0.70064000  0.44587900  0.93546300  1
  Mn  Mn6  1  0.05702800  0.81528500  0.60357900  1
  Mn  Mn7  1  0.63817600  0.89517800  0.74726900  1
  B  B8  1  0.05064200  0.79875800  0.93261900  1
  B  B9  1  0.28696400  0.53181600  0.72233800  1
  B  B10  1  0.58541000  0.85884100  0.39306000  1
  B  B11  1  0.41459000  0.14115900  0.60694000  1
  B  B12  1  0.71303600  0.46818400  0.27766200  1
  B  B13  1  0.94935800  0.20124200  0.06738100  1
  O  O14  1  0.22957900  0.96363800  0.01026900  1
  O  O15  1  0.88038300  0.74544600  0.76545600  1
  O  O16  1  0.33945800  0.65438800  0.64996900  1
  O  O17  1  0.61343700  0.97561600  0.30952600  1
  O  O18  1  0.08424000  0.38446500  0.64524500  1
  O  O19  1  0.40989200  0.68673800  0.31083700  1
  O  O20  1  0.44326100  0.57696800  0.89463200  1
  O  O21  1  0.74023800  0.91861700  0.56034200  1
  O  O22  1  0.96971700  0.33542900  0.00045500  1
  O  O23  1  0.03028300  0.66457100  0.99954500  1
  O  O24  1  0.25976200  0.08138300  0.43965800  1
  O  O25  1  0.55673900  0.42303200  0.10536800  1
  O  O26  1  0.59010800  0.31326200  0.68916300  1
  O  O27  1  0.91576000  0.61553500  0.35475500  1
  O  O28  1  0.38656300  0.02438400  0.69047400  1
  O  O29  1  0.66054200  0.34561200  0.35003100  1
  O  O30  1  0.11961700  0.25455400  0.23454400  1
  O  O31  1  0.77042100  0.03636200  0.98973100  1
