# generated using pymatgen
data_Li4MnV3(P2O7)4
_symmetry_space_group_name_H-M   'P 1'
_cell_length_a   9.60425136
_cell_length_b   9.64822971
_cell_length_c   7.05813783
_cell_angle_alpha   99.93165645
_cell_angle_beta   98.82487270
_cell_angle_gamma   119.12948340
_symmetry_Int_Tables_number   1
_chemical_formula_structural   Li4MnV3(P2O7)4
_chemical_formula_sum   'Li4 Mn1 V3 P8 O28'
_cell_volume   540.91405475
_cell_formula_units_Z   1
loop_
 _symmetry_equiv_pos_site_id
 _symmetry_equiv_pos_as_xyz
  1  'x, y, z'
loop_
 _atom_site_type_symbol
 _atom_site_label
 _atom_site_symmetry_multiplicity
 _atom_site_fract_x
 _atom_site_fract_y
 _atom_site_fract_z
 _atom_site_occupancy
  Li  Li0  1  0.15892979  0.01960451  0.67504532  1
  Li  Li1  1  0.73063399  0.09023755  0.32679956  1
  Li  Li2  1  0.23284992  0.59275193  0.32802565  1
  Li  Li3  1  0.65567983  0.51661003  0.67141689  1
  Mn  Mn4  1  0.39319328  0.39175740  0.26711351  1
  V  V5  1  0.85664096  0.35611913  0.72698893  1
  V  V6  1  0.35794450  0.85716539  0.72770147  1
  V  V7  1  0.89345475  0.89305171  0.27247117  1
  P  P8  1  0.11138754  0.29058147  0.52230936  1
  P  P9  1  0.75125515  0.03539617  0.91443919  1
  P  P10  1  0.24928391  0.53768695  0.91221635  1
  P  P11  1  0.46017776  0.14139162  0.48214659  1
  P  P12  1  0.61081059  0.78899765  0.52227162  1
  P  P13  1  0.71479792  0.49904767  0.08738107  1
  P  P14  1  0.21677567  0.00017561  0.08868860  1
  P  P15  1  0.95964353  0.64062809  0.47753927  1
  O  O16  1  0.07511360  0.11308486  0.48355069  1
  O  O17  1  0.35831190  0.03365723  0.60446214  1
  O  O18  1  0.58309975  0.01591766  0.91627962  1
  O  O19  1  0.08022524  0.51763690  0.90966432  1
  O  O20  1  0.22095826  0.37563376  0.75310394  1
  O  O21  1  0.37686191  0.03237046  0.24922609  1
  O  O22  1  0.23445674  0.16720520  0.08564345  1
  O  O23  1  0.21246560  0.38832467  0.39152923  1
  O  O24  1  0.45536671  0.29820417  0.50477671  1
  O  O25  1  0.13685221  0.67600499  0.51510502  1
  O  O26  1  0.63680786  0.17411051  0.51782447  1
  O  O27  1  0.86174492  0.18734910  0.85246981  1
  O  O28  1  0.35954427  0.68582964  0.84373296  1
  O  O29  1  0.21960558  0.91459080  0.88803071  1
  O  O30  1  0.72141230  0.41768364  0.88726475  1
  O  O31  1  0.33196301  0.53866295  0.11383521  1
  O  O32  1  0.83375289  0.03074764  0.11353783  1
  O  O33  1  0.06399359  0.88896737  0.15027309  1
  O  O34  1  0.55914544  0.38321889  0.14287072  1
  O  O35  1  0.57544285  0.61146557  0.47968563  1
  O  O36  1  0.45367049  0.79512259  0.50724244  1
  O  O37  1  0.95273815  0.29465885  0.50631669  1
  O  O38  1  0.85903365  0.53688706  0.60373356  1
  O  O39  1  0.72252373  0.87444850  0.75212891  1
  O  O40  1  0.87451592  0.52827658  0.24709576  1
  O  O41  1  0.73250173  0.66612037  0.08851910  1
  O  O42  1  0.71429368  0.89015158  0.39604416  1
  O  O43  1  0.95455995  0.79805060  0.49349645  1
