# generated using pymatgen
data_Li4Ti3O8
_symmetry_space_group_name_H-M   'P 1'
_cell_length_a   5.90504791
_cell_length_b   5.90504791
_cell_length_c   6.00757999
_cell_angle_alpha   59.60171710
_cell_angle_beta   59.60171710
_cell_angle_gamma   60.60638802
_symmetry_Int_Tables_number   1
_chemical_formula_structural   Li4Ti3O8
_chemical_formula_sum   'Li4 Ti3 O8'
_cell_volume   147.88247453
_cell_formula_units_Z   1
loop_
 _symmetry_equiv_pos_site_id
 _symmetry_equiv_pos_as_xyz
  1  'x, y, z'
loop_
 _atom_site_type_symbol
 _atom_site_label
 _atom_site_symmetry_multiplicity
 _atom_site_fract_x
 _atom_site_fract_y
 _atom_site_fract_z
 _atom_site_occupancy
  Li  Li0  1  0.50000000  0.50000000  0.50000000  1
  Li  Li1  1  0.00000000  0.50000000  0.00000000  1
  Li  Li2  1  0.50000000  0.00000000  0.00000000  1
  Li  Li3  1  0.00000000  0.00000000  0.00000000  1
  Ti  Ti4  1  0.00000000  0.50000000  0.50000000  1
  Ti  Ti5  1  0.50000000  0.00000000  0.50000000  1
  Ti  Ti6  1  0.00000000  0.00000000  0.50000000  1
  O  O7  1  0.24270900  0.24270900  0.27394900  1
  O  O8  1  0.25010500  0.25010500  0.71940800  1
  O  O9  1  0.24533200  0.78357900  0.71475500  1
  O  O10  1  0.21642100  0.75466800  0.28524500  1
  O  O11  1  0.75466800  0.21642100  0.28524500  1
  O  O12  1  0.78357900  0.24533200  0.71475500  1
  O  O13  1  0.74989500  0.74989500  0.28059200  1
  O  O14  1  0.75729100  0.75729100  0.72605100  1
