# generated using pymatgen
data_Li3MnV(PO4)3
_symmetry_space_group_name_H-M   'P 1'
_cell_length_a   9.84767900
_cell_length_b   9.86079184
_cell_length_c   9.90138780
_cell_angle_alpha   85.79115477
_cell_angle_beta   87.77395564
_cell_angle_gamma   88.03088762
_symmetry_Int_Tables_number   1
_chemical_formula_structural   Li3MnV(PO4)3
_chemical_formula_sum   'Li12 Mn4 V4 P12 O48'
_cell_volume   957.68762643
_cell_formula_units_Z   4
loop_
 _symmetry_equiv_pos_site_id
 _symmetry_equiv_pos_as_xyz
  1  'x, y, z'
loop_
 _atom_site_type_symbol
 _atom_site_label
 _atom_site_symmetry_multiplicity
 _atom_site_fract_x
 _atom_site_fract_y
 _atom_site_fract_z
 _atom_site_occupancy
  Li  Li0  1  0.02265900  0.94872900  0.00095900  1
  Li  Li1  1  0.86375200  0.25788700  0.94065700  1
  Li  Li2  1  0.26547000  0.91446900  0.86989100  1
  Li  Li3  1  0.35854000  0.44108900  0.76646300  1
  Li  Li4  1  0.05863300  0.14150000  0.72747700  1
  Li  Li5  1  0.57753100  0.23349000  0.63124500  1
  Li  Li6  1  0.23115100  0.64362200  0.55838800  1
  Li  Li7  1  0.54770800  0.48459200  0.49915400  1
  Li  Li8  1  0.44544000  0.76784200  0.35257400  1
  Li  Li9  1  0.64358800  0.54104900  0.23586900  1
  Li  Li10  1  0.95958800  0.84332600  0.27661000  1
  Li  Li11  1  0.73360100  0.05791800  0.14817400  1
  Mn  Mn12  1  0.52411300  0.74642100  0.97437000  1
  Mn  Mn13  1  0.02748800  0.47423000  0.26121500  1
  Mn  Mn14  1  0.24804600  0.25932500  0.24265100  1
  Mn  Mn15  1  0.46964700  0.23914600  0.02639600  1
  V  V16  1  0.74717800  0.74898000  0.75403400  1
  V  V17  1  0.96361800  0.53435700  0.75242700  1
  V  V18  1  0.75358800  0.97317200  0.53600000  1
  V  V19  1  0.25109500  0.04168900  0.46234600  1
  P  P20  1  0.14652600  0.32417000  0.94625700  1
  P  P21  1  0.66469400  0.04420500  0.85449800  1
  P  P22  1  0.64444200  0.44868100  0.82593500  1
  P  P23  1  0.05044900  0.85392700  0.67286500  1
  P  P24  1  0.44959500  0.83376200  0.63960700  1
  P  P25  1  0.16241000  0.35725000  0.55205900  1
  P  P26  1  0.82153500  0.66063600  0.45362900  1
  P  P27  1  0.54975700  0.18436100  0.35258500  1
  P  P28  1  0.95186100  0.15032800  0.32558900  1
  P  P29  1  0.34772900  0.55162800  0.17367600  1
  P  P30  1  0.32874500  0.95086400  0.14801100  1
  P  P31  1  0.85267300  0.67299900  0.05266400  1
  O  O32  1  0.59274200  0.37922200  0.96408000  1
  O  O33  1  0.77170800  0.09037700  0.94750700  1
  O  O34  1  0.87971700  0.66985500  0.89127000  1
  O  O35  1  0.66173300  0.88217700  0.88206500  1
  O  O36  1  0.29992600  0.30511100  0.90668000  1
  O  O37  1  0.52131900  0.10480100  0.88547000  1
  O  O38  1  0.05723800  0.21203600  0.90234800  1
  O  O39  1  0.09942100  0.46458600  0.88242400  1
  O  O40  1  0.61760200  0.60702900  0.82985700  1
  O  O41  1  0.79869400  0.41146300  0.81515200  1
  O  O42  1  0.40911200  0.80652500  0.79171900  1
  O  O43  1  0.09418300  0.93801100  0.78870600  1
  O  O44  1  0.88975200  0.87877400  0.67286000  1
  O  O45  1  0.56059400  0.40638900  0.70887000  1
  O  O46  1  0.69805500  0.08409700  0.70121800  1
  O  O47  1  0.08632800  0.69886400  0.69100400  1
  O  O48  1  0.61153500  0.83577400  0.62256700  1
  O  O49  1  0.82654200  0.62520400  0.61448400  1
  O  O50  1  0.39236900  0.97590300  0.59062600  1
  O  O51  1  0.02581000  0.39425300  0.62356300  1
  O  O52  1  0.27671300  0.44488700  0.59515800  1
  O  O53  1  0.40558600  0.72412100  0.54993900  1
  O  O54  1  0.18985800  0.20092300  0.58342500  1
  O  O55  1  0.11451200  0.90445300  0.53579800  1
  O  O56  1  0.89564400  0.10212100  0.46779600  1
  O  O57  1  0.80723100  0.81853000  0.42004800  1
  O  O58  1  0.70048500  0.58742100  0.40786500  1
  O  O59  1  0.58585600  0.29933800  0.43723300  1
  O  O60  1  0.96065000  0.62224900  0.38747400  1
  O  O61  1  0.61286600  0.04620300  0.40577400  1
  O  O62  1  0.15284300  0.38567900  0.39370000  1
  O  O63  1  0.38611300  0.17695300  0.36939000  1
  O  O64  1  0.30429900  0.91859900  0.30426000  1
  O  O65  1  0.91569800  0.30162900  0.29245300  1
  O  O66  1  0.44515800  0.59312800  0.27943800  1
  O  O67  1  0.11612900  0.13027100  0.32833500  1
  O  O68  1  0.91124800  0.05514300  0.21940300  1
  O  O69  1  0.19726100  0.58636100  0.20367100  1
  O  O70  1  0.59037100  0.20106500  0.19886400  1
  O  O71  1  0.37358600  0.39109300  0.16644300  1
  O  O72  1  0.91110300  0.53537200  0.11733800  1
  O  O73  1  0.91938400  0.79831500  0.09567500  1
  O  O74  1  0.46657400  0.87820500  0.11312000  1
  O  O75  1  0.69760600  0.67087200  0.08531400  1
  O  O76  1  0.34424100  0.11020000  0.11852300  1
  O  O77  1  0.21327000  0.91181200  0.06220900  1
  O  O78  1  0.12519100  0.32711100  0.10499500  1
  O  O79  1  0.39004100  0.61510800  0.02961300  1
