# generated using pymatgen
data_Li2Fe3P5O18
_symmetry_space_group_name_H-M   'P 1'
_cell_length_a   13.07149486
_cell_length_b   13.07149486
_cell_length_c   12.56987822
_cell_angle_alpha   88.26906917
_cell_angle_beta   88.26906917
_cell_angle_gamma   21.79129468
_symmetry_Int_Tables_number   1
_chemical_formula_structural   Li2Fe3P5O18
_chemical_formula_sum   'Li4 Fe6 P10 O36'
_cell_volume   796.92104560
_cell_formula_units_Z   2
loop_
 _symmetry_equiv_pos_site_id
 _symmetry_equiv_pos_as_xyz
  1  'x, y, z'
loop_
 _atom_site_type_symbol
 _atom_site_label
 _atom_site_symmetry_multiplicity
 _atom_site_fract_x
 _atom_site_fract_y
 _atom_site_fract_z
 _atom_site_occupancy
  Li  Li0  1  0.48676800  0.18320000  0.86388100  1
  Li  Li1  1  0.18320000  0.48676800  0.36388100  1
  Li  Li2  1  0.81680000  0.51323200  0.63611900  1
  Li  Li3  1  0.51323200  0.81680000  0.13611900  1
  Fe  Fe4  1  0.87857900  0.72390500  0.62063600  1
  Fe  Fe5  1  0.72390500  0.87857900  0.12063600  1
  Fe  Fe6  1  0.27609500  0.12142100  0.87936400  1
  Fe  Fe7  1  0.12142100  0.27609500  0.37936400  1
  Fe  Fe8  1  0.50000000  0.50000000  0.50000000  1
  Fe  Fe9  1  0.50000000  0.50000000  0.00000000  1
  P  P10  1  0.93298400  0.92959600  0.59220300  1
  P  P11  1  0.92959600  0.93298400  0.09220300  1
  P  P12  1  0.84757500  0.70020400  0.87163500  1
  P  P13  1  0.70020400  0.84757500  0.37163500  1
  P  P14  1  0.29979600  0.15242500  0.62836500  1
  P  P15  1  0.15242500  0.29979600  0.12836500  1
  P  P16  1  0.07040400  0.06701600  0.90779700  1
  P  P17  1  0.06701600  0.07040400  0.40779700  1
  P  P18  1  0.26960200  0.73039800  0.75000000  1
  P  P19  1  0.73039800  0.26960200  0.25000000  1
  O  O20  1  0.39748900  0.55248100  0.84280000  1
  O  O21  1  0.77201200  0.13724400  0.00568100  1
  O  O22  1  0.55248100  0.39748900  0.34280000  1
  O  O23  1  0.01726700  0.89824300  0.70562300  1
  O  O24  1  0.13724400  0.77201200  0.50568100  1
  O  O25  1  0.89824300  0.01726700  0.20562300  1
  O  O26  1  0.63933300  0.23467200  0.56844100  1
  O  O27  1  0.23467100  0.63933300  0.06844100  1
  O  O28  1  0.95746500  0.79121800  0.61612400  1
  O  O29  1  0.79121800  0.95746500  0.11612400  1
  O  O30  1  0.76115800  0.85012400  0.96337900  1
  O  O31  1  0.77457900  0.83595500  0.77240300  1
  O  O32  1  0.85012400  0.76115800  0.46337900  1
  O  O33  1  0.83595500  0.77457900  0.27240300  1
  O  O34  1  0.23855900  0.32454400  0.62825500  1
  O  O35  1  0.15809900  0.38396000  0.87644000  1
  O  O36  1  0.32454400  0.23855900  0.12825500  1
  O  O37  1  0.38396000  0.15809900  0.37644000  1
  O  O38  1  0.61604000  0.84190100  0.62356000  1
  O  O39  1  0.67545600  0.76144100  0.87174500  1
  O  O40  1  0.84190100  0.61604000  0.12356000  1
  O  O41  1  0.76144100  0.67545600  0.37174500  1
  O  O42  1  0.16404500  0.22542100  0.72759700  1
  O  O43  1  0.14987600  0.23884200  0.53662100  1
  O  O44  1  0.22542100  0.16404500  0.22759700  1
  O  O45  1  0.23884200  0.14987600  0.03662100  1
  O  O46  1  0.20878200  0.04253500  0.88387600  1
  O  O47  1  0.04253500  0.20878200  0.38387600  1
  O  O48  1  0.76532900  0.36066700  0.93155900  1
  O  O49  1  0.36066700  0.76532900  0.43155900  1
  O  O50  1  0.10175700  0.98273300  0.79437700  1
  O  O51  1  0.86275600  0.22798800  0.49431900  1
  O  O52  1  0.98273300  0.10175700  0.29437700  1
  O  O53  1  0.44751900  0.60251100  0.65720000  1
  O  O54  1  0.22798800  0.86275600  0.99431900  1
  O  O55  1  0.60251100  0.44751900  0.15720000  1
