# generated using pymatgen
data_Li2Mn4O5F3
_symmetry_space_group_name_H-M   'P 1'
_cell_length_a   6.17640939
_cell_length_b   6.17640939
_cell_length_c   11.00616880
_cell_angle_alpha   72.84030291
_cell_angle_beta   72.84030291
_cell_angle_gamma   56.48662540
_symmetry_Int_Tables_number   1
_chemical_formula_structural   Li2Mn4O5F3
_chemical_formula_sum   'Li4 Mn8 O10 F6'
_cell_volume   329.84833114
_cell_formula_units_Z   2
loop_
 _symmetry_equiv_pos_site_id
 _symmetry_equiv_pos_as_xyz
  1  'x, y, z'
loop_
 _atom_site_type_symbol
 _atom_site_label
 _atom_site_symmetry_multiplicity
 _atom_site_fract_x
 _atom_site_fract_y
 _atom_site_fract_z
 _atom_site_occupancy
  Li  Li0  1  0.79177700  0.29154400  0.55192600  1
  Li  Li1  1  0.68460400  0.22742400  0.93988800  1
  Li  Li2  1  0.29154400  0.79177700  0.05192600  1
  Li  Li3  1  0.22742400  0.68460400  0.43988800  1
  Mn  Mn4  1  0.01327900  0.49871800  0.99840000  1
  Mn  Mn5  1  0.75169800  0.74860700  0.75126900  1
  Mn  Mn6  1  0.25375300  0.74062000  0.75355900  1
  Mn  Mn7  1  0.74062000  0.25375300  0.25355900  1
  Mn  Mn8  1  0.49871800  0.01327900  0.49840000  1
  Mn  Mn9  1  0.25758000  0.25279300  0.75823000  1
  Mn  Mn10  1  0.74860700  0.75169800  0.25126900  1
  Mn  Mn11  1  0.25279300  0.25758000  0.25823000  1
  O  O12  1  0.87727500  0.38118600  0.34144800  1
  O  O13  1  0.38118600  0.87727500  0.84144800  1
  O  O14  1  0.59210100  0.09358400  0.64153200  1
  O  O15  1  0.90483000  0.40505700  0.86137100  1
  O  O16  1  0.41869700  0.35844400  0.36873600  1
  O  O17  1  0.35844400  0.41869700  0.86873600  1
  O  O18  1  0.09358400  0.59210100  0.14153200  1
  O  O19  1  0.40505700  0.90483000  0.36137100  1
  O  O20  1  0.62276400  0.11936100  0.15996700  1
  O  O21  1  0.11936100  0.62276400  0.65996700  1
  F  F22  1  0.85697900  0.89795000  0.88017400  1
  F  F23  1  0.89795000  0.85697900  0.38017400  1
  F  F24  1  0.63007800  0.62003500  0.61385000  1
  F  F25  1  0.62003500  0.63007800  0.11385000  1
  F  F26  1  0.11861900  0.09064400  0.62964900  1
  F  F27  1  0.09064400  0.11861900  0.12964900  1
