# generated using pymatgen
data_Li6NiOF6
_symmetry_space_group_name_H-M   'P 1'
_cell_length_a   2.90337549
_cell_length_b   14.59594513
_cell_length_c   5.80674109
_cell_angle_alpha   95.70700386
_cell_angle_beta   90.00012559
_cell_angle_gamma   84.29285349
_symmetry_Int_Tables_number   1
_chemical_formula_structural   Li6NiOF6
_chemical_formula_sum   'Li12 Ni2 O2 F12'
_cell_volume   243.62968091
_cell_formula_units_Z   2
loop_
 _symmetry_equiv_pos_site_id
 _symmetry_equiv_pos_as_xyz
  1  'x, y, z'
loop_
 _atom_site_type_symbol
 _atom_site_label
 _atom_site_symmetry_multiplicity
 _atom_site_fract_x
 _atom_site_fract_y
 _atom_site_fract_z
 _atom_site_occupancy
  Li  Li0  1  0.42732600  0.14534200  0.28633700  1
  Li  Li1  1  0.42732700  0.14534200  0.78633800  1
  Li  Li2  1  0.57267100  0.85465700  0.71366500  1
  Li  Li3  1  0.57267200  0.85465700  0.21366400  1
  Li  Li4  1  0.85520500  0.28956900  0.57239600  1
  Li  Li5  1  0.85520500  0.28957000  0.07239700  1
  Li  Li6  1  0.14479300  0.71042900  0.42760500  1
  Li  Li7  1  0.14479200  0.71042900  0.92760400  1
  Li  Li8  1  0.28534000  0.42931900  0.35733000  1
  Li  Li9  1  0.28534200  0.42931900  0.85732800  1
  Li  Li10  1  0.71465600  0.57068000  0.64267200  1
  Li  Li11  1  0.71465700  0.57068000  0.14267300  1
  Ni  Ni12  1  0.00002100  0.00000300  0.49998900  1
  Ni  Ni13  1  0.00000300  0.00001000  0.99999000  1
  O  O14  1  0.49999000  0.00000100  0.24999900  1
  O  O15  1  0.50000700  0.99999900  0.75000300  1
  F  F16  1  0.92511200  0.14977500  0.53744500  1
  F  F17  1  0.92510300  0.14977500  0.03744000  1
  F  F18  1  0.07488600  0.85022400  0.46255700  1
  F  F19  1  0.07489800  0.85022400  0.96256100  1
  F  F20  1  0.35564000  0.28874300  0.32218000  1
  F  F21  1  0.35564000  0.28874300  0.82218000  1
  F  F22  1  0.64435700  0.71125600  0.67782200  1
  F  F23  1  0.64435900  0.71125600  0.17782200  1
  F  F24  1  0.78524700  0.42955800  0.60737600  1
  F  F25  1  0.78524900  0.42955900  0.10737600  1
  F  F26  1  0.21475100  0.57044000  0.39262500  1
  F  F27  1  0.21475000  0.57044100  0.89262500  1
