# generated using pymatgen
data_Li7Bi2P7O24
_symmetry_space_group_name_H-M   'P 1'
_cell_length_a   5.24686100
_cell_length_b   12.18278600
_cell_length_c   16.15529726
_cell_angle_alpha   84.51621349
_cell_angle_beta   90.00000000
_cell_angle_gamma   90.00000000
_symmetry_Int_Tables_number   1
_chemical_formula_structural   Li7Bi2P7O24
_chemical_formula_sum   'Li14 Bi4 P14 O48'
_cell_volume   1027.94273570
_cell_formula_units_Z   2
loop_
 _symmetry_equiv_pos_site_id
 _symmetry_equiv_pos_as_xyz
  1  'x, y, z'
loop_
 _atom_site_type_symbol
 _atom_site_label
 _atom_site_symmetry_multiplicity
 _atom_site_fract_x
 _atom_site_fract_y
 _atom_site_fract_z
 _atom_site_occupancy
  Li  Li0  1  0.23219100  0.47671400  0.03283500  1
  Li  Li1  1  0.22033000  0.11533700  0.13187400  1
  Li  Li2  1  0.76780900  0.97671400  0.03283500  1
  Li  Li3  1  0.77967000  0.61533700  0.13187400  1
  Li  Li4  1  0.83344500  0.44097200  0.42354500  1
  Li  Li5  1  0.16655500  0.94097200  0.42354500  1
  Li  Li6  1  0.28805700  0.25000000  0.50000000  1
  Li  Li7  1  0.71194300  0.75000000  0.50000000  1
  Li  Li8  1  0.83344500  0.05902800  0.57645500  1
  Li  Li9  1  0.16655500  0.55902800  0.57645500  1
  Li  Li10  1  0.22033000  0.38466300  0.86812600  1
  Li  Li11  1  0.23219100  0.02328600  0.96716500  1
  Li  Li12  1  0.77967000  0.88466300  0.86812600  1
  Li  Li13  1  0.76780900  0.52328600  0.96716500  1
  Bi  Bi14  1  0.33157000  0.30846400  0.27671100  1
  Bi  Bi15  1  0.66843000  0.80846400  0.27671100  1
  Bi  Bi16  1  0.33157000  0.19153600  0.72328900  1
  Bi  Bi17  1  0.66843000  0.69153600  0.72328900  1
  P  P18  1  0.53400900  0.25000000  0.00000000  1
  P  P19  1  0.46599100  0.75000000  0.00000000  1
  P  P20  1  0.86471300  0.34176300  0.12995700  1
  P  P21  1  0.13528700  0.84176300  0.12995700  1
  P  P22  1  0.60849500  0.05224800  0.27746800  1
  P  P23  1  0.39150500  0.55224800  0.27746800  1
  P  P24  1  0.81911100  0.19138600  0.39843400  1
  P  P25  1  0.18088900  0.69138600  0.39843400  1
  P  P26  1  0.81911100  0.30861400  0.60156600  1
  P  P27  1  0.18088900  0.80861400  0.60156600  1
  P  P28  1  0.60849500  0.44775200  0.72253200  1
  P  P29  1  0.39150500  0.94775200  0.72253200  1
  P  P30  1  0.86471300  0.15823700  0.87004300  1
  P  P31  1  0.13528700  0.65823700  0.87004300  1
  O  O32  1  0.39309900  0.14187900  0.01703600  1
  O  O33  1  0.60690100  0.64187900  0.01703600  1
  O  O34  1  0.72019500  0.25103000  0.07785500  1
  O  O35  1  0.88649900  0.45006500  0.07352700  1
  O  O36  1  0.27980500  0.75103000  0.07785500  1
  O  O37  1  0.11350100  0.95006500  0.07352700  1
  O  O38  1  0.12084000  0.28293100  0.14811500  1
  O  O39  1  0.75531800  0.98886700  0.21468600  1
  O  O40  1  0.70965900  0.35442900  0.20768400  1
  O  O41  1  0.87916000  0.78293100  0.14811500  1
  O  O42  1  0.24468200  0.48886700  0.21468600  1
  O  O43  1  0.40339300  0.12774300  0.23468600  1
  O  O44  1  0.29034100  0.85442900  0.20768400  1
  O  O45  1  0.59660700  0.62774300  0.23468600  1
  O  O46  1  0.82540600  0.13252700  0.31125600  1
  O  O47  1  0.17459400  0.63252700  0.31125600  1
  O  O48  1  0.98546200  0.29627200  0.37987400  1
  O  O49  1  0.49519900  0.47276200  0.34945100  1
  O  O50  1  0.53712200  0.22216500  0.41058000  1
  O  O51  1  0.01453800  0.79627200  0.37987400  1
  O  O52  1  0.50480100  0.97276200  0.34945100  1
  O  O53  1  0.46287800  0.72216500  0.41058000  1
  O  O54  1  0.93687900  0.10995800  0.46407800  1
  O  O55  1  0.06312100  0.60995800  0.46407800  1
  O  O56  1  0.93687900  0.39004200  0.53592200  1
  O  O57  1  0.06312100  0.89004200  0.53592200  1
  O  O58  1  0.53712200  0.27783500  0.58942000  1
  O  O59  1  0.49519900  0.02723800  0.65054800  1
  O  O60  1  0.98546200  0.20372800  0.62012600  1
  O  O61  1  0.46287800  0.77783500  0.58942000  1
  O  O62  1  0.50480100  0.52723800  0.65054800  1
  O  O63  1  0.01453800  0.70372800  0.62012600  1
  O  O64  1  0.82540600  0.36747300  0.68874400  1
  O  O65  1  0.17459400  0.86747300  0.68874400  1
  O  O66  1  0.40339300  0.37225700  0.76531400  1
  O  O67  1  0.70965900  0.14557100  0.79231600  1
  O  O68  1  0.59660700  0.87225700  0.76531400  1
  O  O69  1  0.75531800  0.51113300  0.78531400  1
  O  O70  1  0.12084000  0.21706900  0.85188500  1
  O  O71  1  0.29034100  0.64557100  0.79231600  1
  O  O72  1  0.24468200  0.01113300  0.78531400  1
  O  O73  1  0.87916000  0.71706900  0.85188500  1
  O  O74  1  0.88649900  0.04993500  0.92647300  1
  O  O75  1  0.72019500  0.24897000  0.92214500  1
  O  O76  1  0.11350100  0.54993500  0.92647300  1
  O  O77  1  0.27980500  0.74897000  0.92214500  1
  O  O78  1  0.39309900  0.35812100  0.98296400  1
  O  O79  1  0.60690100  0.85812100  0.98296400  1
