# generated using pymatgen
data_Li6Cr3Fe(PO4)6
_symmetry_space_group_name_H-M   'P 1'
_cell_length_a   8.53711100
_cell_length_b   8.57713430
_cell_length_c   8.57675333
_cell_angle_alpha   61.57418739
_cell_angle_beta   61.56032363
_cell_angle_gamma   61.54343773
_symmetry_Int_Tables_number   1
_chemical_formula_structural   Li6Cr3Fe(PO4)6
_chemical_formula_sum   'Li6 Cr3 Fe1 P6 O24'
_cell_volume   459.61727743
_cell_formula_units_Z   1
loop_
 _symmetry_equiv_pos_site_id
 _symmetry_equiv_pos_as_xyz
  1  'x, y, z'
loop_
 _atom_site_type_symbol
 _atom_site_label
 _atom_site_symmetry_multiplicity
 _atom_site_fract_x
 _atom_site_fract_y
 _atom_site_fract_z
 _atom_site_occupancy
  Li  Li0  1  0.02647100  0.00349100  0.99528200  1
  Li  Li1  1  0.75001400  0.14797900  0.35114800  1
  Li  Li2  1  0.47262400  0.50447200  0.49605100  1
  Li  Li3  1  0.24998700  0.85014200  0.65434300  1
  Li  Li4  1  0.65541300  0.24988700  0.84631400  1
  Li  Li5  1  0.84915000  0.65765100  0.24816100  1
  Cr  Cr6  1  0.14151200  0.14543300  0.13873000  1
  Cr  Cr7  1  0.35917400  0.36145900  0.35531600  1
  Cr  Cr8  1  0.64383000  0.64535500  0.64489800  1
  Fe  Fe9  1  0.85315000  0.85161400  0.85176100  1
  P  P10  1  0.04880600  0.75084700  0.44818200  1
  P  P11  1  0.44892900  0.04954100  0.74955400  1
  P  P12  1  0.75012200  0.45235900  0.04560600  1
  P  P13  1  0.25074700  0.54137100  0.95975700  1
  P  P14  1  0.54296700  0.96320700  0.25122900  1
  P  P15  1  0.95806400  0.25042000  0.53754300  1
  O  O16  1  0.13041500  0.28994300  0.49823100  1
  O  O17  1  0.29851300  0.51328000  0.12227600  1
  O  O18  1  0.04782900  0.92226400  0.26576900  1
  O  O19  1  0.53139900  0.12224500  0.29657400  1
  O  O20  1  0.23898700  0.59257600  0.42976600  1
  O  O21  1  0.01528000  0.80828500  0.61069500  1
  O  O22  1  0.25844400  0.07226500  0.90677900  1
  O  O23  1  0.45411800  0.23176900  0.57786000  1
  O  O24  1  0.59302100  0.43249900  0.23970800  1
  O  O25  1  0.20222800  0.37926200  0.98761600  1
  O  O26  1  0.09024800  0.73646000  0.93261400  1
  O  O27  1  0.37102400  0.00291000  0.21058900  1
  O  O28  1  0.61068300  0.01228500  0.81120700  1
  O  O29  1  0.90637000  0.25794000  0.06939500  1
  O  O30  1  0.81122600  0.61071500  0.01297600  1
  O  O31  1  0.41286700  0.56492000  0.76504500  1
  O  O32  1  0.56335000  0.76952700  0.41323600  1
  O  O33  1  0.73445700  0.93229100  0.08872600  1
  O  O34  1  0.96955100  0.20472400  0.37862100  1
  O  O35  1  0.76673100  0.41461600  0.56507400  1
  O  O36  1  0.47936100  0.88759400  0.69411400  1
  O  O37  1  0.93403000  0.09008800  0.73153700  1
  O  O38  1  0.69180700  0.48313400  0.88676200  1
  O  O39  1  0.88710100  0.69217800  0.48195300  1
