# generated using pymatgen
data_K4Li3(FeO4)2
_symmetry_space_group_name_H-M   'P 1'
_cell_length_a   5.57799000
_cell_length_b   8.78759583
_cell_length_c   10.77936165
_cell_angle_alpha   87.60953790
_cell_angle_beta   80.15897987
_cell_angle_gamma   86.94595292
_symmetry_Int_Tables_number   1
_chemical_formula_structural   K4Li3(FeO4)2
_chemical_formula_sum   'K8 Li6 Fe4 O16'
_cell_volume   519.57378723
_cell_formula_units_Z   2
loop_
 _symmetry_equiv_pos_site_id
 _symmetry_equiv_pos_as_xyz
  1  'x, y, z'
loop_
 _atom_site_type_symbol
 _atom_site_label
 _atom_site_symmetry_multiplicity
 _atom_site_fract_x
 _atom_site_fract_y
 _atom_site_fract_z
 _atom_site_occupancy
  K  K0  1  0.18591700  0.96338100  0.15644500  1
  K  K1  1  0.15617400  0.21989700  0.61852700  1
  K  K2  1  0.40744800  0.52110200  0.33230100  1
  K  K3  1  0.30576900  0.77097900  0.86875400  1
  K  K4  1  0.67201200  0.24963100  0.11767700  1
  K  K5  1  0.63107600  0.46920900  0.65792700  1
  K  K6  1  0.90114800  0.70797700  0.38252400  1
  K  K7  1  0.76919400  0.04100000  0.85636000  1
  Li  Li8  1  0.10016000  0.24223700  0.30448200  1
  Li  Li9  1  0.26743800  0.51641600  0.07142400  1
  Li  Li10  1  0.59914200  0.97775000  0.29938000  1
  Li  Li11  1  0.72144200  0.50543800  0.92498100  1
  Li  Li12  1  0.80843800  0.97429600  0.55325400  1
  Li  Li13  1  0.89761700  0.74415800  0.70991100  1
  Fe  Fe14  1  0.20418700  0.28608300  0.94267100  1
  Fe  Fe15  1  0.32816900  0.79569800  0.56171000  1
  Fe  Fe16  1  0.67612100  0.21330200  0.43464600  1
  Fe  Fe17  1  0.77403800  0.72709300  0.06535400  1
  O  O18  1  0.16088300  0.29259500  0.11094300  1
  O  O19  1  0.05001700  0.68491200  0.12797100  1
  O  O20  1  0.09181200  0.91809500  0.63984800  1
  O  O21  1  0.17452500  0.62567500  0.59961900  1
  O  O22  1  0.41959900  0.21043000  0.35020900  1
  O  O23  1  0.41791700  0.81627600  0.39879400  1
  O  O24  1  0.29862900  0.09658900  0.92075200  1
  O  O25  1  0.38783600  0.44312900  0.89159600  1
  O  O26  1  0.60272900  0.55647900  0.09983700  1
  O  O27  1  0.69108100  0.91946200  0.11747500  1
  O  O28  1  0.66964500  0.17771900  0.59964600  1
  O  O29  1  0.61466600  0.78931700  0.61471300  1
  O  O30  1  0.82225100  0.39287300  0.40344100  1
  O  O31  1  0.86764000  0.04814100  0.37069100  1
  O  O32  1  0.94478600  0.33018500  0.87340800  1
  O  O33  1  0.79354900  0.72769100  0.88958700  1
