# generated using pymatgen
data_Li4Fe2O5
_symmetry_space_group_name_H-M   'P 1'
_cell_length_a   5.25706000
_cell_length_b   8.53456300
_cell_length_c   11.19852126
_cell_angle_alpha   71.24380623
_cell_angle_beta   90.00000000
_cell_angle_gamma   90.00000000
_symmetry_Int_Tables_number   1
_chemical_formula_structural   Li4Fe2O5
_chemical_formula_sum   'Li16 Fe8 O20'
_cell_volume   475.75887327
_cell_formula_units_Z   4
loop_
 _symmetry_equiv_pos_site_id
 _symmetry_equiv_pos_as_xyz
  1  'x, y, z'
loop_
 _atom_site_type_symbol
 _atom_site_label
 _atom_site_symmetry_multiplicity
 _atom_site_fract_x
 _atom_site_fract_y
 _atom_site_fract_z
 _atom_site_occupancy
  Li  Li0  1  0.12259400  0.12170700  0.00317800  1
  Li  Li1  1  0.32423900  0.49982400  0.41222500  1
  Li  Li2  1  0.47700000  0.99135800  0.11509200  1
  Li  Li3  1  0.33655100  0.88603700  0.32524700  1
  Li  Li4  1  0.83655100  0.11396300  0.17475300  1
  Li  Li5  1  0.62259400  0.87829300  0.49682200  1
  Li  Li6  1  0.97700000  0.00864200  0.38490800  1
  Li  Li7  1  0.17576100  0.49982400  0.91222500  1
  Li  Li8  1  0.82423900  0.50017600  0.08777500  1
  Li  Li9  1  0.02300000  0.99135800  0.61509200  1
  Li  Li10  1  0.37740600  0.12170700  0.50317800  1
  Li  Li11  1  0.16344900  0.88603700  0.82524700  1
  Li  Li12  1  0.66344900  0.11396300  0.67475300  1
  Li  Li13  1  0.52300000  0.00864200  0.88490800  1
  Li  Li14  1  0.67576100  0.50017600  0.58777500  1
  Li  Li15  1  0.87740600  0.87829300  0.99682200  1
  Fe  Fe16  1  0.66924700  0.30809900  0.88235000  1
  Fe  Fe17  1  0.16924700  0.69190100  0.61765000  1
  Fe  Fe18  1  0.83075300  0.30809900  0.38235000  1
  Fe  Fe19  1  0.33075300  0.69190100  0.11765000  1
  Fe  Fe20  1  0.82979500  0.70665400  0.28790400  1
  Fe  Fe21  1  0.67020500  0.70665400  0.78790400  1
  Fe  Fe22  1  0.32979500  0.29334600  0.21209600  1
  Fe  Fe23  1  0.17020500  0.29334600  0.71209600  1
  O  O24  1  0.30152200  0.29637000  0.87330300  1
  O  O25  1  0.19812600  0.70037600  0.27666400  1
  O  O26  1  0.28636700  0.49597600  0.58856900  1
  O  O27  1  0.78636700  0.50402400  0.91143100  1
  O  O28  1  0.71135900  0.90128400  0.31254500  1
  O  O29  1  0.74912400  0.10168900  0.00417400  1
  O  O30  1  0.80152200  0.70363000  0.62669700  1
  O  O31  1  0.24912400  0.89831100  0.49582600  1
  O  O32  1  0.21135900  0.09871600  0.18745500  1
  O  O33  1  0.30187400  0.70037600  0.77666400  1
  O  O34  1  0.69812600  0.29962400  0.22333600  1
  O  O35  1  0.78864100  0.90128400  0.81254500  1
  O  O36  1  0.75087600  0.10168900  0.50417400  1
  O  O37  1  0.19847800  0.29637000  0.37330300  1
  O  O38  1  0.25087600  0.89831100  0.99582600  1
  O  O39  1  0.28864100  0.09871600  0.68745500  1
  O  O40  1  0.21363300  0.49597600  0.08856900  1
  O  O41  1  0.71363300  0.50402400  0.41143100  1
  O  O42  1  0.80187400  0.29962400  0.72333600  1
  O  O43  1  0.69847800  0.70363000  0.12669700  1
