# generated using pymatgen
data_Li2FeF4
_symmetry_space_group_name_H-M   'P 1'
_cell_length_a   9.65245569
_cell_length_b   9.65245569
_cell_length_c   9.65245569
_cell_angle_alpha   100.84400970
_cell_angle_beta   100.84400970
_cell_angle_gamma   128.58892083
_symmetry_Int_Tables_number   1
_chemical_formula_structural   Li2FeF4
_chemical_formula_sum   'Li16 Fe8 F32'
_cell_volume   633.37736605
_cell_formula_units_Z   8
loop_
 _symmetry_equiv_pos_site_id
 _symmetry_equiv_pos_as_xyz
  1  'x, y, z'
loop_
 _atom_site_type_symbol
 _atom_site_label
 _atom_site_symmetry_multiplicity
 _atom_site_fract_x
 _atom_site_fract_y
 _atom_site_fract_z
 _atom_site_occupancy
  Li  Li0  1  0.76521000  0.37500000  0.89021000  1
  Li  Li1  1  0.38136300  0.88136300  0.76272600  1
  Li  Li2  1  0.13136300  0.86863700  0.00000000  1
  Li  Li3  1  0.12500000  0.51521000  0.89021000  1
  Li  Li4  1  0.62500000  0.23479000  0.10979000  1
  Li  Li5  1  0.11863700  0.61863700  0.23727400  1
  Li  Li6  1  0.86863700  0.13136300  0.00000000  1
  Li  Li7  1  0.48479000  0.87500000  0.10979000  1
  Li  Li8  1  0.76521000  0.87500000  0.39021000  1
  Li  Li9  1  0.13136300  0.13136300  0.26272600  1
  Li  Li10  1  0.38136300  0.61863700  0.50000000  1
  Li  Li11  1  0.12500000  0.23479000  0.60979000  1
  Li  Li12  1  0.62500000  0.51521000  0.39021000  1
  Li  Li13  1  0.86863700  0.86863700  0.73727400  1
  Li  Li14  1  0.11863700  0.88136300  0.50000000  1
  Li  Li15  1  0.48479000  0.37500000  0.60979000  1
  Fe  Fe16  1  0.46921600  0.10167900  0.36753700  1
  Fe  Fe17  1  0.51585800  0.64832100  0.86753700  1
  Fe  Fe18  1  0.35167900  0.48414200  0.13246300  1
  Fe  Fe19  1  0.89832100  0.53078400  0.63246300  1
  Fe  Fe20  1  0.35167900  0.21921600  0.86753700  1
  Fe  Fe21  1  0.89832100  0.26585800  0.36753700  1
  Fe  Fe22  1  0.73414200  0.10167900  0.63246300  1
  Fe  Fe23  1  0.78078400  0.64832100  0.13246300  1
  F  F24  1  0.51200100  0.14280300  0.88474200  1
  F  F25  1  0.99193900  0.60719700  0.86919900  1
  F  F26  1  0.85719700  0.48799900  0.11525800  1
  F  F27  1  0.87725900  0.26200100  0.86919900  1
  F  F28  1  0.39280300  0.00806100  0.13080100  1
  F  F29  1  0.37274100  0.74193900  0.88474200  1
  F  F30  1  0.75360200  0.88131100  0.87229200  1
  F  F31  1  0.24098100  0.86868900  0.37229200  1
  F  F32  1  0.73799900  0.12274100  0.13080100  1
  F  F33  1  0.25806100  0.62725900  0.11525800  1
  F  F34  1  0.27193400  0.39441600  0.87751800  1
  F  F35  1  0.73310200  0.35558400  0.37751800  1
  F  F36  1  0.64441600  0.26689800  0.62248200  1
  F  F37  1  0.11868900  0.99098100  0.87229200  1
  F  F38  1  0.60558400  0.48310200  0.87751800  1
  F  F39  1  0.60558400  0.72806600  0.12248200  1
  F  F40  1  0.11868900  0.24639800  0.12770800  1
  F  F41  1  0.64441600  0.02193400  0.37751800  1
  F  F42  1  0.13131100  0.50360200  0.37229200  1
  F  F43  1  0.13131100  0.75901900  0.62770800  1
  F  F44  1  0.51689800  0.39441600  0.12248200  1
  F  F45  1  0.97806600  0.35558400  0.62248200  1
  F  F46  1  0.51200100  0.62725900  0.36919900  1
  F  F47  1  0.99193900  0.12274100  0.38474200  1
  F  F48  1  0.00901900  0.88131100  0.12770800  1
  F  F49  1  0.49639800  0.86868900  0.62770800  1
  F  F50  1  0.85719700  0.74193900  0.36919900  1
  F  F51  1  0.87725900  0.00806100  0.61525800  1
  F  F52  1  0.39280300  0.26200100  0.38474200  1
  F  F53  1  0.37274100  0.48799900  0.63080100  1
  F  F54  1  0.25806100  0.14280300  0.63080100  1
  F  F55  1  0.73799900  0.60719700  0.61525800  1
