# generated using pymatgen
data_Li4Ti5V3O16
_symmetry_space_group_name_H-M   'P 1'
_cell_length_a   5.95983547
_cell_length_b   5.95983547
_cell_length_c   9.63991751
_cell_angle_alpha   89.93027310
_cell_angle_beta   89.93027310
_cell_angle_gamma   59.90775677
_symmetry_Int_Tables_number   1
_chemical_formula_structural   Li4Ti5V3O16
_chemical_formula_sum   'Li4 Ti5 V3 O16'
_cell_volume   296.25632560
_cell_formula_units_Z   1
loop_
 _symmetry_equiv_pos_site_id
 _symmetry_equiv_pos_as_xyz
  1  'x, y, z'
loop_
 _atom_site_type_symbol
 _atom_site_label
 _atom_site_symmetry_multiplicity
 _atom_site_fract_x
 _atom_site_fract_y
 _atom_site_fract_z
 _atom_site_occupancy
  Li  Li0  1  0.66444300  0.66444300  0.89594700  1
  Li  Li1  1  0.99884000  0.99884000  0.99414800  1
  Li  Li2  1  0.00527500  0.00527500  0.49356900  1
  Li  Li3  1  0.33309800  0.33309800  0.39730800  1
  Ti  Ti4  1  0.83685700  0.34811900  0.21998000  1
  Ti  Ti5  1  0.67003600  0.67003600  0.49969200  1
  Ti  Ti6  1  0.34811900  0.83685700  0.21998000  1
  Ti  Ti7  1  0.17478700  0.17478700  0.72721800  1
  Ti  Ti8  1  0.34444900  0.34444900  0.99670300  1
  V  V9  1  0.82601300  0.82601300  0.21021400  1
  V  V10  1  0.65759000  0.17245400  0.71137600  1
  V  V11  1  0.17245400  0.65759000  0.71137600  1
  O  O12  1  0.83118900  0.34290400  0.59423800  1
  O  O13  1  0.51904200  0.51904200  0.33473300  1
  O  O14  1  0.65482600  0.65482600  0.10133700  1
  O  O15  1  0.00377000  0.00377000  0.30497600  1
  O  O16  1  0.00239400  0.00239400  0.80585100  1
  O  O17  1  0.34290400  0.83118900  0.59423800  1
  O  O18  1  0.95989500  0.50616000  0.34521600  1
  O  O19  1  0.50616000  0.95989500  0.34521600  1
  O  O20  1  0.16801800  0.16801800  0.09901000  1
  O  O21  1  0.83369200  0.83369200  0.59239700  1
  O  O22  1  0.47255400  0.03483100  0.84046100  1
  O  O23  1  0.03483100  0.47255400  0.84046100  1
  O  O24  1  0.32692800  0.32692800  0.60316100  1
  O  O25  1  0.66006900  0.17553600  0.09306100  1
  O  O26  1  0.47715500  0.47715500  0.84325500  1
  O  O27  1  0.17553600  0.66006900  0.09306100  1
