# generated using pymatgen
data_Li2CrSi4O11
_symmetry_space_group_name_H-M   'P 1'
_cell_length_a   8.44177706
_cell_length_b   8.44177706
_cell_length_c   8.44177706
_cell_angle_alpha   101.98091511
_cell_angle_beta   101.98091511
_cell_angle_gamma   125.79085914
_symmetry_Int_Tables_number   1
_chemical_formula_structural   Li2CrSi4O11
_chemical_formula_sum   'Li4 Cr2 Si8 O22'
_cell_volume   434.39291625
_cell_formula_units_Z   2
loop_
 _symmetry_equiv_pos_site_id
 _symmetry_equiv_pos_as_xyz
  1  'x, y, z'
loop_
 _atom_site_type_symbol
 _atom_site_label
 _atom_site_symmetry_multiplicity
 _atom_site_fract_x
 _atom_site_fract_y
 _atom_site_fract_z
 _atom_site_occupancy
  Li  Li0  1  0.65515200  0.62133800  0.27649000  1
  Li  Li1  1  0.37866200  0.65515200  0.03381500  1
  Li  Li2  1  0.62133800  0.34484800  0.96618500  1
  Li  Li3  1  0.34484800  0.37866200  0.72351000  1
  Cr  Cr4  1  0.24466000  0.24466000  0.00000000  1
  Cr  Cr5  1  0.75534000  0.75534000  0.00000000  1
  Si  Si6  1  0.49986000  0.17780400  0.28555100  1
  Si  Si7  1  0.10774800  0.78569100  0.28555100  1
  Si  Si8  1  0.17780400  0.89225200  0.67794300  1
  Si  Si9  1  0.78569100  0.50014000  0.67794300  1
  Si  Si10  1  0.82219600  0.10774800  0.32205700  1
  Si  Si11  1  0.21430900  0.49986000  0.32205700  1
  Si  Si12  1  0.89225200  0.21430900  0.71444900  1
  Si  Si13  1  0.50014000  0.82219600  0.71444900  1
  O  O14  1  0.00000000  0.00000000  0.00000000  1
  O  O15  1  0.50000000  0.50000000  0.00000000  1
  O  O16  1  0.45410600  0.21487200  0.10794700  1
  O  O17  1  0.89307500  0.65384200  0.10794700  1
  O  O18  1  0.28597600  0.03741600  0.32339300  1
  O  O19  1  0.67746500  0.41013200  0.45965100  1
  O  O20  1  0.04951900  0.78218700  0.45965100  1
  O  O21  1  0.58986800  0.04951900  0.26733200  1
  O  O22  1  0.21781300  0.67746500  0.26733200  1
  O  O23  1  0.21487200  0.10692500  0.76076700  1
  O  O24  1  0.65384200  0.54589400  0.76076700  1
  O  O25  1  0.96258400  0.28597600  0.24856000  1
  O  O26  1  0.03741600  0.71402400  0.75144000  1
  O  O27  1  0.34615800  0.45410600  0.23923300  1
  O  O28  1  0.78512800  0.89307500  0.23923300  1
  O  O29  1  0.78218700  0.32253500  0.73266800  1
  O  O30  1  0.41013200  0.95048100  0.73266800  1
  O  O31  1  0.95048100  0.21781300  0.54034900  1
  O  O32  1  0.32253500  0.58986800  0.54034900  1
  O  O33  1  0.71402400  0.96258400  0.67660700  1
  O  O34  1  0.10692500  0.34615800  0.89205300  1
  O  O35  1  0.54589400  0.78512800  0.89205300  1
