# generated using pymatgen
data_LiV2P4(HO8)2
_symmetry_space_group_name_H-M   'P 1'
_cell_length_a   7.74621200
_cell_length_b   7.90114646
_cell_length_c   9.76351283
_cell_angle_alpha   90.39907748
_cell_angle_beta   112.89319221
_cell_angle_gamma   89.86959476
_symmetry_Int_Tables_number   1
_chemical_formula_structural   LiV2P4(HO8)2
_chemical_formula_sum   'Li2 V4 P8 H4 O32'
_cell_volume   550.48292472
_cell_formula_units_Z   2
loop_
 _symmetry_equiv_pos_site_id
 _symmetry_equiv_pos_as_xyz
  1  'x, y, z'
loop_
 _atom_site_type_symbol
 _atom_site_label
 _atom_site_symmetry_multiplicity
 _atom_site_fract_x
 _atom_site_fract_y
 _atom_site_fract_z
 _atom_site_occupancy
  Li  Li0  1  0.34852500  0.36734600  0.22371000  1
  Li  Li1  1  0.64976500  0.63554300  0.77652100  1
  V  V2  1  0.98543800  0.50322100  0.24724700  1
  V  V3  1  0.50656700  0.98939800  0.25692200  1
  V  V4  1  0.00659200  0.49683300  0.74967200  1
  V  V5  1  0.49627300  0.00897900  0.74840600  1
  P  P6  1  0.77294300  0.85514600  0.07021700  1
  P  P7  1  0.26317700  0.65357000  0.06762600  1
  P  P8  1  0.73228500  0.34451700  0.43268700  1
  P  P9  1  0.77434100  0.85449300  0.57746500  1
  P  P10  1  0.23179200  0.15272700  0.42847700  1
  P  P11  1  0.26007900  0.65471100  0.56739000  1
  P  P12  1  0.73071700  0.35255500  0.92834900  1
  P  P13  1  0.23356900  0.15065800  0.93098600  1
  H  H14  1  0.49002800  0.50976000  0.01002900  1
  H  H15  1  0.48621800  0.50636000  0.50843300  1
  H  H16  1  0.01018100  0.00769900  0.48922500  1
  H  H17  1  0.01266000  0.00710800  0.99069900  1
  O  O18  1  0.95062600  0.94793900  0.09652800  1
  O  O19  1  0.86699800  0.34239000  0.09828300  1
  O  O20  1  0.82637000  0.67197100  0.14475300  1
  O  O21  1  0.65227500  0.93866900  0.14898600  1
  O  O22  1  0.44134200  0.54610000  0.09661400  1
  O  O23  1  0.36184100  0.16749800  0.10048900  1
  O  O24  1  0.32492000  0.82949200  0.14319600  1
  O  O25  1  0.15791300  0.55520900  0.14979000  1
  O  O26  1  0.84838300  0.43894700  0.35261700  1
  O  O27  1  0.67825800  0.16779700  0.35492200  1
  O  O28  1  0.63552900  0.83903700  0.40530200  1
  O  O29  1  0.55331100  0.44100600  0.40520800  1
  O  O30  1  0.34944400  0.05724500  0.35188100  1
  O  O31  1  0.18245400  0.32744800  0.34825300  1
  O  O32  1  0.94711100  0.94668900  0.58980400  1
  O  O33  1  0.86489900  0.32688800  0.59590400  1
  O  O34  1  0.13288400  0.66166200  0.39927600  1
  O  O35  1  0.05097300  0.05694700  0.40246400  1
  O  O36  1  0.80891600  0.67492400  0.64447000  1
  O  O37  1  0.65234300  0.94787900  0.64937900  1
  O  O38  1  0.44380900  0.55619700  0.59278600  1
  O  O39  1  0.36075900  0.17540100  0.59374000  1
  O  O40  1  0.31498700  0.82889800  0.63675100  1
  O  O41  1  0.15071700  0.55619600  0.64454500  1
  O  O42  1  0.84383600  0.44837100  0.85004100  1
  O  O43  1  0.68442600  0.17333800  0.86770400  1
  O  O44  1  0.64205600  0.82726200  0.90486100  1
  O  O45  1  0.56276000  0.46279500  0.90851200  1
  O  O46  1  0.34777400  0.05714100  0.85374600  1
  O  O47  1  0.18437000  0.32822000  0.86541600  1
  O  O48  1  0.13766300  0.67291400  0.90302400  1
  O  O49  1  0.05444100  0.05065700  0.90511200  1
