# generated using pymatgen
data_Li3MnBAsO7
_symmetry_space_group_name_H-M   'P 1'
_cell_length_a   5.08608343
_cell_length_b   10.90132797
_cell_length_c   10.90057744
_cell_angle_alpha   102.24209094
_cell_angle_beta   94.29845059
_cell_angle_gamma   85.70356134
_symmetry_Int_Tables_number   1
_chemical_formula_structural   Li3MnBAsO7
_chemical_formula_sum   'Li12 Mn4 B4 As4 O28'
_cell_volume   587.89708864
_cell_formula_units_Z   4
loop_
 _symmetry_equiv_pos_site_id
 _symmetry_equiv_pos_as_xyz
  1  'x, y, z'
loop_
 _atom_site_type_symbol
 _atom_site_label
 _atom_site_symmetry_multiplicity
 _atom_site_fract_x
 _atom_site_fract_y
 _atom_site_fract_z
 _atom_site_occupancy
  Li  Li0  1  0.77085800  0.17327900  0.07665300  1
  Li  Li1  1  0.77090400  0.67329200  0.57669300  1
  Li  Li2  1  0.22913600  0.82672000  0.92335200  1
  Li  Li3  1  0.22906600  0.32670900  0.42330500  1
  Li  Li4  1  0.24933300  0.11679000  0.88428300  1
  Li  Li5  1  0.24932400  0.61690200  0.38429400  1
  Li  Li6  1  0.24938300  0.36561600  0.13306300  1
  Li  Li7  1  0.24948100  0.86567900  0.63306600  1
  Li  Li8  1  0.75057600  0.63438900  0.86693700  1
  Li  Li9  1  0.75055400  0.13431800  0.36692900  1
  Li  Li10  1  0.75068500  0.88322300  0.11571900  1
  Li  Li11  1  0.75064700  0.38309700  0.61570400  1
  Mn  Mn12  1  0.78526200  0.03242100  0.71754200  1
  Mn  Mn13  1  0.21481000  0.96755200  0.28248500  1
  Mn  Mn14  1  0.78496900  0.53232800  0.21758100  1
  Mn  Mn15  1  0.21498400  0.46767500  0.78241300  1
  B  B16  1  0.69947600  0.39433300  0.35566900  1
  B  B17  1  0.69960000  0.89443300  0.85564400  1
  B  B18  1  0.30048900  0.60566800  0.64432800  1
  B  B19  1  0.30042100  0.10556800  0.14436100  1
  As  As20  1  0.74379200  0.33352500  0.91648900  1
  As  As21  1  0.74382300  0.83347200  0.41655200  1
  As  As22  1  0.25617900  0.66647200  0.08350800  1
  As  As23  1  0.25623400  0.16652900  0.58344800  1
  O  O24  1  0.37178500  0.18013300  0.06977000  1
  O  O25  1  0.37188500  0.68018800  0.56974100  1
  O  O26  1  0.62818500  0.81988100  0.93022300  1
  O  O27  1  0.62808900  0.31981400  0.43025700  1
  O  O28  1  0.95609400  0.41737000  0.33264200  1
  O  O29  1  0.95625500  0.91749400  0.83262000  1
  O  O30  1  0.04386900  0.58263200  0.66735000  1
  O  O31  1  0.04379300  0.08249100  0.16740000  1
  O  O32  1  0.50964200  0.46118500  0.28871300  1
  O  O33  1  0.50979400  0.96125400  0.78869600  1
  O  O34  1  0.49031700  0.53881800  0.71128800  1
  O  O35  1  0.49027600  0.03875800  0.21128700  1
  O  O36  1  0.40573300  0.35779200  0.89233300  1
  O  O37  1  0.40575800  0.85768600  0.39250600  1
  O  O38  1  0.59423700  0.64220700  0.10766300  1
  O  O39  1  0.59430300  0.14231300  0.60750300  1
  O  O40  1  0.12945700  0.57604100  0.17387500  1
  O  O41  1  0.12951300  0.07607500  0.67382500  1
  O  O42  1  0.87050500  0.42396300  0.82612300  1
  O  O43  1  0.87055400  0.92392000  0.32617900  1
  O  O44  1  0.83954200  0.17637800  0.88337800  1
  O  O45  1  0.83948800  0.67633700  0.38345700  1
  O  O46  1  0.83966700  0.36636900  0.07364000  1
  O  O47  1  0.83971800  0.86639200  0.57368200  1
  O  O48  1  0.16029300  0.63363300  0.92635800  1
  O  O49  1  0.16030700  0.13360100  0.42631300  1
  O  O50  1  0.16045200  0.82362100  0.11661800  1
  O  O51  1  0.16050500  0.32366300  0.61654500  1
