# generated using pymatgen
data_Li2V2(SO4)3
_symmetry_space_group_name_H-M   'P 1'
_cell_length_a   8.78853500
_cell_length_b   8.98258100
_cell_length_c   12.46126000
_cell_angle_alpha   90.00000000
_cell_angle_beta   90.00000000
_cell_angle_gamma   90.00000000
_symmetry_Int_Tables_number   1
_chemical_formula_structural   Li2V2(SO4)3
_chemical_formula_sum   'Li8 V8 S12 O48'
_cell_volume   983.73831386
_cell_formula_units_Z   4
loop_
 _symmetry_equiv_pos_site_id
 _symmetry_equiv_pos_as_xyz
  1  'x, y, z'
loop_
 _atom_site_type_symbol
 _atom_site_label
 _atom_site_symmetry_multiplicity
 _atom_site_fract_x
 _atom_site_fract_y
 _atom_site_fract_z
 _atom_site_occupancy
  Li  Li0  1  0.21637400  0.27724900  0.18226900  1
  Li  Li1  1  0.78362600  0.77724900  0.18226900  1
  Li  Li2  1  0.28362600  0.77724900  0.31773100  1
  Li  Li3  1  0.71637400  0.27724900  0.31773100  1
  Li  Li4  1  0.28362600  0.72275100  0.68226900  1
  Li  Li5  1  0.71637400  0.22275100  0.68226900  1
  Li  Li6  1  0.21637400  0.22275100  0.81773100  1
  Li  Li7  1  0.78362600  0.72275100  0.81773100  1
  V  V8  1  0.25246400  0.96236000  0.11372800  1
  V  V9  1  0.74753600  0.46236000  0.11372800  1
  V  V10  1  0.75246400  0.96236000  0.38627200  1
  V  V11  1  0.24753600  0.46236000  0.38627200  1
  V  V12  1  0.24753600  0.03764000  0.61372800  1
  V  V13  1  0.75246400  0.53764000  0.61372800  1
  V  V14  1  0.25246400  0.53764000  0.88627200  1
  V  V15  1  0.74753600  0.03764000  0.88627200  1
  S  S16  1  0.45502900  0.25000000  0.00000000  1
  S  S17  1  0.54497100  0.75000000  0.00000000  1
  S  S18  1  0.10241500  0.60569600  0.14675300  1
  S  S19  1  0.89758500  0.10569600  0.14675300  1
  S  S20  1  0.39758500  0.10569600  0.35324700  1
  S  S21  1  0.60241500  0.60569600  0.35324700  1
  S  S22  1  0.04497100  0.75000000  0.50000000  1
  S  S23  1  0.95502900  0.25000000  0.50000000  1
  S  S24  1  0.39758500  0.39430400  0.64675300  1
  S  S25  1  0.60241500  0.89430400  0.64675300  1
  S  S26  1  0.10241500  0.89430400  0.85324700  1
  S  S27  1  0.89758500  0.39430400  0.85324700  1
  O  O28  1  0.13663000  0.57493300  0.03433000  1
  O  O29  1  0.86337000  0.07493300  0.03433000  1
  O  O30  1  0.54509500  0.36134800  0.05726100  1
  O  O31  1  0.45490500  0.86134800  0.05726100  1
  O  O32  1  0.35281700  0.17568300  0.08060300  1
  O  O33  1  0.64718300  0.67568300  0.08060300  1
  O  O34  1  0.06616200  0.11333000  0.16274200  1
  O  O35  1  0.93383800  0.61333000  0.16274200  1
  O  O36  1  0.16865100  0.75107900  0.18179100  1
  O  O37  1  0.83134900  0.25107900  0.18179100  1
  O  O38  1  0.83442100  0.98449500  0.21617800  1
  O  O39  1  0.16557900  0.48449500  0.21617800  1
  O  O40  1  0.33442100  0.98449500  0.28382200  1
  O  O41  1  0.66557900  0.48449500  0.28382200  1
  O  O42  1  0.66865100  0.75107900  0.31820900  1
  O  O43  1  0.33134900  0.25107900  0.31820900  1
  O  O44  1  0.43383800  0.61333000  0.33725800  1
  O  O45  1  0.56616200  0.11333000  0.33725800  1
  O  O46  1  0.14718300  0.67568300  0.41939700  1
  O  O47  1  0.85281700  0.17568300  0.41939700  1
  O  O48  1  0.04509500  0.36134800  0.44273900  1
  O  O49  1  0.95490500  0.86134800  0.44273900  1
  O  O50  1  0.63663000  0.57493300  0.46567000  1
  O  O51  1  0.36337000  0.07493300  0.46567000  1
  O  O52  1  0.36337000  0.42506700  0.53433000  1
  O  O53  1  0.63663000  0.92506700  0.53433000  1
  O  O54  1  0.04509500  0.13865200  0.55726100  1
  O  O55  1  0.95490500  0.63865200  0.55726100  1
  O  O56  1  0.14718300  0.82431700  0.58060300  1
  O  O57  1  0.85281700  0.32431700  0.58060300  1
  O  O58  1  0.43383800  0.88667000  0.66274200  1
  O  O59  1  0.56616200  0.38667000  0.66274200  1
  O  O60  1  0.33134900  0.24892100  0.68179100  1
  O  O61  1  0.66865100  0.74892100  0.68179100  1
  O  O62  1  0.33442100  0.51550500  0.71617800  1
  O  O63  1  0.66557900  0.01550500  0.71617800  1
  O  O64  1  0.16557900  0.01550500  0.78382200  1
  O  O65  1  0.83442100  0.51550500  0.78382200  1
  O  O66  1  0.16865100  0.74892100  0.81820900  1
  O  O67  1  0.83134900  0.24892100  0.81820900  1
  O  O68  1  0.06616200  0.38667000  0.83725800  1
  O  O69  1  0.93383800  0.88667000  0.83725800  1
  O  O70  1  0.35281700  0.32431700  0.91939700  1
  O  O71  1  0.64718300  0.82431700  0.91939700  1
  O  O72  1  0.45490500  0.63865200  0.94273900  1
  O  O73  1  0.54509500  0.13865200  0.94273900  1
  O  O74  1  0.13663000  0.92506700  0.96567000  1
  O  O75  1  0.86337000  0.42506700  0.96567000  1
