# generated using pymatgen
data_LiCrBO3
_symmetry_space_group_name_H-M   'P 1'
_cell_length_a   3.17572600
_cell_length_b   14.25605958
_cell_length_c   14.26342528
_cell_angle_alpha   60.03972499
_cell_angle_beta   89.10577369
_cell_angle_gamma   89.11970154
_symmetry_Int_Tables_number   1
_chemical_formula_structural   LiCrBO3
_chemical_formula_sum   'Li9 Cr9 B9 O27'
_cell_volume   559.37263870
_cell_formula_units_Z   9
loop_
 _symmetry_equiv_pos_site_id
 _symmetry_equiv_pos_as_xyz
  1  'x, y, z'
loop_
 _atom_site_type_symbol
 _atom_site_label
 _atom_site_symmetry_multiplicity
 _atom_site_fract_x
 _atom_site_fract_y
 _atom_site_fract_z
 _atom_site_occupancy
  Li  Li0  1  0.05589100  0.82615700  0.74486000  1
  Li  Li1  1  0.00474800  0.42831700  0.82758200  1
  Li  Li2  1  0.01280900  0.09739800  0.77396800  1
  Li  Li3  1  0.94859700  0.74511800  0.42910600  1
  Li  Li4  1  0.97080900  0.48169000  0.41300200  1
  Li  Li5  1  0.02418500  0.10572600  0.48199100  1
  Li  Li6  1  0.98306100  0.77372000  0.12934600  1
  Li  Li7  1  0.99227900  0.41216100  0.10666000  1
  Li  Li8  1  0.01022200  0.12863800  0.09775300  1
  Cr  Cr9  1  0.52416100  0.86832500  0.91197400  1
  Cr  Cr10  1  0.49065300  0.57092600  0.88086000  1
  Cr  Cr11  1  0.55675000  0.87997300  0.54856800  1
  Cr  Cr12  1  0.52075700  0.21962800  0.86908500  1
  Cr  Cr13  1  0.45009100  0.54927300  0.57175600  1
  Cr  Cr14  1  0.49181100  0.26393500  0.54728200  1
  Cr  Cr15  1  0.47509400  0.91175400  0.22017100  1
  Cr  Cr16  1  0.48086700  0.54669800  0.18976600  1
  Cr  Cr17  1  0.51655000  0.18892100  0.26449000  1
  B  B18  1  0.99947600  0.66594700  0.99133500  1
  B  B19  1  0.99928300  0.66678200  0.66698200  1
  B  B20  1  0.98775500  0.34320900  0.66678300  1
  B  B21  1  0.01438000  0.99083700  0.34315200  1
  B  B22  1  0.53002600  0.01517700  0.66911300  1
  B  B23  1  0.46688200  0.66893700  0.31635300  1
  B  B24  1  0.99574200  0.33310700  0.33393100  1
  B  B25  1  0.00686800  0.99980700  0.00045800  1
  B  B26  1  0.50358400  0.31535900  0.01622400  1
  O  O27  1  0.01479400  0.91437500  0.97969400  1
  O  O28  1  0.98322500  0.57614400  0.97652600  1
  O  O29  1  0.03646200  0.77021700  0.90321600  1
  O  O30  1  0.55560000  0.91023700  0.68698100  1
  O  O31  1  0.50038900  0.40237000  0.91126600  1
  O  O32  1  0.99859200  0.58930300  0.77562700  1
  O  O33  1  0.06383000  0.77416600  0.63547200  1
  O  O34  1  0.02572100  0.10584300  0.91521100  1
  O  O35  1  0.05478000  0.97559000  0.44744000  1
  O  O36  1  0.02241900  0.32649300  0.77124400  1
  O  O37  1  0.93555400  0.63675700  0.59004600  1
  O  O38  1  0.96156100  0.90318000  0.32702800  1
  O  O39  1  0.98327200  0.25452300  0.65111100  1
  O  O40  1  0.95762100  0.44791600  0.57759900  1
  O  O41  1  0.51749800  0.03091100  0.75773000  1
  O  O42  1  0.45349300  0.68714100  0.40322500  1
  O  O43  1  0.46985600  0.56283500  0.33604200  1
  O  O44  1  0.51721400  0.10152600  0.56321300  1
  O  O45  1  0.97946500  0.97919800  0.10640200  1
  O  O46  1  0.47746700  0.75739100  0.21205800  1
  O  O47  1  0.99666200  0.32714800  0.43396400  1
  O  O48  1  0.00646200  0.23905200  0.32781500  1
  O  O49  1  0.98438600  0.43325100  0.23995600  1
  O  O50  1  0.97863400  0.65071500  0.09542000  1
  O  O51  1  0.02707900  0.09495000  0.25436200  1
  O  O52  1  0.49930600  0.33505000  0.10258800  1
  O  O53  1  0.51114000  0.21111200  0.03174200  1
