# generated using pymatgen
data_Li4V5Fe3O16
_symmetry_space_group_name_H-M   'P 1'
_cell_length_a   5.90102800
_cell_length_b   5.95171663
_cell_length_c   9.54574610
_cell_angle_alpha   89.39069586
_cell_angle_beta   89.18656825
_cell_angle_gamma   60.55642153
_symmetry_Int_Tables_number   1
_chemical_formula_structural   Li4V5Fe3O16
_chemical_formula_sum   'Li4 V5 Fe3 O16'
_cell_volume   291.92457999
_cell_formula_units_Z   1
loop_
 _symmetry_equiv_pos_site_id
 _symmetry_equiv_pos_as_xyz
  1  'x, y, z'
loop_
 _atom_site_type_symbol
 _atom_site_label
 _atom_site_symmetry_multiplicity
 _atom_site_fract_x
 _atom_site_fract_y
 _atom_site_fract_z
 _atom_site_occupancy
  Li  Li0  1  0.65817700  0.66826100  0.89674800  1
  Li  Li1  1  0.00659000  0.99939800  0.99471600  1
  Li  Li2  1  0.00087200  0.00714900  0.49475100  1
  Li  Li3  1  0.32689300  0.32990900  0.39204500  1
  V  V4  1  0.17058600  0.17889600  0.71967700  1
  V  V5  1  0.66666900  0.66705300  0.49075300  1
  V  V6  1  0.34652200  0.82191400  0.22108800  1
  V  V7  1  0.33303500  0.33430000  0.99003900  1
  V  V8  1  0.16817400  0.65763400  0.71009700  1
  Fe  Fe9  1  0.82933400  0.34019700  0.21184900  1
  Fe  Fe10  1  0.83097800  0.83287900  0.21061600  1
  Fe  Fe11  1  0.66572100  0.16693400  0.71275600  1
  O  O12  1  0.83852900  0.33449300  0.59619200  1
  O  O13  1  0.94777600  0.52560000  0.34641200  1
  O  O14  1  0.64604700  0.67893200  0.10439900  1
  O  O15  1  0.01427300  0.99594600  0.30543800  1
  O  O16  1  0.00823600  0.00732800  0.80577200  1
  O  O17  1  0.84060100  0.82958700  0.59810900  1
  O  O18  1  0.50939500  0.52620800  0.34414200  1
  O  O19  1  0.51450300  0.95827500  0.34293000  1
  O  O20  1  0.66899600  0.17013700  0.09710100  1
  O  O21  1  0.34870200  0.82272600  0.59466000  1
  O  O22  1  0.47262400  0.04032400  0.84384000  1
  O  O23  1  0.47244100  0.47579700  0.84598300  1
  O  O24  1  0.33220000  0.31473700  0.60249800  1
  O  O25  1  0.17588400  0.17412700  0.09445800  1
  O  O26  1  0.03443900  0.47433900  0.84341000  1
  O  O27  1  0.17180100  0.66661800  0.09735800  1
