# generated using pymatgen
data_Li3V5O10
_symmetry_space_group_name_H-M   'P 1'
_cell_length_a   5.13973816
_cell_length_b   7.87419457
_cell_length_c   10.36900386
_cell_angle_alpha   105.71459752
_cell_angle_beta   103.11988082
_cell_angle_gamma   73.67608653
_symmetry_Int_Tables_number   1
_chemical_formula_structural   Li3V5O10
_chemical_formula_sum   'Li6 V10 O20'
_cell_volume   382.47304590
_cell_formula_units_Z   2
loop_
 _symmetry_equiv_pos_site_id
 _symmetry_equiv_pos_as_xyz
  1  'x, y, z'
loop_
 _atom_site_type_symbol
 _atom_site_label
 _atom_site_symmetry_multiplicity
 _atom_site_fract_x
 _atom_site_fract_y
 _atom_site_fract_z
 _atom_site_occupancy
  Li  Li0  1  0.00230800  0.49830400  0.24927100  1
  Li  Li1  1  0.99758200  0.50179800  0.75079200  1
  Li  Li2  1  0.52079100  0.39370300  0.10023100  1
  Li  Li3  1  0.52153900  0.39265000  0.59913300  1
  Li  Li4  1  0.47844700  0.60735600  0.40091800  1
  Li  Li5  1  0.47915500  0.60634100  0.89982700  1
  V  V6  1  0.49999000  0.99998300  0.00000200  1
  V  V7  1  0.01969700  0.68812300  0.55948900  1
  V  V8  1  0.98035900  0.31184500  0.44050700  1
  V  V9  1  0.96057100  0.90096700  0.34609100  1
  V  V10  1  0.03948900  0.09904200  0.65389100  1
  V  V11  1  0.50001400  0.99998700  0.49999200  1
  V  V12  1  0.02035100  0.68802200  0.05956900  1
  V  V13  1  0.97969800  0.31196300  0.94044800  1
  V  V14  1  0.96056300  0.90108500  0.84602400  1
  V  V15  1  0.03941100  0.09894900  0.15395400  1
  O  O16  1  0.22648700  0.85908200  0.02181500  1
  O  O17  1  0.22549400  0.85885200  0.52188100  1
  O  O18  1  0.77453800  0.14112300  0.47808800  1
  O  O19  1  0.77346700  0.14090600  0.97815500  1
  O  O20  1  0.78907800  0.51888400  0.05360700  1
  O  O21  1  0.78906100  0.51870200  0.55359500  1
  O  O22  1  0.21095000  0.48131900  0.44643200  1
  O  O23  1  0.21088700  0.48114900  0.94640100  1
  O  O24  1  0.78612600  0.93982200  0.16042900  1
  O  O25  1  0.78534700  0.94043500  0.66071700  1
  O  O26  1  0.21467800  0.05954300  0.33925500  1
  O  O27  1  0.21385700  0.06015800  0.83956500  1
  O  O28  1  0.25628200  0.23092700  0.09825600  1
  O  O29  1  0.25763200  0.23018200  0.59796000  1
  O  O30  1  0.74242400  0.76974800  0.40199700  1
  O  O31  1  0.74370900  0.76903800  0.90171500  1
  O  O32  1  0.19204500  0.67023600  0.22867600  1
  O  O33  1  0.19155800  0.67051200  0.72855000  1
  O  O34  1  0.80843600  0.32950700  0.27146000  1
  O  O35  1  0.80797700  0.32975500  0.77130700  1
