# generated using pymatgen
data_LiMnPO4F
_symmetry_space_group_name_H-M   'P 1'
_cell_length_a   6.16141700
_cell_length_b   10.85760000
_cell_length_c   12.52220300
_cell_angle_alpha   90.00000000
_cell_angle_beta   90.00000000
_cell_angle_gamma   90.00000000
_symmetry_Int_Tables_number   1
_chemical_formula_structural   LiMnPO4F
_chemical_formula_sum   'Li8 Mn8 P8 O32 F8'
_cell_volume   837.71285600
_cell_formula_units_Z   8
loop_
 _symmetry_equiv_pos_site_id
 _symmetry_equiv_pos_as_xyz
  1  'x, y, z'
loop_
 _atom_site_type_symbol
 _atom_site_label
 _atom_site_symmetry_multiplicity
 _atom_site_fract_x
 _atom_site_fract_y
 _atom_site_fract_z
 _atom_site_occupancy
  Li  Li0  1  0.80134500  0.17244400  0.38612100  1
  Li  Li1  1  0.69865500  0.17244400  0.88612100  1
  Li  Li2  1  0.60137100  0.46538400  0.60575400  1
  Li  Li3  1  0.89862900  0.46538400  0.10575400  1
  Li  Li4  1  0.30134500  0.67244400  0.11387900  1
  Li  Li5  1  0.19865500  0.67244400  0.61387900  1
  Li  Li6  1  0.39862900  0.96538400  0.39424600  1
  Li  Li7  1  0.10137100  0.96538400  0.89424600  1
  Mn  Mn8  1  0.99080000  0.00453500  0.12209500  1
  Mn  Mn9  1  0.50920000  0.00453500  0.62209500  1
  Mn  Mn10  1  0.23581200  0.24684600  0.25813900  1
  Mn  Mn11  1  0.26418800  0.24684600  0.75813900  1
  Mn  Mn12  1  0.49080000  0.50453500  0.37790500  1
  Mn  Mn13  1  0.00920000  0.50453500  0.87790500  1
  Mn  Mn14  1  0.73581200  0.74684600  0.24186100  1
  Mn  Mn15  1  0.76418800  0.74684600  0.74186100  1
  P  P16  1  0.34942700  0.24134600  0.50465600  1
  P  P17  1  0.15057300  0.24134600  0.00465600  1
  P  P18  1  0.99127100  0.50223800  0.31530000  1
  P  P19  1  0.50872900  0.50223800  0.81530000  1
  P  P20  1  0.84942700  0.74134600  0.99534400  1
  P  P21  1  0.65057300  0.74134600  0.49534400  1
  P  P22  1  0.49127100  0.00223800  0.18470000  1
  P  P23  1  0.00872900  0.00223800  0.68470000  1
  O  O24  1  0.81625700  0.03029100  0.61086400  1
  O  O25  1  0.68374300  0.03029100  0.11086400  1
  O  O26  1  0.06047400  0.10402600  0.77023600  1
  O  O27  1  0.43952600  0.10402600  0.27023600  1
  O  O28  1  0.01044300  0.11913500  0.99773100  1
  O  O29  1  0.48955700  0.11913500  0.49773100  1
  O  O30  1  0.18102700  0.23938200  0.41172800  1
  O  O31  1  0.31897300  0.23938200  0.91172800  1
  O  O32  1  0.28539600  0.24382200  0.10771600  1
  O  O33  1  0.21460400  0.24382200  0.60771600  1
  O  O34  1  0.50473800  0.35103800  0.49611100  1
  O  O35  1  0.99526200  0.35103800  0.99611100  1
  O  O36  1  0.03331200  0.38837000  0.24231500  1
  O  O37  1  0.46668800  0.38837000  0.74231500  1
  O  O38  1  0.79789900  0.48154400  0.39040600  1
  O  O39  1  0.70210100  0.48154400  0.89040600  1
  O  O40  1  0.18374300  0.53029100  0.38913600  1
  O  O41  1  0.31625700  0.53029100  0.88913600  1
  O  O42  1  0.93952600  0.60402600  0.22976400  1
  O  O43  1  0.56047400  0.60402600  0.72976400  1
  O  O44  1  0.51044300  0.61913500  0.50226900  1
  O  O45  1  0.98955700  0.61913500  0.00226900  1
  O  O46  1  0.68102700  0.73938200  0.08827200  1
  O  O47  1  0.81897300  0.73938200  0.58827200  1
  O  O48  1  0.78539600  0.74382200  0.39228400  1
  O  O49  1  0.71460400  0.74382200  0.89228400  1
  O  O50  1  0.00473800  0.85103800  0.00388900  1
  O  O51  1  0.49526200  0.85103800  0.50388900  1
  O  O52  1  0.96668800  0.88837000  0.75768500  1
  O  O53  1  0.53331200  0.88837000  0.25768500  1
  O  O54  1  0.29789900  0.98154400  0.10959400  1
  O  O55  1  0.20210100  0.98154400  0.60959400  1
  F  F56  1  0.95859800  0.12974500  0.25921700  1
  F  F57  1  0.54140200  0.12974500  0.75921700  1
  F  F58  1  0.48616500  0.37985300  0.27028300  1
  F  F59  1  0.01383500  0.37985300  0.77028300  1
  F  F60  1  0.45859800  0.62974500  0.24078300  1
  F  F61  1  0.04140200  0.62974500  0.74078300  1
  F  F62  1  0.98616500  0.87985300  0.22971700  1
  F  F63  1  0.51383500  0.87985300  0.72971700  1
