# generated using pymatgen
data_LiCo2(PO4)2
_symmetry_space_group_name_H-M   'P 1'
_cell_length_a   5.09285700
_cell_length_b   10.20913300
_cell_length_c   13.73578200
_cell_angle_alpha   90.00000000
_cell_angle_beta   90.00000000
_cell_angle_gamma   90.00000000
_symmetry_Int_Tables_number   1
_chemical_formula_structural   LiCo2(PO4)2
_chemical_formula_sum   'Li4 Co8 P8 O32'
_cell_volume   714.17350309
_cell_formula_units_Z   4
loop_
 _symmetry_equiv_pos_site_id
 _symmetry_equiv_pos_as_xyz
  1  'x, y, z'
loop_
 _atom_site_type_symbol
 _atom_site_label
 _atom_site_symmetry_multiplicity
 _atom_site_fract_x
 _atom_site_fract_y
 _atom_site_fract_z
 _atom_site_occupancy
  Li  Li0  1  0.54950900  0.22080100  0.25025400  1
  Li  Li1  1  0.54950900  0.27919900  0.75025400  1
  Li  Li2  1  0.45049100  0.72080100  0.25025400  1
  Li  Li3  1  0.45049100  0.77919900  0.75025400  1
  Co  Co4  1  0.05903600  0.03506400  0.24720700  1
  Co  Co5  1  0.55394200  0.22159400  0.99927400  1
  Co  Co6  1  0.55394200  0.27840600  0.49927400  1
  Co  Co7  1  0.05903600  0.46493600  0.74720700  1
  Co  Co8  1  0.94096400  0.53506400  0.24720700  1
  Co  Co9  1  0.44605800  0.72159400  0.99927400  1
  Co  Co10  1  0.44605800  0.77840600  0.49927400  1
  Co  Co11  1  0.94096400  0.96493600  0.74720700  1
  P  P12  1  0.43848700  0.02900200  0.62353600  1
  P  P13  1  0.05075200  0.21690500  0.87191900  1
  P  P14  1  0.05075200  0.28309500  0.37191900  1
  P  P15  1  0.43848700  0.47099800  0.12353600  1
  P  P16  1  0.56151300  0.52900200  0.62353600  1
  P  P17  1  0.94924800  0.71690500  0.87191900  1
  P  P18  1  0.94924800  0.78309500  0.37191900  1
  P  P19  1  0.56151300  0.97099800  0.12353600  1
  O  O20  1  0.13829100  0.00165100  0.63889900  1
  O  O21  1  0.47505700  0.03711300  0.02938200  1
  O  O22  1  0.42256700  0.03554000  0.21524700  1
  O  O23  1  0.99110000  0.06857800  0.85452700  1
  O  O24  1  0.49196900  0.17773600  0.62393300  1
  O  O25  1  0.93883400  0.20821200  0.27999700  1
  O  O26  1  0.91864400  0.24035600  0.46637400  1
  O  O27  1  0.35087500  0.24329100  0.87452900  1
  O  O28  1  0.35087500  0.25670900  0.37452900  1
  O  O29  1  0.91864400  0.25964400  0.96637400  1
  O  O30  1  0.93883400  0.29178800  0.77999700  1
  O  O31  1  0.49196900  0.32226400  0.12393300  1
  O  O32  1  0.99110000  0.43142200  0.35452700  1
  O  O33  1  0.42256700  0.46446000  0.71524700  1
  O  O34  1  0.47505700  0.46288700  0.52938200  1
  O  O35  1  0.13829100  0.49834900  0.13889900  1
  O  O36  1  0.86170900  0.50165100  0.63889900  1
  O  O37  1  0.52494300  0.53711300  0.02938200  1
  O  O38  1  0.57743300  0.53554000  0.21524700  1
  O  O39  1  0.00890000  0.56857800  0.85452700  1
  O  O40  1  0.50803100  0.67773600  0.62393300  1
  O  O41  1  0.06116600  0.70821200  0.27999700  1
  O  O42  1  0.08135600  0.74035600  0.46637400  1
  O  O43  1  0.64912500  0.74329100  0.87452900  1
  O  O44  1  0.64912500  0.75670900  0.37452900  1
  O  O45  1  0.08135600  0.75964400  0.96637400  1
  O  O46  1  0.06116600  0.79178800  0.77999700  1
  O  O47  1  0.50803100  0.82226400  0.12393300  1
  O  O48  1  0.00890000  0.93142200  0.35452700  1
  O  O49  1  0.57743300  0.96446000  0.71524700  1
  O  O50  1  0.52494300  0.96288700  0.52938200  1
  O  O51  1  0.86170900  0.99834900  0.13889900  1
