# generated using pymatgen
data_Li5V3P8O29
_symmetry_space_group_name_H-M   'P 1'
_cell_length_a   9.79806300
_cell_length_b   9.80275774
_cell_length_c   13.90047246
_cell_angle_alpha   89.88382761
_cell_angle_beta   89.89658252
_cell_angle_gamma   60.26162020
_symmetry_Int_Tables_number   1
_chemical_formula_structural   Li5V3P8O29
_chemical_formula_sum   'Li10 V6 P16 O58'
_cell_volume   1159.27508056
_cell_formula_units_Z   2
loop_
 _symmetry_equiv_pos_site_id
 _symmetry_equiv_pos_as_xyz
  1  'x, y, z'
loop_
 _atom_site_type_symbol
 _atom_site_label
 _atom_site_symmetry_multiplicity
 _atom_site_fract_x
 _atom_site_fract_y
 _atom_site_fract_z
 _atom_site_occupancy
  Li  Li0  1  0.91178300  0.77569200  0.05950000  1
  Li  Li1  1  0.76947300  0.90431900  0.56058600  1
  Li  Li2  1  0.91079100  0.31744600  0.55893300  1
  Li  Li3  1  0.66581300  0.66565400  0.88370200  1
  Li  Li4  1  0.77371000  0.31268600  0.06065200  1
  Li  Li5  1  0.31914100  0.90688700  0.06052400  1
  Li  Li6  1  0.67727900  0.22883400  0.43898900  1
  Li  Li7  1  0.32312700  0.77307100  0.55868700  1
  Li  Li8  1  0.09487500  0.67967700  0.43949900  1
  Li  Li9  1  0.09593000  0.22651400  0.94020900  1
  V  V10  1  0.56665700  0.43318900  0.24591500  1
  V  V11  1  0.43157900  0.56602900  0.75394100  1
  V  V12  1  0.56551500  0.00662300  0.75349200  1
  V  V13  1  0.42900500  0.00509900  0.25431200  1
  V  V14  1  0.00056100  0.56719600  0.25072600  1
  V  V15  1  0.99979100  0.43131600  0.74611000  1
  P  P16  1  0.90918300  0.76964800  0.84270200  1
  P  P17  1  0.76753900  0.91412700  0.34273500  1
  P  P18  1  0.91116700  0.31881800  0.34236700  1
  P  P19  1  0.66532200  0.67073200  0.12649000  1
  P  P20  1  0.66504100  0.66876900  0.62678500  1
  P  P21  1  0.77095400  0.31891000  0.84335600  1
  P  P22  1  0.68045300  0.23311500  0.65870500  1
  P  P23  1  0.31714500  0.91225900  0.84332700  1
  P  P24  1  0.68299800  0.08450700  0.15676800  1
  P  P25  1  0.32106200  0.76654900  0.34190100  1
  P  P26  1  0.23041700  0.68389300  0.15752800  1
  P  P27  1  0.33523600  0.33416100  0.37417900  1
  P  P28  1  0.33027600  0.33350400  0.87466300  1
  P  P29  1  0.08675900  0.68384200  0.65825500  1
  P  P30  1  0.23222600  0.08345000  0.65693800  1
  P  P31  1  0.08890600  0.23118500  0.15897300  1
  O  O32  1  0.99599000  0.75817800  0.56774300  1
  O  O33  1  0.91480500  0.74906500  0.34242400  1
  O  O34  1  0.76592600  0.99047300  0.07080700  1
  O  O35  1  0.74132100  0.91685300  0.83303200  1
  O  O36  1  0.88778600  0.62490500  0.82530600  1
  O  O37  1  0.81261800  0.67571900  0.16470100  1
  O  O38  1  0.90310200  0.47883500  0.32142100  1
  O  O39  1  0.00265500  0.23746700  0.06806000  1
  O  O40  1  0.92145700  0.33600400  0.83858500  1
  O  O41  1  0.66940200  0.81649300  0.66928000  1
  O  O42  1  0.61686500  0.90355100  0.32379400  1
  O  O43  1  0.81331800  0.51308100  0.66568200  1
  O  O44  1  0.66190600  0.67167300  0.01784900  1
  O  O45  1  0.66599400  0.67072100  0.51945500  1
  O  O46  1  0.67301800  0.51454100  0.16355800  1
  O  O47  1  0.48371800  0.89582800  0.82546100  1
  O  O48  1  0.51231900  0.81753500  0.16663600  1
  O  O49  1  0.74333100  0.33961300  0.33693200  1
  O  O50  1  0.78997400  0.21148400  0.75089400  1
  O  O51  1  0.76145300  0.23796900  0.56791600  1
  O  O52  1  0.76197300  0.24495000  0.93451000  1
  O  O53  1  0.62784900  0.48619500  0.82605900  1
  O  O54  1  0.51466200  0.66929300  0.66933400  1
  O  O55  1  0.66221200  0.25171800  0.15716800  1
  O  O56  1  0.47939300  0.61881600  0.32440700  1
  O  O57  1  0.34152500  0.91344900  0.33418600  1
  O  O58  1  0.78885900  0.00525700  0.25349900  1
  O  O59  1  0.75274500  0.00191600  0.43438900  1
  O  O60  1  0.24402900  0.98954500  0.57108300  1
  O  O61  1  0.66372300  0.08286300  0.66091300  1
  O  O62  1  0.52163500  0.38124600  0.67396100  1
  O  O63  1  0.34081400  0.74659500  0.84165800  1
  O  O64  1  0.48822400  0.32530500  0.33322600  1
  O  O65  1  0.38092200  0.52280000  0.17566600  1
  O  O66  1  0.23933500  0.76806300  0.07135100  1
  O  O67  1  0.24188600  0.76103500  0.43334900  1
  O  O68  1  0.20591500  0.78713300  0.25385000  1
  O  O69  1  0.25126500  0.66543200  0.65761300  1
  O  O70  1  0.47968700  0.18353500  0.82612000  1
  O  O71  1  0.52327200  0.09309800  0.17759300  1
  O  O72  1  0.33726100  0.47731000  0.82873900  1
  O  O73  1  0.34010000  0.32364100  0.98073400  1
  O  O74  1  0.33539100  0.32672300  0.48098900  1
  O  O75  1  0.18657200  0.48623500  0.33483300  1
  O  O76  1  0.38360900  0.09155300  0.67856400  1
  O  O77  1  0.33279800  0.18526500  0.32615200  1
  O  O78  1  0.08440500  0.66102600  0.16022600  1
  O  O79  1  0.99937900  0.79014200  0.75080200  1
  O  O80  1  0.98988000  0.76537000  0.93346600  1
  O  O81  1  0.09454100  0.52392500  0.67767900  1
  O  O82  1  0.18404300  0.32955600  0.83424600  1
  O  O83  1  0.10207900  0.37803800  0.17585800  1
  O  O84  1  0.25473700  0.08186200  0.16130300  1
  O  O85  1  0.24584100  0.00343000  0.93366400  1
  O  O86  1  0.20611000  0.00552300  0.75398100  1
  O  O87  1  0.08637700  0.25085800  0.65693100  1
  O  O88  1  0.99176900  0.24679400  0.43407200  1
  O  O89  1  0.99937500  0.20904200  0.25036300  1
