# generated using pymatgen
data_Li3Ti3CrO8
_symmetry_space_group_name_H-M   'P 1'
_cell_length_a   10.47583851
_cell_length_b   10.47583808
_cell_length_c   14.86152857
_cell_angle_alpha   18.95649909
_cell_angle_beta   18.95650456
_cell_angle_gamma   32.67902261
_symmetry_Int_Tables_number   1
_chemical_formula_structural   Li3Ti3CrO8
_chemical_formula_sum   'Li3 Ti3 Cr1 O8'
_cell_volume   149.05211813
_cell_formula_units_Z   1
loop_
 _symmetry_equiv_pos_site_id
 _symmetry_equiv_pos_as_xyz
  1  'x, y, z'
loop_
 _atom_site_type_symbol
 _atom_site_label
 _atom_site_symmetry_multiplicity
 _atom_site_fract_x
 _atom_site_fract_y
 _atom_site_fract_z
 _atom_site_occupancy
  Li  Li0  1  0.00000000  0.50000000  0.50000000  1
  Li  Li1  1  0.50000000  0.00000000  0.50000000  1
  Li  Li2  1  0.50000000  0.50000000  0.50000000  1
  Ti  Ti3  1  0.00000000  0.50000000  0.00000000  1
  Ti  Ti4  1  0.50000000  0.00000000  0.00000000  1
  Ti  Ti5  1  0.50000000  0.50000000  0.00000000  1
  Cr  Cr6  1  0.00000000  0.00000000  0.00000000  1
  O  O7  1  0.00000000  0.00000000  0.25469200  1
  O  O8  1  0.00000000  0.50537800  0.25625800  1
  O  O9  1  0.50537800  0.00000000  0.25625800  1
  O  O10  1  0.00000000  0.00000000  0.74530800  1
  O  O11  1  0.49462200  0.49462200  0.26701200  1
  O  O12  1  0.00000000  0.49462200  0.74374200  1
  O  O13  1  0.49462200  0.00000000  0.74374200  1
  O  O14  1  0.50537800  0.50537800  0.73298800  1
