# generated using pymatgen
data_LiVF4
_symmetry_space_group_name_H-M   'P 1'
_cell_length_a   7.85421700
_cell_length_b   8.61115300
_cell_length_c   10.25190500
_cell_angle_alpha   90.00000000
_cell_angle_beta   90.00000000
_cell_angle_gamma   90.00000000
_symmetry_Int_Tables_number   1
_chemical_formula_structural   LiVF4
_chemical_formula_sum   'Li8 V8 F32'
_cell_volume   693.37595140
_cell_formula_units_Z   8
loop_
 _symmetry_equiv_pos_site_id
 _symmetry_equiv_pos_as_xyz
  1  'x, y, z'
loop_
 _atom_site_type_symbol
 _atom_site_label
 _atom_site_symmetry_multiplicity
 _atom_site_fract_x
 _atom_site_fract_y
 _atom_site_fract_z
 _atom_site_occupancy
  Li  Li0  1  0.70878900  0.25000000  0.55196700  1
  Li  Li1  1  0.74386200  0.25000000  0.95260100  1
  Li  Li2  1  0.75613800  0.75000000  0.45260100  1
  Li  Li3  1  0.79121100  0.75000000  0.05196700  1
  Li  Li4  1  0.20878900  0.25000000  0.94803300  1
  Li  Li5  1  0.24386200  0.25000000  0.54739900  1
  Li  Li6  1  0.25613800  0.75000000  0.04739900  1
  Li  Li7  1  0.29121100  0.75000000  0.44803300  1
  V  V8  1  0.63917700  0.06059100  0.24887300  1
  V  V9  1  0.63917700  0.43940900  0.24887300  1
  V  V10  1  0.86082300  0.56059100  0.74887300  1
  V  V11  1  0.86082300  0.93940900  0.74887300  1
  V  V12  1  0.13917700  0.06059100  0.25112700  1
  V  V13  1  0.13917700  0.43940900  0.25112700  1
  V  V14  1  0.36082300  0.56059100  0.75112700  1
  V  V15  1  0.36082300  0.93940900  0.75112700  1
  F  F16  1  0.60962800  0.56716300  0.76349800  1
  F  F17  1  0.60962800  0.93283700  0.76349800  1
  F  F18  1  0.63355600  0.25000000  0.37357800  1
  F  F19  1  0.62714200  0.58710100  0.38779200  1
  F  F20  1  0.62714200  0.91289900  0.38779200  1
  F  F21  1  0.64808800  0.25000000  0.12280100  1
  F  F22  1  0.66000100  0.58367400  0.11065700  1
  F  F23  1  0.66000100  0.91632600  0.11065700  1
  F  F24  1  0.83999900  0.08367400  0.61065700  1
  F  F25  1  0.83999900  0.41632600  0.61065700  1
  F  F26  1  0.85191200  0.75000000  0.62280100  1
  F  F27  1  0.87285800  0.08710100  0.88779200  1
  F  F28  1  0.87285800  0.41289900  0.88779200  1
  F  F29  1  0.86644400  0.75000000  0.87357800  1
  F  F30  1  0.89037200  0.06716300  0.26349800  1
  F  F31  1  0.89037200  0.43283700  0.26349800  1
  F  F32  1  0.10962800  0.56716300  0.73650200  1
  F  F33  1  0.10962800  0.93283700  0.73650200  1
  F  F34  1  0.13355600  0.25000000  0.12642200  1
  F  F35  1  0.12714200  0.58710100  0.11220800  1
  F  F36  1  0.12714200  0.91289900  0.11220800  1
  F  F37  1  0.14808800  0.25000000  0.37719900  1
  F  F38  1  0.16000100  0.58367400  0.38934300  1
  F  F39  1  0.16000100  0.91632600  0.38934300  1
  F  F40  1  0.33999900  0.08367400  0.88934300  1
  F  F41  1  0.33999900  0.41632600  0.88934300  1
  F  F42  1  0.35191200  0.75000000  0.87719900  1
  F  F43  1  0.37285800  0.08710100  0.61220800  1
  F  F44  1  0.37285800  0.41289900  0.61220800  1
  F  F45  1  0.36644400  0.75000000  0.62642200  1
  F  F46  1  0.39037200  0.06716300  0.23650200  1
  F  F47  1  0.39037200  0.43283700  0.23650200  1
