# generated using pymatgen
data_Li3Mn5Cr3O16
_symmetry_space_group_name_H-M   'P 1'
_cell_length_a   5.91125615
_cell_length_b   5.91125615
_cell_length_c   10.19571751
_cell_angle_alpha   73.46529404
_cell_angle_beta   73.46529404
_cell_angle_gamma   59.21135078
_symmetry_Int_Tables_number   1
_chemical_formula_structural   Li3Mn5Cr3O16
_chemical_formula_sum   'Li3 Mn5 Cr3 O16'
_cell_volume   289.19577368
_cell_formula_units_Z   1
loop_
 _symmetry_equiv_pos_site_id
 _symmetry_equiv_pos_as_xyz
  1  'x, y, z'
loop_
 _atom_site_type_symbol
 _atom_site_label
 _atom_site_symmetry_multiplicity
 _atom_site_fract_x
 _atom_site_fract_y
 _atom_site_fract_z
 _atom_site_occupancy
  Li  Li0  1  0.68674200  0.68674200  0.43203200  1
  Li  Li1  1  0.18469700  0.18469700  0.93905300  1
  Li  Li2  1  0.31769500  0.31769500  0.56297700  1
  Mn  Mn3  1  0.49988300  0.49988300  0.00161400  1
  Mn  Mn4  1  0.75092100  0.25050600  0.24717900  1
  Mn  Mn5  1  0.24985200  0.75026800  0.75029200  1
  Mn  Mn6  1  0.25050600  0.75092100  0.24717900  1
  Mn  Mn7  1  0.75026800  0.24985200  0.75029200  1
  Cr  Cr8  1  0.25158100  0.25158100  0.24685900  1
  Cr  Cr9  1  0.00054200  0.00054200  0.49870700  1
  Cr  Cr10  1  0.75043100  0.75043100  0.75156800  1
  O  O11  1  0.60977600  0.16814400  0.12850300  1
  O  O12  1  0.16814400  0.60977600  0.12850300  1
  O  O13  1  0.61417700  0.61417700  0.64564000  1
  O  O14  1  0.11419000  0.11419000  0.14375400  1
  O  O15  1  0.34482400  0.88883500  0.36415500  1
  O  O16  1  0.39596700  0.39596700  0.86821200  1
  O  O17  1  0.88883500  0.34482400  0.36415500  1
  O  O18  1  0.89572700  0.89572700  0.36173200  1
  O  O19  1  0.10579600  0.10579600  0.63672300  1
  O  O20  1  0.60212800  0.60212800  0.13104000  1
  O  O21  1  0.11676400  0.65360100  0.63449700  1
  O  O22  1  0.88887200  0.88887200  0.85169800  1
  O  O23  1  0.65360100  0.11676400  0.63449700  1
  O  O24  1  0.38726600  0.38726600  0.35350400  1
  O  O25  1  0.84018500  0.38528600  0.87081500  1
  O  O26  1  0.38528600  0.84018500  0.87081500  1
