# generated using pymatgen
data_Li2Cr2(Si2O5)3
_symmetry_space_group_name_H-M   'P 1'
_cell_length_a   11.44334581
_cell_length_b   11.44334581
_cell_length_c   10.26334700
_cell_angle_alpha   90.00000000
_cell_angle_beta   90.00000000
_cell_angle_gamma   100.77895924
_symmetry_Int_Tables_number   1
_chemical_formula_structural   Li2Cr2(Si2O5)3
_chemical_formula_sum   'Li8 Cr8 Si24 O60'
_cell_volume   1320.27365498
_cell_formula_units_Z   4
loop_
 _symmetry_equiv_pos_site_id
 _symmetry_equiv_pos_as_xyz
  1  'x, y, z'
loop_
 _atom_site_type_symbol
 _atom_site_label
 _atom_site_symmetry_multiplicity
 _atom_site_fract_x
 _atom_site_fract_y
 _atom_site_fract_z
 _atom_site_occupancy
  Li  Li0  1  0.50042400  0.99957600  0.75000000  1
  Li  Li1  1  0.99957600  0.50042400  0.25000000  1
  Li  Li2  1  0.39940700  0.60059300  0.72628500  1
  Li  Li3  1  0.89940700  0.10059300  0.77371500  1
  Li  Li4  1  0.10059300  0.89940700  0.22628500  1
  Li  Li5  1  0.60059300  0.39940700  0.27371500  1
  Li  Li6  1  0.00042400  0.49957600  0.75000000  1
  Li  Li7  1  0.49957600  0.00042400  0.25000000  1
  Cr  Cr8  1  0.24291700  0.24291700  0.00000000  1
  Cr  Cr9  1  0.34044000  0.15956000  0.25000000  1
  Cr  Cr10  1  0.15956000  0.34044000  0.75000000  1
  Cr  Cr11  1  0.25708300  0.25708300  0.50000000  1
  Cr  Cr12  1  0.74291700  0.74291700  0.50000000  1
  Cr  Cr13  1  0.84044000  0.65956000  0.25000000  1
  Cr  Cr14  1  0.65956000  0.84044000  0.75000000  1
  Cr  Cr15  1  0.75708300  0.75708300  0.00000000  1
  Si  Si16  1  0.03427800  0.18661600  0.19234000  1
  Si  Si17  1  0.18661600  0.03427900  0.80766000  1
  Si  Si18  1  0.69523700  0.08350900  0.96288800  1
  Si  Si19  1  0.58350900  0.19523700  0.46288800  1
  Si  Si20  1  0.19523700  0.58350900  0.53711200  1
  Si  Si21  1  0.08350900  0.69523700  0.03711200  1
  Si  Si22  1  0.46572200  0.31338400  0.69234000  1
  Si  Si23  1  0.31338400  0.46572200  0.30766000  1
  Si  Si24  1  0.76234000  0.02025500  0.48928900  1
  Si  Si25  1  0.26234000  0.52025500  0.01071100  1
  Si  Si26  1  0.02025500  0.76234000  0.51071100  1
  Si  Si27  1  0.52025500  0.26234000  0.98928900  1
  Si  Si28  1  0.23766000  0.97974500  0.51071100  1
  Si  Si29  1  0.97974500  0.23766000  0.48928900  1
  Si  Si30  1  0.47974500  0.73766000  0.01071100  1
  Si  Si31  1  0.73766000  0.47974500  0.98928900  1
  Si  Si32  1  0.53427800  0.68661600  0.30766000  1
  Si  Si33  1  0.68661600  0.53427800  0.69234000  1
  Si  Si34  1  0.80476300  0.41649100  0.46288800  1
  Si  Si35  1  0.91649100  0.30476300  0.96288800  1
  Si  Si36  1  0.41649100  0.80476300  0.53711200  1
  Si  Si37  1  0.30476300  0.91649100  0.03711200  1
  Si  Si38  1  0.96572200  0.81338400  0.80766000  1
  Si  Si39  1  0.81338400  0.96572100  0.19234000  1
  O  O40  1  0.24759800  0.02640800  0.66297400  1
  O  O41  1  0.02640800  0.24759800  0.33702600  1
  O  O42  1  0.16057900  0.15097500  0.15827000  1
  O  O43  1  0.15097500  0.16057900  0.84173000  1
  O  O44  1  0.09212200  0.24527200  0.58599600  1
  O  O45  1  0.24527200  0.09212200  0.41400400  1
  O  O46  1  0.40787800  0.25472800  0.08599600  1
  O  O47  1  0.25472800  0.40787800  0.91400400  1
  O  O48  1  0.33942100  0.34902500  0.65827000  1
  O  O49  1  0.34902500  0.33942100  0.34173000  1
  O  O50  1  0.51693200  0.15498100  0.32923700  1
  O  O51  1  0.65498100  0.01693200  0.82923700  1
  O  O52  1  0.01693200  0.65498100  0.17076300  1
  O  O53  1  0.15498100  0.51693200  0.67076300  1
  O  O54  1  0.49609300  0.21461800  0.58628200  1
  O  O55  1  0.71461800  0.99609300  0.08628200  1
  O  O56  1  0.99609300  0.71461800  0.91371800  1
  O  O57  1  0.21461800  0.49609300  0.41371800  1
  O  O58  1  0.65593300  0.09407200  0.51759100  1
  O  O59  1  0.59407200  0.15593300  0.01759100  1
  O  O60  1  0.15593300  0.59407200  0.98240900  1
  O  O61  1  0.09407200  0.65593300  0.48240900  1
  O  O62  1  0.25240200  0.47359200  0.16297400  1
  O  O63  1  0.47359200  0.25240200  0.83702600  1
  O  O64  1  0.06583200  0.93416800  0.81403400  1
  O  O65  1  0.39023100  0.60976900  0.97969400  1
  O  O66  1  0.93416800  0.06583200  0.18596600  1
  O  O67  1  0.67522100  0.32477900  0.43361800  1
  O  O68  1  0.89023100  0.10976900  0.52030600  1
  O  O69  1  0.82477900  0.17522100  0.93361800  1
  O  O70  1  0.56583200  0.43416800  0.68596600  1
  O  O71  1  0.60976900  0.39023100  0.02030600  1
  O  O72  1  0.43416800  0.56583200  0.31403400  1
  O  O73  1  0.17522100  0.82477900  0.06638200  1
  O  O74  1  0.10976900  0.89023100  0.47969400  1
  O  O75  1  0.32477900  0.67522100  0.56638200  1
  O  O76  1  0.52640800  0.74759800  0.16297400  1
  O  O77  1  0.74759800  0.52640800  0.83702600  1
  O  O78  1  0.40592800  0.84406700  0.98240900  1
  O  O79  1  0.84406700  0.40592800  0.01759100  1
  O  O80  1  0.90592800  0.34406700  0.51759100  1
  O  O81  1  0.34406700  0.90592800  0.48240900  1
  O  O82  1  0.50390700  0.78538200  0.41371800  1
  O  O83  1  0.00390700  0.28538200  0.08628200  1
  O  O84  1  0.78538200  0.50390700  0.58628200  1
  O  O85  1  0.28538200  0.00390700  0.91371800  1
  O  O86  1  0.98306800  0.34501900  0.82923700  1
  O  O87  1  0.48306800  0.84501900  0.67076300  1
  O  O88  1  0.84501900  0.48306800  0.32923700  1
  O  O89  1  0.34501900  0.98306800  0.17076300  1
  O  O90  1  0.66057900  0.65097500  0.34173000  1
  O  O91  1  0.65097500  0.66057900  0.65827000  1
  O  O92  1  0.74527200  0.59212200  0.08599600  1
  O  O93  1  0.59212200  0.74527200  0.91400400  1
  O  O94  1  0.90787800  0.75472800  0.41400400  1
  O  O95  1  0.75472800  0.90787800  0.58599600  1
  O  O96  1  0.84902500  0.83942100  0.15827000  1
  O  O97  1  0.83942100  0.84902500  0.84173000  1
  O  O98  1  0.75240200  0.97359200  0.33702600  1
  O  O99  1  0.97359200  0.75240200  0.66297400  1
