# generated using pymatgen
data_Li3Cr2(PO4)3
_symmetry_space_group_name_H-M   'P 1'
_cell_length_a   9.68065189
_cell_length_b   9.68065189
_cell_length_c   9.68750917
_cell_angle_alpha   86.46552405
_cell_angle_beta   86.46552405
_cell_angle_gamma   86.26946178
_symmetry_Int_Tables_number   1
_chemical_formula_structural   Li3Cr2(PO4)3
_chemical_formula_sum   'Li12 Cr8 P12 O48'
_cell_volume   902.70284850
_cell_formula_units_Z   4
loop_
 _symmetry_equiv_pos_site_id
 _symmetry_equiv_pos_as_xyz
  1  'x, y, z'
loop_
 _atom_site_type_symbol
 _atom_site_label
 _atom_site_symmetry_multiplicity
 _atom_site_fract_x
 _atom_site_fract_y
 _atom_site_fract_z
 _atom_site_occupancy
  Li  Li0  1  0.73219000  0.51778900  0.90469000  1
  Li  Li1  1  0.00296400  0.32365700  0.02643000  1
  Li  Li2  1  0.48221100  0.26781000  0.09531000  1
  Li  Li3  1  0.67634300  0.99703600  0.97357000  1
  Li  Li4  1  0.47473500  0.01436900  0.24718500  1
  Li  Li5  1  0.98563100  0.52526500  0.75281500  1
  Li  Li6  1  0.76635800  0.83740900  0.24977700  1
  Li  Li7  1  0.33472900  0.00851600  0.50759300  1
  Li  Li8  1  0.16259100  0.23364200  0.75022200  1
  Li  Li9  1  0.49305600  0.74047800  0.41129700  1
  Li  Li10  1  0.99148400  0.66527100  0.49240700  1
  Li  Li11  1  0.25952200  0.50694400  0.58870300  1
  Cr  Cr12  1  0.75087000  0.46782500  0.28334000  1
  Cr  Cr13  1  0.47138200  0.75226900  0.78181800  1
  Cr  Cr14  1  0.03358900  0.96641100  0.00000000  1
  Cr  Cr15  1  0.25119600  0.74880400  0.00000000  1
  Cr  Cr16  1  0.75054600  0.24945400  0.50000000  1
  Cr  Cr17  1  0.53217500  0.24913000  0.71666000  1
  Cr  Cr18  1  0.96769700  0.03230300  0.50000000  1
  Cr  Cr19  1  0.24773100  0.52861800  0.21818200  1
  P  P20  1  0.32857700  0.44793600  0.90124100  1
  P  P21  1  0.84819600  0.17407500  0.80341400  1
  P  P22  1  0.34878800  0.05158700  0.92045200  1
  P  P23  1  0.82592500  0.15180400  0.19658600  1
  P  P24  1  0.44871200  0.32286800  0.40265000  1
  P  P25  1  0.05202400  0.34823000  0.42556600  1
  P  P26  1  0.94841300  0.65121200  0.07954800  1
  P  P27  1  0.55206400  0.67142300  0.09875900  1
  P  P28  1  0.17712400  0.84316600  0.30217100  1
  P  P29  1  0.65177000  0.94797600  0.57443400  1
  P  P30  1  0.15683400  0.82287600  0.69782900  1
  P  P31  1  0.67713200  0.55128800  0.59735000  1
  O  O32  1  0.21003600  0.40443400  0.82053900  1
  O  O33  1  0.47313200  0.38332800  0.85587200  1
  O  O34  1  0.93113400  0.29197500  0.84544100  1
  O  O35  1  0.68940600  0.18885200  0.84075100  1
  O  O36  1  0.31477400  0.40940800  0.05956800  1
  O  O37  1  0.38959600  0.11733100  0.77472300  1
  O  O38  1  0.89233300  0.03048500  0.87081100  1
  O  O39  1  0.81114800  0.31059400  0.15924900  1
  O  O40  1  0.18997800  0.08921800  0.93565900  1
  O  O41  1  0.38226800  0.46637500  0.35474900  1
  O  O42  1  0.11066800  0.39602100  0.28017700  1
  O  O43  1  0.43702700  0.09323200  0.03388100  1
  O  O44  1  0.96951500  0.10766700  0.12918900  1
  O  O45  1  0.12213600  0.82809800  0.86115300  1
  O  O46  1  0.37909000  0.88735500  0.91807800  1
  O  O47  1  0.88678900  0.37913000  0.42039900  1
  O  O48  1  0.61280700  0.33288800  0.37213800  1
  O  O49  1  0.70802500  0.06886600  0.15455900  1
  O  O50  1  0.41159700  0.20055300  0.32495800  1
  O  O51  1  0.09236200  0.43445000  0.54203600  1
  O  O52  1  0.83353200  0.12275500  0.35969500  1
  O  O53  1  0.66711200  0.38719300  0.62786200  1
  O  O54  1  0.91078200  0.81002200  0.06434100  1
  O  O55  1  0.59059200  0.68522600  0.94043200  1
  O  O56  1  0.40874400  0.31381900  0.56146500  1
  O  O57  1  0.08923700  0.19194400  0.45241000  1
  O  O58  1  0.33284200  0.61168000  0.86988400  1
  O  O59  1  0.17190200  0.87786400  0.13884700  1
  O  O60  1  0.90676800  0.56297300  0.96611900  1
  O  O61  1  0.59556600  0.78996400  0.17946100  1
  O  O62  1  0.30498700  0.90681800  0.34849900  1
  O  O63  1  0.11264500  0.62091000  0.08192200  1
  O  O64  1  0.38832000  0.66715800  0.13011600  1
  O  O65  1  0.62087000  0.11321100  0.57960100  1
  O  O66  1  0.87724500  0.16646800  0.64030500  1
  O  O67  1  0.03498000  0.89592500  0.36641500  1
  O  O68  1  0.56555000  0.90763800  0.45796400  1
  O  O69  1  0.61667200  0.52686800  0.14412800  1
  O  O70  1  0.88266900  0.61040400  0.22527700  1
  O  O71  1  0.80805600  0.91076300  0.54759000  1
  O  O72  1  0.18110400  0.68378700  0.33915600  1
  O  O73  1  0.10407500  0.96502000  0.63358500  1
  O  O74  1  0.60397900  0.88933200  0.71982300  1
  O  O75  1  0.68618100  0.59125600  0.43853500  1
  O  O76  1  0.31621300  0.81889600  0.66084400  1
  O  O77  1  0.09318200  0.69501300  0.65150100  1
  O  O78  1  0.53362500  0.61773200  0.64525100  1
  O  O79  1  0.79944700  0.58840300  0.67504200  1
