# generated using pymatgen
data_Li2Mn2Si3O10
_symmetry_space_group_name_H-M   'P 1'
_cell_length_a   5.51338745
_cell_length_b   5.51338745
_cell_length_c   16.20171025
_cell_angle_alpha   85.70502731
_cell_angle_beta   85.70502731
_cell_angle_gamma   61.04611137
_symmetry_Int_Tables_number   1
_chemical_formula_structural   Li2Mn2Si3O10
_chemical_formula_sum   'Li4 Mn4 Si6 O20'
_cell_volume   429.30227869
_cell_formula_units_Z   2
loop_
 _symmetry_equiv_pos_site_id
 _symmetry_equiv_pos_as_xyz
  1  'x, y, z'
loop_
 _atom_site_type_symbol
 _atom_site_label
 _atom_site_symmetry_multiplicity
 _atom_site_fract_x
 _atom_site_fract_y
 _atom_site_fract_z
 _atom_site_occupancy
  Li  Li0  1  0.58933900  0.79366800  0.77428000  1
  Li  Li1  1  0.79366800  0.58933900  0.27428000  1
  Li  Li2  1  0.36279500  0.15314900  0.55068200  1
  Li  Li3  1  0.15314900  0.36279500  0.05068200  1
  Mn  Mn4  1  0.01162400  0.80689000  0.57716100  1
  Mn  Mn5  1  0.80689000  0.01162400  0.07716100  1
  Mn  Mn6  1  0.20660700  0.97137800  0.91967800  1
  Mn  Mn7  1  0.97137800  0.20660700  0.41967800  1
  Si  Si8  1  0.88638900  0.11519600  0.74980600  1
  Si  Si9  1  0.66787400  0.48916800  0.59908500  1
  Si  Si10  1  0.52987300  0.30590300  0.90206800  1
  Si  Si11  1  0.48916800  0.66787400  0.09908500  1
  Si  Si12  1  0.30590300  0.52987300  0.40206800  1
  Si  Si13  1  0.11519600  0.88638900  0.24980600  1
  O  O14  1  0.92960700  0.87287200  0.69066600  1
  O  O15  1  0.87287200  0.92960700  0.19066600  1
  O  O16  1  0.77593600  0.41708900  0.69651100  1
  O  O17  1  0.50712700  0.61158700  0.88966100  1
  O  O18  1  0.91103300  0.22696700  0.54453300  1
  O  O19  1  0.79839000  0.09973900  0.95941600  1
  O  O20  1  0.65662600  0.78206200  0.57059400  1
  O  O21  1  0.78206200  0.65662600  0.07059400  1
  O  O22  1  0.61158700  0.50712700  0.38966100  1
  O  O23  1  0.62618200  0.14447200  0.81316400  1
  O  O24  1  0.41708900  0.77593600  0.19651100  1
  O  O25  1  0.37640800  0.48339000  0.59416700  1
  O  O26  1  0.24934200  0.30341200  0.93628200  1
  O  O27  1  0.30341200  0.24934200  0.43628200  1
  O  O28  1  0.22696700  0.91103300  0.04453300  1
  O  O29  1  0.09973900  0.79839000  0.45941600  1
  O  O30  1  0.48339000  0.37640800  0.09416700  1
  O  O31  1  0.14447200  0.62618200  0.31316400  1
  O  O32  1  0.15476800  0.04525600  0.80224000  1
  O  O33  1  0.04525600  0.15476800  0.30224000  1
