# generated using pymatgen
data_Li5Co9(P2O7)8
_symmetry_space_group_name_H-M   'P 1'
_cell_length_a   10.71074764
_cell_length_b   9.62331784
_cell_length_c   12.62677874
_cell_angle_alpha   83.37091418
_cell_angle_beta   65.42450126
_cell_angle_gamma   108.65587602
_symmetry_Int_Tables_number   1
_chemical_formula_structural   Li5Co9(P2O7)8
_chemical_formula_sum   'Li5 Co9 P16 O56'
_cell_volume   1073.75242029
_cell_formula_units_Z   1
loop_
 _symmetry_equiv_pos_site_id
 _symmetry_equiv_pos_as_xyz
  1  'x, y, z'
loop_
 _atom_site_type_symbol
 _atom_site_label
 _atom_site_symmetry_multiplicity
 _atom_site_fract_x
 _atom_site_fract_y
 _atom_site_fract_z
 _atom_site_occupancy
  Li  Li0  1  0.79691053  0.14268429  0.68378185  1
  Li  Li1  1  0.49259737  0.05123250  0.91401912  1
  Li  Li2  1  0.46837220  0.07249620  0.42481925  1
  Li  Li3  1  0.98571125  0.55818087  0.41201051  1
  Li  Li4  1  0.32990477  0.64940764  0.16653072  1
  Co  Co5  1  0.00099702  0.99882470  0.00236675  1
  Co  Co6  1  0.29422061  0.69217378  0.92275222  1
  Co  Co7  1  0.80733596  0.20223348  0.41571011  1
  Co  Co8  1  0.44477670  0.44632661  0.31771549  1
  Co  Co9  1  0.55628398  0.55592565  0.68952183  1
  Co  Co10  1  0.93966546  0.93365911  0.80206538  1
  Co  Co11  1  0.19125440  0.78811889  0.58170173  1
  Co  Co12  1  0.70570337  0.30513245  0.07314102  1
  Co  Co13  1  0.06202879  0.06066819  0.20120450  1
  P  P14  1  0.40869099  0.20919529  0.13120813  1
  P  P15  1  0.08239311  0.29184588  0.37331042  1
  P  P16  1  0.23355456  0.53407635  0.72729491  1
  P  P17  1  0.44857814  0.76800969  0.33824538  1
  P  P18  1  0.58839583  0.78869033  0.86967589  1
  P  P19  1  0.72788559  0.03711076  0.22813851  1
  P  P20  1  0.95466768  0.25983879  0.84159058  1
  P  P21  1  0.77245351  0.45659612  0.26894790  1
  P  P22  1  0.31526832  0.36877130  0.98400686  1
  P  P23  1  0.90224677  0.71088887  0.63011075  1
  P  P24  1  0.18257708  0.13000437  0.51538742  1
  P  P25  1  0.04628204  0.73028111  0.15768906  1
  P  P26  1  0.68244297  0.63345929  0.02115470  1
  P  P27  1  0.56220448  0.23027034  0.64911306  1
  P  P28  1  0.81275195  0.87767227  0.48582569  1
  P  P29  1  0.27677319  0.96567031  0.77063320  1
  O  O30  1  0.63092997  0.85578351  0.27822080  1
  O  O31  1  0.89028120  0.05190770  0.15461049  1
  O  O32  1  0.69958395  0.10071325  0.33815969  1
  O  O33  1  0.20090433  0.60249318  0.83334973  1
  O  O34  1  0.97568284  0.77408793  0.70908468  1
  O  O35  1  0.17671105  0.59554383  0.64579739  1
  O  O36  1  0.01859937  0.66816701  0.53537407  1
  O  O37  1  0.51949056  0.72368703  0.79048943  1
  O  O38  1  0.68041589  0.72609322  0.53162060  1
  O  O39  1  0.56201482  0.60054174  0.15114311  1
  O  O40  1  0.60839521  0.65151157  0.93496380  1
  O  O41  1  0.80752772  0.39133780  0.16117411  1
  O  O42  1  0.01065113  0.22610124  0.29388439  1
  O  O43  1  0.61290099  0.17792674  0.73619167  1
  O  O44  1  0.90159269  0.86142120  0.56026250  1
  O  O45  1  0.86431895  0.64013689  0.22143251  1
  O  O46  1  0.89358222  0.33141474  0.94201418  1
  O  O47  1  0.74176311  0.59195732  0.70433954  1
  O  O48  1  0.81941395  0.79022251  0.97229561  1
  O  O49  1  0.33499063  0.90811803  0.85103169  1
  O  O50  1  0.17837630  0.21213425  0.03356740  1
  O  O51  1  0.74301835  0.92346661  0.80001964  1
  O  O52  1  0.60815916  0.42850962  0.34240329  1
  O  O53  1  0.39723972  0.78666142  0.24619469  1
  O  O54  1  0.90068035  0.26620607  0.75013866  1
  O  O55  1  0.31546970  0.28159617  0.47294284  1
  O  O56  1  0.06787508  0.89860741  0.10926358  1
  O  O57  1  0.13597191  0.35271779  0.77781498  1
  O  O58  1  0.10772910  0.66821756  0.04999319  1
  O  O59  1  0.27338946  0.50233057  0.01591281  1
  O  O60  1  0.77736424  0.01578826  0.51417494  1
  O  O61  1  0.41942728  0.59974123  0.39057993  1
  O  O62  1  0.23288092  0.00091707  0.48594371  1
  O  O63  1  0.11552252  0.95595048  0.84671054  1
  O  O64  1  0.47426611  0.27110642  0.21387421  1
  O  O65  1  0.23328941  0.42648849  0.30358875  1
  O  O66  1  0.39622482  0.35335853  0.06486199  1
  O  O67  1  0.93395205  0.09438088  0.89632997  1
  O  O68  1  0.06495768  0.08822597  0.65041668  1
  O  O69  1  0.10068499  0.70633143  0.24753821  1
  O  O70  1  0.83957662  0.40533507  0.34609865  1
  O  O71  1  0.29103606  0.89639540  0.66669864  1
  O  O72  1  0.94920521  0.31673980  0.47148039  1
  O  O73  1  0.60098934  0.40081091  0.61045252  1
  O  O74  1  0.92248188  0.91050716  0.34996331  1
  O  O75  1  0.24848892  0.08457971  0.20097952  1
  O  O76  1  0.42327200  0.39729643  0.85136491  1
  O  O77  1  0.61288974  0.17388164  0.53379918  1
  O  O78  1  0.39203250  0.84185013  0.44050950  1
  O  O79  1  0.72800148  0.50139432  0.99589886  1
  O  O80  1  0.46456975  0.82197130  0.96811339  1
  O  O81  1  0.66704764  0.10067162  0.15329853  1
  O  O82  1  0.09865084  0.15064301  0.43743736  1
  O  O83  1  0.52548027  0.17055504  0.03341340  1
  O  O84  1  0.37991222  0.14685395  0.71250289  1
  O  O85  1  0.39579816  0.55210441  0.65879401  1
