# generated using pymatgen
data_LiTaWO6
_symmetry_space_group_name_H-M   'P 1'
_cell_length_a   7.44351400
_cell_length_b   7.44351400
_cell_length_c   10.44811600
_cell_angle_alpha   90.00000000
_cell_angle_beta   90.00000000
_cell_angle_gamma   90.00000000
_symmetry_Int_Tables_number   1
_chemical_formula_structural   LiTaWO6
_chemical_formula_sum   'Li4 Ta4 W4 O24'
_cell_volume   578.88727727
_cell_formula_units_Z   4
loop_
 _symmetry_equiv_pos_site_id
 _symmetry_equiv_pos_as_xyz
  1  'x, y, z'
loop_
 _atom_site_type_symbol
 _atom_site_label
 _atom_site_symmetry_multiplicity
 _atom_site_fract_x
 _atom_site_fract_y
 _atom_site_fract_z
 _atom_site_occupancy
  Li  Li0  1  0.50000000  0.13712500  0.00000000  1
  Li  Li1  1  0.86287500  0.50000000  0.25000000  1
  Li  Li2  1  0.50000000  0.86287500  0.50000000  1
  Li  Li3  1  0.13712500  0.50000000  0.75000000  1
  Ta  Ta4  1  0.50000000  0.74122300  0.00000000  1
  Ta  Ta5  1  0.25877700  0.50000000  0.25000000  1
  Ta  Ta6  1  0.50000000  0.25877700  0.50000000  1
  Ta  Ta7  1  0.74122300  0.50000000  0.75000000  1
  W  W8  1  0.00000000  0.74788100  0.00000000  1
  W  W9  1  0.25211900  0.00000000  0.25000000  1
  W  W10  1  0.00000000  0.25211900  0.50000000  1
  W  W11  1  0.74788100  0.00000000  0.75000000  1
  O  O12  1  0.55981100  0.55981100  0.87500000  1
  O  O13  1  0.92903500  0.92903500  0.87500000  1
  O  O14  1  0.56509300  0.94649600  0.87899600  1
  O  O15  1  0.94649600  0.56509300  0.87100400  1
  O  O16  1  0.74307400  0.24498600  0.80946900  1
  O  O17  1  0.25692600  0.24498600  0.19053100  1
  O  O18  1  0.44018900  0.55981100  0.12500000  1
  O  O19  1  0.05350400  0.56509300  0.12899600  1
  O  O20  1  0.07096500  0.92903500  0.12500000  1
  O  O21  1  0.43490700  0.94649600  0.12100400  1
  O  O22  1  0.75501400  0.74307400  0.05946900  1
  O  O23  1  0.75501400  0.25692600  0.44053100  1
  O  O24  1  0.44018900  0.44018900  0.37500000  1
  O  O25  1  0.07096500  0.07096500  0.37500000  1
  O  O26  1  0.05350400  0.43490700  0.37100400  1
  O  O27  1  0.43490700  0.05350400  0.37899600  1
  O  O28  1  0.25692600  0.75501400  0.30946900  1
  O  O29  1  0.74307400  0.75501400  0.69053100  1
  O  O30  1  0.56509300  0.05350400  0.62100400  1
  O  O31  1  0.92903500  0.07096500  0.62500000  1
  O  O32  1  0.55981100  0.44018900  0.62500000  1
  O  O33  1  0.94649600  0.43490700  0.62899600  1
  O  O34  1  0.24498600  0.25692600  0.55946900  1
  O  O35  1  0.24498600  0.74307400  0.94053100  1
