# generated using pymatgen
data_Li32Ti13Cr3O48
_symmetry_space_group_name_H-M   'P 1'
_cell_length_a   5.08123500
_cell_length_b   8.82920053
_cell_length_c   19.60196199
_cell_angle_alpha   98.37144373
_cell_angle_beta   94.66808712
_cell_angle_gamma   89.96630080
_symmetry_Int_Tables_number   1
_chemical_formula_structural   Li32Ti13Cr3O48
_chemical_formula_sum   'Li32 Ti13 Cr3 O48'
_cell_volume   867.09493677
_cell_formula_units_Z   1
loop_
 _symmetry_equiv_pos_site_id
 _symmetry_equiv_pos_as_xyz
  1  'x, y, z'
loop_
 _atom_site_type_symbol
 _atom_site_label
 _atom_site_symmetry_multiplicity
 _atom_site_fract_x
 _atom_site_fract_y
 _atom_site_fract_z
 _atom_site_occupancy
  Li  Li0  1  0.99091600  0.16864500  0.24984800  1
  Li  Li1  1  0.87540000  0.37700000  0.37513400  1
  Li  Li2  1  0.75138800  0.25013500  0.00013000  1
  Li  Li3  1  0.74290100  0.92106900  0.00039600  1
  Li  Li4  1  0.98886800  0.16881500  0.74925400  1
  Li  Li5  1  0.75952700  0.58088400  0.49904300  1
  Li  Li6  1  0.87401600  0.37577100  0.87514800  1
  Li  Li7  1  0.75459600  0.24895400  0.50004500  1
  Li  Li8  1  0.74114300  0.91894500  0.49968900  1
  Li  Li9  1  0.62492700  0.12499400  0.12500500  1
  Li  Li10  1  0.75422100  0.57847100  0.99920800  1
  Li  Li11  1  0.50907000  0.33061700  0.24994600  1
  Li  Li12  1  0.62646200  0.12539800  0.62485700  1
  Li  Li13  1  0.49873800  0.99992500  0.24978000  1
  Li  Li14  1  0.49543500  0.66981600  0.25025000  1
  Li  Li15  1  0.50637900  0.33248900  0.75061900  1
  Li  Li16  1  0.37623600  0.87452000  0.37484700  1
  Li  Li17  1  0.50102300  0.99947900  0.75067400  1
  Li  Li18  1  0.25102000  0.74918600  0.99946000  1
  Li  Li19  1  0.48885400  0.66871100  0.75074500  1
  Li  Li20  1  0.24354500  0.42081000  0.99974400  1
  Li  Li21  1  0.37451100  0.87340300  0.87484900  1
  Li  Li22  1  0.25853400  0.08140800  0.50050100  1
  Li  Li23  1  0.24573400  0.75005100  0.49987900  1
  Li  Li24  1  0.12494100  0.62499900  0.12499800  1
  Li  Li25  1  0.24072100  0.41967400  0.50066500  1
  Li  Li26  1  0.00736800  0.83052300  0.25057500  1
  Li  Li27  1  0.25733900  0.07974500  0.99973400  1
  Li  Li28  1  0.12589400  0.62355800  0.62515100  1
  Li  Li29  1  0.99734400  0.50084900  0.25040700  1
  Li  Li30  1  0.00996300  0.83169200  0.74984000  1
  Li  Li31  1  0.00594200  0.49887600  0.74962200  1
  Ti  Ti32  1  0.87296700  0.03924100  0.37366700  1
  Ti  Ti33  1  0.87278800  0.70718400  0.87341900  1
  Ti  Ti34  1  0.87966100  0.04103100  0.87449700  1
  Ti  Ti35  1  0.62635200  0.79089700  0.12496900  1
  Ti  Ti36  1  0.62398800  0.45885200  0.12500800  1
  Ti  Ti37  1  0.62205500  0.79109300  0.62516300  1
  Ti  Ti38  1  0.62680300  0.45916600  0.62667700  1
  Ti  Ti39  1  0.37614100  0.54145800  0.37599800  1
  Ti  Ti40  1  0.37261600  0.20858200  0.37545000  1
  Ti  Ti41  1  0.37919500  0.21127500  0.87681800  1
  Ti  Ti42  1  0.12402000  0.95846600  0.12499000  1
  Ti  Ti43  1  0.12644900  0.29138000  0.12507000  1
  Ti  Ti44  1  0.11828000  0.95965100  0.62330500  1
  Cr  Cr45  1  0.87748400  0.70982300  0.37509300  1
  Cr  Cr46  1  0.37187600  0.54070800  0.87511800  1
  Cr  Cr47  1  0.13105700  0.29027300  0.62483400  1
  O  O48  1  0.96232800  0.10642300  0.06836100  1
  O  O49  1  0.92862300  0.78444600  0.06808900  1
  O  O50  1  0.92807900  0.42743300  0.06721800  1
  O  O51  1  0.95994200  0.10506400  0.56799600  1
  O  O52  1  0.82123200  0.96536800  0.18174900  1
  O  O53  1  0.82200200  0.32255600  0.18299200  1
  O  O54  1  0.92966900  0.78528300  0.56826900  1
  O  O55  1  0.93066400  0.42506300  0.56824500  1
  O  O56  1  0.78773200  0.64343700  0.18155500  1
  O  O57  1  0.70985000  0.85724400  0.31842900  1
  O  O58  1  0.82143100  0.96585800  0.68184000  1
  O  O59  1  0.82606800  0.32032800  0.68182000  1
  O  O60  1  0.68076600  0.53712700  0.31908500  1
  O  O61  1  0.67808200  0.17651400  0.31710700  1
  O  O62  1  0.78646400  0.64317200  0.68208300  1
  O  O63  1  0.71277900  0.85588500  0.81805900  1
  O  O64  1  0.46236200  0.60636400  0.06836300  1
  O  O65  1  0.57679900  0.71663500  0.43057400  1
  O  O66  1  0.57219300  0.07237700  0.43301300  1
  O  O67  1  0.67487800  0.53306900  0.81896400  1
  O  O68  1  0.67711900  0.17765800  0.81693500  1
  O  O69  1  0.42803900  0.92729600  0.06701300  1
  O  O70  1  0.42891800  0.28457100  0.06834200  1
  O  O71  1  0.53629800  0.39382400  0.43208100  1
  O  O72  1  0.46559600  0.60594000  0.56811300  1
  O  O73  1  0.56713100  0.71209500  0.93061700  1
  O  O74  1  0.57105000  0.07347200  0.93283000  1
  O  O75  1  0.32206600  0.82242600  0.18281300  1
  O  O76  1  0.32134400  0.46567300  0.18194800  1
  O  O77  1  0.42821500  0.92763300  0.56700900  1
  O  O78  1  0.41996800  0.28312600  0.56893900  1
  O  O79  1  0.54031100  0.39326400  0.93182000  1
  O  O80  1  0.28754400  0.14340200  0.18162100  1
  O  O81  1  0.21486300  0.35732600  0.31824100  1
  O  O82  1  0.32307500  0.82420400  0.68291300  1
  O  O83  1  0.32457800  0.46634000  0.68186300  1
  O  O84  1  0.16864000  0.67937100  0.31811800  1
  O  O85  1  0.17908300  0.03407500  0.31827800  1
  O  O86  1  0.28503900  0.14901500  0.68114600  1
  O  O87  1  0.21391300  0.36280800  0.81948500  1
  O  O88  1  0.07468400  0.57158900  0.43299700  1
  O  O89  1  0.07148900  0.21409100  0.43158300  1
  O  O90  1  0.17609600  0.67836600  0.81702000  1
  O  O91  1  0.17770100  0.03630200  0.81797600  1
  O  O92  1  0.03656600  0.88851100  0.43093700  1
  O  O93  1  0.07882100  0.57072900  0.93222500  1
  O  O94  1  0.07083400  0.21577800  0.93162000  1
  O  O95  1  0.03439000  0.89297900  0.93158500  1
