# generated using pymatgen
data_Li3Sb2(PO4)3
_symmetry_space_group_name_H-M   'P 1'
_cell_length_a   9.65760526
_cell_length_b   9.65760526
_cell_length_c   9.65760502
_cell_angle_alpha   54.79852238
_cell_angle_beta   54.79852238
_cell_angle_gamma   54.79851835
_symmetry_Int_Tables_number   1
_chemical_formula_structural   Li3Sb2(PO4)3
_chemical_formula_sum   'Li6 Sb4 P6 O24'
_cell_volume   559.78614795
_cell_formula_units_Z   2
loop_
 _symmetry_equiv_pos_site_id
 _symmetry_equiv_pos_as_xyz
  1  'x, y, z'
loop_
 _atom_site_type_symbol
 _atom_site_label
 _atom_site_symmetry_multiplicity
 _atom_site_fract_x
 _atom_site_fract_y
 _atom_site_fract_z
 _atom_site_occupancy
  Li  Li0  1  0.66988900  0.25710200  0.93284900  1
  Li  Li1  1  0.25710200  0.93284900  0.66988900  1
  Li  Li2  1  0.93284900  0.66988900  0.25710200  1
  Li  Li3  1  0.06715100  0.33011100  0.74289800  1
  Li  Li4  1  0.74289800  0.06715100  0.33011100  1
  Li  Li5  1  0.33011100  0.74289800  0.06715100  1
  Sb  Sb6  1  0.84311100  0.84311100  0.84311100  1
  Sb  Sb7  1  0.15688900  0.15688900  0.15688900  1
  Sb  Sb8  1  0.65117200  0.65117200  0.65117200  1
  Sb  Sb9  1  0.34882800  0.34882800  0.34882800  1
  P  P10  1  0.25832900  0.55248100  0.95301100  1
  P  P11  1  0.95301100  0.25832900  0.55248100  1
  P  P12  1  0.55248100  0.95301100  0.25832900  1
  P  P13  1  0.44751900  0.04698900  0.74167100  1
  P  P14  1  0.04698900  0.74167100  0.44751900  1
  P  P15  1  0.74167100  0.44751900  0.04698900  1
  O  O16  1  0.79822500  0.42282000  0.87069400  1
  O  O17  1  0.42282000  0.87069400  0.79822500  1
  O  O18  1  0.87069400  0.79822500  0.42282000  1
  O  O19  1  0.47154600  0.48667400  0.85900500  1
  O  O20  1  0.16856000  0.73645900  0.82604900  1
  O  O21  1  0.19516600  0.40572000  0.00985000  1
  O  O22  1  0.82604900  0.16856000  0.73645900  1
  O  O23  1  0.85900500  0.47154600  0.48667400  1
  O  O24  1  0.48667400  0.85900500  0.47154600  1
  O  O25  1  0.59428000  0.99015000  0.80483400  1
  O  O26  1  0.26354100  0.17395100  0.83144000  1
  O  O27  1  0.99015000  0.80483400  0.59428000  1
  O  O28  1  0.00985000  0.19516600  0.40572000  1
  O  O29  1  0.73645900  0.82604900  0.16856000  1
  O  O30  1  0.40572000  0.00985000  0.19516600  1
  O  O31  1  0.51332600  0.14099500  0.52845400  1
  O  O32  1  0.14099500  0.52845400  0.51332600  1
  O  O33  1  0.17395100  0.83144000  0.26354100  1
  O  O34  1  0.80483400  0.59428000  0.99015000  1
  O  O35  1  0.83144000  0.26354100  0.17395100  1
  O  O36  1  0.52845400  0.51332600  0.14099500  1
  O  O37  1  0.12930600  0.20177500  0.57718000  1
  O  O38  1  0.57718000  0.12930600  0.20177500  1
  O  O39  1  0.20177500  0.57718000  0.12930600  1
