# generated using pymatgen
data_Li3Si2(NiO4)2
_symmetry_space_group_name_H-M   'P 1'
_cell_length_a   5.02106700
_cell_length_b   6.40406000
_cell_length_c   10.75600130
_cell_angle_alpha   88.60775577
_cell_angle_beta   90.00000000
_cell_angle_gamma   90.00000000
_symmetry_Int_Tables_number   1
_chemical_formula_structural   Li3Si2(NiO4)2
_chemical_formula_sum   'Li6 Si4 Ni4 O16'
_cell_volume   345.75942470
_cell_formula_units_Z   2
loop_
 _symmetry_equiv_pos_site_id
 _symmetry_equiv_pos_as_xyz
  1  'x, y, z'
loop_
 _atom_site_type_symbol
 _atom_site_label
 _atom_site_symmetry_multiplicity
 _atom_site_fract_x
 _atom_site_fract_y
 _atom_site_fract_z
 _atom_site_occupancy
  Li  Li0  1  0.95056400  0.13064000  0.09358700  1
  Li  Li1  1  0.95317600  0.38358100  0.32642500  1
  Li  Li2  1  0.44427100  0.62817400  0.40853000  1
  Li  Li3  1  0.04943600  0.13064000  0.59358700  1
  Li  Li4  1  0.04682400  0.38358100  0.82642500  1
  Li  Li5  1  0.55572900  0.62817400  0.90853000  1
  Si  Si6  1  0.43666300  0.38245200  0.15793500  1
  Si  Si7  1  0.94240400  0.88115700  0.33848200  1
  Si  Si8  1  0.56333700  0.38245200  0.65793500  1
  Si  Si9  1  0.05759600  0.88115700  0.83848200  1
  Ni  Ni10  1  0.94636800  0.65005000  0.08928200  1
  Ni  Ni11  1  0.44928000  0.13121100  0.41459100  1
  Ni  Ni12  1  0.05363200  0.65005000  0.58928200  1
  Ni  Ni13  1  0.55072000  0.13121100  0.91459100  1
  O  O14  1  0.54975200  0.17788300  0.08234100  1
  O  O15  1  0.55995300  0.58890500  0.09066500  1
  O  O16  1  0.10955400  0.38509800  0.15717500  1
  O  O17  1  0.01042000  0.88761800  0.19216200  1
  O  O18  1  0.54038300  0.36040400  0.30717200  1
  O  O19  1  0.61586600  0.89551100  0.36479600  1
  O  O20  1  0.06885300  0.09221300  0.40572900  1
  O  O21  1  0.04275800  0.65861600  0.40316400  1
  O  O22  1  0.45024800  0.17788300  0.58234100  1
  O  O23  1  0.44004700  0.58890500  0.59066500  1
  O  O24  1  0.89044600  0.38509800  0.65717500  1
  O  O25  1  0.98958000  0.88761800  0.69216200  1
  O  O26  1  0.45961700  0.36040400  0.80717200  1
  O  O27  1  0.38413400  0.89551100  0.86479600  1
  O  O28  1  0.93114700  0.09221300  0.90572900  1
  O  O29  1  0.95724200  0.65861600  0.90316400  1
