# generated using pymatgen
data_Li4Cr3Fe3(SbO8)2
_symmetry_space_group_name_H-M   'P 1'
_cell_length_a   5.95488426
_cell_length_b   5.96858708
_cell_length_c   9.65235832
_cell_angle_alpha   89.99110431
_cell_angle_beta   89.82775155
_cell_angle_gamma   120.06524967
_symmetry_Int_Tables_number   1
_chemical_formula_structural   Li4Cr3Fe3(SbO8)2
_chemical_formula_sum   'Li4 Cr3 Fe3 Sb2 O16'
_cell_volume   296.90686540
_cell_formula_units_Z   1
loop_
 _symmetry_equiv_pos_site_id
 _symmetry_equiv_pos_as_xyz
  1  'x, y, z'
loop_
 _atom_site_type_symbol
 _atom_site_label
 _atom_site_symmetry_multiplicity
 _atom_site_fract_x
 _atom_site_fract_y
 _atom_site_fract_z
 _atom_site_occupancy
  Li  Li0  1  0.33132200  0.66561900  0.90760000  1
  Li  Li1  1  0.00099500  0.00043200  0.99659700  1
  Li  Li2  1  0.00330800  0.00174900  0.49867900  1
  Li  Li3  1  0.66661600  0.33332000  0.41172200  1
  Cr  Cr4  1  0.65745000  0.82872200  0.22085700  1
  Cr  Cr5  1  0.83053600  0.66070600  0.72088800  1
  Cr  Cr6  1  0.83047600  0.16981900  0.72092400  1
  Fe  Fe7  1  0.16794100  0.82859900  0.22165600  1
  Fe  Fe8  1  0.16795700  0.33934600  0.22166000  1
  Fe  Fe9  1  0.34329400  0.17167200  0.72079700  1
  Sb  Sb10  1  0.33624900  0.66813900  0.49831600  1
  Sb  Sb11  1  0.66313500  0.33161600  0.99174700  1
  O  O12  1  0.16902400  0.83863900  0.60368000  1
  O  O13  1  0.03721100  0.51861600  0.35810300  1
  O  O14  1  0.32885500  0.66440500  0.11374100  1
  O  O15  1  0.99927900  0.99965900  0.31153500  1
  O  O16  1  0.01005400  0.00495700  0.81081200  1
  O  O17  1  0.16900100  0.33042900  0.60372200  1
  O  O18  1  0.48564200  0.96373300  0.35337900  1
  O  O19  1  0.48574900  0.52199800  0.35343500  1
  O  O20  1  0.67202100  0.83608900  0.60431600  1
  O  O21  1  0.33236000  0.16621300  0.10191800  1
  O  O22  1  0.51456300  0.47950000  0.84831900  1
  O  O23  1  0.51453900  0.03511400  0.84837700  1
  O  O24  1  0.82989700  0.66556300  0.10098600  1
  O  O25  1  0.66039400  0.33029000  0.61786200  1
  O  O26  1  0.96222900  0.48104500  0.84923700  1
  O  O27  1  0.82990100  0.16431100  0.10097500  1
