# generated using pymatgen
data_LiZnPH2O5
_symmetry_space_group_name_H-M   'P 1'
_cell_length_a   5.07305700
_cell_length_b   10.15418600
_cell_length_c   16.73517400
_cell_angle_alpha   90.00000000
_cell_angle_beta   90.00000000
_cell_angle_gamma   90.00000000
_symmetry_Int_Tables_number   1
_chemical_formula_structural   LiZnPH2O5
_chemical_formula_sum   'Li8 Zn8 P8 H16 O40'
_cell_volume   862.07507490
_cell_formula_units_Z   8
loop_
 _symmetry_equiv_pos_site_id
 _symmetry_equiv_pos_as_xyz
  1  'x, y, z'
loop_
 _atom_site_type_symbol
 _atom_site_label
 _atom_site_symmetry_multiplicity
 _atom_site_fract_x
 _atom_site_fract_y
 _atom_site_fract_z
 _atom_site_occupancy
  Li  Li0  1  0.90651400  0.89786400  0.25195600  1
  Li  Li1  1  0.09348600  0.39786400  0.74804400  1
  Li  Li2  1  0.90651400  0.39786400  0.24804400  1
  Li  Li3  1  0.09348600  0.89786400  0.75195600  1
  Li  Li4  1  0.53059400  0.17599000  0.99670600  1
  Li  Li5  1  0.46940600  0.67599000  0.00329400  1
  Li  Li6  1  0.53059400  0.67599000  0.50329400  1
  Li  Li7  1  0.46940600  0.17599000  0.49670600  1
  Zn  Zn8  1  0.54105000  0.15251100  0.19090700  1
  Zn  Zn9  1  0.45895000  0.65251100  0.80909300  1
  Zn  Zn10  1  0.54105000  0.65251100  0.30909300  1
  Zn  Zn11  1  0.45895000  0.15251100  0.69090700  1
  Zn  Zn12  1  0.89163000  0.91801200  0.05669900  1
  Zn  Zn13  1  0.10837000  0.41801200  0.94330100  1
  Zn  Zn14  1  0.89163000  0.41801200  0.44330100  1
  Zn  Zn15  1  0.10837000  0.91801200  0.55669900  1
  P  P16  1  0.41180400  0.84901800  0.15826700  1
  P  P17  1  0.58819600  0.34901800  0.84173300  1
  P  P18  1  0.41180400  0.34901800  0.34173300  1
  P  P19  1  0.58819600  0.84901800  0.65826700  1
  P  P20  1  0.98508200  0.72345100  0.90834600  1
  P  P21  1  0.01491800  0.22345100  0.09165400  1
  P  P22  1  0.98508200  0.22345100  0.59165400  1
  P  P23  1  0.01491800  0.72345100  0.40834600  1
  H  H24  1  0.13408600  0.10635900  0.30283600  1
  H  H25  1  0.86591400  0.60635900  0.69716400  1
  H  H26  1  0.13408600  0.60635900  0.19716400  1
  H  H27  1  0.86591400  0.10635900  0.80283600  1
  H  H28  1  0.09389400  0.00746000  0.37223200  1
  H  H29  1  0.90610600  0.50746000  0.62776800  1
  H  H30  1  0.09389400  0.50746000  0.12776800  1
  H  H31  1  0.90610600  0.00746000  0.87223200  1
  H  H32  1  0.36042200  0.04893400  0.88055900  1
  H  H33  1  0.63957800  0.54893400  0.11944100  1
  H  H34  1  0.36042200  0.54893400  0.61944100  1
  H  H35  1  0.63957800  0.04893400  0.38055900  1
  H  H36  1  0.39709100  0.94610200  0.94729200  1
  H  H37  1  0.60290900  0.44610200  0.05270800  1
  H  H38  1  0.39709100  0.44610200  0.55270800  1
  H  H39  1  0.60290900  0.94610200  0.44729200  1
  O  O40  1  0.56725700  0.95747800  0.20457600  1
  O  O41  1  0.43274300  0.45747800  0.79542400  1
  O  O42  1  0.56725700  0.45747800  0.29542400  1
  O  O43  1  0.43274300  0.95747800  0.70457600  1
  O  O44  1  0.31420100  0.19182800  0.09702200  1
  O  O45  1  0.68579900  0.69182800  0.90297800  1
  O  O46  1  0.31420100  0.69182800  0.40297800  1
  O  O47  1  0.68579900  0.19182800  0.59702200  1
  O  O48  1  0.89275900  0.23886600  0.17677600  1
  O  O49  1  0.10724100  0.73886600  0.82322400  1
  O  O50  1  0.89275900  0.73886600  0.32322400  1
  O  O51  1  0.10724100  0.23886600  0.67677600  1
  O  O52  1  0.53697200  0.83276900  0.07335600  1
  O  O53  1  0.46302800  0.33276900  0.92664400  1
  O  O54  1  0.53697200  0.33276900  0.42664400  1
  O  O55  1  0.46302800  0.83276900  0.57335600  1
  O  O56  1  0.86429200  0.11256300  0.04624300  1
  O  O57  1  0.13570800  0.61256300  0.95375700  1
  O  O58  1  0.86429200  0.61256300  0.45375700  1
  O  O59  1  0.13570800  0.11256300  0.54624300  1
  O  O60  1  0.11660100  0.88700800  0.15129000  1
  O  O61  1  0.88339900  0.38700800  0.84871000  1
  O  O62  1  0.11660100  0.38700800  0.34871000  1
  O  O63  1  0.88339900  0.88700800  0.65129000  1
  O  O64  1  0.43007200  0.21704100  0.29551600  1
  O  O65  1  0.56992800  0.71704100  0.70448400  1
  O  O66  1  0.43007200  0.71704100  0.20448400  1
  O  O67  1  0.56992800  0.21704100  0.79551600  1
  O  O68  1  0.02853100  0.85380700  0.95479600  1
  O  O69  1  0.97146900  0.35380700  0.04520400  1
  O  O70  1  0.02853100  0.35380700  0.54520400  1
  O  O71  1  0.97146900  0.85380700  0.45479600  1
  O  O72  1  0.01048600  0.03957600  0.32332200  1
  O  O73  1  0.98951400  0.53957600  0.67667800  1
  O  O74  1  0.01048600  0.53957600  0.17667800  1
  O  O75  1  0.98951400  0.03957600  0.82332200  1
  O  O76  1  0.47406200  0.02716200  0.92610100  1
  O  O77  1  0.52593800  0.52716200  0.07389900  1
  O  O78  1  0.47406200  0.52716200  0.57389900  1
  O  O79  1  0.52593800  0.02716200  0.42610100  1
