# generated using pymatgen
data_Li5V3P8O29
_symmetry_space_group_name_H-M   'P 1'
_cell_length_a   9.80608900
_cell_length_b   9.81195760
_cell_length_c   13.92184802
_cell_angle_alpha   89.83744539
_cell_angle_beta   89.89238295
_cell_angle_gamma   60.08031265
_symmetry_Int_Tables_number   1
_chemical_formula_structural   Li5V3P8O29
_chemical_formula_sum   'Li10 V6 P16 O58'
_cell_volume   1160.98899287
_cell_formula_units_Z   2
loop_
 _symmetry_equiv_pos_site_id
 _symmetry_equiv_pos_as_xyz
  1  'x, y, z'
loop_
 _atom_site_type_symbol
 _atom_site_label
 _atom_site_symmetry_multiplicity
 _atom_site_fract_x
 _atom_site_fract_y
 _atom_site_fract_z
 _atom_site_occupancy
  Li  Li0  1  0.22095700  0.08715900  0.94042400  1
  Li  Li1  1  0.08966200  0.23037900  0.44011000  1
  Li  Li2  1  0.67859400  0.09764200  0.44252100  1
  Li  Li3  1  0.33495300  0.33405600  0.11628000  1
  Li  Li4  1  0.68613200  0.22810500  0.93817900  1
  Li  Li5  1  0.09223900  0.68078200  0.94026500  1
  Li  Li6  1  0.23130000  0.67463200  0.43914300  1
  Li  Li7  1  0.32114100  0.90722100  0.56056500  1
  Li  Li8  1  0.90543500  0.77447200  0.56117900  1
  Li  Li9  1  0.77293800  0.90479100  0.06012600  1
  V  V10  1  0.57184700  0.43488100  0.74686700  1
  V  V11  1  0.43586100  0.56742800  0.24630900  1
  V  V12  1  0.99298500  0.43130600  0.24685000  1
  V  V13  1  0.00071300  0.56442000  0.74925700  1
  V  V14  1  0.43059200  0.00105600  0.75265400  1
  V  V15  1  0.56769600  0.00183500  0.25319700  1
  P  P16  1  0.23078200  0.08990600  0.15712300  1
  P  P17  1  0.08643400  0.23106800  0.65646800  1
  P  P18  1  0.67893900  0.09049500  0.65957500  1
  P  P19  1  0.33582800  0.33370300  0.87356300  1
  P  P20  1  0.32977400  0.33632400  0.37299800  1
  P  P21  1  0.68173900  0.22960200  0.15599100  1
  P  P22  1  0.76712300  0.31625200  0.34165800  1
  P  P23  1  0.08961100  0.68061300  0.15788100  1
  P  P24  1  0.91401200  0.31666700  0.84183300  1
  P  P25  1  0.23304500  0.68086900  0.65755200  1
  P  P26  1  0.31651800  0.76726700  0.84324900  1
  P  P27  1  0.66367600  0.67168100  0.62617100  1
  P  P28  1  0.66619800  0.67020700  0.12551500  1
  P  P29  1  0.31743400  0.91293600  0.34142700  1
  P  P30  1  0.91397600  0.76663700  0.34195500  1
  P  P31  1  0.76935900  0.91107500  0.84132700  1
  O  O32  1  0.24303800  0.00355900  0.43181700  1
  O  O33  1  0.25456500  0.08329500  0.66282800  1
  O  O34  1  0.00352300  0.22950300  0.92785700  1
  O  O35  1  0.08276000  0.25808100  0.16606800  1
  O  O36  1  0.37467000  0.11236800  0.17457400  1
  O  O37  1  0.32916500  0.18550700  0.83593800  1
  O  O38  1  0.52033100  0.10081200  0.67746900  1
  O  O39  1  0.75787300  0.99892800  0.93195300  1
  O  O40  1  0.66483000  0.07870500  0.16240300  1
  O  O41  1  0.18216900  0.33144600  0.33007000  1
  O  O42  1  0.09745200  0.38151600  0.67764000  1
  O  O43  1  0.48518000  0.18726200  0.33448400  1
  O  O44  1  0.33924100  0.33047800  0.98195800  1
  O  O45  1  0.32642400  0.33618800  0.48022200  1
  O  O46  1  0.48903100  0.32870100  0.83372900  1
  O  O47  1  0.10486500  0.51527500  0.17485400  1
  O  O48  1  0.18814600  0.48568600  0.83538700  1
  O  O49  1  0.65969500  0.25656500  0.66551100  1
  O  O50  1  0.79161600  0.21289100  0.24506600  1
  O  O51  1  0.76738300  0.22663400  0.42774300  1
  O  O52  1  0.75261600  0.23779100  0.06357700  1
  O  O53  1  0.51378900  0.37210300  0.17454600  1
  O  O54  1  0.32815100  0.48704600  0.33110100  1
  O  O55  1  0.74463000  0.33789300  0.83821600  1
  O  O56  1  0.38308500  0.52040000  0.67711400  1
  O  O57  1  0.08519400  0.66330800  0.65800500  1
  O  O58  1  0.99473000  0.21148500  0.74579000  1
  O  O59  1  0.00828500  0.24000400  0.56385100  1
  O  O60  1  0.00366400  0.75264000  0.43263900  1
  O  O61  1  0.91575300  0.33772100  0.33848200  1
  O  O62  1  0.61787600  0.47574900  0.32678300  1
  O  O63  1  0.25453200  0.65826800  0.15889600  1
  O  O64  1  0.66551700  0.52085300  0.67400600  1
  O  O65  1  0.47634500  0.61637100  0.82304800  1
  O  O66  1  0.23323300  0.75551600  0.92907100  1
  O  O67  1  0.24753200  0.75451100  0.56584200  1
  O  O68  1  0.21143800  0.79328700  0.74644600  1
  O  O69  1  0.33515200  0.74885900  0.34170100  1
  O  O70  1  0.81669300  0.52062900  0.17414100  1
  O  O71  1  0.90029600  0.47752100  0.82396000  1
  O  O72  1  0.52272600  0.66337800  0.17118800  1
  O  O73  1  0.67682100  0.65974000  0.01943900  1
  O  O74  1  0.66245200  0.66650900  0.51935600  1
  O  O75  1  0.51077000  0.81592000  0.66659900  1
  O  O76  1  0.90615700  0.61670400  0.32143700  1
  O  O77  1  0.81317900  0.67358400  0.66579500  1
  O  O78  1  0.33726900  0.91358100  0.84273300  1
  O  O79  1  0.21033900  0.00066200  0.24910500  1
  O  O80  1  0.23603900  0.00869700  0.06659000  1
  O  O81  1  0.47709100  0.90520500  0.32158900  1
  O  O82  1  0.67049700  0.81630400  0.16548900  1
  O  O83  1  0.61889500  0.90173600  0.82329400  1
  O  O84  1  0.91698400  0.74513500  0.83969900  1
  O  O85  1  0.99613200  0.75573000  0.06860500  1
  O  O86  1  0.99982800  0.79055600  0.24976700  1
  O  O87  1  0.74885200  0.91462600  0.34350500  1
  O  O88  1  0.75856300  0.00307500  0.56923000  1
  O  O89  1  0.79274700  0.99869300  0.75006000  1
