# generated using pymatgen
data_Li3MnAlO4
_symmetry_space_group_name_H-M   'P 1'
_cell_length_a   10.21668407
_cell_length_b   10.21668407
_cell_length_c   10.21668407
_cell_angle_alpha   115.59462590
_cell_angle_beta   115.59462590
_cell_angle_gamma   97.81631496
_symmetry_Int_Tables_number   1
_chemical_formula_structural   Li3MnAlO4
_chemical_formula_sum   'Li24 Mn8 Al8 O32'
_cell_volume   796.25063716
_cell_formula_units_Z   8
loop_
 _symmetry_equiv_pos_site_id
 _symmetry_equiv_pos_as_xyz
  1  'x, y, z'
loop_
 _atom_site_type_symbol
 _atom_site_label
 _atom_site_symmetry_multiplicity
 _atom_site_fract_x
 _atom_site_fract_y
 _atom_site_fract_z
 _atom_site_occupancy
  Li  Li0  1  0.92716000  0.10350000  0.15142700  1
  Li  Li1  1  0.82284000  0.14650000  0.34857300  1
  Li  Li2  1  0.52573300  0.17716000  0.32366000  1
  Li  Li3  1  0.89650000  0.04792700  0.82366000  1
  Li  Li4  1  0.44152300  0.29771700  0.13778300  1
  Li  Li5  1  0.71384100  0.57195400  0.14718800  1
  Li  Li6  1  0.22426700  0.07284000  0.17634000  1
  Li  Li7  1  0.85350000  0.20207300  0.67634000  1
  Li  Li8  1  0.70228300  0.84006500  0.14380500  1
  Li  Li9  1  0.42804600  0.57523400  0.14188700  1
  Li  Li10  1  0.79792700  0.47426700  0.65142700  1
  Li  Li11  1  0.95207300  0.77573300  0.84857300  1
  Li  Li12  1  0.32195400  0.67476600  0.35811300  1
  Li  Li13  1  0.43334800  0.28615900  0.85811300  1
  Li  Li14  1  0.04771700  0.40993500  0.35619500  1
  Li  Li15  1  0.69626000  0.55847700  0.85619500  1
  Li  Li16  1  0.03615900  0.67804600  0.35281200  1
  Li  Li17  1  0.42476600  0.56665200  0.85281200  1
  Li  Li18  1  0.59006500  0.94626000  0.63778300  1
  Li  Li19  1  0.30847700  0.95228300  0.36221700  1
  Li  Li20  1  0.15993500  0.30374000  0.86221700  1
  Li  Li21  1  0.32523400  0.68334800  0.64718800  1
  Li  Li22  1  0.05374000  0.69152300  0.64380500  1
  Li  Li23  1  0.31665200  0.96384100  0.64188700  1
  Mn  Mn24  1  0.45178000  0.92599400  0.00027700  1
  Mn  Mn25  1  0.54849700  0.54822000  0.47421400  1
  Mn  Mn26  1  0.67599400  0.17571700  0.97421400  1
  Mn  Mn27  1  0.82428300  0.79849700  0.50027700  1
  Mn  Mn28  1  0.29822000  0.32400600  0.49972300  1
  Mn  Mn29  1  0.07400600  0.07428300  0.52578600  1
  Mn  Mn30  1  0.20150300  0.70178000  0.02578600  1
  Mn  Mn31  1  0.92571700  0.45150300  0.99972300  1
  Al  Al32  1  0.75124600  0.41166000  0.30008300  1
  Al  Al33  1  0.54883800  0.24875400  0.66041400  1
  Al  Al34  1  0.16166000  0.36157600  0.16041400  1
  Al  Al35  1  0.58834000  0.88842400  0.33958600  1
  Al  Al36  1  0.63842400  0.79883800  0.80008300  1
  Al  Al37  1  0.11157600  0.45116200  0.69991700  1
  Al  Al38  1  0.99875400  0.83834000  0.19991700  1
  Al  Al39  1  0.20116200  0.00124600  0.83958600  1
  O  O40  1  0.83312300  0.26875800  0.24440200  1
  O  O41  1  0.33872100  0.08312300  0.06436500  1
  O  O42  1  0.60134600  0.35800600  0.08679000  1
  O  O43  1  0.86302100  0.64218000  0.09483400  1
  O  O44  1  0.88697900  0.60782000  0.40516600  1
  O  O45  1  0.65118600  0.39234500  0.40019000  1
  O  O46  1  0.41127900  0.16687700  0.43563500  1
  O  O47  1  0.35782000  0.45265400  0.22084100  1
  O  O48  1  0.51818700  0.11302100  0.72084100  1
  O  O49  1  0.91687700  0.98124200  0.25559800  1
  O  O50  1  0.14234500  0.24215500  0.24115900  1
  O  O51  1  0.74900400  0.34881400  0.74115900  1
  O  O52  1  0.64199400  0.72878300  0.24334000  1
  O  O53  1  0.10800600  0.52121700  0.25666000  1
  O  O54  1  0.48544300  0.39865400  0.75666000  1
  O  O55  1  0.60765500  0.00784500  0.25884100  1
  O  O56  1  0.72564400  0.66127900  0.74440200  1
  O  O57  1  0.23181300  0.13697900  0.77915900  1
  O  O58  1  0.39218000  0.79734600  0.27915900  1
  O  O59  1  0.73124200  0.97564400  0.56436500  1
  O  O60  1  0.47878300  0.73544300  0.58679000  1
  O  O61  1  0.09881400  0.85765500  0.09981000  1
  O  O62  1  0.99215500  0.25099600  0.59981000  1
  O  O63  1  0.20265400  0.48181300  0.59483400  1
  O  O64  1  0.54734600  0.76818700  0.90516600  1
  O  O65  1  0.75784500  0.99900400  0.90019000  1
  O  O66  1  0.27121700  0.51455700  0.91321000  1
  O  O67  1  0.14865400  0.89199400  0.41321000  1
  O  O68  1  0.01875800  0.27435600  0.93563500  1
  O  O69  1  0.02435600  0.58872100  0.75559800  1
  O  O70  1  0.26455700  0.85134600  0.74334000  1
  O  O71  1  0.00099600  0.90118600  0.75884100  1
