# generated using pymatgen
data_LiMnSbO4
_symmetry_space_group_name_H-M   'P 1'
_cell_length_a   6.24298504
_cell_length_b   6.27182700
_cell_length_c   9.04641139
_cell_angle_alpha   90.00003286
_cell_angle_beta   89.99999936
_cell_angle_gamma   89.99998773
_symmetry_Int_Tables_number   1
_chemical_formula_structural   LiMnSbO4
_chemical_formula_sum   'Li4 Mn4 Sb4 O16'
_cell_volume   354.21153311
_cell_formula_units_Z   4
loop_
 _symmetry_equiv_pos_site_id
 _symmetry_equiv_pos_as_xyz
  1  'x, y, z'
loop_
 _atom_site_type_symbol
 _atom_site_label
 _atom_site_symmetry_multiplicity
 _atom_site_fract_x
 _atom_site_fract_y
 _atom_site_fract_z
 _atom_site_occupancy
  Li  Li0  1  0.00000000  0.25000200  0.09758700  1
  Li  Li1  1  0.50000000  0.74999600  0.59758900  1
  Li  Li2  1  0.00000100  0.74999600  0.90241300  1
  Li  Li3  1  0.50000100  0.25000100  0.40241100  1
  Mn  Mn4  1  0.49998700  0.00000900  0.00000400  1
  Mn  Mn5  1  0.99999200  0.00000700  0.49999900  1
  Mn  Mn6  1  0.99998900  0.50000900  0.50000100  1
  Mn  Mn7  1  0.50001800  0.50000200  0.99999900  1
  Sb  Sb8  1  0.25000100  0.74999200  0.24999900  1
  Sb  Sb9  1  0.75000100  0.25000300  0.74999900  1
  Sb  Sb10  1  0.75000000  0.74999300  0.25000000  1
  Sb  Sb11  1  0.25000000  0.25000400  0.75000000  1
  O  O12  1  0.00000100  0.53071300  0.24923700  1
  O  O13  1  0.50000000  0.03072200  0.74923500  1
  O  O14  1  0.00000100  0.96927600  0.24923400  1
  O  O15  1  0.50000000  0.46928400  0.74923700  1
  O  O16  1  0.00000000  0.03072100  0.75076500  1
  O  O17  1  0.50000000  0.53071300  0.25076200  1
  O  O18  1  0.00000100  0.46928400  0.75076200  1
  O  O19  1  0.50000100  0.96927600  0.25076500  1
  O  O20  1  0.23787300  0.74999200  0.46765900  1
  O  O21  1  0.73787200  0.25000700  0.96765900  1
  O  O22  1  0.76212900  0.74999000  0.46765800  1
  O  O23  1  0.26212800  0.25000900  0.96765900  1
  O  O24  1  0.76213000  0.25000600  0.53234100  1
  O  O25  1  0.26212900  0.74999000  0.03234100  1
  O  O26  1  0.23787300  0.25000500  0.53234100  1
  O  O27  1  0.73787100  0.74999300  0.03234100  1
