# generated using pymatgen
data_LiFeSbO4
_symmetry_space_group_name_H-M   'P 1'
_cell_length_a   6.21344701
_cell_length_b   6.21471001
_cell_length_c   8.59929400
_cell_angle_alpha   89.99679364
_cell_angle_beta   89.99975601
_cell_angle_gamma   89.99452313
_symmetry_Int_Tables_number   1
_chemical_formula_structural   LiFeSbO4
_chemical_formula_sum   'Li4 Fe4 Sb4 O16'
_cell_volume   332.05976932
_cell_formula_units_Z   4
loop_
 _symmetry_equiv_pos_site_id
 _symmetry_equiv_pos_as_xyz
  1  'x, y, z'
loop_
 _atom_site_type_symbol
 _atom_site_label
 _atom_site_symmetry_multiplicity
 _atom_site_fract_x
 _atom_site_fract_y
 _atom_site_fract_z
 _atom_site_occupancy
  Li  Li0  1  0.00000200  0.21337400  0.00003000  1
  Li  Li1  1  0.00000100  0.78661900  0.49999500  1
  Li  Li2  1  0.21333100  0.99999900  0.24997600  1
  Li  Li3  1  0.78665600  0.99999500  0.74998700  1
  Fe  Fe4  1  0.75749200  0.24246900  0.37506500  1
  Fe  Fe5  1  0.75735300  0.75740200  0.12496000  1
  Fe  Fe6  1  0.24263600  0.24260100  0.62496400  1
  Fe  Fe7  1  0.24246700  0.75750400  0.87505000  1
  Sb  Sb8  1  0.23396900  0.50002500  0.24998900  1
  Sb  Sb9  1  0.50001700  0.23413900  0.99999200  1
  Sb  Sb10  1  0.49996200  0.76586000  0.50003200  1
  Sb  Sb11  1  0.76602200  0.49997900  0.74999100  1
  O  O12  1  0.02539800  0.26482300  0.25169800  1
  O  O13  1  0.02536800  0.73521500  0.24820700  1
  O  O14  1  0.26491500  0.02551600  0.99813100  1
  O  O15  1  0.26485300  0.97450100  0.50193100  1
  O  O16  1  0.73517700  0.02550500  0.00191900  1
  O  O17  1  0.73514100  0.97446800  0.49817200  1
  O  O18  1  0.97459100  0.26479900  0.74813700  1
  O  O19  1  0.97455700  0.73516300  0.75178200  1
  O  O20  1  0.27095200  0.47861900  0.01443300  1
  O  O21  1  0.27084900  0.52145500  0.48555700  1
  O  O22  1  0.47858100  0.27113200  0.23553800  1
  O  O23  1  0.47848500  0.72896100  0.26446800  1
  O  O24  1  0.52154500  0.27100700  0.76441800  1
  O  O25  1  0.52145400  0.72894600  0.73558900  1
  O  O26  1  0.72906500  0.52143200  0.51446400  1
  O  O27  1  0.72916400  0.47849500  0.98552800  1
