# generated using pymatgen
data_Li3VPCO7
_symmetry_space_group_name_H-M   'P 1'
_cell_length_a   6.53496400
_cell_length_b   9.69253600
_cell_length_c   9.73718181
_cell_angle_alpha   62.33619092
_cell_angle_beta   90.00000000
_cell_angle_gamma   90.00000000
_symmetry_Int_Tables_number   1
_chemical_formula_structural   Li3VPCO7
_chemical_formula_sum   'Li12 V4 P4 C4 O28'
_cell_volume   546.25346457
_cell_formula_units_Z   4
loop_
 _symmetry_equiv_pos_site_id
 _symmetry_equiv_pos_as_xyz
  1  'x, y, z'
loop_
 _atom_site_type_symbol
 _atom_site_label
 _atom_site_symmetry_multiplicity
 _atom_site_fract_x
 _atom_site_fract_y
 _atom_site_fract_z
 _atom_site_occupancy
  Li  Li0  1  0.24805600  0.43721300  0.88967400  1
  Li  Li1  1  0.25194400  0.93721300  0.88967400  1
  Li  Li2  1  0.47865600  0.27186800  0.70317600  1
  Li  Li3  1  0.02134400  0.77186800  0.70317600  1
  Li  Li4  1  0.73475400  0.07185700  0.62893100  1
  Li  Li5  1  0.76524600  0.57185700  0.62893100  1
  Li  Li6  1  0.23475400  0.42814300  0.37106900  1
  Li  Li7  1  0.26524600  0.92814300  0.37106900  1
  Li  Li8  1  0.97865600  0.22813200  0.29682400  1
  Li  Li9  1  0.52134400  0.72813200  0.29682400  1
  Li  Li10  1  0.74805600  0.06278700  0.11032600  1
  Li  Li11  1  0.75194400  0.56278700  0.11032600  1
  V  V12  1  0.98120500  0.23551800  0.75227200  1
  V  V13  1  0.51879500  0.73551800  0.75227200  1
  V  V14  1  0.48120500  0.26448200  0.24772800  1
  V  V15  1  0.01879500  0.76448200  0.24772800  1
  P  P16  1  0.25774000  0.06320800  0.59144700  1
  P  P17  1  0.24226000  0.56320800  0.59144700  1
  P  P18  1  0.75774000  0.43679200  0.40855300  1
  P  P19  1  0.74226000  0.93679200  0.40855300  1
  C  C20  1  0.73912600  0.39406300  0.94634700  1
  C  C21  1  0.76087400  0.89406300  0.94634700  1
  C  C22  1  0.23912600  0.10593700  0.05365300  1
  C  C23  1  0.26087400  0.60593700  0.05365300  1
  O  O24  1  0.78867100  0.03600000  0.92361700  1
  O  O25  1  0.71132900  0.53600000  0.92361700  1
  O  O26  1  0.23058700  0.21982200  0.91092000  1
  O  O27  1  0.77342900  0.36335900  0.83371800  1
  O  O28  1  0.26941300  0.71982200  0.91092000  1
  O  O29  1  0.72657100  0.86335900  0.83371800  1
  O  O30  1  0.05809000  0.06078600  0.68006600  1
  O  O31  1  0.43359300  0.08111800  0.68727000  1
  O  O32  1  0.06640700  0.58111800  0.68727000  1
  O  O33  1  0.44191000  0.56078600  0.68006600  1
  O  O34  1  0.74637000  0.30587700  0.57884100  1
  O  O35  1  0.22082700  0.40263200  0.59072900  1
  O  O36  1  0.75363000  0.80587700  0.57884100  1
  O  O37  1  0.27917300  0.90263200  0.59072900  1
  O  O38  1  0.72082700  0.09736800  0.40927100  1
  O  O39  1  0.24637000  0.19412300  0.42115900  1
  O  O40  1  0.77917300  0.59736800  0.40927100  1
  O  O41  1  0.25363000  0.69412300  0.42115900  1
  O  O42  1  0.93359300  0.41888200  0.31273000  1
  O  O43  1  0.55808900  0.43921400  0.31993400  1
  O  O44  1  0.94191000  0.93921400  0.31993400  1
  O  O45  1  0.56640700  0.91888200  0.31273000  1
  O  O46  1  0.27342900  0.13664100  0.16628200  1
  O  O47  1  0.73058700  0.28017800  0.08908000  1
  O  O48  1  0.22657100  0.63664100  0.16628200  1
  O  O49  1  0.76941300  0.78017800  0.08908000  1
  O  O50  1  0.28867100  0.46400000  0.07638300  1
  O  O51  1  0.21132900  0.96400000  0.07638300  1
