# generated using pymatgen
data_LiMn3(BO3)3
_symmetry_space_group_name_H-M   'P 1'
_cell_length_a   6.18527400
_cell_length_b   7.72057720
_cell_length_c   9.05710046
_cell_angle_alpha   111.13770730
_cell_angle_beta   107.64849124
_cell_angle_gamma   97.56620771
_symmetry_Int_Tables_number   1
_chemical_formula_structural   LiMn3(BO3)3
_chemical_formula_sum   'Li2 Mn6 B6 O18'
_cell_volume   370.02269243
_cell_formula_units_Z   2
loop_
 _symmetry_equiv_pos_site_id
 _symmetry_equiv_pos_as_xyz
  1  'x, y, z'
loop_
 _atom_site_type_symbol
 _atom_site_label
 _atom_site_symmetry_multiplicity
 _atom_site_fract_x
 _atom_site_fract_y
 _atom_site_fract_z
 _atom_site_occupancy
  Li  Li0  1  0.33484200  0.00410400  0.38933200  1
  Li  Li1  1  0.66375700  0.33425400  0.05824300  1
  Mn  Mn2  1  0.34982700  0.60542200  0.59880100  1
  Mn  Mn3  1  0.30046800  0.03446200  0.72735300  1
  Mn  Mn4  1  0.03737900  0.28134300  0.93673400  1
  Mn  Mn5  1  0.96843000  0.70477300  0.04086800  1
  Mn  Mn6  1  0.71583200  0.96167500  0.27029900  1
  Mn  Mn7  1  0.64731400  0.40038100  0.40829800  1
  B  B8  1  0.70790400  0.96133600  0.94012500  1
  B  B9  1  0.59736800  0.36079500  0.72210900  1
  B  B10  1  0.96165000  0.69295400  0.37708800  1
  B  B11  1  0.05126100  0.30135800  0.61745200  1
  B  B12  1  0.37711200  0.64233500  0.27732800  1
  B  B13  1  0.29785900  0.04181500  0.06421400  1
  O  O14  1  0.53316700  0.89382600  0.77649400  1
  O  O15  1  0.38623900  0.52064500  0.36505800  1
  O  O16  1  0.84204700  0.14555800  0.02740700  1
  O  O17  1  0.33371100  0.15558400  0.97653200  1
  O  O18  1  0.74596700  0.42823800  0.89186600  1
  O  O19  1  0.11730000  0.74560300  0.54431900  1
  O  O20  1  0.45659400  0.17662500  0.62781500  1
  O  O21  1  0.79035800  0.52071000  0.28995600  1
  O  O22  1  0.99360100  0.81962000  0.30387700  1
  O  O23  1  0.04929300  0.16595400  0.68776500  1
  O  O24  1  0.21384500  0.47532400  0.70703300  1
  O  O25  1  0.51915100  0.82175100  0.35796600  1
  O  O26  1  0.87385400  0.25225300  0.45983200  1
  O  O27  1  0.20233400  0.56787700  0.11290100  1
  O  O28  1  0.71890100  0.83263200  0.01700100  1
  O  O29  1  0.14128400  0.86495400  0.97296400  1
  O  O30  1  0.61055300  0.48257700  0.63765000  1
  O  O31  1  0.43428900  0.11378000  0.23679700  1
