# generated using pymatgen
data_Li5V3P8O29
_symmetry_space_group_name_H-M   'P 1'
_cell_length_a   9.79074200
_cell_length_b   9.80038608
_cell_length_c   14.10371707
_cell_angle_alpha   89.55844878
_cell_angle_beta   89.37286967
_cell_angle_gamma   60.21795085
_symmetry_Int_Tables_number   1
_chemical_formula_structural   Li5V3P8O29
_chemical_formula_sum   'Li10 V6 P16 O58'
_cell_volume   1174.47866141
_cell_formula_units_Z   2
loop_
 _symmetry_equiv_pos_site_id
 _symmetry_equiv_pos_as_xyz
  1  'x, y, z'
loop_
 _atom_site_type_symbol
 _atom_site_label
 _atom_site_symmetry_multiplicity
 _atom_site_fract_x
 _atom_site_fract_y
 _atom_site_fract_z
 _atom_site_occupancy
  Li  Li0  1  0.09064100  0.67927300  0.56345000  1
  Li  Li1  1  0.31896600  0.32685000  0.88875800  1
  Li  Li2  1  0.23294600  0.67827600  0.05892700  1
  Li  Li3  1  0.67888500  0.08962500  0.06077300  1
  Li  Li4  1  0.31378500  0.77689200  0.44315100  1
  Li  Li5  1  0.68202200  0.22890000  0.56334200  1
  Li  Li6  1  0.33051500  0.90464700  0.93717400  1
  Li  Li7  1  0.91487600  0.31023200  0.43991300  1
  Li  Li8  1  0.77211700  0.90819800  0.44312900  1
  Li  Li9  1  0.96405300  0.06338100  0.99457800  1
  V  V10  1  0.43381300  0.56565300  0.24982500  1
  V  V11  1  0.57282800  0.43604700  0.75313500  1
  V  V12  1  0.43161600  0.00243800  0.74478100  1
  V  V13  1  0.56562400  0.99920700  0.25029800  1
  V  V14  1  0.00372400  0.43158100  0.24138300  1
  V  V15  1  0.99621300  0.56507600  0.75679800  1
  P  P16  1  0.08504500  0.21744600  0.84027900  1
  P  P17  1  0.22555500  0.08691200  0.33571600  1
  P  P18  1  0.08596100  0.67797600  0.34490600  1
  P  P19  1  0.33625600  0.33580200  0.12614800  1
  P  P20  1  0.33701500  0.33847700  0.63121600  1
  P  P21  1  0.22696900  0.68147700  0.84128100  1
  P  P22  1  0.31777900  0.76976400  0.65859200  1
  P  P23  1  0.68177600  0.09210800  0.84283400  1
  P  P24  1  0.31664500  0.91252400  0.15371100  1
  P  P25  1  0.67672400  0.23338800  0.34438800  1
  P  P26  1  0.77704700  0.30781000  0.16134900  1
  P  P27  1  0.67150800  0.66197500  0.36720300  1
  P  P28  1  0.66068000  0.67338100  0.87195500  1
  P  P29  1  0.91641100  0.31719600  0.65634100  1
  P  P30  1  0.77113200  0.91014900  0.66091200  1
  P  P31  1  0.91762900  0.77732500  0.16093600  1
  O  O32  1  0.98711700  0.24359600  0.56379800  1
  O  O33  1  0.08203300  0.25678700  0.33619700  1
  O  O34  1  0.23613600  0.97782800  0.06150900  1
  O  O35  1  0.25489600  0.07712700  0.83877400  1
  O  O36  1  0.09894900  0.36979800  0.83238700  1
  O  O37  1  0.18874900  0.33003000  0.17188600  1
  O  O38  1  0.09589000  0.51978200  0.32062900  1
  O  O39  1  0.00997300  0.78700700  0.07940800  1
  O  O40  1  0.08742100  0.65271400  0.84326500  1
  O  O41  1  0.34204300  0.18732800  0.67678600  1
  O  O42  1  0.37970500  0.09510800  0.31942800  1
  O  O43  1  0.18734500  0.48352700  0.67413100  1
  O  O44  1  0.32641500  0.34041400  0.01994700  1
  O  O45  1  0.34303200  0.33691800  0.52582000  1
  O  O46  1  0.32308800  0.49088200  0.16369600  1
  O  O47  1  0.51946100  0.10309400  0.83421800  1
  O  O48  1  0.48839900  0.18935600  0.16230100  1
  O  O49  1  0.25063600  0.66272800  0.34281100  1
  O  O50  1  0.20645700  0.78752300  0.74899800  1
  O  O51  1  0.24387600  0.75225800  0.56994300  1
  O  O52  1  0.23640300  0.76513100  0.92798200  1
  O  O53  1  0.37931000  0.51785800  0.82802700  1
  O  O54  1  0.48845600  0.33568300  0.67243500  1
  O  O55  1  0.34005600  0.74319500  0.16721900  1
  O  O56  1  0.51642200  0.37947000  0.32072700  1
  O  O57  1  0.66225400  0.08349700  0.34269400  1
  O  O58  1  0.20082700  0.01256500  0.23976800  1
  O  O59  1  0.23162700  0.99321100  0.41991500  1
  O  O60  1  0.75885100  0.00135400  0.57149700  1
  O  O61  1  0.34200300  0.91083200  0.65919000  1
  O  O62  1  0.47575000  0.61759900  0.67950500  1
  O  O63  1  0.65531300  0.26261700  0.83269300  1
  O  O64  1  0.51862500  0.66696100  0.32940100  1
  O  O65  1  0.62047800  0.46089700  0.16718900  1
  O  O66  1  0.79681200  0.19888400  0.08211800  1
  O  O67  1  0.74533600  0.25209600  0.43491600  1
  O  O68  1  0.79671800  0.21243800  0.25973100  1
  O  O69  1  0.74561300  0.33971500  0.66532000  1
  O  O70  1  0.51287000  0.82132200  0.83041200  1
  O  O71  1  0.47272700  0.90883800  0.16924000  1
  O  O72  1  0.66153800  0.52431900  0.82446400  1
  O  O73  1  0.65002500  0.66785300  0.97675200  1
  O  O74  1  0.68132600  0.65031600  0.47268100  1
  O  O75  1  0.81862800  0.51496100  0.31964200  1
  O  O76  1  0.62506400  0.89364400  0.67674200  1
  O  O77  1  0.67360300  0.81351300  0.33040000  1
  O  O78  1  0.91757800  0.34086300  0.16394600  1
  O  O79  1  0.01032000  0.20134800  0.74197600  1
  O  O80  1  0.99249700  0.20921300  0.92176500  1
  O  O81  1  0.90852000  0.47512100  0.67582100  1
  O  O82  1  0.81109100  0.66888200  0.82984100  1
  O  O83  1  0.91748700  0.61832800  0.16988000  1
  O  O84  1  0.74557600  0.91603800  0.16165200  1
  O  O85  1  0.76947300  0.02123700  0.93258000  1
  O  O86  1  0.78728900  0.00291100  0.75148400  1
  O  O87  1  0.92195100  0.74859700  0.66318500  1
  O  O88  1  0.99851900  0.74824600  0.43606300  1
  O  O89  1  0.98829900  0.79700900  0.25986900  1
