# generated using pymatgen
data_Li2MnNi(PO4)2
_symmetry_space_group_name_H-M   'P 1'
_cell_length_a   4.76535724
_cell_length_b   10.37195665
_cell_length_c   6.05193300
_cell_angle_alpha   90.00007094
_cell_angle_beta   89.99978768
_cell_angle_gamma   89.91776893
_symmetry_Int_Tables_number   1
_chemical_formula_structural   Li2MnNi(PO4)2
_chemical_formula_sum   'Li4 Mn2 Ni2 P4 O16'
_cell_volume   299.12300854
_cell_formula_units_Z   2
loop_
 _symmetry_equiv_pos_site_id
 _symmetry_equiv_pos_as_xyz
  1  'x, y, z'
loop_
 _atom_site_type_symbol
 _atom_site_label
 _atom_site_symmetry_multiplicity
 _atom_site_fract_x
 _atom_site_fract_y
 _atom_site_fract_z
 _atom_site_occupancy
  Li  Li0  1  0.00002300  0.99999400  0.00000300  1
  Li  Li1  1  0.00002300  0.99999500  0.49999800  1
  Li  Li2  1  0.50000500  0.49998700  0.00001100  1
  Li  Li3  1  0.50000500  0.49998600  0.49998800  1
  Mn  Mn4  1  0.01871500  0.72357200  0.75000600  1
  Mn  Mn5  1  0.98119900  0.27640700  0.24999900  1
  Ni  Ni6  1  0.48185600  0.22034900  0.74999900  1
  Ni  Ni7  1  0.51810800  0.77967000  0.25000100  1
  P  P8  1  0.42022600  0.08809500  0.24999900  1
  P  P9  1  0.57981100  0.91194300  0.75000100  1
  P  P10  1  0.91004000  0.40179400  0.74999800  1
  P  P11  1  0.08996400  0.59817800  0.24999900  1
  O  O12  1  0.70579800  0.05049200  0.75000000  1
  O  O13  1  0.29421000  0.94951900  0.25000100  1
  O  O14  1  0.74221200  0.09080500  0.24999900  1
  O  O15  1  0.25780100  0.90919800  0.75000100  1
  O  O16  1  0.23294500  0.39502700  0.74999900  1
  O  O17  1  0.76703000  0.60497000  0.25000200  1
  O  O18  1  0.20507200  0.45797900  0.25000100  1
  O  O19  1  0.79490800  0.54201000  0.74999800  1
  O  O20  1  0.28739000  0.15948700  0.04483700  1
  O  O21  1  0.28738700  0.15948700  0.45516100  1
  O  O22  1  0.71264400  0.84053800  0.54482500  1
  O  O23  1  0.71264300  0.84053800  0.95517800  1
  O  O24  1  0.76952100  0.33251100  0.54727500  1
  O  O25  1  0.76951700  0.33251100  0.95272100  1
  O  O26  1  0.23047200  0.66747700  0.04727500  1
  O  O27  1  0.23047000  0.66747900  0.45272600  1
