# generated using pymatgen
data_LiMnVP2(HO5)2
_symmetry_space_group_name_H-M   'P 1'
_cell_length_a   7.35191000
_cell_length_b   8.11841086
_cell_length_c   10.11205768
_cell_angle_alpha   111.23411193
_cell_angle_beta   103.40058149
_cell_angle_gamma   94.72497997
_symmetry_Int_Tables_number   1
_chemical_formula_structural   LiMnVP2(HO5)2
_chemical_formula_sum   'Li3 Mn3 V3 P6 H6 O30'
_cell_volume   537.96973323
_cell_formula_units_Z   3
loop_
 _symmetry_equiv_pos_site_id
 _symmetry_equiv_pos_as_xyz
  1  'x, y, z'
loop_
 _atom_site_type_symbol
 _atom_site_label
 _atom_site_symmetry_multiplicity
 _atom_site_fract_x
 _atom_site_fract_y
 _atom_site_fract_z
 _atom_site_occupancy
  Li  Li0  1  0.01070700  0.76595200  0.16259600  1
  Li  Li1  1  0.65627600  0.56913400  0.50444300  1
  Li  Li2  1  0.98833200  0.23380200  0.83704600  1
  Mn  Mn3  1  0.33483200  0.66814900  0.33358800  1
  Mn  Mn4  1  0.66007700  0.33256700  0.66569400  1
  Mn  Mn5  1  0.00191400  0.00168800  0.00085100  1
  V  V6  1  0.17256900  0.83385600  0.66570500  1
  V  V7  1  0.83171900  0.16563300  0.33290700  1
  V  V8  1  0.49884300  0.49938700  0.99972900  1
  P  P9  1  0.75799000  0.92357600  0.52508700  1
  P  P10  1  0.91274500  0.41030700  0.14080700  1
  P  P11  1  0.42163400  0.25759600  0.19287400  1
  P  P12  1  0.58278300  0.74442500  0.80759200  1
  P  P13  1  0.08591200  0.59048700  0.85933700  1
  P  P14  1  0.24326800  0.07666500  0.47375000  1
  H  H15  1  0.74452700  0.89758900  0.08974400  1
  H  H16  1  0.57320600  0.77716800  0.23749600  1
  H  H17  1  0.09483000  0.55554200  0.42873200  1
  H  H18  1  0.91873800  0.43591300  0.57776500  1
  H  H19  1  0.42367500  0.22289800  0.76253700  1
  H  H20  1  0.25645000  0.10234500  0.90953400  1
  O  O21  1  0.20881600  0.90011000  0.34150800  1
  O  O22  1  0.86985700  0.97600900  0.14965200  1
  O  O23  1  0.10353600  0.53675300  0.17633900  1
  O  O24  1  0.46393900  0.67505900  0.18362000  1
  O  O25  1  0.76231300  0.95199800  0.38028800  1
  O  O26  1  0.76219500  0.52883800  0.10903100  1
  O  O27  1  0.43330300  0.28945100  0.04955700  1
  O  O28  1  0.20371900  0.65763500  0.48255300  1
  O  O29  1  0.56505500  0.80273100  0.49339800  1
  O  O30  1  0.22629800  0.14374600  0.15864300  1
  O  O31  1  0.45616400  0.43376000  0.32542300  1
  O  O32  1  0.88955900  0.23881200  0.00602900  1
  O  O33  1  0.42358100  0.85470700  0.77520900  1
  O  O34  1  0.90633300  0.80398000  0.55788700  1
  O  O35  1  0.09565900  0.62536200  0.71868600  1
  O  O36  1  0.90369800  0.37658600  0.28197600  1
  O  O37  1  0.08576700  0.18824900  0.44058600  1
  O  O38  1  0.57870800  0.14567100  0.22623200  1
  O  O39  1  0.10933100  0.76169200  0.99438400  1
  O  O40  1  0.55944200  0.57372800  0.67191300  1
  O  O41  1  0.77618800  0.86374700  0.84532800  1
  O  O42  1  0.43884300  0.18912200  0.50687800  1
  O  O43  1  0.79344600  0.35724500  0.51701200  1
  O  O44  1  0.56749300  0.70713000  0.94743800  1
  O  O45  1  0.23634600  0.47176300  0.89097400  1
  O  O46  1  0.23241800  0.04513600  0.61726200  1
  O  O47  1  0.53294500  0.32449700  0.81564000  1
  O  O48  1  0.89516600  0.46279500  0.82227700  1
  O  O49  1  0.13089600  0.02385000  0.85004300  1
  O  O50  1  0.79285100  0.10131100  0.65584700  1
