# generated using pymatgen
data_KLiTi2(PO5)2
_symmetry_space_group_name_H-M   'P 1'
_cell_length_a   6.50799500
_cell_length_b   10.69698200
_cell_length_c   12.81447600
_cell_angle_alpha   90.00000000
_cell_angle_beta   90.00000000
_cell_angle_gamma   90.00000000
_symmetry_Int_Tables_number   1
_chemical_formula_structural   KLiTi2(PO5)2
_chemical_formula_sum   'K4 Li4 Ti8 P8 O40'
_cell_volume   892.09134860
_cell_formula_units_Z   4
loop_
 _symmetry_equiv_pos_site_id
 _symmetry_equiv_pos_as_xyz
  1  'x, y, z'
loop_
 _atom_site_type_symbol
 _atom_site_label
 _atom_site_symmetry_multiplicity
 _atom_site_fract_x
 _atom_site_fract_y
 _atom_site_fract_z
 _atom_site_occupancy
  K  K0  1  0.31021400  0.79996000  0.10044800  1
  K  K1  1  0.81021400  0.29996000  0.39955200  1
  K  K2  1  0.18978600  0.79996000  0.60044800  1
  K  K3  1  0.68978600  0.29996000  0.89955200  1
  Li  Li4  1  0.95817200  0.02940300  0.10634500  1
  Li  Li5  1  0.45817200  0.52940300  0.39365500  1
  Li  Li6  1  0.54182800  0.02940300  0.60634500  1
  Li  Li7  1  0.04182800  0.52940300  0.89365500  1
  Ti  Ti8  1  0.00435600  0.50406800  0.13543000  1
  Ti  Ti9  1  0.77085600  0.75702200  0.25351800  1
  Ti  Ti10  1  0.27085600  0.25702200  0.24648200  1
  Ti  Ti11  1  0.50435600  0.00406800  0.36457000  1
  Ti  Ti12  1  0.49564400  0.50406800  0.63543000  1
  Ti  Ti13  1  0.72914400  0.75702200  0.75351800  1
  Ti  Ti14  1  0.22914400  0.25702200  0.74648200  1
  Ti  Ti15  1  0.99564400  0.00406800  0.86457000  1
  P  P16  1  0.84384700  0.76331300  0.00063700  1
  P  P17  1  0.50745000  0.51150400  0.18395700  1
  P  P18  1  0.00745000  0.01150400  0.31604300  1
  P  P19  1  0.34384700  0.26331300  0.49936300  1
  P  P20  1  0.65615300  0.76331300  0.50063700  1
  P  P21  1  0.99255000  0.51150400  0.68395700  1
  P  P22  1  0.49255000  0.01150400  0.81604300  1
  P  P23  1  0.15615300  0.26331300  0.99936300  1
  O  O24  1  0.98691700  0.64829800  0.00508600  1
  O  O25  1  0.02733800  0.38691700  0.00500400  1
  O  O26  1  0.30199700  0.25140700  0.09498600  1
  O  O27  1  0.70846400  0.77442800  0.09980100  1
  O  O28  1  0.69611900  0.48333900  0.11553100  1
  O  O29  1  0.31548500  0.53938400  0.11754100  1
  O  O30  1  0.04620400  0.38392700  0.22645900  1
  O  O31  1  0.96709800  0.64119400  0.22319700  1
  O  O32  1  0.04893100  0.12426900  0.24023400  1
  O  O33  1  0.96749100  0.90159700  0.23756300  1
  O  O34  1  0.46749100  0.40159700  0.26243700  1
  O  O35  1  0.54893100  0.62426900  0.25976600  1
  O  O36  1  0.46709800  0.14119400  0.27680300  1
  O  O37  1  0.54620400  0.88392700  0.27354100  1
  O  O38  1  0.81548500  0.03938400  0.38245900  1
  O  O39  1  0.19611900  0.98333900  0.38446900  1
  O  O40  1  0.20846400  0.27442800  0.40019900  1
  O  O41  1  0.80199700  0.75140700  0.40501400  1
  O  O42  1  0.52733800  0.88691700  0.49499600  1
  O  O43  1  0.48691700  0.14829800  0.49491400  1
  O  O44  1  0.51308300  0.64829800  0.50508600  1
  O  O45  1  0.47266200  0.38691700  0.50500400  1
  O  O46  1  0.19800300  0.25140700  0.59498600  1
  O  O47  1  0.79153600  0.77442800  0.59980100  1
  O  O48  1  0.80388100  0.48333900  0.61553100  1
  O  O49  1  0.18451500  0.53938400  0.61754100  1
  O  O50  1  0.45379600  0.38392700  0.72645900  1
  O  O51  1  0.53290200  0.64119400  0.72319700  1
  O  O52  1  0.45106900  0.12426900  0.74023400  1
  O  O53  1  0.53250900  0.90159700  0.73756300  1
  O  O54  1  0.03250900  0.40159700  0.76243700  1
  O  O55  1  0.95106900  0.62426900  0.75976600  1
  O  O56  1  0.03290200  0.14119400  0.77680300  1
  O  O57  1  0.95379600  0.88392700  0.77354100  1
  O  O58  1  0.68451500  0.03938400  0.88245900  1
  O  O59  1  0.30388100  0.98333900  0.88446900  1
  O  O60  1  0.29153600  0.27442800  0.90019900  1
  O  O61  1  0.69800300  0.75140700  0.90501400  1
  O  O62  1  0.97266200  0.88691700  0.99499600  1
  O  O63  1  0.01308300  0.14829800  0.99491400  1
