# generated using pymatgen
data_Li2VSiO5
_symmetry_space_group_name_H-M   'P 1'
_cell_length_a   5.06846400
_cell_length_b   12.69450900
_cell_length_c   13.10802827
_cell_angle_alpha   61.66726787
_cell_angle_beta   90.00000000
_cell_angle_gamma   90.00000000
_symmetry_Int_Tables_number   1
_chemical_formula_structural   Li2VSiO5
_chemical_formula_sum   'Li16 V8 Si8 O40'
_cell_volume   742.35929601
_cell_formula_units_Z   8
loop_
 _symmetry_equiv_pos_site_id
 _symmetry_equiv_pos_as_xyz
  1  'x, y, z'
loop_
 _atom_site_type_symbol
 _atom_site_label
 _atom_site_symmetry_multiplicity
 _atom_site_fract_x
 _atom_site_fract_y
 _atom_site_fract_z
 _atom_site_occupancy
  Li  Li0  1  0.72427800  0.84757700  0.32848100  1
  Li  Li1  1  0.77204800  0.34563900  0.08604000  1
  Li  Li2  1  0.20675600  0.17643900  0.17385800  1
  Li  Li3  1  0.72133000  0.57061100  0.58412700  1
  Li  Li4  1  0.22133000  0.92938900  0.41587300  1
  Li  Li5  1  0.70675600  0.32356100  0.82614200  1
  Li  Li6  1  0.77572200  0.34757700  0.32848100  1
  Li  Li7  1  0.72795200  0.84563900  0.08604000  1
  Li  Li8  1  0.27204800  0.15436100  0.91396000  1
  Li  Li9  1  0.22427800  0.65242300  0.67151900  1
  Li  Li10  1  0.29324400  0.67643900  0.17385800  1
  Li  Li11  1  0.77867000  0.07061100  0.58412700  1
  Li  Li12  1  0.27867000  0.42938900  0.41587300  1
  Li  Li13  1  0.79324400  0.82356100  0.82614200  1
  Li  Li14  1  0.22795200  0.65436100  0.91396000  1
  Li  Li15  1  0.27572200  0.15242300  0.67151900  1
  V  V16  1  0.73613100  0.12944100  0.06213900  1
  V  V17  1  0.26751000  0.69183600  0.43739900  1
  V  V18  1  0.76386900  0.62944100  0.06213900  1
  V  V19  1  0.76751000  0.80816400  0.56260100  1
  V  V20  1  0.23249000  0.19183600  0.43739900  1
  V  V21  1  0.23613100  0.37055900  0.93786100  1
  V  V22  1  0.73249000  0.30816400  0.56260100  1
  V  V23  1  0.26386900  0.87055900  0.93786100  1
  Si  Si24  1  0.22386100  0.93383900  0.16157900  1
  Si  Si25  1  0.21899900  0.40849100  0.66141200  1
  Si  Si26  1  0.27613900  0.43383900  0.16157900  1
  Si  Si27  1  0.71899900  0.09150900  0.33858800  1
  Si  Si28  1  0.28100100  0.90849100  0.66141200  1
  Si  Si29  1  0.72386100  0.56616100  0.83842100  1
  Si  Si30  1  0.78100100  0.59150900  0.33858800  1
  Si  Si31  1  0.77613900  0.06616100  0.83842100  1
  O  O32  1  0.90383700  0.96210800  0.13587000  1
  O  O33  1  0.02520400  0.21527100  0.00125000  1
  O  O34  1  0.39421900  0.05812600  0.11966700  1
  O  O35  1  0.61159600  0.66368200  0.39242200  1
  O  O36  1  0.27924900  0.85673000  0.30077200  1
  O  O37  1  0.16345600  0.36147400  0.09474500  1
  O  O38  1  0.79660800  0.15453700  0.20091100  1
  O  O39  1  0.89833600  0.39766500  0.64242300  1
  O  O40  1  0.97568100  0.72579300  0.48843900  1
  O  O41  1  0.59616300  0.46210800  0.13587000  1
  O  O42  1  0.47479600  0.71527100  0.00125000  1
  O  O43  1  0.31778400  0.54812300  0.59782200  1
  O  O44  1  0.81778400  0.95187700  0.40217800  1
  O  O45  1  0.10578100  0.55812600  0.11966700  1
  O  O46  1  0.47568100  0.77420700  0.51156100  1
  O  O47  1  0.39833600  0.10233500  0.35757700  1
  O  O48  1  0.88840400  0.16368200  0.39242200  1
  O  O49  1  0.22075100  0.35673000  0.30077200  1
  O  O50  1  0.29660800  0.34546300  0.79908900  1
  O  O51  1  0.66345600  0.13852600  0.90525500  1
  O  O52  1  0.33654400  0.86147400  0.09474500  1
  O  O53  1  0.70339200  0.65453700  0.20091100  1
  O  O54  1  0.77924900  0.64327000  0.69922800  1
  O  O55  1  0.11159600  0.83631800  0.60757800  1
  O  O56  1  0.60166400  0.89766500  0.64242300  1
  O  O57  1  0.52431900  0.22579300  0.48843900  1
  O  O58  1  0.89421900  0.44187400  0.88033300  1
  O  O59  1  0.18221600  0.04812300  0.59782200  1
  O  O60  1  0.68221600  0.45187700  0.40217800  1
  O  O61  1  0.52520400  0.28472900  0.99875000  1
  O  O62  1  0.40383700  0.53789200  0.86413000  1
  O  O63  1  0.02431900  0.27420700  0.51156100  1
  O  O64  1  0.10166400  0.60233500  0.35757700  1
  O  O65  1  0.20339200  0.84546300  0.79908900  1
  O  O66  1  0.83654400  0.63852600  0.90525500  1
  O  O67  1  0.72075100  0.14327000  0.69922800  1
  O  O68  1  0.38840400  0.33631800  0.60757800  1
  O  O69  1  0.60578100  0.94187400  0.88033300  1
  O  O70  1  0.97479600  0.78472900  0.99875000  1
  O  O71  1  0.09616300  0.03789200  0.86413000  1
