# generated using pymatgen
data_Li4V2Fe3O10
_symmetry_space_group_name_H-M   'P 1'
_cell_length_a   7.87177515
_cell_length_b   6.63311388
_cell_length_c   7.97839177
_cell_angle_alpha   114.64563002
_cell_angle_beta   83.71254912
_cell_angle_gamma   89.67215731
_symmetry_Int_Tables_number   1
_chemical_formula_structural   Li4V2Fe3O10
_chemical_formula_sum   'Li8 V4 Fe6 O20'
_cell_volume   375.75060629
_cell_formula_units_Z   2
loop_
 _symmetry_equiv_pos_site_id
 _symmetry_equiv_pos_as_xyz
  1  'x, y, z'
loop_
 _atom_site_type_symbol
 _atom_site_label
 _atom_site_symmetry_multiplicity
 _atom_site_fract_x
 _atom_site_fract_y
 _atom_site_fract_z
 _atom_site_occupancy
  Li  Li0  1  0.15310000  0.06077800  0.40653500  1
  Li  Li1  1  0.04812600  0.34541000  0.78397000  1
  Li  Li2  1  0.99689200  0.49506100  0.49140800  1
  Li  Li3  1  0.50310800  0.00493900  0.50859200  1
  Li  Li4  1  0.45187400  0.15459000  0.21603000  1
  Li  Li5  1  0.34690000  0.43922200  0.59346500  1
  Li  Li6  1  0.65571000  0.56220100  0.40272300  1
  Li  Li7  1  0.84429000  0.93779900  0.59727700  1
  V  V8  1  0.28566400  0.60298700  0.30335800  1
  V  V9  1  0.21433600  0.89701300  0.69664200  1
  V  V10  1  0.80035500  0.08805900  0.31305800  1
  V  V11  1  0.69964500  0.41194100  0.68694200  1
  Fe  Fe12  1  0.09178900  0.21749200  0.10922300  1
  Fe  Fe13  1  0.40821100  0.28250800  0.89077700  1
  Fe  Fe14  1  0.25000000  0.75000000  0.00000000  1
  Fe  Fe15  1  0.75000000  0.25000000  0.00000000  1
  Fe  Fe16  1  0.60689800  0.70854400  0.09683000  1
  Fe  Fe17  1  0.89310200  0.79145600  0.90317000  1
  O  O18  1  0.31113400  0.02412000  0.94243300  1
  O  O19  1  0.27763800  0.16531600  0.66660400  1
  O  O20  1  0.22236200  0.33468400  0.33339600  1
  O  O21  1  0.13561100  0.64513800  0.76648300  1
  O  O22  1  0.18886600  0.47588000  0.05756700  1
  O  O23  1  0.10047300  0.77588200  0.46127000  1
  O  O24  1  0.63195000  0.16217400  0.75082800  1
  O  O25  1  0.02746300  0.93790600  0.14342600  1
  O  O26  1  0.59236100  0.27855400  0.46029900  1
  O  O27  1  0.47253700  0.56209400  0.85657400  1
  O  O28  1  0.50650000  0.44082900  0.15576200  1
  O  O29  1  0.39952700  0.72411800  0.53873000  1
  O  O30  1  0.99350000  0.05917100  0.84423800  1
  O  O31  1  0.36438900  0.85486200  0.23351700  1
  O  O32  1  0.90763900  0.22144600  0.53970100  1
  O  O33  1  0.81461000  0.51069700  0.92644700  1
  O  O34  1  0.86805000  0.33782600  0.24917200  1
  O  O35  1  0.77790900  0.65680900  0.65991800  1
  O  O36  1  0.72209100  0.84319100  0.34008200  1
  O  O37  1  0.68539000  0.98930300  0.07355300  1
