# generated using pymatgen
data_LiVP2HO8
_symmetry_space_group_name_H-M   'P 1'
_cell_length_a   7.94483500
_cell_length_b   7.47108700
_cell_length_c   9.73893594
_cell_angle_alpha   75.03138369
_cell_angle_beta   90.00000000
_cell_angle_gamma   90.00000000
_symmetry_Int_Tables_number   1
_chemical_formula_structural   LiVP2HO8
_chemical_formula_sum   'Li4 V4 P8 H4 O32'
_cell_volume   558.45429342
_cell_formula_units_Z   4
loop_
 _symmetry_equiv_pos_site_id
 _symmetry_equiv_pos_as_xyz
  1  'x, y, z'
loop_
 _atom_site_type_symbol
 _atom_site_label
 _atom_site_symmetry_multiplicity
 _atom_site_fract_x
 _atom_site_fract_y
 _atom_site_fract_z
 _atom_site_occupancy
  Li  Li0  1  0.13023800  0.39420300  0.33209700  1
  Li  Li1  1  0.36905500  0.89713200  0.07441700  1
  Li  Li2  1  0.86905500  0.10286800  0.92558300  1
  Li  Li3  1  0.63023800  0.60579700  0.66790300  1
  V  V4  1  0.50659600  0.24819700  0.37610000  1
  V  V5  1  0.99233300  0.74181100  0.12599100  1
  V  V6  1  0.49233300  0.25818900  0.87400900  1
  V  V7  1  0.00659600  0.75180300  0.62390000  1
  P  P8  1  0.34745100  0.52019200  0.55573900  1
  P  P9  1  0.84745100  0.47980800  0.44426100  1
  P  P10  1  0.15555800  0.01053700  0.31217900  1
  P  P11  1  0.65231700  0.98612300  0.19161400  1
  P  P12  1  0.35278800  0.51676900  0.06464800  1
  P  P13  1  0.85278800  0.48323100  0.93535200  1
  P  P14  1  0.15231700  0.01387700  0.80838600  1
  P  P15  1  0.65555800  0.98946300  0.68782100  1
  H  H16  1  0.50771700  0.75679600  0.36437600  1
  H  H17  1  0.00746800  0.23517600  0.14306900  1
  H  H18  1  0.50746800  0.76482400  0.85693100  1
  H  H19  1  0.00771700  0.24320400  0.63562400  1
  O  O20  1  0.55265000  0.10108500  0.55858400  1
  O  O21  1  0.17315700  0.56800100  0.60299200  1
  O  O22  1  0.82738900  0.60774600  0.54640800  1
  O  O23  1  0.45624500  0.69022200  0.49680400  1
  O  O24  1  0.05265000  0.89891500  0.44141600  1
  O  O25  1  0.32777800  0.06604700  0.35754100  1
  O  O26  1  0.95624500  0.30977800  0.50319600  1
  O  O27  1  0.32738900  0.39225400  0.45359200  1
  O  O28  1  0.67468600  0.10889600  0.29463400  1
  O  O29  1  0.05880000  0.19506200  0.24717600  1
  O  O30  1  0.67315700  0.43199900  0.39700800  1
  O  O31  1  0.94917300  0.59603600  0.30996700  1
  O  O32  1  0.54778700  0.80872100  0.25195300  1
  O  O33  1  0.16981400  0.89245000  0.20318400  1
  O  O34  1  0.82484700  0.93518600  0.13765500  1
  O  O35  1  0.55051200  0.09406200  0.05772100  1
  O  O36  1  0.45164300  0.40050400  0.19592800  1
  O  O37  1  0.17583200  0.55693900  0.11898600  1
  O  O38  1  0.83652900  0.61064900  0.03887200  1
  O  O39  1  0.43948500  0.69872000  0.99438400  1
  O  O40  1  0.05051200  0.90593800  0.94227900  1
  O  O41  1  0.32484700  0.06481400  0.86234500  1
  O  O42  1  0.93948500  0.30128000  0.00561600  1
  O  O43  1  0.33652900  0.38935100  0.96112800  1
  O  O44  1  0.66981400  0.10755000  0.79681600  1
  O  O45  1  0.04778700  0.19127900  0.74804700  1
  O  O46  1  0.67583200  0.44306100  0.88101400  1
  O  O47  1  0.95164300  0.59949600  0.80407200  1
  O  O48  1  0.55880000  0.80493800  0.75282400  1
  O  O49  1  0.17468600  0.89110400  0.70536600  1
  O  O50  1  0.82777800  0.93395300  0.64245900  1
  O  O51  1  0.44917300  0.40396400  0.69003300  1
