# generated using pymatgen
data_Li4Mn3Sb(PO4)4
_symmetry_space_group_name_H-M   'P 1'
_cell_length_a   6.40108300
_cell_length_b   4.79943900
_cell_length_c   10.77635667
_cell_angle_alpha   88.55611682
_cell_angle_beta   90.00000000
_cell_angle_gamma   90.00000000
_symmetry_Int_Tables_number   1
_chemical_formula_structural   Li4Mn3Sb(PO4)4
_chemical_formula_sum   'Li4 Mn3 Sb1 P4 O16'
_cell_volume   330.96187953
_cell_formula_units_Z   1
loop_
 _symmetry_equiv_pos_site_id
 _symmetry_equiv_pos_as_xyz
  1  'x, y, z'
loop_
 _atom_site_type_symbol
 _atom_site_label
 _atom_site_symmetry_multiplicity
 _atom_site_fract_x
 _atom_site_fract_y
 _atom_site_fract_z
 _atom_site_occupancy
  Li  Li0  1  0.25223900  0.00424400  0.00477800  1
  Li  Li1  1  0.74776100  0.00424400  0.00477800  1
  Li  Li2  1  0.74507400  0.49508700  0.49702800  1
  Li  Li3  1  0.25492600  0.49508700  0.49702800  1
  Mn  Mn4  1  0.00000000  0.03140400  0.27483000  1
  Mn  Mn5  1  0.00000000  0.47314800  0.79153700  1
  Mn  Mn6  1  0.50000000  0.53566100  0.21324400  1
  Sb  Sb7  1  0.50000000  0.91316400  0.71030500  1
  P  P8  1  0.50000000  0.08477100  0.39556200  1
  P  P9  1  0.50000000  0.41441000  0.92044600  1
  P  P10  1  0.00000000  0.59467900  0.09342600  1
  P  P11  1  0.00000000  0.91532800  0.58352300  1
  O  O12  1  0.50000000  0.19444800  0.53183000  1
  O  O13  1  0.30394800  0.21936400  0.33098800  1
  O  O14  1  0.69605200  0.21936400  0.33098800  1
  O  O15  1  0.00000000  0.23402900  0.59374500  1
  O  O16  1  0.00000000  0.27343300  0.09887800  1
  O  O17  1  0.29641200  0.30480300  0.85685500  1
  O  O18  1  0.70358800  0.30480300  0.85685500  1
  O  O19  1  0.50000000  0.27977800  0.05396100  1
  O  O20  1  0.00000000  0.72063300  0.95822400  1
  O  O21  1  0.80561400  0.72200600  0.16136700  1
  O  O22  1  0.19438600  0.72200600  0.16136700  1
  O  O23  1  0.50000000  0.73843100  0.92528600  1
  O  O24  1  0.50000000  0.76329700  0.39473700  1
  O  O25  1  0.81406800  0.76880700  0.65417100  1
  O  O26  1  0.18593200  0.76880700  0.65417100  1
  O  O27  1  0.00000000  0.80476000  0.45008900  1
