# generated using pymatgen
data_Li3Mn(BO2)5
_symmetry_space_group_name_H-M   'P 1'
_cell_length_a   6.98764000
_cell_length_b   7.18951496
_cell_length_c   9.46578408
_cell_angle_alpha   80.59641689
_cell_angle_beta   110.73906483
_cell_angle_gamma   117.77258195
_symmetry_Int_Tables_number   1
_chemical_formula_structural   Li3Mn(BO2)5
_chemical_formula_sum   'Li6 Mn2 B10 O20'
_cell_volume   393.49461022
_cell_formula_units_Z   2
loop_
 _symmetry_equiv_pos_site_id
 _symmetry_equiv_pos_as_xyz
  1  'x, y, z'
loop_
 _atom_site_type_symbol
 _atom_site_label
 _atom_site_symmetry_multiplicity
 _atom_site_fract_x
 _atom_site_fract_y
 _atom_site_fract_z
 _atom_site_occupancy
  Li  Li0  1  0.22128000  0.49167900  0.75536000  1
  Li  Li1  1  0.79912900  0.98783000  0.83975100  1
  Li  Li2  1  0.02585900  0.81921200  0.53315800  1
  Li  Li3  1  0.97414100  0.18078800  0.46684200  1
  Li  Li4  1  0.20087100  0.01217000  0.16024900  1
  Li  Li5  1  0.77872000  0.50832100  0.24464000  1
  Mn  Mn6  1  0.22307600  0.47937900  0.12039600  1
  Mn  Mn7  1  0.77692400  0.52062100  0.87960400  1
  B  B8  1  0.30450400  0.18394400  0.92480400  1
  B  B9  1  0.40662300  0.13433300  0.70547300  1
  B  B10  1  0.36219000  0.24239300  0.43093200  1
  B  B11  1  0.22005900  0.82813500  0.86321200  1
  B  B12  1  0.73985800  0.27712700  0.60002800  1
  B  B13  1  0.26014200  0.72287300  0.39997200  1
  B  B14  1  0.77994100  0.17186500  0.13678800  1
  B  B15  1  0.63781000  0.75760700  0.56906800  1
  B  B16  1  0.59337700  0.86566700  0.29452700  1
  B  B17  1  0.69549600  0.81605600  0.07519600  1
  O  O18  1  0.26738700  0.29019400  0.00491300  1
  O  O19  1  0.27039000  0.15574400  0.54976700  1
  O  O20  1  0.40516500  0.26964800  0.81045600  1
  O  O21  1  0.22077500  0.24677400  0.29233600  1
  O  O22  1  0.13587000  0.61963200  0.89402000  1
  O  O23  1  0.64961600  0.20691600  0.72228200  1
  O  O24  1  0.05263700  0.69909400  0.38149300  1
  O  O25  1  0.70015600  0.09142100  0.25848200  1
  O  O26  1  0.59693000  0.31358300  0.46077300  1
  O  O27  1  0.76739200  0.03255900  0.04245200  1
  O  O28  1  0.23260800  0.96744100  0.95754800  1
  O  O29  1  0.40307000  0.68641700  0.53922700  1
  O  O30  1  0.29984400  0.90857900  0.74151800  1
  O  O31  1  0.94736300  0.30090600  0.61850700  1
  O  O32  1  0.35038400  0.79308400  0.27771800  1
  O  O33  1  0.86413000  0.38036800  0.10598000  1
  O  O34  1  0.77922500  0.75322600  0.70766400  1
  O  O35  1  0.59483500  0.73035200  0.18954400  1
  O  O36  1  0.72961000  0.84425600  0.45023300  1
  O  O37  1  0.73261300  0.70980600  0.99508700  1
