# generated using pymatgen
data_Li4V3P8O29
_symmetry_space_group_name_H-M   'P 1'
_cell_length_a   9.73758000
_cell_length_b   9.76507607
_cell_length_c   14.15267601
_cell_angle_alpha   90.14817978
_cell_angle_beta   90.07395225
_cell_angle_gamma   119.90257404
_symmetry_Int_Tables_number   1
_chemical_formula_structural   Li4V3P8O29
_chemical_formula_sum   'Li8 V6 P16 O58'
_cell_volume   1166.58936413
_cell_formula_units_Z   2
loop_
 _symmetry_equiv_pos_site_id
 _symmetry_equiv_pos_as_xyz
  1  'x, y, z'
loop_
 _atom_site_type_symbol
 _atom_site_label
 _atom_site_symmetry_multiplicity
 _atom_site_fract_x
 _atom_site_fract_y
 _atom_site_fract_z
 _atom_site_occupancy
  Li  Li0  1  0.76598200  0.09619500  0.05456700  1
  Li  Li1  1  0.32313200  0.23394800  0.05586000  1
  Li  Li2  1  0.67159800  0.90586900  0.44462900  1
  Li  Li3  1  0.32907400  0.09322200  0.56215300  1
  Li  Li4  1  0.23230500  0.89849500  0.94022000  1
  Li  Li5  1  0.23254200  0.33151500  0.45175200  1
  Li  Li6  1  0.95135800  0.95842800  0.98812900  1
  Li  Li7  1  0.96317800  0.94739100  0.51010800  1
  V  V8  1  0.56806800  0.00169300  0.25279200  1
  V  V9  1  0.43469200  0.99814900  0.74989100  1
  V  V10  1  0.56993000  0.56685100  0.75420600  1
  V  V11  1  0.44025900  0.44260900  0.24681400  1
  V  V12  1  0.99879200  0.56388300  0.25012300  1
  V  V13  1  0.00091300  0.43836300  0.74638200  1
  P  P14  1  0.91908900  0.69712100  0.84040200  1
  P  P15  1  0.78083200  0.69564700  0.33875100  1
  P  P16  1  0.92002300  0.22627700  0.34446400  1
  P  P17  1  0.66678100  0.33155200  0.13232000  1
  P  P18  1  0.66277300  0.33390600  0.63146900  1
  P  P19  1  0.78005300  0.09267300  0.83848900  1
  P  P20  1  0.68882200  0.90851700  0.65929400  1
  P  P21  1  0.31297600  0.22454700  0.84455700  1
  P  P22  1  0.69610200  0.78084000  0.15398900  1
  P  P23  1  0.31610700  0.09429300  0.34240400  1
  P  P24  1  0.22559200  0.91176900  0.16227200  1
  P  P25  1  0.33286300  0.66445600  0.36717600  1
  P  P26  1  0.33119600  0.66463500  0.86800700  1
  P  P27  1  0.08234800  0.77833600  0.65423300  1
  P  P28  1  0.22654300  0.31310500  0.66286700  1
  P  P29  1  0.08180500  0.30570800  0.15745500  1
  O  O30  1  0.00633400  0.79902700  0.56943300  1
  O  O31  1  0.91502700  0.65583200  0.33477300  1
  O  O32  1  0.78635200  0.79361700  0.06758300  1
  O  O33  1  0.74405200  0.65792800  0.83725400  1
  O  O34  1  0.92613900  0.54344900  0.82968400  1
  O  O35  1  0.81109000  0.47895700  0.17990300  1
  O  O36  1  0.92010600  0.38404500  0.32909600  1
  O  O37  1  0.99355900  0.20560400  0.07458200  1
  O  O38  1  0.91639100  0.26495600  0.82888200  1
  O  O39  1  0.66328400  0.47936500  0.68128600  1
  O  O40  1  0.61883500  0.53932700  0.32538100  1
  O  O41  1  0.81136500  0.33635600  0.67790300  1
  O  O42  1  0.66014100  0.33185600  0.02746300  1
  O  O43  1  0.66258900  0.33999100  0.52696700  1
  O  O44  1  0.67341100  0.18573500  0.17108400  1
  O  O45  1  0.46960300  0.38126500  0.82979500  1
  O  O46  1  0.51287400  0.32745300  0.17483600  1
  O  O47  1  0.74765300  0.08556600  0.34212600  1
  O  O48  1  0.79971800  0.00167900  0.74922000  1
  O  O49  1  0.77666900  0.97657100  0.56938500  1
  O  O50  1  0.79297600  0.02070600  0.92860400  1
  O  O51  1  0.61892600  0.08677700  0.82581700  1
  O  O52  1  0.51126700  0.18493000  0.66972100  1
  O  O53  1  0.65834300  0.91769200  0.16306600  1
  O  O54  1  0.47299900  0.09253300  0.32703000  1
  O  O55  1  0.34540800  0.26626400  0.33363200  1
  O  O56  1  0.80137200  0.79918100  0.24617700  1
  O  O57  1  0.78695800  0.79124700  0.42272900  1
  O  O58  1  0.22308100  0.22363700  0.57493400  1
  O  O59  1  0.65729300  0.73729800  0.67151400  1
  O  O60  1  0.53436900  0.91182200  0.67013000  1
  O  O61  1  0.34055900  0.08115800  0.83851200  1
  O  O62  1  0.48868900  0.81413800  0.33420800  1
  O  O63  1  0.38035500  0.91025800  0.17609400  1
  O  O64  1  0.22231400  0.99430800  0.07322900  1
  O  O65  1  0.23561000  0.02507700  0.43366500  1
  O  O66  1  0.20451600  0.00202900  0.25301700  1
  O  O67  1  0.25894700  0.91490200  0.66226200  1
  O  O68  1  0.47898200  0.66499200  0.82351500  1
  O  O69  1  0.53843300  0.62020000  0.16934400  1
  O  O70  1  0.32743800  0.81470500  0.83077200  1
  O  O71  1  0.32582300  0.65822100  0.97260900  1
  O  O72  1  0.32457700  0.64283000  0.47143000  1
  O  O73  1  0.18934100  0.66711600  0.31962400  1
  O  O74  1  0.38390700  0.46812600  0.67516200  1
  O  O75  1  0.33073200  0.51490600  0.31910200  1
  O  O76  1  0.08306400  0.74122700  0.16821600  1
  O  O77  1  0.99891800  0.79971800  0.74697900  1
  O  O78  1  0.00568500  0.80081600  0.92300500  1
  O  O79  1  0.07643600  0.61783300  0.66654000  1
  O  O80  1  0.18566200  0.52209500  0.81677200  1
  O  O81  1  0.07779800  0.46150700  0.17038900  1
  O  O82  1  0.25774200  0.34218900  0.15924600  1
  O  O83  1  0.22789000  0.21672800  0.93356700  1
  O  O84  1  0.20301400  0.20371700  0.75330200  1
  O  O85  1  0.08571300  0.34462300  0.66447200  1
  O  O86  1  0.00987400  0.22072900  0.42811200  1
  O  O87  1  0.00233100  0.20346200  0.25109400  1
