# generated using pymatgen
data_Li3Mn2P2(CO7)2
_symmetry_space_group_name_H-M   'P 1'
_cell_length_a   8.20198600
_cell_length_b   8.25806845
_cell_length_c   8.28602221
_cell_angle_alpha   92.45337659
_cell_angle_beta   93.06348401
_cell_angle_gamma   104.18353140
_symmetry_Int_Tables_number   1
_chemical_formula_structural   Li3Mn2P2(CO7)2
_chemical_formula_sum   'Li6 Mn4 P4 C4 O28'
_cell_volume   542.44063787
_cell_formula_units_Z   2
loop_
 _symmetry_equiv_pos_site_id
 _symmetry_equiv_pos_as_xyz
  1  'x, y, z'
loop_
 _atom_site_type_symbol
 _atom_site_label
 _atom_site_symmetry_multiplicity
 _atom_site_fract_x
 _atom_site_fract_y
 _atom_site_fract_z
 _atom_site_occupancy
  Li  Li0  1  0.14221800  0.11410200  0.73495000  1
  Li  Li1  1  0.64239800  0.59146200  0.72863900  1
  Li  Li2  1  0.36218700  0.88350500  0.73866700  1
  Li  Li3  1  0.15264000  0.61907600  0.26649900  1
  Li  Li4  1  0.62944000  0.10507200  0.26700000  1
  Li  Li5  1  0.99639100  0.23991400  0.09478500  1
  Mn  Mn6  1  0.77292300  0.02543200  0.66691700  1
  Mn  Mn7  1  0.26846400  0.52056200  0.67176500  1
  Mn  Mn8  1  0.72494000  0.48008100  0.33242800  1
  Mn  Mn9  1  0.22276100  0.98099200  0.32599800  1
  P  P10  1  0.49329400  0.23341000  0.58030800  1
  P  P11  1  0.98812900  0.74455900  0.57784100  1
  P  P12  1  0.01155400  0.26943900  0.41891700  1
  P  P13  1  0.51428600  0.75961000  0.42242300  1
  C  C14  1  0.22443000  0.47465300  0.95179100  1
  C  C15  1  0.72705500  0.98167100  0.95423100  1
  C  C16  1  0.27315400  0.01225700  0.04307300  1
  C  C17  1  0.76849900  0.52341400  0.04933300  1
  O  O18  1  0.34057200  0.59762200  0.90264800  1
  O  O19  1  0.85463400  0.09605200  0.90658100  1
  O  O20  1  0.29452200  0.03769500  0.89628700  1
  O  O21  1  0.14852400  0.36736300  0.83147800  1
  O  O22  1  0.78668600  0.55638400  0.90638700  1
  O  O23  1  0.63988900  0.88830700  0.82903300  1
  O  O24  1  0.45453000  0.38000900  0.67539100  1
  O  O25  1  0.12666800  0.70194700  0.68642700  1
  O  O26  1  0.62298500  0.17109300  0.68882700  1
  O  O27  1  0.93881700  0.88948200  0.67629300  1
  O  O28  1  0.33001200  0.08626400  0.54657600  1
  O  O29  1  0.45573100  0.70036800  0.59109100  1
  O  O30  1  0.95459300  0.19227000  0.57953700  1
  O  O31  1  0.82846800  0.59500300  0.54326500  1
  O  O32  1  0.15106300  0.43256300  0.46200000  1
  O  O33  1  0.56386100  0.28474300  0.41520200  1
  O  O34  1  0.05427200  0.79903600  0.41288200  1
  O  O35  1  0.65847900  0.92505700  0.46025300  1
  O  O36  1  0.07060500  0.14998500  0.30336200  1
  O  O37  1  0.37177300  0.79967600  0.31872600  1
  O  O38  1  0.57337000  0.62492900  0.32351100  1
  O  O39  1  0.86597400  0.31330000  0.31276400  1
  O  O40  1  0.37265400  0.09976200  0.16266700  1
  O  O41  1  0.18037800  0.45627300  0.09370700  1
  O  O42  1  0.86901100  0.60580100  0.17261000  1
  O  O43  1  0.69041600  0.96517400  0.09645900  1
  O  O44  1  0.64881200  0.40425100  0.10210300  1
  O  O45  1  0.14737900  0.90127200  0.09458500  1
