# generated using pymatgen
data_LiTi2VO6
_symmetry_space_group_name_H-M   'P 1'
_cell_length_a   3.00318150
_cell_length_b   6.55202896
_cell_length_c   12.02542614
_cell_angle_alpha   102.04241836
_cell_angle_beta   90.01152077
_cell_angle_gamma   103.24029338
_symmetry_Int_Tables_number   1
_chemical_formula_structural   LiTi2VO6
_chemical_formula_sum   'Li2 Ti4 V2 O12'
_cell_volume   224.97837738
_cell_formula_units_Z   2
loop_
 _symmetry_equiv_pos_site_id
 _symmetry_equiv_pos_as_xyz
  1  'x, y, z'
loop_
 _atom_site_type_symbol
 _atom_site_label
 _atom_site_symmetry_multiplicity
 _atom_site_fract_x
 _atom_site_fract_y
 _atom_site_fract_z
 _atom_site_occupancy
  Li  Li0  1  0.33337200  0.66683700  0.08335200  1
  Li  Li1  1  0.33337700  0.66684900  0.58338200  1
  Ti  Ti2  1  0.01537400  0.03084700  0.48389400  1
  Ti  Ti3  1  0.01535000  0.03079800  0.98389500  1
  Ti  Ti4  1  0.65122600  0.30251600  0.18275400  1
  Ti  Ti5  1  0.65123700  0.30253600  0.68275900  1
  V  V6  1  0.33331800  0.66679800  0.83341500  1
  V  V7  1  0.33322100  0.66681100  0.33349700  1
  O  O8  1  0.81449700  0.62894400  0.21542900  1
  O  O9  1  0.81453700  0.62897200  0.71540400  1
  O  O10  1  0.85235900  0.70437100  0.45124900  1
  O  O11  1  0.85237100  0.70432800  0.95122800  1
  O  O12  1  0.16126800  0.32257500  0.06400500  1
  O  O13  1  0.16129200  0.32262500  0.56402700  1
  O  O14  1  0.50530500  0.01050200  0.10256200  1
  O  O15  1  0.50532100  0.01053800  0.60258200  1
  O  O16  1  0.16481200  0.32944700  0.28294400  1
  O  O17  1  0.16485400  0.32951800  0.78294900  1
  O  O18  1  0.50180800  0.00380800  0.38368600  1
  O  O19  1  0.50177100  0.00371700  0.88365600  1
