# generated using pymatgen
data_LiMnPO4F
_symmetry_space_group_name_H-M   'P 1'
_cell_length_a   5.11096100
_cell_length_b   12.87747754
_cell_length_c   13.04451336
_cell_angle_alpha   119.22336343
_cell_angle_beta   89.95851885
_cell_angle_gamma   90.34874285
_symmetry_Int_Tables_number   1
_chemical_formula_structural   LiMnPO4F
_chemical_formula_sum   'Li8 Mn8 P8 O32 F8'
_cell_volume   749.25253611
_cell_formula_units_Z   8
loop_
 _symmetry_equiv_pos_site_id
 _symmetry_equiv_pos_as_xyz
  1  'x, y, z'
loop_
 _atom_site_type_symbol
 _atom_site_label
 _atom_site_symmetry_multiplicity
 _atom_site_fract_x
 _atom_site_fract_y
 _atom_site_fract_z
 _atom_site_occupancy
  Li  Li0  1  0.79223700  0.32939300  0.17115100  1
  Li  Li1  1  0.72458300  0.82677000  0.66827600  1
  Li  Li2  1  0.25135300  0.92800000  0.84411300  1
  Li  Li3  1  0.73777900  0.82088100  0.41439400  1
  Li  Li4  1  0.24476300  0.66125900  0.08113200  1
  Li  Li5  1  0.74251800  0.83537800  0.16359700  1
  Li  Li6  1  0.26242700  0.18337700  0.58972100  1
  Li  Li7  1  0.75641500  0.56923400  0.67681700  1
  Mn  Mn8  1  0.28212100  0.18271600  0.11904300  1
  Mn  Mn9  1  0.22812300  0.67513300  0.60456400  1
  Mn  Mn10  1  0.78814300  0.60276800  0.17943000  1
  Mn  Mn11  1  0.28987600  0.89864000  0.32219200  1
  Mn  Mn12  1  0.69759900  0.11884000  0.68790300  1
  Mn  Mn13  1  0.20971900  0.38839400  0.81830000  1
  Mn  Mn14  1  0.78683600  0.31910200  0.38653600  1
  Mn  Mn15  1  0.71687700  0.82140300  0.89576800  1
  P  P16  1  0.73315600  0.58545000  0.42356200  1
  P  P17  1  0.27889700  0.41679900  0.07931100  1
  P  P18  1  0.76424900  0.08314500  0.92550000  1
  P  P19  1  0.22810300  0.91717800  0.57751000  1
  P  P20  1  0.77692600  0.08341700  0.42548200  1
  P  P21  1  0.23035900  0.91390600  0.07731400  1
  P  P22  1  0.72583500  0.58036900  0.92406900  1
  P  P23  1  0.26361400  0.41859200  0.57468500  1
  O  O24  1  0.61809800  0.16906700  0.03974000  1
  O  O25  1  0.17568700  0.33061300  0.12143900  1
  O  O26  1  0.84715000  0.45870900  0.36299100  1
  O  O27  1  0.44471600  0.59121100  0.45369000  1
  O  O28  1  0.88216600  0.66933500  0.54212000  1
  O  O29  1  0.57211900  0.44429100  0.10891800  1
  O  O30  1  0.13164700  0.53822700  0.14919600  1
  O  O31  1  0.78880100  0.64360700  0.34532900  1
  O  O32  1  0.32094700  0.83688600  0.63010900  1
  O  O33  1  0.63063100  0.95515600  0.86874200  1
  O  O34  1  0.05265500  0.07072700  0.94990900  1
  O  O35  1  0.33957800  0.86017500  0.44997300  1
  O  O36  1  0.92642800  0.92637500  0.58027100  1
  O  O37  1  0.84606400  0.64883700  0.05191900  1
  O  O38  1  0.35826900  0.03903200  0.65398600  1
  O  O39  1  0.72534500  0.12566500  0.83622000  1
  O  O40  1  0.32678600  0.85804400  0.15442200  1
  O  O41  1  0.64056500  0.96008300  0.34205600  1
  O  O42  1  0.20691300  0.36043000  0.94912400  1
  O  O43  1  0.06950300  0.05679200  0.43005700  1
  O  O44  1  0.64458600  0.13274300  0.54728100  1
  O  O45  1  0.93194800  0.89472800  0.05963500  1
  O  O46  1  0.32636000  0.04275900  0.13652600  1
  O  O47  1  0.71737800  0.16644800  0.37682000  1
  O  O48  1  0.21137200  0.36801900  0.65871700  1
  O  O49  1  0.87298200  0.46482800  0.84963600  1
  O  O50  1  0.43340300  0.55804100  0.93244200  1
  O  O51  1  0.12300600  0.33505700  0.45876700  1
  O  O52  1  0.55731000  0.42825400  0.55516200  1
  O  O53  1  0.13327400  0.54537500  0.63245400  1
  O  O54  1  0.77196900  0.65939200  0.86519900  1
  O  O55  1  0.36282200  0.83818100  0.95552400  1
  F  F56  1  0.51162400  0.28781500  0.27520600  1
  F  F57  1  0.99741300  0.80014100  0.78040400  1
  F  F58  1  0.50405200  0.71338000  0.21966900  1
  F  F59  1  0.98874600  0.79711100  0.27188300  1
  F  F60  1  0.00604100  0.20759400  0.71356400  1
  F  F61  1  0.49402500  0.28216100  0.76041900  1
  F  F62  1  0.98525100  0.21858300  0.21568100  1
  F  F63  1  0.52494200  0.71045600  0.71144800  1
