# generated using pymatgen
data_LiV2(CO3)4
_symmetry_space_group_name_H-M   'P 1'
_cell_length_a   8.61533827
_cell_length_b   8.61533827
_cell_length_c   8.61533827
_cell_angle_alpha   113.93476618
_cell_angle_beta   108.20217080
_cell_angle_gamma   106.37559552
_symmetry_Int_Tables_number   1
_chemical_formula_structural   LiV2(CO3)4
_chemical_formula_sum   'Li2 V4 C8 O24'
_cell_volume   489.88696931
_cell_formula_units_Z   2
loop_
 _symmetry_equiv_pos_site_id
 _symmetry_equiv_pos_as_xyz
  1  'x, y, z'
loop_
 _atom_site_type_symbol
 _atom_site_label
 _atom_site_symmetry_multiplicity
 _atom_site_fract_x
 _atom_site_fract_y
 _atom_site_fract_z
 _atom_site_occupancy
  Li  Li0  1  0.06672900  0.31672900  0.75000000  1
  Li  Li1  1  0.43327100  0.18327100  0.25000000  1
  V  V2  1  0.21789200  0.25000000  0.46789200  1
  V  V3  1  0.76867900  0.01867900  0.75000000  1
  V  V4  1  0.28210800  0.75000000  0.03210800  1
  V  V5  1  0.73132100  0.48132100  0.25000000  1
  C  C6  1  0.41704700  0.44435200  0.93034100  1
  C  C7  1  0.51779300  0.57350600  0.48449200  1
  C  C8  1  0.91098600  0.92649400  0.44428700  1
  C  C9  1  0.08295300  0.01329400  0.02730600  1
  C  C10  1  0.98220700  0.46669900  0.05571300  1
  C  C11  1  0.01401200  0.48670600  0.56965900  1
  C  C12  1  0.48598800  0.05564700  0.47269400  1
  C  C13  1  0.58901400  0.03330100  0.01550800  1
  O  O14  1  0.54075900  0.45723600  0.34847800  1
  O  O15  1  0.29878700  0.33631800  0.74435900  1
  O  O16  1  0.02733200  0.98777000  0.39628700  1
  O  O17  1  0.39123800  0.57353800  0.04349600  1
  O  O18  1  0.40851700  0.51223000  0.53956200  1
  O  O19  1  0.80207400  0.74225000  0.34801400  1
  O  O20  1  0.95289100  0.94619000  0.85709500  1
  O  O21  1  0.89124200  0.04276400  0.58352200  1
  O  O22  1  0.10876200  0.15225800  0.18229900  1
  O  O23  1  0.95924100  0.30771900  0.91647800  1
  O  O24  1  0.60576400  0.75775000  0.55982400  1
  O  O25  1  0.03004100  0.34774200  0.45650400  1
  O  O26  1  0.89423600  0.45405900  0.15198600  1
  O  O27  1  0.09195900  0.55442800  0.75564100  1
  O  O28  1  0.69792600  0.04594100  0.94017600  1
  O  O29  1  0.46995900  0.92646200  0.31770100  1
  O  O30  1  0.58909500  0.09579600  0.64290500  1
  O  O31  1  0.91090500  0.55381000  0.50670000  1
  O  O32  1  0.40804100  0.16368200  0.46246900  1
  O  O33  1  0.47266800  0.86895500  0.96043800  1
  O  O34  1  0.60875800  0.19228100  0.15152200  1
  O  O35  1  0.09148300  0.63104500  0.10371300  1
  O  O36  1  0.54710900  0.40420400  0.99330000  1
  O  O37  1  0.20121300  0.94557200  0.03753100  1
