# generated using pymatgen
data_LiCrPO4
_symmetry_space_group_name_H-M   'P 1'
_cell_length_a   6.59956500
_cell_length_b   9.48267900
_cell_length_c   18.88944659
_cell_angle_alpha   60.45536970
_cell_angle_beta   90.00000000
_cell_angle_gamma   90.00000000
_symmetry_Int_Tables_number   1
_chemical_formula_structural   LiCrPO4
_chemical_formula_sum   'Li12 Cr12 P12 O48'
_cell_volume   1028.42067780
_cell_formula_units_Z   12
loop_
 _symmetry_equiv_pos_site_id
 _symmetry_equiv_pos_as_xyz
  1  'x, y, z'
loop_
 _atom_site_type_symbol
 _atom_site_label
 _atom_site_symmetry_multiplicity
 _atom_site_fract_x
 _atom_site_fract_y
 _atom_site_fract_z
 _atom_site_occupancy
  Li  Li0  1  0.02869500  0.32880500  0.91851300  1
  Li  Li1  1  0.98201400  0.66600700  0.58084400  1
  Li  Li2  1  0.84647300  0.99924600  0.24946100  1
  Li  Li3  1  0.34647300  0.00075400  0.25053900  1
  Li  Li4  1  0.48201400  0.33399300  0.91915600  1
  Li  Li5  1  0.52869500  0.67119500  0.58148700  1
  Li  Li6  1  0.47130500  0.32880500  0.41851300  1
  Li  Li7  1  0.51798600  0.66600700  0.08084400  1
  Li  Li8  1  0.65352700  0.99924600  0.74946100  1
  Li  Li9  1  0.15352700  0.00075400  0.75053900  1
  Li  Li10  1  0.01798600  0.33399300  0.41915600  1
  Li  Li11  1  0.97130500  0.67119500  0.08148700  1
  Cr  Cr12  1  0.74277100  0.60543800  0.39131500  1
  Cr  Cr13  1  0.75577800  0.28275600  0.80551400  1
  Cr  Cr14  1  0.75563600  0.10985500  0.05403300  1
  Cr  Cr15  1  0.25563600  0.89014500  0.44596700  1
  Cr  Cr16  1  0.25577800  0.71724400  0.69448600  1
  Cr  Cr17  1  0.24277100  0.39456200  0.10868500  1
  Cr  Cr18  1  0.75722900  0.60543800  0.89131500  1
  Cr  Cr19  1  0.74422200  0.28275600  0.30551400  1
  Cr  Cr20  1  0.74436400  0.10985500  0.55403300  1
  Cr  Cr21  1  0.24436400  0.89014500  0.94596700  1
  Cr  Cr22  1  0.24422200  0.71724400  0.19448600  1
  Cr  Cr23  1  0.25722900  0.39456200  0.60868500  1
  P  P24  1  0.24670200  0.63630200  0.40697300  1
  P  P25  1  0.25739900  0.31224900  0.77599800  1
  P  P26  1  0.25113900  0.04926000  0.06926700  1
  P  P27  1  0.75113900  0.95074000  0.43073300  1
  P  P28  1  0.75739900  0.68775100  0.72400200  1
  P  P29  1  0.74670200  0.36369800  0.09302700  1
  P  P30  1  0.25329800  0.63630200  0.90697300  1
  P  P31  1  0.24260100  0.31224900  0.27599800  1
  P  P32  1  0.24886100  0.04926000  0.56926700  1
  P  P33  1  0.74886100  0.95074000  0.93073300  1
  P  P34  1  0.74260100  0.68775100  0.22400200  1
  P  P35  1  0.75329800  0.36369800  0.59302700  1
  O  O36  1  0.56772100  0.43972400  0.61219800  1
  O  O37  1  0.94514400  0.43239900  0.61282900  1
  O  O38  1  0.76341500  0.08796300  0.95304300  1
  O  O39  1  0.06765300  0.26998600  0.83150000  1
  O  O40  1  0.44540800  0.27342700  0.83201800  1
  O  O41  1  0.74105000  0.78849800  0.26937500  1
  O  O42  1  0.24864500  0.59704900  0.49747400  1
  O  O43  1  0.25286700  0.96028400  0.16437900  1
  O  O44  1  0.44382900  0.15452400  0.03327800  1
  O  O45  1  0.25687200  0.49259700  0.70741800  1
  O  O46  1  0.25188800  0.82555500  0.35536700  1
  O  O47  1  0.06684500  0.16582600  0.03523700  1
  O  O48  1  0.56684500  0.83417400  0.46476300  1
  O  O49  1  0.75188800  0.17444500  0.14463300  1
  O  O50  1  0.75687200  0.50740300  0.79258200  1
  O  O51  1  0.94382900  0.84547600  0.46672200  1
  O  O52  1  0.75286700  0.03971600  0.33562100  1
  O  O53  1  0.74864500  0.40295100  0.00252600  1
  O  O54  1  0.94540800  0.72657300  0.66798200  1
  O  O55  1  0.24105000  0.21150200  0.23062500  1
  O  O56  1  0.56765300  0.73001400  0.66850000  1
  O  O57  1  0.26341500  0.91203700  0.54695700  1
  O  O58  1  0.44514400  0.56760100  0.88717100  1
  O  O59  1  0.06772100  0.56027600  0.88780200  1
  O  O60  1  0.93227900  0.43972400  0.11219800  1
  O  O61  1  0.55485600  0.43239900  0.11282900  1
  O  O62  1  0.73658500  0.08796300  0.45304300  1
  O  O63  1  0.43234700  0.26998600  0.33150000  1
  O  O64  1  0.75895000  0.78849800  0.76937500  1
  O  O65  1  0.05459200  0.27342700  0.33201800  1
  O  O66  1  0.25135500  0.59704900  0.99747400  1
  O  O67  1  0.24713300  0.96028400  0.66437900  1
  O  O68  1  0.05617100  0.15452400  0.53327800  1
  O  O69  1  0.24312800  0.49259700  0.20741800  1
  O  O70  1  0.24811200  0.82555500  0.85536700  1
  O  O71  1  0.43315500  0.16582600  0.53523700  1
  O  O72  1  0.93315500  0.83417400  0.96476300  1
  O  O73  1  0.74811200  0.17444500  0.64463300  1
  O  O74  1  0.74312800  0.50740300  0.29258200  1
  O  O75  1  0.55617100  0.84547600  0.96672200  1
  O  O76  1  0.74713300  0.03971600  0.83562100  1
  O  O77  1  0.75135500  0.40295100  0.50252600  1
  O  O78  1  0.25895000  0.21150200  0.73062500  1
  O  O79  1  0.55459200  0.72657300  0.16798200  1
  O  O80  1  0.93234700  0.73001400  0.16850000  1
  O  O81  1  0.23658500  0.91203700  0.04695700  1
  O  O82  1  0.05485600  0.56760100  0.38717100  1
  O  O83  1  0.43227900  0.56027600  0.38780200  1
