# generated using pymatgen
data_Li2CoP2O7
_symmetry_space_group_name_H-M   'P 1'
_cell_length_a   6.80434974
_cell_length_b   13.06648019
_cell_length_c   7.02162232
_cell_angle_alpha   89.97025279
_cell_angle_beta   90.15326575
_cell_angle_gamma   89.98244663
_symmetry_Int_Tables_number   1
_chemical_formula_structural   Li2CoP2O7
_chemical_formula_sum   'Li8 Co4 P8 O28'
_cell_volume   624.28237694
_cell_formula_units_Z   4
loop_
 _symmetry_equiv_pos_site_id
 _symmetry_equiv_pos_as_xyz
  1  'x, y, z'
loop_
 _atom_site_type_symbol
 _atom_site_label
 _atom_site_symmetry_multiplicity
 _atom_site_fract_x
 _atom_site_fract_y
 _atom_site_fract_z
 _atom_site_occupancy
  Li  Li0  1  0.99976100  0.23110100  0.00045300  1
  Li  Li1  1  0.49970800  0.73117100  0.49993100  1
  Li  Li2  1  0.49989600  0.26890700  0.00008300  1
  Li  Li3  1  0.99983200  0.76875400  0.49961700  1
  Li  Li4  1  0.50010500  0.73109400  0.99991600  1
  Li  Li5  1  0.00016900  0.23124700  0.50038200  1
  Li  Li6  1  0.00024100  0.76889900  0.99954600  1
  Li  Li7  1  0.50029200  0.26882900  0.50006900  1
  Co  Co8  1  0.49999900  0.50000000  0.50000000  1
  Co  Co9  1  0.49999900  0.50000000  0.99999900  1
  Co  Co10  1  0.00000100  0.99999900  0.00000000  1
  Co  Co11  1  0.00000100  0.00000000  0.50000000  1
  P  P12  1  0.81466400  0.38982500  0.75031000  1
  P  P13  1  0.31494600  0.88970000  0.24827400  1
  P  P14  1  0.18560800  0.38984000  0.24993400  1
  P  P15  1  0.68517200  0.88985300  0.75142500  1
  P  P16  1  0.81439100  0.61016000  0.75006600  1
  P  P17  1  0.31483000  0.11014700  0.24857400  1
  P  P18  1  0.18533400  0.61017500  0.24969000  1
  P  P19  1  0.68505500  0.11030000  0.75172700  1
  O  O20  1  0.07393100  0.49997700  0.24944600  1
  O  O21  1  0.57350800  0.00006900  0.75080400  1
  O  O22  1  0.92606800  0.50002300  0.75055400  1
  O  O23  1  0.42649400  0.99993000  0.24919600  1
  O  O24  1  0.03019900  0.30734800  0.24972700  1
  O  O25  1  0.52978300  0.80733300  0.74984100  1
  O  O26  1  0.97032200  0.30741200  0.75086000  1
  O  O27  1  0.47045200  0.80720600  0.24983700  1
  O  O28  1  0.02967400  0.69258800  0.24914100  1
  O  O29  1  0.52954800  0.19279400  0.75016500  1
  O  O30  1  0.96980000  0.69265100  0.75027300  1
  O  O31  1  0.47021600  0.19266700  0.25016000  1
  O  O32  1  0.18542300  0.11232400  0.06620700  1
  O  O33  1  0.68409100  0.61227600  0.56824200  1
  O  O34  1  0.81424400  0.11231100  0.93429800  1
  O  O35  1  0.31550700  0.61232600  0.43159000  1
  O  O36  1  0.68402400  0.38774000  0.93110800  1
  O  O37  1  0.18292200  0.88773300  0.42797000  1
  O  O38  1  0.31617900  0.38778600  0.06910200  1
  O  O39  1  0.81698300  0.88803600  0.57153900  1
  O  O40  1  0.68382000  0.61221400  0.93089700  1
  O  O41  1  0.18301600  0.11196400  0.42846000  1
  O  O42  1  0.31597600  0.61226200  0.06889100  1
  O  O43  1  0.81708000  0.11226800  0.57203100  1
  O  O44  1  0.81457800  0.88767600  0.93379300  1
  O  O45  1  0.31590900  0.38772400  0.43175700  1
  O  O46  1  0.18575700  0.88768700  0.06570400  1
  O  O47  1  0.68449200  0.38767400  0.56840800  1
