# generated using pymatgen
data_Li2MnV(P2O7)2
_symmetry_space_group_name_H-M   'P 1'
_cell_length_a   4.84970700
_cell_length_b   7.04796505
_cell_length_c   16.60966978
_cell_angle_alpha   90.02954211
_cell_angle_beta   90.08378944
_cell_angle_gamma   108.77968001
_symmetry_Int_Tables_number   1
_chemical_formula_structural   Li2MnV(P2O7)2
_chemical_formula_sum   'Li4 Mn2 V2 P8 O28'
_cell_volume   537.50318688
_cell_formula_units_Z   2
loop_
 _symmetry_equiv_pos_site_id
 _symmetry_equiv_pos_as_xyz
  1  'x, y, z'
loop_
 _atom_site_type_symbol
 _atom_site_label
 _atom_site_symmetry_multiplicity
 _atom_site_fract_x
 _atom_site_fract_y
 _atom_site_fract_z
 _atom_site_occupancy
  Li  Li0  1  0.82673400  0.32474000  0.06961300  1
  Li  Li1  1  0.82276100  0.32530200  0.56924600  1
  Li  Li2  1  0.17629100  0.67614700  0.81947400  1
  Li  Li3  1  0.17475300  0.67416500  0.31919900  1
  Mn  Mn4  1  0.78652300  0.26880500  0.25078500  1
  Mn  Mn5  1  0.21465200  0.72840200  0.00016800  1
  V  V6  1  0.78374200  0.27327500  0.74996600  1
  V  V7  1  0.21367000  0.72910800  0.50034500  1
  P  P8  1  0.59893800  0.47839600  0.91103400  1
  P  P9  1  0.60122700  0.48203400  0.40991100  1
  P  P10  1  0.78723500  0.91464700  0.60792200  1
  P  P11  1  0.78775900  0.90992600  0.10648100  1
  P  P12  1  0.21106900  0.08645500  0.85691100  1
  P  P13  1  0.21328100  0.08864500  0.35727200  1
  P  P14  1  0.40069100  0.51646400  0.16129300  1
  P  P15  1  0.40000200  0.52352800  0.65984400  1
  O  O16  1  0.94938600  0.15361300  0.83738900  1
  O  O17  1  0.94223600  0.14574200  0.33690200  1
  O  O18  1  0.86785000  0.11563500  0.65193300  1
  O  O19  1  0.87390000  0.11108000  0.14866300  1
  O  O20  1  0.81389900  0.51800800  0.98183400  1
  O  O21  1  0.81062800  0.51780700  0.48203200  1
  O  O22  1  0.75542500  0.50411300  0.32942800  1
  O  O23  1  0.74981100  0.49522800  0.82891100  1
  O  O24  1  0.60380000  0.39594900  0.66114900  1
  O  O25  1  0.60783900  0.38989000  0.16400100  1
  O  O26  1  0.39806400  0.08609800  0.78209000  1
  O  O27  1  0.39763500  0.08431100  0.28270100  1
  O  O28  1  0.40401600  0.24684200  0.92324000  1
  O  O29  1  0.40434300  0.24945500  0.42226700  1
  O  O30  1  0.59551000  0.75381800  0.67348600  1
  O  O31  1  0.59794500  0.74993900  0.17215300  1
  O  O32  1  0.60265600  0.91722800  0.53343500  1
  O  O33  1  0.59893000  0.91099700  0.03174800  1
  O  O34  1  0.39230200  0.60574800  0.41244700  1
  O  O35  1  0.39634300  0.60755000  0.91251200  1
  O  O36  1  0.24665500  0.50659500  0.57832600  1
  O  O37  1  0.24948100  0.49389300  0.07982300  1
  O  O38  1  0.19023300  0.48166700  0.23295100  1
  O  O39  1  0.18690700  0.48391100  0.73089800  1
  O  O40  1  0.12608300  0.88473800  0.89845800  1
  O  O41  1  0.13096700  0.88833600  0.40205700  1
  O  O42  1  0.05105800  0.85197000  0.58817700  1
  O  O43  1  0.05676900  0.84979800  0.08595000  1
