# generated using pymatgen
data_Li2Fe(PO3)4
_symmetry_space_group_name_H-M   'P 1'
_cell_length_a   7.19725778
_cell_length_b   7.28817887
_cell_length_c   10.79721664
_cell_angle_alpha   73.68922871
_cell_angle_beta   111.58695261
_cell_angle_gamma   108.23612820
_symmetry_Int_Tables_number   1
_chemical_formula_structural   Li2Fe(PO3)4
_chemical_formula_sum   'Li4 Fe2 P8 O24'
_cell_volume   491.30712638
_cell_formula_units_Z   2
loop_
 _symmetry_equiv_pos_site_id
 _symmetry_equiv_pos_as_xyz
  1  'x, y, z'
loop_
 _atom_site_type_symbol
 _atom_site_label
 _atom_site_symmetry_multiplicity
 _atom_site_fract_x
 _atom_site_fract_y
 _atom_site_fract_z
 _atom_site_occupancy
  Li  Li0  1  0.60462600  0.44155000  0.32603800  1
  Li  Li1  1  0.10468200  0.44150700  0.82606800  1
  Li  Li2  1  0.39544000  0.55851700  0.67395000  1
  Li  Li3  1  0.89531200  0.55847200  0.17393500  1
  Fe  Fe4  1  0.50011700  0.00014500  0.49996900  1
  Fe  Fe5  1  0.99998500  0.99999100  0.00005100  1
  P  P6  1  0.37494600  0.79317800  0.16262800  1
  P  P7  1  0.87516100  0.79337600  0.66274400  1
  P  P8  1  0.62500700  0.20676000  0.83737800  1
  P  P9  1  0.12481700  0.20666100  0.33721000  1
  P  P10  1  0.51218300  0.77575200  0.92813900  1
  P  P11  1  0.01223800  0.77577600  0.42806800  1
  P  P12  1  0.48776800  0.22412500  0.07188900  1
  P  P13  1  0.98785600  0.22431600  0.57193800  1
  O  O14  1  0.46993300  0.65888900  0.28401000  1
  O  O15  1  0.97012300  0.65912800  0.78413200  1
  O  O16  1  0.52995400  0.34101800  0.71598700  1
  O  O17  1  0.02985200  0.34088900  0.21583300  1
  O  O18  1  0.51456900  0.01534400  0.17231400  1
  O  O19  1  0.01470900  0.01557400  0.67243200  1
  O  O20  1  0.48548400  0.98455900  0.82771200  1
  O  O21  1  0.98528500  0.98444200  0.32753500  1
  O  O22  1  0.84770400  0.20177900  0.86633800  1
  O  O23  1  0.34750300  0.20162000  0.36618800  1
  O  O24  1  0.15226700  0.79822600  0.13369500  1
  O  O25  1  0.65249300  0.79843200  0.63375000  1
  O  O26  1  0.37935800  0.75565100  0.02388200  1
  O  O27  1  0.87990200  0.75589700  0.52405400  1
  O  O28  1  0.62053100  0.24429700  0.97611500  1
  O  O29  1  0.12011200  0.24414700  0.47591200  1
  O  O30  1  0.26201300  0.20529200  0.98976600  1
  O  O31  1  0.76202600  0.20568300  0.49010000  1
  O  O32  1  0.73795000  0.79457100  0.01031300  1
  O  O33  1  0.23803900  0.79445600  0.50990900  1
  O  O34  1  0.59454600  0.38226200  0.15357300  1
  O  O35  1  0.09501300  0.38248600  0.65354700  1
  O  O36  1  0.40540500  0.61766200  0.84644900  1
  O  O37  1  0.90509200  0.61756900  0.34645000  1
