# generated using pymatgen
data_Li12CrGa11O24
_symmetry_space_group_name_H-M   'P 1'
_cell_length_a   7.47903100
_cell_length_b   8.20110041
_cell_length_c   9.86144840
_cell_angle_alpha   101.11796831
_cell_angle_beta   86.67427462
_cell_angle_gamma   114.54732679
_symmetry_Int_Tables_number   1
_chemical_formula_structural   Li12CrGa11O24
_chemical_formula_sum   'Li12 Cr1 Ga11 O24'
_cell_volume   539.70455069
_cell_formula_units_Z   1
loop_
 _symmetry_equiv_pos_site_id
 _symmetry_equiv_pos_as_xyz
  1  'x, y, z'
loop_
 _atom_site_type_symbol
 _atom_site_label
 _atom_site_symmetry_multiplicity
 _atom_site_fract_x
 _atom_site_fract_y
 _atom_site_fract_z
 _atom_site_occupancy
  Li  Li0  1  0.85084500  0.61146000  0.73524600  1
  Li  Li1  1  0.99015300  0.55551900  0.43053000  1
  Li  Li2  1  0.65523800  0.88722600  0.76247500  1
  Li  Li3  1  0.09768300  0.60894500  0.98473400  1
  Li  Li4  1  0.43076400  0.27562100  0.65146800  1
  Li  Li5  1  0.76459100  0.94233500  0.31808900  1
  Li  Li6  1  0.40520700  0.88772800  0.51251000  1
  Li  Li7  1  0.07166500  0.22187300  0.84625900  1
  Li  Li8  1  0.73843300  0.55438600  0.17775100  1
  Li  Li9  1  0.17954000  0.27594000  0.40051400  1
  Li  Li10  1  0.51505500  0.94290800  0.06726500  1
  Li  Li11  1  0.32083100  0.22057800  0.09602200  1
  Cr  Cr12  1  0.60135800  0.61019900  0.48431600  1
  Ga  Ga13  1  0.67907400  0.27610500  0.90237000  1
  Ga  Ga14  1  0.82030200  0.22339500  0.59701000  1
  Ga  Ga15  1  0.48728400  0.55688200  0.93009500  1
  Ga  Ga16  1  0.26417300  0.94509800  0.81887500  1
  Ga  Ga17  1  0.92878100  0.27812700  0.15262300  1
  Ga  Ga18  1  0.23413100  0.55354800  0.68134200  1
  Ga  Ga19  1  0.90295800  0.88859100  0.01447700  1
  Ga  Ga20  1  0.56640200  0.21952400  0.34778200  1
  Ga  Ga21  1  0.34332800  0.60859600  0.23465400  1
  Ga  Ga22  1  0.01892300  0.94813500  0.57094000  1
  Ga  Ga23  1  0.15381600  0.89073000  0.26372000  1
  O  O24  1  0.92752600  0.34121200  0.97953200  1
  O  O25  1  0.71829400  0.73601000  0.87431600  1
  O  O26  1  0.88678200  0.07248700  0.68424900  1
  O  O27  1  0.70165500  0.34269400  0.72882700  1
  O  O28  1  0.86697500  0.70007700  0.55819500  1
  O  O29  1  0.52112300  0.02516100  0.88678100  1
  O  O30  1  0.31029800  0.41977400  0.78233900  1
  O  O31  1  0.97670500  0.75333300  0.11572300  1
  O  O32  1  0.64362300  0.08646400  0.44884700  1
  O  O33  1  0.12696500  0.05414100  0.94224800  1
  O  O34  1  0.79191400  0.38826300  0.27724100  1
  O  O35  1  0.45965300  0.71826800  0.60947500  1
  O  O36  1  0.44770800  0.35006900  0.46820300  1
  O  O37  1  0.12752000  0.69226300  0.80483900  1
  O  O38  1  0.79289400  0.02526200  0.13753100  1
  O  O39  1  0.26708100  0.01134800  0.64686300  1
  O  O40  1  0.59250600  0.67215900  0.30917900  1
  O  O41  1  0.05066000  0.40241000  0.54079700  1
  O  O42  1  0.38466500  0.06808000  0.20621300  1
  O  O43  1  0.55237500  0.40440400  0.01694600  1
  O  O44  1  0.21958200  0.73818800  0.35017700  1
  O  O45  1  0.03373500  0.00786800  0.39553000  1
  O  O46  1  0.36737100  0.67491400  0.06142200  1
  O  O47  1  0.18545300  0.35810100  0.21986200  1
