# generated using pymatgen
data_Li2MnVP2(HO5)2
_symmetry_space_group_name_H-M   'P 1'
_cell_length_a   5.50225600
_cell_length_b   10.14156675
_cell_length_c   10.15351353
_cell_angle_alpha   80.03937311
_cell_angle_beta   83.17522347
_cell_angle_gamma   80.40668881
_symmetry_Int_Tables_number   1
_chemical_formula_structural   Li2MnVP2(HO5)2
_chemical_formula_sum   'Li6 Mn3 V3 P6 H6 O30'
_cell_volume   547.86887913
_cell_formula_units_Z   3
loop_
 _symmetry_equiv_pos_site_id
 _symmetry_equiv_pos_as_xyz
  1  'x, y, z'
loop_
 _atom_site_type_symbol
 _atom_site_label
 _atom_site_symmetry_multiplicity
 _atom_site_fract_x
 _atom_site_fract_y
 _atom_site_fract_z
 _atom_site_occupancy
  Li  Li0  1  0.86633600  0.02429200  0.19672300  1
  Li  Li1  1  0.80042300  0.31150500  0.13146800  1
  Li  Li2  1  0.13366400  0.97570800  0.80327700  1
  Li  Li3  1  0.19957700  0.68849500  0.86853200  1
  Li  Li4  1  0.53790600  0.35868800  0.52956200  1
  Li  Li5  1  0.46209400  0.64131200  0.47043800  1
  Mn  Mn6  1  0.83728700  0.66417400  0.16506100  1
  Mn  Mn7  1  0.00000000  0.50000000  0.50000000  1
  Mn  Mn8  1  0.16271300  0.33582600  0.83493900  1
  V  V9  1  0.33650000  0.16732900  0.16406200  1
  V  V10  1  0.50000000  0.00000000  0.50000000  1
  V  V11  1  0.66350000  0.83267100  0.83593800  1
  P  P12  1  0.72968200  0.13587300  0.90067100  1
  P  P13  1  0.94823200  0.19720900  0.42950300  1
  P  P14  1  0.27031800  0.86412700  0.09932900  1
  P  P15  1  0.05176800  0.80279100  0.57049700  1
  P  P16  1  0.40620500  0.46858000  0.23422400  1
  P  P17  1  0.59379500  0.53142000  0.76577600  1
  H  H18  1  0.83098100  0.59721200  0.93980000  1
  H  H19  1  0.83582100  0.72973600  0.39358600  1
  H  H20  1  0.16901900  0.40278800  0.06020000  1
  H  H21  1  0.16417900  0.27026400  0.60641400  1
  H  H22  1  0.50490600  0.93219200  0.27067400  1
  H  H23  1  0.49509400  0.06780800  0.72932600  1
  O  O24  1  0.77811900  0.97898200  0.90898300  1
  O  O25  1  0.67227200  0.16753900  0.04768200  1
  O  O26  1  0.70033900  0.15317100  0.49447700  1
  O  O27  1  0.83164000  0.86524600  0.48731600  1
  O  O28  1  0.80723600  0.46907400  0.85245500  1
  O  O29  1  0.98502900  0.17751200  0.83923200  1
  O  O30  1  0.85564800  0.68551300  0.96528800  1
  O  O31  1  0.99978900  0.83422500  0.71733900  1
  O  O32  1  0.00021100  0.16577500  0.28266100  1
  O  O33  1  0.90020700  0.35449500  0.42422200  1
  O  O34  1  0.81360500  0.64139900  0.36915300  1
  O  O35  1  0.22188100  0.02101800  0.09101700  1
  O  O36  1  0.14435200  0.31448700  0.03471200  1
  O  O37  1  0.16836000  0.13475400  0.51268400  1
  O  O38  1  0.01497100  0.82248800  0.16076800  1
  O  O39  1  0.29966100  0.84682900  0.50552300  1
  O  O40  1  0.19276400  0.53092600  0.14754500  1
  O  O41  1  0.18639500  0.35860100  0.63084700  1
  O  O42  1  0.09979300  0.64550500  0.57577800  1
  O  O43  1  0.52133700  0.02076400  0.29744500  1
  O  O44  1  0.45122700  0.31140500  0.24097300  1
  O  O45  1  0.35860800  0.50147500  0.37903700  1
  O  O46  1  0.32772800  0.83246100  0.95231800  1
  O  O47  1  0.47866300  0.97923600  0.70255500  1
  O  O48  1  0.33938600  0.49159300  0.83337900  1
  O  O49  1  0.51811600  0.19844300  0.81368800  1
  O  O50  1  0.48188400  0.80155700  0.18631200  1
  O  O51  1  0.66061400  0.50840700  0.16662100  1
  O  O52  1  0.64139200  0.49852500  0.62096300  1
  O  O53  1  0.54877300  0.68859500  0.75902700  1
