# generated using pymatgen
data_Na5LiMn2P2(CO7)2
_symmetry_space_group_name_H-M   'P 1'
_cell_length_a   6.81305500
_cell_length_b   8.98001460
_cell_length_c   10.35178548
_cell_angle_alpha   90.14485435
_cell_angle_beta   90.14909848
_cell_angle_gamma   90.29447433
_symmetry_Int_Tables_number   1
_chemical_formula_structural   Na5LiMn2P2(CO7)2
_chemical_formula_sum   'Na10 Li2 Mn4 P4 C4 O28'
_cell_volume   633.32348425
_cell_formula_units_Z   2
loop_
 _symmetry_equiv_pos_site_id
 _symmetry_equiv_pos_as_xyz
  1  'x, y, z'
loop_
 _atom_site_type_symbol
 _atom_site_label
 _atom_site_symmetry_multiplicity
 _atom_site_fract_x
 _atom_site_fract_y
 _atom_site_fract_z
 _atom_site_occupancy
  Na  Na0  1  0.24784500  0.91779700  0.87949000  1
  Na  Na1  1  0.25029300  0.91759200  0.38064600  1
  Na  Na2  1  0.00068200  0.74195400  0.62392900  1
  Na  Na3  1  0.49928700  0.74166000  0.62372500  1
  Na  Na4  1  0.00201500  0.74076200  0.12432100  1
  Na  Na5  1  0.49819600  0.74061100  0.12401000  1
  Na  Na6  1  0.50200300  0.25814300  0.87503900  1
  Na  Na7  1  0.50148900  0.25922500  0.37743800  1
  Na  Na8  1  0.99863900  0.25881500  0.37749300  1
  Na  Na9  1  0.75179400  0.08421900  0.11970900  1
  Li  Li10  1  0.99198700  0.26746800  0.87787300  1
  Li  Li11  1  0.75284600  0.08476500  0.62260500  1
  Mn  Mn12  1  0.74957900  0.63717600  0.88785000  1
  Mn  Mn13  1  0.75008700  0.63747800  0.38977200  1
  Mn  Mn14  1  0.24889600  0.35924900  0.61269200  1
  Mn  Mn15  1  0.24778800  0.36093400  0.10913200  1
  P  P16  1  0.24588500  0.58562700  0.85031200  1
  P  P17  1  0.24998200  0.58826700  0.35181200  1
  P  P18  1  0.75303200  0.40459100  0.64999100  1
  P  P19  1  0.74981100  0.41141700  0.14665100  1
  C  C20  1  0.75577300  0.94478500  0.86428700  1
  C  C21  1  0.75006300  0.94397700  0.37171400  1
  C  C22  1  0.24833900  0.06113500  0.63321100  1
  C  C23  1  0.24905100  0.06094200  0.13153300  1
  O  O24  1  0.25057800  0.91715200  0.64381700  1
  O  O25  1  0.25080500  0.91694600  0.14204900  1
  O  O26  1  0.75017500  0.88350100  0.97836600  1
  O  O27  1  0.75062800  0.89020600  0.48868000  1
  O  O28  1  0.74922000  0.85945300  0.76243600  1
  O  O29  1  0.75047300  0.85379300  0.27253000  1
  O  O30  1  0.06559900  0.68078600  0.89090900  1
  O  O31  1  0.43243200  0.67381900  0.89348700  1
  O  O32  1  0.06685300  0.68051500  0.39201000  1
  O  O33  1  0.43418700  0.68101500  0.39214200  1
  O  O34  1  0.24863200  0.57022600  0.70010000  1
  O  O35  1  0.75036800  0.56247800  0.58851600  1
  O  O36  1  0.24944400  0.56971600  0.20163200  1
  O  O37  1  0.74977600  0.56941200  0.08633100  1
  O  O38  1  0.23637800  0.42634500  0.90886700  1
  O  O39  1  0.76195900  0.42350400  0.80055100  1
  O  O40  1  0.25030200  0.43168400  0.41408200  1
  O  O41  1  0.75293800  0.42915200  0.29688700  1
  O  O42  1  0.56822600  0.31119300  0.61230300  1
  O  O43  1  0.93215800  0.31065700  0.60632300  1
  O  O44  1  0.56483800  0.31974600  0.10689100  1
  O  O45  1  0.93117700  0.31940000  0.10290300  1
  O  O46  1  0.24515900  0.14525200  0.73580700  1
  O  O47  1  0.24840700  0.14470600  0.23435700  1
  O  O48  1  0.24971700  0.12277300  0.51950000  1
  O  O49  1  0.24796400  0.12307900  0.01812200  1
  O  O50  1  0.76704900  0.08847800  0.85100100  1
  O  O51  1  0.74920200  0.08642300  0.35416800  1
