# generated using pymatgen
data_K8Li9Mn4O16
_symmetry_space_group_name_H-M   'P 1'
_cell_length_a   5.62044600
_cell_length_b   8.75360362
_cell_length_c   10.67364457
_cell_angle_alpha   88.99112495
_cell_angle_beta   78.56536325
_cell_angle_gamma   89.63193036
_symmetry_Int_Tables_number   1
_chemical_formula_structural   K8Li9Mn4O16
_chemical_formula_sum   'K8 Li9 Mn4 O16'
_cell_volume   514.62908843
_cell_formula_units_Z   1
loop_
 _symmetry_equiv_pos_site_id
 _symmetry_equiv_pos_as_xyz
  1  'x, y, z'
loop_
 _atom_site_type_symbol
 _atom_site_label
 _atom_site_symmetry_multiplicity
 _atom_site_fract_x
 _atom_site_fract_y
 _atom_site_fract_z
 _atom_site_occupancy
  K  K0  1  0.86443300  0.01051400  0.85069800  1
  K  K1  1  0.87947600  0.27963600  0.39679400  1
  K  K2  1  0.67027000  0.47043200  0.64468300  1
  K  K3  1  0.38249800  0.21903500  0.90084800  1
  K  K4  1  0.60459800  0.78253000  0.10205900  1
  K  K5  1  0.34213900  0.50846700  0.34472600  1
  K  K6  1  0.12806100  0.71548400  0.59959000  1
  K  K7  1  0.15346200  0.99865800  0.15188500  1
  Li  Li8  1  0.69725100  0.50933900  0.92750200  1
  Li  Li9  1  0.79931000  0.00980500  0.57482200  1
  Li  Li10  1  0.90194100  0.55232500  0.20289200  1
  Li  Li11  1  0.58522800  0.73188200  0.79701400  1
  Li  Li12  1  0.60397600  0.04920300  0.29835100  1
  Li  Li13  1  0.38947400  0.95567400  0.69936100  1
  Li  Li14  1  0.10624400  0.45784800  0.79613400  1
  Li  Li15  1  0.19767100  0.98738800  0.42906700  1
  Li  Li16  1  0.30619100  0.48917400  0.06914300  1
  Mn  Mn17  1  0.80703600  0.29484000  0.07741900  1
  Mn  Mn18  1  0.69417800  0.79267800  0.43022700  1
  Mn  Mn19  1  0.29938300  0.20715900  0.57359900  1
  Mn  Mn20  1  0.15285100  0.70625200  0.93422000  1
  O  O21  1  0.90093000  0.67064600  0.83943100  1
  O  O22  1  0.87267500  0.30809300  0.90388900  1
  O  O23  1  0.86804500  0.97349700  0.38743500  1
  O  O24  1  0.79770000  0.59819600  0.39940100  1
  O  O25  1  0.63351900  0.79854000  0.60843100  1
  O  O26  1  0.55207800  0.15812000  0.64690700  1
  O  O27  1  0.70282100  0.09749500  0.10706600  1
  O  O28  1  0.37761400  0.53160400  0.87614900  1
  O  O29  1  0.63572000  0.47601500  0.11648500  1
  O  O30  1  0.33002700  0.89208200  0.88051500  1
  O  O31  1  0.44699600  0.84562400  0.35388800  1
  O  O32  1  0.36529200  0.19551700  0.40164900  1
  O  O33  1  0.19793400  0.40351300  0.60499300  1
  O  O34  1  0.12721500  0.02495200  0.61405300  1
  O  O35  1  0.14653500  0.69060200  0.10833200  1
  O  O36  1  0.05835400  0.34198600  0.15024500  1
