# generated using pymatgen
data_LiMn2(BO3)2
_symmetry_space_group_name_H-M   'P 1'
_cell_length_a   9.10563200
_cell_length_b   9.13810740
_cell_length_c   10.32021023
_cell_angle_alpha   91.91283229
_cell_angle_beta   89.56139769
_cell_angle_gamma   119.73450528
_symmetry_Int_Tables_number   1
_chemical_formula_structural   LiMn2(BO3)2
_chemical_formula_sum   'Li6 Mn12 B12 O36'
_cell_volume   745.20589064
_cell_formula_units_Z   6
loop_
 _symmetry_equiv_pos_site_id
 _symmetry_equiv_pos_as_xyz
  1  'x, y, z'
loop_
 _atom_site_type_symbol
 _atom_site_label
 _atom_site_symmetry_multiplicity
 _atom_site_fract_x
 _atom_site_fract_y
 _atom_site_fract_z
 _atom_site_occupancy
  Li  Li0  1  0.27982500  0.58146700  0.32717100  1
  Li  Li1  1  0.96602000  0.89673900  0.89025800  1
  Li  Li2  1  0.27124400  0.57703700  0.83769800  1
  Li  Li3  1  0.05444400  0.09431700  0.59877900  1
  Li  Li4  1  0.63963800  0.24261500  0.32244100  1
  Li  Li5  1  0.59627100  0.21999900  0.84759700  1
  Mn  Mn6  1  0.73413600  0.78084100  0.12185500  1
  Mn  Mn7  1  0.63844200  0.90347700  0.86501300  1
  Mn  Mn8  1  0.25729100  0.91007100  0.37836600  1
  Mn  Mn9  1  0.39236000  0.46315800  0.61769400  1
  Mn  Mn10  1  0.06208100  0.74447600  0.62413000  1
  Mn  Mn11  1  0.03126200  0.42267700  0.12124600  1
  Mn  Mn12  1  0.92424300  0.54624900  0.87672000  1
  Mn  Mn13  1  0.61753100  0.58308000  0.36767600  1
  Mn  Mn14  1  0.94956000  0.19253800  0.36095500  1
  Mn  Mn15  1  0.70465900  0.11009100  0.60888400  1
  Mn  Mn16  1  0.39049000  0.10475100  0.11691800  1
  Mn  Mn17  1  0.28675400  0.24268800  0.87351200  1
  B  B18  1  0.73927700  0.78944700  0.62168500  1
  B  B19  1  0.59398300  0.89673400  0.36732500  1
  B  B20  1  0.28370100  0.88928400  0.85935500  1
  B  B21  1  0.06497500  0.78118500  0.11963700  1
  B  B22  1  0.39205900  0.44564100  0.13102200  1
  B  B23  1  0.94208900  0.54392100  0.36881300  1
  B  B24  1  0.04007100  0.42863000  0.62866000  1
  B  B25  1  0.60191300  0.55341800  0.87088500  1
  B  B26  1  0.94608600  0.22128200  0.87966400  1
  B  B27  1  0.73060100  0.10609400  0.11164400  1
  B  B28  1  0.29399900  0.22699700  0.38394800  1
  B  B29  1  0.36613900  0.11053400  0.63866300  1
  O  O30  1  0.65764800  0.94445300  0.05203600  1
  O  O31  1  0.69113500  0.82166400  0.32499900  1
  O  O32  1  0.65584200  0.87177200  0.67838700  1
  O  O33  1  0.69706800  0.72590800  0.90133700  1
  O  O34  1  0.42398500  0.81106400  0.37554600  1
  O  O35  1  0.26705300  0.95762900  0.56815100  1
  O  O36  1  0.38088600  0.81676200  0.85885900  1
  O  O37  1  0.21364400  0.86837700  0.19413200  1
  O  O38  1  0.43163300  0.48842000  0.83271100  1
  O  O39  1  0.11244900  0.80032100  0.81304900  1
  O  O40  1  0.97947100  0.85745800  0.07952400  1
  O  O41  1  0.28389800  0.50254000  0.15363500  1
  O  O42  1  0.37602900  0.39986600  0.41306700  1
  O  O43  1  0.90757600  0.85462300  0.63289600  1
  O  O44  1  0.05281700  0.69842800  0.43418500  1
  O  O45  1  0.20863900  0.52178500  0.65206300  1
  O  O46  1  0.01344200  0.61766300  0.07501000  1
  O  O47  1  0.02245800  0.45877900  0.31331600  1
  O  O48  1  0.94018200  0.50461000  0.66193800  1
  O  O49  1  0.03248300  0.39181600  0.92575000  1
  O  O50  1  0.63278000  0.63755500  0.55386500  1
  O  O51  1  0.12597600  0.12555600  0.40301900  1
  O  O52  1  0.77451500  0.48240900  0.36198400  1
  O  O53  1  0.96149600  0.26499400  0.57750300  1
  O  O54  1  0.67047600  0.45285300  0.87851300  1
  O  O55  1  0.02757900  0.13142800  0.86729900  1
  O  O56  1  0.55944200  0.52797400  0.18203900  1
  O  O57  1  0.90203200  0.17900900  0.15004600  1
  O  O58  1  0.77511900  0.15475200  0.84520200  1
  O  O59  1  0.64187600  0.18559400  0.13652200  1
  O  O60  1  0.68937400  0.06910900  0.40293800  1
  O  O61  1  0.52977200  0.17050900  0.66446400  1
  O  O62  1  0.34711800  0.29732900  0.05615700  1
  O  O63  1  0.39153200  0.15384900  0.34042000  1
  O  O64  1  0.28142600  0.19716100  0.68258800  1
  O  O65  1  0.34349500  0.05429600  0.90877400  1
