# generated using pymatgen
data_Li2MnF4
_symmetry_space_group_name_H-M   'P 1'
_cell_length_a   8.99139972
_cell_length_b   8.99139972
_cell_length_c   8.99139890
_cell_angle_alpha   107.56057124
_cell_angle_beta   107.56057124
_cell_angle_gamma   107.56056915
_symmetry_Int_Tables_number   1
_chemical_formula_structural   Li2MnF4
_chemical_formula_sum   'Li12 Mn6 F24'
_cell_volume   595.87968963
_cell_formula_units_Z   6
loop_
 _symmetry_equiv_pos_site_id
 _symmetry_equiv_pos_as_xyz
  1  'x, y, z'
loop_
 _atom_site_type_symbol
 _atom_site_label
 _atom_site_symmetry_multiplicity
 _atom_site_fract_x
 _atom_site_fract_y
 _atom_site_fract_z
 _atom_site_occupancy
  Li  Li0  1  0.94340200  0.08176300  0.70695100  1
  Li  Li1  1  0.91823700  0.29304900  0.05659800  1
  Li  Li2  1  0.77488700  0.35485200  0.63575400  1
  Li  Li3  1  0.29304900  0.05659800  0.91823700  1
  Li  Li4  1  0.64514800  0.36424600  0.22511300  1
  Li  Li5  1  0.36424600  0.22511300  0.64514800  1
  Li  Li6  1  0.63575400  0.77488700  0.35485200  1
  Li  Li7  1  0.35485200  0.63575400  0.77488700  1
  Li  Li8  1  0.70695100  0.94340200  0.08176300  1
  Li  Li9  1  0.22511300  0.64514800  0.36424600  1
  Li  Li10  1  0.08176300  0.70695100  0.94340200  1
  Li  Li11  1  0.05659800  0.91823700  0.29304900  1
  Mn  Mn12  1  0.00956000  0.29378900  0.44685600  1
  Mn  Mn13  1  0.55314400  0.99044000  0.70621100  1
  Mn  Mn14  1  0.70621100  0.55314400  0.99044000  1
  Mn  Mn15  1  0.29378900  0.44685600  0.00956000  1
  Mn  Mn16  1  0.44685600  0.00956000  0.29378900  1
  Mn  Mn17  1  0.99044000  0.70621100  0.55314400  1
  F  F18  1  0.87864200  0.17243600  0.18976000  1
  F  F19  1  0.91538100  0.24035000  0.61088100  1
  F  F20  1  0.81024000  0.12135800  0.82756400  1
  F  F21  1  0.38911900  0.08461900  0.75965000  1
  F  F22  1  0.53869400  0.18305800  0.55505800  1
  F  F23  1  0.84578900  0.53721500  0.84551800  1
  F  F24  1  0.46278500  0.15448200  0.15421100  1
  F  F25  1  0.75965000  0.38911900  0.08461900  1
  F  F26  1  0.81694200  0.44494200  0.46130600  1
  F  F27  1  0.44494200  0.46130600  0.81694200  1
  F  F28  1  0.82756400  0.81024000  0.12135800  1
  F  F29  1  0.15448200  0.15421100  0.46278500  1
  F  F30  1  0.84551800  0.84578900  0.53721500  1
  F  F31  1  0.17243600  0.18976000  0.87864200  1
  F  F32  1  0.55505800  0.53869400  0.18305800  1
  F  F33  1  0.18305800  0.55505800  0.53869400  1
  F  F34  1  0.24035000  0.61088100  0.91538100  1
  F  F35  1  0.53721500  0.84551800  0.84578900  1
  F  F36  1  0.15421100  0.46278500  0.15448200  1
  F  F37  1  0.46130600  0.81694200  0.44494200  1
  F  F38  1  0.61088100  0.91538100  0.24035000  1
  F  F39  1  0.18976000  0.87864200  0.17243600  1
  F  F40  1  0.08461900  0.75965000  0.38911900  1
  F  F41  1  0.12135800  0.82756400  0.81024000  1
