# generated using pymatgen
data_Li2ZnCr3(SO4)6
_symmetry_space_group_name_H-M   'P 1'
_cell_length_a   8.38155700
_cell_length_b   8.41689334
_cell_length_c   8.95551445
_cell_angle_alpha   90.94247060
_cell_angle_beta   116.62008644
_cell_angle_gamma   119.76579713
_symmetry_Int_Tables_number   1
_chemical_formula_structural   Li2ZnCr3(SO4)6
_chemical_formula_sum   'Li2 Zn1 Cr3 S6 O24'
_cell_volume   466.48179721
_cell_formula_units_Z   1
loop_
 _symmetry_equiv_pos_site_id
 _symmetry_equiv_pos_as_xyz
  1  'x, y, z'
loop_
 _atom_site_type_symbol
 _atom_site_label
 _atom_site_symmetry_multiplicity
 _atom_site_fract_x
 _atom_site_fract_y
 _atom_site_fract_z
 _atom_site_occupancy
  Li  Li0  1  0.05351900  0.23327300  0.62875900  1
  Li  Li1  1  0.80910900  0.57400400  0.62575900  1
  Zn  Zn2  1  0.66550700  0.83930300  0.52663500  1
  Cr  Cr3  1  0.29673900  0.65592700  0.93901400  1
  Cr  Cr4  1  0.70996300  0.35221200  0.06609800  1
  Cr  Cr5  1  0.30133400  0.14734700  0.45198200  1
  S  S6  1  0.49837300  0.53311900  0.75212700  1
  S  S7  1  0.19554800  0.74203000  0.24588100  1
  S  S8  1  0.80412200  0.05449000  0.25275300  1
  S  S9  1  0.20933400  0.96656800  0.74480900  1
  S  S10  1  0.78255300  0.24530600  0.74613300  1
  S  S11  1  0.50129800  0.45084000  0.25156200  1
  O  O12  1  0.65171700  0.65223800  0.69802800  1
  O  O13  1  0.31526900  0.33983400  0.60945800  1
  O  O14  1  0.34340700  0.70345800  0.38265900  1
  O  O15  1  0.98220200  0.02971300  0.29521900  1
  O  O16  1  0.81740700  0.30934400  0.91832900  1
  O  O17  1  0.39180700  0.62140700  0.77030800  1
  O  O18  1  0.27249900  0.94788700  0.29682800  1
  O  O19  1  0.86698100  0.24780600  0.22936500  1
  O  O20  1  0.61116400  0.90184600  0.09324000  1
  O  O21  1  0.38428200  0.48397600  0.09182100  1
  O  O22  1  0.97770700  0.61735300  0.22235400  1
  O  O23  1  0.77130100  0.04989100  0.40531900  1
  O  O24  1  0.25949600  0.97742200  0.60295300  1
  O  O25  1  0.99111900  0.36704700  0.75374100  1
  O  O26  1  0.61122900  0.50125200  0.91743000  1
  O  O27  1  0.40925000  0.10032600  0.91627600  1
  O  O28  1  0.12127000  0.76657100  0.75319200  1
  O  O29  1  0.69869700  0.04104900  0.69829700  1
  O  O30  1  0.60976600  0.36334500  0.22908800  1
  O  O31  1  0.17912400  0.70252000  0.07680700  1
  O  O32  1  0.04467500  0.00919700  0.70420800  1
  O  O33  1  0.63218200  0.28950200  0.60854500  1
  O  O34  1  0.67784100  0.63469000  0.40280700  1
  O  O35  1  0.34551200  0.31680900  0.29941700  1
