# generated using pymatgen
data_Li8Te2O9
_symmetry_space_group_name_H-M   'P 1'
_cell_length_a   6.02130100
_cell_length_b   9.14449333
_cell_length_c   15.71093045
_cell_angle_alpha   86.97267273
_cell_angle_beta   100.69367108
_cell_angle_gamma   109.06995343
_symmetry_Int_Tables_number   1
_chemical_formula_structural   Li8Te2O9
_chemical_formula_sum   'Li32 Te8 O36'
_cell_volume   803.36910166
_cell_formula_units_Z   4
loop_
 _symmetry_equiv_pos_site_id
 _symmetry_equiv_pos_as_xyz
  1  'x, y, z'
loop_
 _atom_site_type_symbol
 _atom_site_label
 _atom_site_symmetry_multiplicity
 _atom_site_fract_x
 _atom_site_fract_y
 _atom_site_fract_z
 _atom_site_occupancy
  Li  Li0  1  0.91296900  0.12885800  0.97417100  1
  Li  Li1  1  0.67701400  0.61850000  0.96312700  1
  Li  Li2  1  0.44124800  0.13202600  0.95735900  1
  Li  Li3  1  0.15881900  0.61641000  0.95211300  1
  Li  Li4  1  0.26289100  0.40991700  0.85398200  1
  Li  Li5  1  0.97473400  0.83753100  0.85200700  1
  Li  Li6  1  0.59447600  0.62152600  0.76374800  1
  Li  Li7  1  0.33154900  0.12198400  0.73877700  1
  Li  Li8  1  0.05380400  0.62439200  0.76194300  1
  Li  Li9  1  0.79192000  0.12181900  0.73816600  1
  Li  Li10  1  0.12608400  0.32682000  0.65302000  1
  Li  Li11  1  0.40186500  0.91156300  0.63936100  1
  Li  Li12  1  0.48882400  0.63551000  0.54676600  1
  Li  Li13  1  0.20328800  0.11700900  0.54575100  1
  Li  Li14  1  0.71128700  0.11906500  0.54038400  1
  Li  Li15  1  0.94029400  0.63120200  0.52595400  1
  Li  Li16  1  0.05970600  0.36879800  0.47404600  1
  Li  Li17  1  0.28871300  0.88093500  0.45961600  1
  Li  Li18  1  0.79671200  0.88299100  0.45424900  1
  Li  Li19  1  0.51117600  0.36449000  0.45323400  1
  Li  Li20  1  0.59813500  0.08843700  0.36063900  1
  Li  Li21  1  0.87391600  0.67318000  0.34698000  1
  Li  Li22  1  0.20808000  0.87818100  0.26183400  1
  Li  Li23  1  0.94619600  0.37560800  0.23805700  1
  Li  Li24  1  0.66845100  0.87801600  0.26122300  1
  Li  Li25  1  0.40552400  0.37847400  0.23625200  1
  Li  Li26  1  0.02526600  0.16246900  0.14799300  1
  Li  Li27  1  0.73710900  0.59008300  0.14601800  1
  Li  Li28  1  0.84118100  0.38359000  0.04788700  1
  Li  Li29  1  0.55875200  0.86797400  0.04264100  1
  Li  Li30  1  0.32298600  0.38150000  0.03687300  1
  Li  Li31  1  0.08703100  0.87114200  0.02582900  1
  Te  Te32  1  0.74488000  0.37184400  0.85738600  1
  Te  Te33  1  0.49511800  0.86684000  0.85785800  1
  Te  Te34  1  0.63748800  0.36912400  0.63590100  1
  Te  Te35  1  0.89467400  0.87828000  0.64752800  1
  Te  Te36  1  0.10532600  0.12172000  0.35247200  1
  Te  Te37  1  0.36251200  0.63087600  0.36409900  1
  Te  Te38  1  0.50488200  0.13316000  0.14214200  1
  Te  Te39  1  0.25512000  0.62815600  0.14261400  1
  O  O40  1  0.55628700  0.37505800  0.94588700  1
  O  O41  1  0.77569200  0.87497400  0.94738800  1
  O  O42  1  0.29128000  0.88094400  0.93854400  1
  O  O43  1  0.01700700  0.36675200  0.94550400  1
  O  O44  1  0.61871900  0.14726700  0.85203300  1
  O  O45  1  0.37364300  0.64300500  0.84694700  1
  O  O46  1  0.85926300  0.59867900  0.85426500  1
  O  O47  1  0.72181500  0.87990600  0.74227600  1
  O  O48  1  0.45812500  0.37142000  0.76781500  1
  O  O49  1  0.17143900  0.87390600  0.73603800  1
  O  O50  1  0.94669900  0.36585100  0.77002000  1
  O  O51  1  0.52281500  0.14364000  0.64222600  1
  O  O52  1  0.01191700  0.10555500  0.65255000  1
  O  O53  1  0.77216900  0.65158700  0.64807100  1
  O  O54  1  0.34565500  0.38069400  0.56060400  1
  O  O55  1  0.07734800  0.87379700  0.55696200  1
  O  O56  1  0.82386800  0.37086000  0.54511400  1
  O  O57  1  0.61427200  0.87841300  0.56030900  1
  O  O58  1  0.38572800  0.12158700  0.43969100  1
  O  O59  1  0.17613200  0.62914000  0.45488600  1
  O  O60  1  0.92265200  0.12620300  0.44303800  1
  O  O61  1  0.65434500  0.61930600  0.43939600  1
  O  O62  1  0.22783100  0.34841300  0.35192900  1
  O  O63  1  0.98808300  0.89444500  0.34745000  1
  O  O64  1  0.47718500  0.85636000  0.35777400  1
  O  O65  1  0.05330100  0.63414900  0.22998000  1
  O  O66  1  0.82856100  0.12609400  0.26396200  1
  O  O67  1  0.54187500  0.62858000  0.23218500  1
  O  O68  1  0.27818500  0.12009400  0.25772400  1
  O  O69  1  0.62635700  0.35699500  0.15305300  1
  O  O70  1  0.38128100  0.85273300  0.14796700  1
  O  O71  1  0.14073700  0.40132100  0.14573500  1
  O  O72  1  0.98299300  0.63324800  0.05449600  1
  O  O73  1  0.70872000  0.11905600  0.06145600  1
  O  O74  1  0.22430800  0.12502600  0.05261200  1
  O  O75  1  0.44371300  0.62494200  0.05411300  1
