# generated using pymatgen
data_LiMnF3
_symmetry_space_group_name_H-M   'P 1'
_cell_length_a   7.00626000
_cell_length_b   7.99902880
_cell_length_c   16.63921167
_cell_angle_alpha   91.27387283
_cell_angle_beta   96.86143732
_cell_angle_gamma   91.53134007
_symmetry_Int_Tables_number   1
_chemical_formula_structural   LiMnF3
_chemical_formula_sum   'Li14 Mn14 F42'
_cell_volume   925.20285067
_cell_formula_units_Z   14
loop_
 _symmetry_equiv_pos_site_id
 _symmetry_equiv_pos_as_xyz
  1  'x, y, z'
loop_
 _atom_site_type_symbol
 _atom_site_label
 _atom_site_symmetry_multiplicity
 _atom_site_fract_x
 _atom_site_fract_y
 _atom_site_fract_z
 _atom_site_occupancy
  Li  Li0  1  0.78113600  0.16257800  0.03198500  1
  Li  Li1  1  0.88158900  0.78174200  0.75563500  1
  Li  Li2  1  0.74587000  0.71093600  0.56730700  1
  Li  Li3  1  0.67615200  0.54997500  0.30872900  1
  Li  Li4  1  0.56800500  0.46433300  0.11953800  1
  Li  Li5  1  0.67756900  0.07923300  0.83733600  1
  Li  Li6  1  0.50803200  0.15790700  0.59908500  1
  Li  Li7  1  0.49196800  0.84209300  0.40091500  1
  Li  Li8  1  0.32243100  0.92076700  0.16266400  1
  Li  Li9  1  0.43199500  0.53566700  0.88046200  1
  Li  Li10  1  0.32384800  0.45002500  0.69127100  1
  Li  Li11  1  0.25413000  0.28906400  0.43269300  1
  Li  Li12  1  0.11841100  0.21825800  0.24436500  1
  Li  Li13  1  0.21886400  0.83742200  0.96801500  1
  Mn  Mn14  1  0.94564400  0.95699200  0.39157800  1
  Mn  Mn15  1  0.82853300  0.86059800  0.18633100  1
  Mn  Mn16  1  0.95160600  0.45654800  0.90072200  1
  Mn  Mn17  1  0.76400400  0.29959700  0.48783500  1
  Mn  Mn18  1  0.83416800  0.38072600  0.69373600  1
  Mn  Mn19  1  0.57378500  0.18246800  0.28354000  1
  Mn  Mn20  1  0.70176800  0.81210500  0.95959200  1
  Mn  Mn21  1  0.29823200  0.18789500  0.04040800  1
  Mn  Mn22  1  0.42621500  0.81753200  0.71646000  1
  Mn  Mn23  1  0.16583200  0.61927400  0.30626400  1
  Mn  Mn24  1  0.23599600  0.70040300  0.51216500  1
  Mn  Mn25  1  0.04839400  0.54345200  0.09927800  1
  Mn  Mn26  1  0.17146700  0.13940200  0.81366900  1
  Mn  Mn27  1  0.05435600  0.04300800  0.60842200  1
  F  F28  1  0.98776500  0.31979000  0.01854300  1
  F  F29  1  0.92536500  0.06616700  0.27449000  1
  F  F30  1  0.96260000  0.83436200  0.52030800  1
  F  F31  1  0.84530900  0.94592000  0.07156800  1
  F  F32  1  0.87827000  0.72645200  0.31150300  1
  F  F33  1  0.94069100  0.56131300  0.77953900  1
  F  F34  1  0.77179000  0.62806300  0.11964400  1
  F  F35  1  0.84455800  0.48944300  0.57580700  1
  F  F36  1  0.87004100  0.23396000  0.80752800  1
  F  F37  1  0.74983300  0.35986700  0.37035600  1
  F  F38  1  0.78503100  0.14592800  0.59815700  1
  F  F39  1  0.58377500  0.25280600  0.07667700  1
  F  F40  1  0.57870400  0.40292700  0.22600000  1
  F  F41  1  0.68639100  0.78975300  0.66783000  1
  F  F42  1  0.75867900  0.85564300  0.83859700  1
  F  F43  1  0.66542600  0.02500100  0.39664300  1
  F  F44  1  0.64013700  0.07015500  0.94206500  1
  F  F45  1  0.56807200  0.94622200  0.22377200  1
  F  F46  1  0.68608200  0.51970500  0.92619200  1
  F  F47  1  0.52319400  0.72651800  0.49794300  1
  F  F48  1  0.45625300  0.66033900  0.32750300  1
  F  F49  1  0.54374700  0.33966100  0.67249700  1
  F  F50  1  0.47680600  0.27348200  0.50205700  1
  F  F51  1  0.31391800  0.48029500  0.07380800  1
  F  F52  1  0.43192800  0.05377800  0.77622800  1
  F  F53  1  0.35986300  0.92984500  0.05793500  1
  F  F54  1  0.33457400  0.97499900  0.60335700  1
  F  F55  1  0.24132100  0.14435700  0.16140300  1
  F  F56  1  0.31360900  0.21024700  0.33217000  1
  F  F57  1  0.42129600  0.59707300  0.77400000  1
  F  F58  1  0.41622500  0.74719400  0.92332300  1
  F  F59  1  0.21496900  0.85407200  0.40184300  1
  F  F60  1  0.25016700  0.64013300  0.62964400  1
  F  F61  1  0.12995900  0.76604000  0.19247200  1
  F  F62  1  0.15544200  0.51055700  0.42419300  1
  F  F63  1  0.22821000  0.37193700  0.88035600  1
  F  F64  1  0.05930900  0.43868700  0.22046100  1
  F  F65  1  0.12173000  0.27354800  0.68849700  1
  F  F66  1  0.15469100  0.05408000  0.92843200  1
  F  F67  1  0.03740000  0.16563800  0.47969200  1
  F  F68  1  0.07463500  0.93383300  0.72551000  1
  F  F69  1  0.01223500  0.68021000  0.98145700  1
