# generated using pymatgen
data_Li8HfO6
_symmetry_space_group_name_H-M   'P 1'
_cell_length_a   6.07981556
_cell_length_b   6.07981556
_cell_length_c   6.07981628
_cell_angle_alpha   53.94398525
_cell_angle_beta   53.94398525
_cell_angle_gamma   53.94398191
_symmetry_Int_Tables_number   1
_chemical_formula_structural   Li8HfO6
_chemical_formula_sum   'Li8 Hf1 O6'
_cell_volume   136.42857257
_cell_formula_units_Z   1
loop_
 _symmetry_equiv_pos_site_id
 _symmetry_equiv_pos_as_xyz
  1  'x, y, z'
loop_
 _atom_site_type_symbol
 _atom_site_label
 _atom_site_symmetry_multiplicity
 _atom_site_fract_x
 _atom_site_fract_y
 _atom_site_fract_z
 _atom_site_occupancy
  Li  Li0  1  0.23436100  0.50467200  0.89699600  1
  Li  Li1  1  0.10300400  0.76563900  0.49532800  1
  Li  Li2  1  0.49532800  0.10300400  0.76563900  1
  Li  Li3  1  0.65538400  0.65538400  0.65538400  1
  Li  Li4  1  0.34461600  0.34461600  0.34461600  1
  Li  Li5  1  0.50467200  0.89699600  0.23436100  1
  Li  Li6  1  0.89699600  0.23436100  0.50467200  1
  Li  Li7  1  0.76563900  0.49532800  0.10300400  1
  Hf  Hf8  1  0.00000000  0.00000000  0.00000000  1
  O  O9  1  0.09188800  0.38414400  0.76594800  1
  O  O10  1  0.23405200  0.90811200  0.61585600  1
  O  O11  1  0.61585600  0.23405200  0.90811200  1
  O  O12  1  0.38414400  0.76594800  0.09188800  1
  O  O13  1  0.76594800  0.09188800  0.38414400  1
  O  O14  1  0.90811200  0.61585600  0.23405200  1
