# generated using pymatgen
data_Li4V3OF11
_symmetry_space_group_name_H-M   'P 1'
_cell_length_a   5.30296200
_cell_length_b   5.51074504
_cell_length_c   16.17460937
_cell_angle_alpha   99.28151910
_cell_angle_beta   89.88220333
_cell_angle_gamma   90.73062417
_symmetry_Int_Tables_number   1
_chemical_formula_structural   Li4V3OF11
_chemical_formula_sum   'Li8 V6 O2 F22'
_cell_volume   466.44871488
_cell_formula_units_Z   2
loop_
 _symmetry_equiv_pos_site_id
 _symmetry_equiv_pos_as_xyz
  1  'x, y, z'
loop_
 _atom_site_type_symbol
 _atom_site_label
 _atom_site_symmetry_multiplicity
 _atom_site_fract_x
 _atom_site_fract_y
 _atom_site_fract_z
 _atom_site_occupancy
  Li  Li0  1  0.31458400  0.13379100  0.82371200  1
  Li  Li1  1  0.01181300  0.09254300  0.22536300  1
  Li  Li2  1  0.54041100  0.07800300  0.11030300  1
  Li  Li3  1  0.68366600  0.52084400  0.50794700  1
  Li  Li4  1  0.83504700  0.71178200  0.83996800  1
  Li  Li5  1  0.48161200  0.55114800  0.23259000  1
  Li  Li6  1  0.95814900  0.64092000  0.11643600  1
  Li  Li7  1  0.20311500  0.97631700  0.48712400  1
  V  V8  1  0.52008900  0.17091100  0.33424000  1
  V  V9  1  0.99161100  0.01524300  0.00794900  1
  V  V10  1  0.00024900  0.33270000  0.66614900  1
  V  V11  1  0.49526900  0.50687100  0.99763900  1
  V  V12  1  0.98855500  0.64130300  0.33278300  1
  V  V13  1  0.50035800  0.83264100  0.66627400  1
  O  O14  1  0.88675600  0.98904400  0.11389500  1
  O  O15  1  0.80528800  0.34557500  0.30304600  1
  F  F16  1  0.80246500  0.02025300  0.64734900  1
  F  F17  1  0.66144200  0.18497600  0.98395400  1
  F  F18  1  0.29706100  0.14415300  0.70061900  1
  F  F19  1  0.58112800  0.20195600  0.45264200  1
  F  F20  1  0.90754000  0.39787800  0.78187000  1
  F  F21  1  0.37464000  0.15344000  0.21602900  1
  F  F22  1  0.09233400  0.27128000  0.55068000  1
  F  F23  1  0.40500300  0.44934800  0.88407500  1
  F  F24  1  0.70291100  0.52094800  0.63246000  1
  F  F25  1  0.81209300  0.68149900  0.96494400  1
  F  F26  1  0.17165400  0.34466900  0.03473500  1
  F  F27  1  0.32332000  0.48806600  0.35453600  1
  F  F28  1  0.19827500  0.64629300  0.68722100  1
  F  F29  1  0.61288500  0.51707600  0.11612100  1
  F  F30  1  0.57836500  0.87717100  0.78533900  1
  F  F31  1  0.91874100  0.71397700  0.45160700  1
  F  F32  1  0.42398000  0.78791000  0.54786600  1
  F  F33  1  0.13140400  0.64498800  0.21802000  1
  F  F34  1  0.08357500  0.96846900  0.88565100  1
  F  F35  1  0.69097800  0.83630200  0.29433100  1
  F  F36  1  0.32840300  0.82749000  0.03229500  1
  F  F37  1  0.19602100  0.97462200  0.35813700  1
