# generated using pymatgen
data_Li3CrP2HO8
_symmetry_space_group_name_H-M   'P 1'
_cell_length_a   8.08954760
_cell_length_b   11.16722967
_cell_length_c   8.23975750
_cell_angle_alpha   110.32979749
_cell_angle_beta   117.61534119
_cell_angle_gamma   91.69855688
_symmetry_Int_Tables_number   1
_chemical_formula_structural   Li3CrP2HO8
_chemical_formula_sum   'Li12 Cr4 P8 H4 O32'
_cell_volume   601.97126663
_cell_formula_units_Z   4
loop_
 _symmetry_equiv_pos_site_id
 _symmetry_equiv_pos_as_xyz
  1  'x, y, z'
loop_
 _atom_site_type_symbol
 _atom_site_label
 _atom_site_symmetry_multiplicity
 _atom_site_fract_x
 _atom_site_fract_y
 _atom_site_fract_z
 _atom_site_occupancy
  Li  Li0  1  0.74989400  0.87491600  0.12489500  1
  Li  Li1  1  0.24995000  0.12497200  0.87490100  1
  Li  Li2  1  0.24987300  0.62493500  0.37492700  1
  Li  Li3  1  0.74993100  0.37498800  0.62492600  1
  Li  Li4  1  0.79492000  0.03166200  0.59147100  1
  Li  Li5  1  0.29487400  0.28167600  0.34145900  1
  Li  Li6  1  0.29488800  0.78167600  0.84152000  1
  Li  Li7  1  0.79483200  0.53170800  0.09146100  1
  Li  Li8  1  0.70516800  0.21835200  0.15848700  1
  Li  Li9  1  0.20525000  0.46831700  0.90852300  1
  Li  Li10  1  0.20519200  0.96835000  0.40851000  1
  Li  Li11  1  0.70529100  0.71828900  0.65858700  1
  Cr  Cr12  1  0.49983600  0.75008500  0.25027700  1
  Cr  Cr13  1  0.99999200  0.49995600  0.50000900  1
  Cr  Cr14  1  0.00003700  0.99997700  0.99989600  1
  Cr  Cr15  1  0.49995100  0.24996100  0.75001900  1
  P  P16  1  0.01716500  0.19109700  0.46092300  1
  P  P17  1  0.51718100  0.44112600  0.21097100  1
  P  P18  1  0.51719100  0.94113900  0.71097700  1
  P  P19  1  0.01718600  0.69111900  0.96098100  1
  P  P20  1  0.48284900  0.05888200  0.28908600  1
  P  P21  1  0.98284100  0.30886100  0.03904400  1
  P  P22  1  0.98281700  0.80884500  0.53905000  1
  P  P23  1  0.48283900  0.55886300  0.78905000  1
  H  H24  1  0.50000000  0.00009500  0.00012000  1
  H  H25  1  0.00000100  0.25006700  0.75006400  1
  H  H26  1  0.99998800  0.75011700  0.25015700  1
  H  H27  1  0.49996800  0.50008800  0.50009800  1
  O  O28  1  0.22744400  0.23432400  0.51990300  1
  O  O29  1  0.72744800  0.48431800  0.26991100  1
  O  O30  1  0.72745200  0.98434200  0.76989100  1
  O  O31  1  0.22745400  0.73434400  0.01991700  1
  O  O32  1  0.27256000  0.01566500  0.23007300  1
  O  O33  1  0.77256500  0.26565000  0.98003000  1
  O  O34  1  0.77255100  0.76566700  0.48008100  1
  O  O35  1  0.27256700  0.51566000  0.73005900  1
  O  O36  1  0.01567800  0.15685400  0.63213200  1
  O  O37  1  0.51568000  0.40685600  0.38213800  1
  O  O38  1  0.51568300  0.90686400  0.88214000  1
  O  O39  1  0.01570000  0.65684800  0.13216400  1
  O  O40  1  0.48432900  0.09313800  0.11785100  1
  O  O41  1  0.98432400  0.34313100  0.86783400  1
  O  O42  1  0.98432600  0.84313100  0.36784700  1
  O  O43  1  0.48430600  0.59314300  0.61781600  1
  O  O44  1  0.90977300  0.07128100  0.25925400  1
  O  O45  1  0.40976800  0.32130600  0.00926200  1
  O  O46  1  0.40972200  0.82134500  0.50928400  1
  O  O47  1  0.90977400  0.57133400  0.75926700  1
  O  O48  1  0.59021900  0.17871000  0.49071200  1
  O  O49  1  0.09026600  0.42867600  0.24069600  1
  O  O50  1  0.09022500  0.92868100  0.74070700  1
  O  O51  1  0.59027500  0.67865900  0.99070300  1
  O  O52  1  0.58846500  0.94456400  0.30167900  1
  O  O53  1  0.08846100  0.19454300  0.05165200  1
  O  O54  1  0.08845500  0.69454700  0.55166800  1
  O  O55  1  0.58846600  0.44455400  0.80164800  1
  O  O56  1  0.91153200  0.30541900  0.44830600  1
  O  O57  1  0.41153900  0.55543700  0.19832000  1
  O  O58  1  0.41154400  0.05545200  0.69833200  1
  O  O59  1  0.91154300  0.80543900  0.94833700  1
