# generated using pymatgen
data_Li2Ti(BO3)2
_symmetry_space_group_name_H-M   'P 1'
_cell_length_a   5.17088500
_cell_length_b   8.95214086
_cell_length_c   9.99448337
_cell_angle_alpha   89.50972031
_cell_angle_beta   87.31626246
_cell_angle_gamma   88.89963645
_symmetry_Int_Tables_number   1
_chemical_formula_structural   Li2Ti(BO3)2
_chemical_formula_sum   'Li8 Ti4 B8 O24'
_cell_volume   462.04330390
_cell_formula_units_Z   4
loop_
 _symmetry_equiv_pos_site_id
 _symmetry_equiv_pos_as_xyz
  1  'x, y, z'
loop_
 _atom_site_type_symbol
 _atom_site_label
 _atom_site_symmetry_multiplicity
 _atom_site_fract_x
 _atom_site_fract_y
 _atom_site_fract_z
 _atom_site_occupancy
  Li  Li0  1  0.31603600  0.50951100  0.57898800  1
  Li  Li1  1  0.36052600  0.53105200  0.18642300  1
  Li  Li2  1  0.65114200  0.47099500  0.83389200  1
  Li  Li3  1  0.69510900  0.47701300  0.39277500  1
  Li  Li4  1  0.66196200  0.14541800  0.88870200  1
  Li  Li5  1  0.85502700  0.96165200  0.08745600  1
  Li  Li6  1  0.82943800  0.65769500  0.61462400  1
  Li  Li7  1  0.85592400  0.97637300  0.67884300  1
  Ti  Ti8  1  0.14587900  0.68042700  0.87797700  1
  Ti  Ti9  1  0.34616100  0.17688900  0.63106100  1
  Ti  Ti10  1  0.63719700  0.82127200  0.36870700  1
  Ti  Ti11  1  0.87442500  0.29342000  0.12711200  1
  B  B12  1  0.17809100  0.68669500  0.38775100  1
  B  B13  1  0.16271700  0.34286100  0.86922600  1
  B  B14  1  0.32085900  0.19927700  0.11292900  1
  B  B15  1  0.33999600  0.83876800  0.62743400  1
  B  B16  1  0.65344500  0.15761000  0.37103600  1
  B  B17  1  0.65980700  0.81700200  0.87357900  1
  B  B18  1  0.84494900  0.64289900  0.13253600  1
  B  B19  1  0.82472400  0.32261300  0.62739200  1
  O  O20  1  0.08516800  0.66250400  0.06723900  1
  O  O21  1  0.09251100  0.33309200  0.61173800  1
  O  O22  1  0.10518700  0.11110400  0.11078000  1
  O  O23  1  0.22634900  0.98197900  0.64244500  1
  O  O24  1  0.19575300  0.71494000  0.66658700  1
  O  O25  1  0.23964800  0.34787300  0.13458500  1
  O  O26  1  0.27725600  0.83008100  0.36731000  1
  O  O27  1  0.32127300  0.22623400  0.82617700  1
  O  O28  1  0.27357300  0.48657500  0.85692600  1
  O  O29  1  0.35258200  0.56998200  0.38587900  1
  O  O30  1  0.43256700  0.18423000  0.44855700  1
  O  O31  1  0.39316700  0.82207500  0.89376300  1
  O  O32  1  0.57906800  0.16039300  0.08933900  1
  O  O33  1  0.59583100  0.82699200  0.57780900  1
  O  O34  1  0.67145600  0.44817800  0.61924400  1
  O  O35  1  0.74420800  0.50236800  0.14839900  1
  O  O36  1  0.71079700  0.76789500  0.18195900  1
  O  O37  1  0.72005100  0.18168400  0.65644400  1
  O  O38  1  0.77997600  0.67501400  0.84716600  1
  O  O39  1  0.78562600  0.27696000  0.31532800  1
  O  O40  1  0.74425300  0.01287500  0.34849400  1
  O  O41  1  0.80636200  0.93856600  0.87601300  1
  O  O42  1  0.91180200  0.66853400  0.41066500  1
  O  O43  1  0.90912000  0.32823100  0.91870500  1
