# generated using pymatgen
data_Li24Mn5Cr7O36
_symmetry_space_group_name_H-M   'P 1'
_cell_length_a   5.01215000
_cell_length_b   5.02522825
_cell_length_c   28.87704955
_cell_angle_alpha   90.17662548
_cell_angle_beta   90.40668827
_cell_angle_gamma   119.62317817
_symmetry_Int_Tables_number   1
_chemical_formula_structural   Li24Mn5Cr7O36
_chemical_formula_sum   'Li24 Mn5 Cr7 O36'
_cell_volume   632.23196198
_cell_formula_units_Z   1
loop_
 _symmetry_equiv_pos_site_id
 _symmetry_equiv_pos_as_xyz
  1  'x, y, z'
loop_
 _atom_site_type_symbol
 _atom_site_label
 _atom_site_symmetry_multiplicity
 _atom_site_fract_x
 _atom_site_fract_y
 _atom_site_fract_z
 _atom_site_occupancy
  Li  Li0  1  0.33454200  0.83347400  0.33335100  1
  Li  Li1  1  0.33544400  0.83583100  0.08330500  1
  Li  Li2  1  0.32546300  0.50095200  0.16684700  1
  Li  Li3  1  0.66754600  0.16635400  0.66668400  1
  Li  Li4  1  0.66921300  0.16435000  0.41665300  1
  Li  Li5  1  0.66595500  0.16555700  0.16676400  1
  Li  Li6  1  0.66120100  0.83673600  0.50003600  1
  Li  Li7  1  0.99722200  0.49700800  0.99985500  1
  Li  Li8  1  0.00439000  0.50210200  0.75002700  1
  Li  Li9  1  0.00231200  0.50248300  0.49996700  1
  Li  Li10  1  0.33488000  0.15759300  0.00005200  1
  Li  Li11  1  0.99128800  0.16929600  0.83357500  1
  Li  Li12  1  0.33096200  0.82862600  0.83339600  1
  Li  Li13  1  0.99363800  0.17363200  0.33319000  1
  Li  Li14  1  0.67072100  0.49418200  0.33347800  1
  Li  Li15  1  0.32766100  0.50853200  0.66640200  1
  Li  Li16  1  0.00424600  0.82518900  0.66693200  1
  Li  Li17  1  0.00936800  0.83473300  0.16657200  1
  Li  Li18  1  0.66596800  0.84407700  0.99970100  1
  Li  Li19  1  0.00072500  0.49685200  0.25000600  1
  Li  Li20  1  0.33587800  0.16119100  0.49985800  1
  Li  Li21  1  0.32966600  0.82983500  0.58332900  1
  Li  Li22  1  0.67666400  0.50263800  0.83327200  1
  Li  Li23  1  0.67025200  0.16667600  0.91665300  1
  Mn  Mn24  1  0.33265700  0.16700400  0.25003600  1
  Mn  Mn25  1  0.66554700  0.49893100  0.58329500  1
  Mn  Mn26  1  0.00024900  0.83441200  0.91670100  1
  Mn  Mn27  1  0.99932900  0.83421800  0.41654300  1
  Mn  Mn28  1  0.66703600  0.83368000  0.75009100  1
  Cr  Cr29  1  0.66873300  0.82820600  0.24995700  1
  Cr  Cr30  1  0.99645900  0.15997200  0.58331600  1
  Cr  Cr31  1  0.66847400  0.50767100  0.08344300  1
  Cr  Cr32  1  0.33913900  0.49808400  0.91677700  1
  Cr  Cr33  1  0.33833200  0.17247000  0.75003100  1
  Cr  Cr34  1  0.00443600  0.16837500  0.08351300  1
  Cr  Cr35  1  0.33650600  0.49643800  0.41657900  1
  O  O36  1  0.35985500  0.85957300  0.21216800  1
  O  O37  1  0.64119800  0.14237200  0.28797500  1
  O  O38  1  0.69635500  0.19398500  0.54549800  1
  O  O39  1  0.33638700  0.47282300  0.04586800  1
  O  O40  1  0.35382900  0.49460800  0.28761600  1
  O  O41  1  0.97481600  0.47937000  0.62174700  1
  O  O42  1  0.33212200  0.18883800  0.12083600  1
  O  O43  1  0.02283900  0.52511900  0.87867400  1
  O  O44  1  0.67200100  0.81336600  0.37889500  1
  O  O45  1  0.69183300  0.83268500  0.62053100  1
  O  O46  1  0.69189400  0.83307400  0.12084400  1
  O  O47  1  0.63974200  0.50055100  0.21286700  1
  O  O48  1  0.30672100  0.80525400  0.95452100  1
  O  O49  1  0.66569600  0.52736600  0.45373700  1
  O  O50  1  0.99848700  0.13830300  0.71276600  1
  O  O51  1  0.00539200  0.14674300  0.21222800  1
  O  O52  1  0.02061500  0.16094600  0.95438600  1
  O  O53  1  0.01960700  0.16076400  0.45437200  1
  O  O54  1  0.97295200  0.82748900  0.54597000  1
  O  O55  1  0.97423900  0.83640400  0.04594300  1
  O  O56  1  0.99993000  0.85933900  0.78728800  1
  O  O57  1  0.99904200  0.86212500  0.28709500  1
  O  O58  1  0.33575800  0.47668300  0.54576800  1
  O  O59  1  0.68726800  0.18734900  0.04489900  1
  O  O60  1  0.36043900  0.50770800  0.78769400  1
  O  O61  1  0.30492100  0.16860500  0.87952900  1
  O  O62  1  0.30523800  0.16806400  0.37958000  1
  O  O63  1  0.33288700  0.19590300  0.62055800  1
  O  O64  1  0.97137800  0.47225200  0.12133400  1
  O  O65  1  0.67120800  0.81331600  0.87921800  1
  O  O66  1  0.02518500  0.52637100  0.37875000  1
  O  O67  1  0.63752200  0.49756700  0.71288100  1
  O  O68  1  0.66753900  0.52720200  0.95384300  1
  O  O69  1  0.30803600  0.80818500  0.45453200  1
  O  O70  1  0.35818600  0.85262800  0.71153000  1
  O  O71  1  0.63678500  0.13970800  0.78787500  1
