# generated using pymatgen
data_Li2P8W3O29
_symmetry_space_group_name_H-M   'P 1'
_cell_length_a   9.96731255
_cell_length_b   9.96731255
_cell_length_c   14.53886847
_cell_angle_alpha   89.13581994
_cell_angle_beta   89.13581994
_cell_angle_gamma   60.15738423
_symmetry_Int_Tables_number   1
_chemical_formula_structural   Li2P8W3O29
_chemical_formula_sum   'Li4 P16 W6 O58'
_cell_volume   1252.67377901
_cell_formula_units_Z   2
loop_
 _symmetry_equiv_pos_site_id
 _symmetry_equiv_pos_as_xyz
  1  'x, y, z'
loop_
 _atom_site_type_symbol
 _atom_site_label
 _atom_site_symmetry_multiplicity
 _atom_site_fract_x
 _atom_site_fract_y
 _atom_site_fract_z
 _atom_site_occupancy
  Li  Li0  1  0.97875500  0.06212400  0.49874000  1
  Li  Li1  1  0.06212400  0.97875600  0.99874000  1
  Li  Li2  1  0.68241200  0.09012500  0.05262400  1
  Li  Li3  1  0.09012500  0.68241200  0.55262400  1
  P  P4  1  0.21452800  0.08027300  0.34291500  1
  P  P5  1  0.08027300  0.21452800  0.84291500  1
  P  P6  1  0.68473900  0.08324100  0.84224300  1
  P  P7  1  0.34251300  0.33001200  0.12777500  1
  P  P8  1  0.33001200  0.34251300  0.62777500  1
  P  P9  1  0.69673200  0.22156800  0.34462000  1
  P  P10  1  0.77737300  0.30216100  0.15885400  1
  P  P11  1  0.08324100  0.68473900  0.34224300  1
  P  P12  1  0.91721300  0.30596600  0.66056700  1
  P  P13  1  0.22156800  0.69673200  0.84462000  1
  P  P14  1  0.30216100  0.77737300  0.65885400  1
  P  P15  1  0.65680400  0.67155400  0.86996500  1
  P  P16  1  0.67155400  0.65680400  0.36996500  1
  P  P17  1  0.30596600  0.91721300  0.16056700  1
  P  P18  1  0.91767300  0.78573500  0.16109900  1
  P  P19  1  0.78573500  0.91767300  0.66109900  1
  W  W20  1  0.43315300  0.00049100  0.74172200  1
  W  W21  1  0.56124900  0.99955900  0.25528000  1
  W  W22  1  0.00049100  0.43315300  0.24172200  1
  W  W23  1  0.99955900  0.56124900  0.75528000  1
  W  W24  1  0.56287700  0.43679600  0.75122100  1
  W  W25  1  0.43679600  0.56287700  0.25122100  1
  O  O26  1  0.20612700  0.99205800  0.25231300  1
  O  O27  1  0.21608700  0.98714300  0.07730100  1
  O  O28  1  0.25436200  0.09015100  0.82159400  1
  O  O29  1  0.99205800  0.20612700  0.75231300  1
  O  O30  1  0.98714300  0.21608700  0.57730100  1
  O  O31  1  0.09015100  0.25436200  0.32159400  1
  O  O32  1  0.37461900  0.07221200  0.33835300  1
  O  O33  1  0.33035600  0.19518400  0.66435800  1
  O  O34  1  0.52824500  0.09314200  0.82406800  1
  O  O35  1  0.80728900  0.99976600  0.58272000  1
  O  O36  1  0.79934500  0.98672700  0.75924700  1
  O  O37  1  0.64932100  0.09609000  0.33266700  1
  O  O38  1  0.19518400  0.33035600  0.16435800  1
  O  O39  1  0.07221200  0.37461900  0.83835300  1
  O  O40  1  0.48624400  0.18650300  0.17501500  1
  O  O41  1  0.36357600  0.33063400  0.02694700  1
  O  O42  1  0.33063400  0.36357600  0.52694700  1
  O  O43  1  0.47317100  0.34136300  0.67860000  1
  O  O44  1  0.09314200  0.52824500  0.32406800  1
  O  O45  1  0.18650300  0.48624400  0.67501500  1
  O  O46  1  0.65605500  0.25352800  0.82740500  1
  O  O47  1  0.79794000  0.20803700  0.25377600  1
  O  O48  1  0.77693400  0.20954500  0.08057100  1
  O  O49  1  0.78564700  0.20544400  0.42755800  1
  O  O50  1  0.54055600  0.37961200  0.33096400  1
  O  O51  1  0.34136300  0.47317100  0.17860000  1
  O  O52  1  0.74060300  0.35348200  0.67128700  1
  O  O53  1  0.37961200  0.54055600  0.83096400  1
  O  O54  1  0.09609000  0.64932100  0.83266700  1
  O  O55  1  0.01906500  0.17504000  0.92510600  1
  O  O56  1  0.99976600  0.80728900  0.08272000  1
  O  O57  1  0.98672700  0.79934500  0.25924700  1
  O  O58  1  0.90869400  0.34188300  0.15736100  1
  O  O59  1  0.62118400  0.45955800  0.17296100  1
  O  O60  1  0.25352800  0.65605500  0.32740500  1
  O  O61  1  0.65829700  0.52363700  0.82500600  1
  O  O62  1  0.45955800  0.62118400  0.67296100  1
  O  O63  1  0.20954500  0.77693400  0.58057100  1
  O  O64  1  0.20544400  0.78564700  0.92755800  1
  O  O65  1  0.20803700  0.79794000  0.75377600  1
  O  O66  1  0.35348200  0.74060300  0.17128700  1
  O  O67  1  0.80844900  0.51846800  0.31906600  1
  O  O68  1  0.91923100  0.45979700  0.67240000  1
  O  O69  1  0.52363700  0.65829700  0.32500600  1
  O  O70  1  0.65687200  0.66792700  0.97082900  1
  O  O71  1  0.66792700  0.65687200  0.47082900  1
  O  O72  1  0.51846800  0.80844900  0.81906600  1
  O  O73  1  0.92191300  0.62505700  0.16958300  1
  O  O74  1  0.80516200  0.66338900  0.82290700  1
  O  O75  1  0.34188300  0.90869400  0.65736100  1
  O  O76  1  0.17504000  0.01906500  0.42510600  1
  O  O77  1  0.45979700  0.91923100  0.17240000  1
  O  O78  1  0.66338900  0.80516200  0.32290700  1
  O  O79  1  0.62505700  0.92191300  0.66958300  1
  O  O80  1  0.91393600  0.74244300  0.66467600  1
  O  O81  1  0.02077200  0.75898400  0.43143500  1
  O  O82  1  0.74244300  0.91393600  0.16467600  1
  O  O83  1  0.75898400  0.02077200  0.93143500  1
