# generated using pymatgen
data_Li3VP3O11
_symmetry_space_group_name_H-M   'P 1'
_cell_length_a   9.57552396
_cell_length_b   8.27486592
_cell_length_c   6.04103934
_cell_angle_alpha   95.63733965
_cell_angle_beta   101.50579991
_cell_angle_gamma   114.17832167
_symmetry_Int_Tables_number   1
_chemical_formula_structural   Li3VP3O11
_chemical_formula_sum   'Li6 V2 P6 O22'
_cell_volume   419.14528737
_cell_formula_units_Z   2
loop_
 _symmetry_equiv_pos_site_id
 _symmetry_equiv_pos_as_xyz
  1  'x, y, z'
loop_
 _atom_site_type_symbol
 _atom_site_label
 _atom_site_symmetry_multiplicity
 _atom_site_fract_x
 _atom_site_fract_y
 _atom_site_fract_z
 _atom_site_occupancy
  Li  Li0  1  0.96174865  0.85552930  0.60497863  1
  Li  Li1  1  0.11545412  0.57516518  0.38525496  1
  Li  Li2  1  0.52342010  0.97789856  0.76790752  1
  Li  Li3  1  0.47657990  0.02210144  0.23209248  1
  Li  Li4  1  0.88454588  0.42483482  0.61474504  1
  Li  Li5  1  0.03825135  0.14447070  0.39502137  1
  V  V6  1  0.72429667  0.69851530  0.89457529  1
  V  V7  1  0.27570333  0.30148470  0.10542471  1
  P  P8  1  0.22994403  0.66123937  0.92392544  1
  P  P9  1  0.10728273  0.88435870  0.14438224  1
  P  P10  1  0.40293783  0.31191191  0.64301186  1
  P  P11  1  0.59706217  0.68808809  0.35698814  1
  P  P12  1  0.89271727  0.11564130  0.85561776  1
  P  P13  1  0.77005597  0.33876063  0.07607456  1
  O  O14  1  0.10222773  0.61319783  0.69930552  1
  O  O15  1  0.06383182  0.90164295  0.36826081  1
  O  O16  1  0.22790417  0.48874751  0.00148672  1
  O  O17  1  0.16197819  0.72228693  0.13792340  1
  O  O18  1  0.38710116  0.81267176  0.93447936  1
  O  O19  1  0.03523103  0.17592384  0.07140173  1
  O  O20  1  0.26836621  0.30866710  0.43787179  1
  O  O21  1  0.30737444  0.23312198  0.82381745  1
  O  O22  1  0.51643248  0.80125240  0.42460772  1
  O  O23  1  0.51213055  0.51564730  0.75168960  1
  O  O24  1  0.74470440  0.95413924  0.87727876  1
  O  O25  1  0.25529560  0.04586076  0.12272124  1
  O  O26  1  0.48786945  0.48435270  0.24831040  1
  O  O27  1  0.48356752  0.19874760  0.57539228  1
  O  O28  1  0.69262556  0.76687802  0.17618255  1
  O  O29  1  0.73163379  0.69133290  0.56212821  1
  O  O30  1  0.96476897  0.82407616  0.92859827  1
  O  O31  1  0.61289884  0.18732824  0.06552064  1
  O  O32  1  0.83802181  0.27771307  0.86207660  1
  O  O33  1  0.77209583  0.51125249  0.99851328  1
  O  O34  1  0.93616818  0.09835705  0.63173919  1
  O  O35  1  0.89777227  0.38680217  0.30069448  1
