# generated using pymatgen
data_Li2MnFe(BO3)2
_symmetry_space_group_name_H-M   'P 1'
_cell_length_a   5.23406300
_cell_length_b   5.24810984
_cell_length_c   20.80806795
_cell_angle_alpha   91.75532737
_cell_angle_beta   89.31154418
_cell_angle_gamma   119.81103503
_symmetry_Int_Tables_number   1
_chemical_formula_structural   Li2MnFe(BO3)2
_chemical_formula_sum   'Li8 Mn4 Fe4 B8 O24'
_cell_volume   495.70264888
_cell_formula_units_Z   4
loop_
 _symmetry_equiv_pos_site_id
 _symmetry_equiv_pos_as_xyz
  1  'x, y, z'
loop_
 _atom_site_type_symbol
 _atom_site_label
 _atom_site_symmetry_multiplicity
 _atom_site_fract_x
 _atom_site_fract_y
 _atom_site_fract_z
 _atom_site_occupancy
  Li  Li0  1  0.02066600  0.67405800  0.33379000  1
  Li  Li1  1  0.97765500  0.65426500  0.08312000  1
  Li  Li2  1  0.02391100  0.67681800  0.83393200  1
  Li  Li3  1  0.97422300  0.65160600  0.58349700  1
  Li  Li4  1  0.01668800  0.34885400  0.20724200  1
  Li  Li5  1  0.98773800  0.33682000  0.45825200  1
  Li  Li6  1  0.01458100  0.34866800  0.70858100  1
  Li  Li7  1  0.98810600  0.33940000  0.95865300  1
  Mn  Mn8  1  0.66550700  0.67343600  0.44061300  1
  Mn  Mn9  1  0.32455600  0.32423600  0.06807000  1
  Mn  Mn10  1  0.32165200  0.32242000  0.56747300  1
  Mn  Mn11  1  0.67572500  0.00140800  0.81625200  1
  Fe  Fe12  1  0.65155100  0.66312400  0.94132000  1
  Fe  Fe13  1  0.68415400  0.00726600  0.31521200  1
  Fe  Fe14  1  0.32902200  0.99799000  0.19262400  1
  Fe  Fe15  1  0.32751000  0.99560400  0.69252400  1
  B  B16  1  0.65857800  0.99642900  0.06327000  1
  B  B17  1  0.65491800  0.99552200  0.56364700  1
  B  B18  1  0.66852000  0.67168100  0.18895300  1
  B  B19  1  0.66309600  0.66980700  0.68832400  1
  B  B20  1  0.33799600  0.33655400  0.31192200  1
  B  B21  1  0.34293400  0.33977400  0.81266800  1
  B  B22  1  0.33801300  0.00646300  0.43679100  1
  B  B23  1  0.33848100  0.00410200  0.93808900  1
  O  O24  1  0.68349700  0.93637000  0.20757500  1
  O  O25  1  0.68149300  0.93512100  0.70783400  1
  O  O26  1  0.67981700  0.74585400  0.04809100  1
  O  O27  1  0.39047800  0.96690900  0.08372100  1
  O  O28  1  0.67650600  0.74524500  0.54798300  1
  O  O29  1  0.38666300  0.96436300  0.58433900  1
  O  O30  1  0.39765900  0.42124500  0.17487500  1
  O  O31  1  0.08870800  0.73182300  0.42995400  1
  O  O32  1  0.39168600  0.42080300  0.67406700  1
  O  O33  1  0.08267000  0.73484200  0.93133100  1
  O  O34  1  0.92316500  0.65318700  0.18199500  1
  O  O35  1  0.91894500  0.65267700  0.68190800  1
  O  O36  1  0.08595100  0.35975900  0.30553700  1
  O  O37  1  0.09575300  0.36894600  0.80623900  1
  O  O38  1  0.90459400  0.27216400  0.05644100  1
  O  O39  1  0.60304400  0.58220700  0.33070300  1
  O  O40  1  0.90028400  0.27088400  0.55644600  1
  O  O41  1  0.61159800  0.57651200  0.83309300  1
  O  O42  1  0.61396700  0.03938300  0.42095800  1
  O  O43  1  0.61434000  0.03098300  0.92378600  1
  O  O44  1  0.31679000  0.24928200  0.45854800  1
  O  O45  1  0.32407700  0.25324600  0.95795300  1
  O  O46  1  0.32209000  0.06596100  0.29828900  1
  O  O47  1  0.32043800  0.06712900  0.79731100  1
