# generated using pymatgen
data_Li4Cr3Ni2Sb3O16
_symmetry_space_group_name_H-M   'P 1'
_cell_length_a   6.08260317
_cell_length_b   6.08260317
_cell_length_c   9.79254719
_cell_angle_alpha   89.38414353
_cell_angle_beta   89.38414353
_cell_angle_gamma   60.25327478
_symmetry_Int_Tables_number   1
_chemical_formula_structural   Li4Cr3Ni2Sb3O16
_chemical_formula_sum   'Li4 Cr3 Ni2 Sb3 O16'
_cell_volume   314.53898256
_cell_formula_units_Z   1
loop_
 _symmetry_equiv_pos_site_id
 _symmetry_equiv_pos_as_xyz
  1  'x, y, z'
loop_
 _atom_site_type_symbol
 _atom_site_label
 _atom_site_symmetry_multiplicity
 _atom_site_fract_x
 _atom_site_fract_y
 _atom_site_fract_z
 _atom_site_occupancy
  Li  Li0  1  0.67055800  0.67055800  0.90164400  1
  Li  Li1  1  0.01081000  0.01081000  0.00659100  1
  Li  Li2  1  0.01317300  0.01317300  0.49046100  1
  Li  Li3  1  0.33541700  0.33541700  0.37049000  1
  Cr  Cr4  1  0.82985600  0.33694000  0.21502400  1
  Cr  Cr5  1  0.33694000  0.82985600  0.21502400  1
  Cr  Cr6  1  0.16821500  0.16821500  0.71655000  1
  Ni  Ni7  1  0.65530900  0.65530900  0.47317500  1
  Ni  Ni8  1  0.32768100  0.32768100  0.01087000  1
  Sb  Sb9  1  0.82929000  0.82929000  0.21467900  1
  Sb  Sb10  1  0.66205300  0.16810900  0.71578500  1
  Sb  Sb11  1  0.16810900  0.66205300  0.71578500  1
  O  O12  1  0.83858400  0.31205000  0.60622700  1
  O  O13  1  0.51599800  0.51599800  0.33229000  1
  O  O14  1  0.66776700  0.66776700  0.10468000  1
  O  O15  1  0.99721100  0.99721100  0.31172000  1
  O  O16  1  0.99932300  0.99932300  0.82033400  1
  O  O17  1  0.31205000  0.83858400  0.60622700  1
  O  O18  1  0.96343700  0.51946400  0.33655500  1
  O  O19  1  0.51946400  0.96343700  0.33655500  1
  O  O20  1  0.15993400  0.15993400  0.10582200  1
  O  O21  1  0.84464800  0.84464800  0.60318100  1
  O  O22  1  0.48652800  0.03291300  0.83008800  1
  O  O23  1  0.03291300  0.48652800  0.83008800  1
  O  O24  1  0.33363600  0.33363600  0.60285400  1
  O  O25  1  0.68354300  0.15265100  0.10127100  1
  O  O26  1  0.48577700  0.48577700  0.83260500  1
  O  O27  1  0.15265100  0.68354300  0.10127100  1
