# generated using pymatgen
data_LiNiPO4
_symmetry_space_group_name_H-M   'P 1'
_cell_length_a   10.06334100
_cell_length_b   5.94769700
_cell_length_c   10.02602963
_cell_angle_alpha   85.83136780
_cell_angle_beta   90.00000000
_cell_angle_gamma   90.00000000
_symmetry_Int_Tables_number   1
_chemical_formula_structural   LiNiPO4
_chemical_formula_sum   'Li8 Ni8 P8 O32'
_cell_volume   598.50740317
_cell_formula_units_Z   8
loop_
 _symmetry_equiv_pos_site_id
 _symmetry_equiv_pos_as_xyz
  1  'x, y, z'
loop_
 _atom_site_type_symbol
 _atom_site_label
 _atom_site_symmetry_multiplicity
 _atom_site_fract_x
 _atom_site_fract_y
 _atom_site_fract_z
 _atom_site_occupancy
  Li  Li0  1  0.90557600  0.86182400  0.46445700  1
  Li  Li1  1  0.59442400  0.86182400  0.96445700  1
  Li  Li2  1  0.43431400  0.63600200  0.73146300  1
  Li  Li3  1  0.06568600  0.63600200  0.23146300  1
  Li  Li4  1  0.93431400  0.36399800  0.76853700  1
  Li  Li5  1  0.56568600  0.36399800  0.26853700  1
  Li  Li6  1  0.40557600  0.13817600  0.03554300  1
  Li  Li7  1  0.09442400  0.13817600  0.53554300  1
  Ni  Ni8  1  0.16847100  0.88292500  0.86789800  1
  Ni  Ni9  1  0.33152900  0.88292500  0.36789800  1
  Ni  Ni10  1  0.70866100  0.61869000  0.63124400  1
  Ni  Ni11  1  0.79133900  0.61869000  0.13124400  1
  Ni  Ni12  1  0.20866100  0.38131000  0.86875600  1
  Ni  Ni13  1  0.29133900  0.38131000  0.36875600  1
  Ni  Ni14  1  0.66847100  0.11707500  0.63210200  1
  Ni  Ni15  1  0.83152900  0.11707500  0.13210200  1
  P  P16  1  0.89135000  0.85734600  0.85089800  1
  P  P17  1  0.60865000  0.85734600  0.35089800  1
  P  P18  1  0.14394800  0.62840700  0.60423100  1
  P  P19  1  0.35605200  0.62840700  0.10423100  1
  P  P20  1  0.64394800  0.37159300  0.89576900  1
  P  P21  1  0.85605200  0.37159300  0.39576900  1
  P  P22  1  0.39135000  0.14265400  0.64910200  1
  P  P23  1  0.10865000  0.14265400  0.14910200  1
  O  O24  1  0.80581500  0.87539100  0.98337600  1
  O  O25  1  0.48717800  0.93950500  0.66592200  1
  O  O26  1  0.69418500  0.87539100  0.48337600  1
  O  O27  1  0.01282200  0.93950500  0.16592200  1
  O  O28  1  0.79079500  0.86342400  0.72952900  1
  O  O29  1  0.05776300  0.83509400  0.58296200  1
  O  O30  1  0.70920500  0.86342400  0.22952900  1
  O  O31  1  0.44223700  0.83509400  0.08296200  1
  O  O32  1  0.23334600  0.65156200  0.73380100  1
  O  O33  1  0.97423800  0.64118500  0.86196700  1
  O  O34  1  0.26665400  0.65156200  0.23380100  1
  O  O35  1  0.52576200  0.64118500  0.36196700  1
  O  O36  1  0.57053500  0.59512200  0.87245800  1
  O  O37  1  0.25629300  0.62136100  0.98378500  1
  O  O38  1  0.92946500  0.59512200  0.37245800  1
  O  O39  1  0.24370700  0.62136100  0.48378500  1
  O  O40  1  0.75629300  0.37863900  0.51621500  1
  O  O41  1  0.07053500  0.40487800  0.62754200  1
  O  O42  1  0.74370700  0.37863900  0.01621500  1
  O  O43  1  0.42946500  0.40487800  0.12754200  1
  O  O44  1  0.47423800  0.35881500  0.63803300  1
  O  O45  1  0.73334600  0.34843800  0.76619900  1
  O  O46  1  0.02576200  0.35881500  0.13803300  1
  O  O47  1  0.76665400  0.34843800  0.26619900  1
  O  O48  1  0.55776300  0.16490600  0.91703800  1
  O  O49  1  0.29079500  0.13657600  0.77047100  1
  O  O50  1  0.94223700  0.16490600  0.41703800  1
  O  O51  1  0.20920500  0.13657600  0.27047100  1
  O  O52  1  0.98717800  0.06049500  0.83407800  1
  O  O53  1  0.30581500  0.12460900  0.51662400  1
  O  O54  1  0.51282200  0.06049500  0.33407800  1
  O  O55  1  0.19418500  0.12460900  0.01662400  1
