# generated using pymatgen
data_Li3Mn4(BO3)4
_symmetry_space_group_name_H-M   'P 1'
_cell_length_a   9.05916200
_cell_length_b   9.12223480
_cell_length_c   11.53486573
_cell_angle_alpha   68.72480374
_cell_angle_beta   68.32214267
_cell_angle_gamma   60.48465906
_symmetry_Int_Tables_number   1
_chemical_formula_structural   Li3Mn4(BO3)4
_chemical_formula_sum   'Li9 Mn12 B12 O36'
_cell_volume   751.33542372
_cell_formula_units_Z   3
loop_
 _symmetry_equiv_pos_site_id
 _symmetry_equiv_pos_as_xyz
  1  'x, y, z'
loop_
 _atom_site_type_symbol
 _atom_site_label
 _atom_site_symmetry_multiplicity
 _atom_site_fract_x
 _atom_site_fract_y
 _atom_site_fract_z
 _atom_site_occupancy
  Li  Li0  1  0.30088700  0.34890000  0.84966700  1
  Li  Li1  1  0.34822800  0.36083700  0.08888900  1
  Li  Li2  1  0.18837600  0.18392000  0.60971300  1
  Li  Li3  1  0.16669900  0.17344900  0.33322900  1
  Li  Li4  1  0.99768000  0.01484100  0.82823100  1
  Li  Li5  1  0.86244600  0.83627000  0.59193100  1
  Li  Li6  1  0.85670000  0.80622500  0.33918700  1
  Li  Li7  1  0.65316800  0.67790900  0.83024600  1
  Li  Li8  1  0.52474400  0.50404000  0.32689400  1
  Mn  Mn9  1  0.82805900  0.13327700  0.36249900  1
  Mn  Mn10  1  0.64108800  0.32594300  0.86492400  1
  Mn  Mn11  1  0.71283500  0.99968500  0.10754300  1
  Mn  Mn12  1  0.52695200  0.20628300  0.62364500  1
  Mn  Mn13  1  0.17369400  0.48330100  0.37134100  1
  Mn  Mn14  1  0.97317000  0.66664700  0.87806200  1
  Mn  Mn15  1  0.97325200  0.36072500  0.12066300  1
  Mn  Mn16  1  0.82951300  0.50772900  0.61032600  1
  Mn  Mn17  1  0.48458700  0.85374800  0.37007000  1
  Mn  Mn18  1  0.32475300  0.99878700  0.86958800  1
  Mn  Mn19  1  0.36360300  0.68905300  0.11497000  1
  Mn  Mn20  1  0.18791900  0.83207200  0.62138400  1
  B  B21  1  0.48830000  0.15231700  0.39386500  1
  B  B22  1  0.31258500  0.65837800  0.87598300  1
  B  B23  1  0.34636200  0.02860300  0.13096100  1
  B  B24  1  0.16048300  0.50687500  0.63369400  1
  B  B25  1  0.16446400  0.81223500  0.37589900  1
  B  B26  1  0.97328700  0.32597400  0.86855600  1
  B  B27  1  0.03713800  0.65520400  0.13373400  1
  B  B28  1  0.84793000  0.16800600  0.62433000  1
  B  B29  1  0.81494100  0.50145400  0.35872900  1
  B  B30  1  0.65956300  0.99361100  0.86175700  1
  B  B31  1  0.67920300  0.33112200  0.12534300  1
  B  B32  1  0.51632900  0.86523700  0.61463600  1
  O  O33  1  0.74604300  0.05014700  0.90324100  1
  O  O34  1  0.78348900  0.08557400  0.58350800  1
  O  O35  1  0.50537400  0.12046000  0.81918000  1
  O  O36  1  0.54849600  0.24613000  0.42852200  1
  O  O37  1  0.37442700  0.48140900  0.89484100  1
  O  O38  1  0.60715200  0.26652700  0.07891900  1
  O  O39  1  0.41772200  0.01998500  0.65436000  1
  O  O40  1  0.32103800  0.40841500  0.66339100  1
  O  O41  1  0.31643200  0.21448300  0.39434500  1
  O  O42  1  0.16215200  0.76961600  0.82886600  1
  O  O43  1  0.27918800  0.66177000  0.33418900  1
  O  O44  1  0.03256000  0.39406900  0.92751200  1
  O  O45  1  0.07463600  0.16436600  0.84580200  1
  O  O46  1  0.23756800  0.19628500  0.14240500  1
  O  O47  1  0.09734800  0.44339800  0.57986500  1
  O  O48  1  0.06348800  0.66877300  0.66419900  1
  O  O49  1  0.19853700  0.55749600  0.16557300  1
  O  O50  1  0.01793700  0.08978600  0.63304700  1
  O  O51  1  0.98624000  0.87161900  0.39669600  1
  O  O52  1  0.81665000  0.43282600  0.83093400  1
  O  O53  1  0.90902100  0.34236600  0.31527400  1
  O  O54  1  0.90477100  0.54874900  0.40348900  1
  O  O55  1  0.72078200  0.82545100  0.86131000  1
  O  O56  1  0.93493600  0.81622100  0.15605400  1
  O  O57  1  0.98183300  0.58439500  0.07688200  1
  O  O58  1  0.72929400  0.32481900  0.65604400  1
  O  O59  1  0.84495500  0.21937000  0.15607500  1
  O  O60  1  0.68013700  0.75789700  0.63518300  1
  O  O61  1  0.64453900  0.60022700  0.35841200  1
  O  O62  1  0.61303400  0.99757200  0.35689900  1
  O  O63  1  0.39809300  0.72832600  0.90465500  1
  O  O64  1  0.59959700  0.49294800  0.14596900  1
  O  O65  1  0.44087200  0.81430300  0.55654700  1
  O  O66  1  0.49398400  0.93860600  0.18689600  1
  O  O67  1  0.22759500  0.90630500  0.40393800  1
  O  O68  1  0.32374300  0.94541500  0.06550500  1
