# generated using pymatgen
data_Li4V2(PO4)3
_symmetry_space_group_name_H-M   'P 1'
_cell_length_a   8.42956142
_cell_length_b   8.42956142
_cell_length_c   8.42956067
_cell_angle_alpha   65.23244940
_cell_angle_beta   65.23244940
_cell_angle_gamma   65.23244612
_symmetry_Int_Tables_number   1
_chemical_formula_structural   Li4V2(PO4)3
_chemical_formula_sum   'Li8 V4 P6 O24'
_cell_volume   471.84083179
_cell_formula_units_Z   2
loop_
 _symmetry_equiv_pos_site_id
 _symmetry_equiv_pos_as_xyz
  1  'x, y, z'
loop_
 _atom_site_type_symbol
 _atom_site_label
 _atom_site_symmetry_multiplicity
 _atom_site_fract_x
 _atom_site_fract_y
 _atom_site_fract_z
 _atom_site_occupancy
  Li  Li0  1  0.34383300  0.75000000  0.15616700  1
  Li  Li1  1  0.84383300  0.65616700  0.25000000  1
  Li  Li2  1  0.50000000  0.50000000  0.50000000  1
  Li  Li3  1  0.75000000  0.15616700  0.34383300  1
  Li  Li4  1  0.25000000  0.84383300  0.65616700  1
  Li  Li5  1  0.15616700  0.34383300  0.75000000  1
  Li  Li6  1  0.00000000  0.00000000  0.00000000  1
  Li  Li7  1  0.65616700  0.25000000  0.84383300  1
  V  V8  1  0.14399600  0.14399600  0.14399600  1
  V  V9  1  0.64399600  0.64399600  0.64399600  1
  V  V10  1  0.35600400  0.35600400  0.35600400  1
  V  V11  1  0.85600400  0.85600400  0.85600400  1
  P  P12  1  0.05341100  0.75000000  0.44658900  1
  P  P13  1  0.75000000  0.44658900  0.05341100  1
  P  P14  1  0.55341100  0.94658900  0.25000000  1
  P  P15  1  0.44658900  0.05341100  0.75000000  1
  P  P16  1  0.25000000  0.55341100  0.94658900  1
  P  P17  1  0.94658900  0.25000000  0.55341100  1
  O  O18  1  0.81157800  0.60600900  0.02503400  1
  O  O19  1  0.31157800  0.52503400  0.10600900  1
  O  O20  1  0.24235800  0.59925400  0.42780300  1
  O  O21  1  0.07219700  0.90074600  0.25764200  1
  O  O22  1  0.02503400  0.81157800  0.60600900  1
  O  O23  1  0.89399100  0.68842200  0.47496600  1
  O  O24  1  0.90074600  0.25764200  0.07219700  1
  O  O25  1  0.74235800  0.92780300  0.09925400  1
  O  O26  1  0.57219700  0.75764200  0.40074600  1
  O  O27  1  0.52503400  0.10600900  0.31157800  1
  O  O28  1  0.39399100  0.97496600  0.18842200  1
  O  O29  1  0.59925400  0.42780300  0.24235800  1
  O  O30  1  0.40074600  0.57219700  0.75764200  1
  O  O31  1  0.60600900  0.02503400  0.81157800  1
  O  O32  1  0.47496600  0.89399100  0.68842200  1
  O  O33  1  0.42780300  0.24235800  0.59925400  1
  O  O34  1  0.25764200  0.07219700  0.90074600  1
  O  O35  1  0.09925400  0.74235800  0.92780300  1
  O  O36  1  0.10600900  0.31157800  0.52503400  1
  O  O37  1  0.97496600  0.18842200  0.39399100  1
  O  O38  1  0.92780300  0.09925400  0.74235800  1
  O  O39  1  0.75764200  0.40074600  0.57219700  1
  O  O40  1  0.68842200  0.47496600  0.89399100  1
  O  O41  1  0.18842200  0.39399100  0.97496600  1
