# generated using pymatgen
data_Li8FeO5F
_symmetry_space_group_name_H-M   'P 1'
_cell_length_a   5.62291455
_cell_length_b   5.62291455
_cell_length_c   10.97796000
_cell_angle_alpha   90.00000000
_cell_angle_beta   90.00000000
_cell_angle_gamma   120.00000645
_symmetry_Int_Tables_number   1
_chemical_formula_structural   Li8FeO5F
_chemical_formula_sum   'Li16 Fe2 O10 F2'
_cell_volume   300.59047491
_cell_formula_units_Z   2
loop_
 _symmetry_equiv_pos_site_id
 _symmetry_equiv_pos_as_xyz
  1  'x, y, z'
loop_
 _atom_site_type_symbol
 _atom_site_label
 _atom_site_symmetry_multiplicity
 _atom_site_fract_x
 _atom_site_fract_y
 _atom_site_fract_z
 _atom_site_occupancy
  Li  Li0  1  0.97153400  0.68773900  0.77626500  1
  Li  Li1  1  0.01706100  0.62342200  0.12275200  1
  Li  Li2  1  0.98293900  0.37657800  0.62275200  1
  Li  Li3  1  0.02846600  0.31226100  0.27626500  1
  Li  Li4  1  0.33333300  0.66666700  0.41753100  1
  Li  Li5  1  0.33333300  0.66666700  0.92772000  1
  Li  Li6  1  0.31226100  0.28379400  0.77626500  1
  Li  Li7  1  0.37657800  0.39363900  0.12275200  1
  Li  Li8  1  0.62342200  0.60636100  0.62275200  1
  Li  Li9  1  0.28379400  0.97153400  0.27626500  1
  Li  Li10  1  0.68773900  0.71620600  0.27626500  1
  Li  Li11  1  0.39363900  0.01706100  0.62275200  1
  Li  Li12  1  0.66666700  0.33333300  0.91753100  1
  Li  Li13  1  0.66666700  0.33333300  0.42772000  1
  Li  Li14  1  0.60636100  0.98293900  0.12275200  1
  Li  Li15  1  0.71620600  0.02846600  0.77626500  1
  Fe  Fe16  1  0.00000000  0.00000000  0.49506700  1
  Fe  Fe17  1  0.00000000  0.00000000  0.99506700  1
  O  O18  1  0.00174000  0.67731400  0.95008900  1
  O  O19  1  0.99826000  0.32268600  0.45008900  1
  O  O20  1  0.33333300  0.66666700  0.21485400  1
  O  O21  1  0.00000000  0.00000000  0.17547000  1
  O  O22  1  0.00000000  0.00000000  0.67547000  1
  O  O23  1  0.32268600  0.32442600  0.95008900  1
  O  O24  1  0.32442600  0.00174000  0.45008900  1
  O  O25  1  0.67731400  0.67557400  0.45008900  1
  O  O26  1  0.66666700  0.33333300  0.71485400  1
  O  O27  1  0.67557400  0.99826000  0.95008900  1
  F  F28  1  0.33333300  0.66666700  0.70774400  1
  F  F29  1  0.66666700  0.33333300  0.20774400  1
