# generated using pymatgen
data_LiTi(PO3)4
_symmetry_space_group_name_H-M   'P 1'
_cell_length_a   7.05844696
_cell_length_b   7.05844696
_cell_length_c   9.81896021
_cell_angle_alpha   88.08721618
_cell_angle_beta   88.08721618
_cell_angle_gamma   109.24453614
_symmetry_Int_Tables_number   1
_chemical_formula_structural   LiTi(PO3)4
_chemical_formula_sum   'Li2 Ti2 P8 O24'
_cell_volume   461.09274018
_cell_formula_units_Z   2
loop_
 _symmetry_equiv_pos_site_id
 _symmetry_equiv_pos_as_xyz
  1  'x, y, z'
loop_
 _atom_site_type_symbol
 _atom_site_label
 _atom_site_symmetry_multiplicity
 _atom_site_fract_x
 _atom_site_fract_y
 _atom_site_fract_z
 _atom_site_occupancy
  Li  Li0  1  0.34358000  0.65642000  0.75000000  1
  Li  Li1  1  0.65642000  0.34358000  0.25000000  1
  Ti  Ti2  1  0.61333100  0.38666900  0.75000000  1
  Ti  Ti3  1  0.38666900  0.61333100  0.25000000  1
  P  P4  1  0.14742400  0.77688200  0.02421600  1
  P  P5  1  0.77688200  0.14742400  0.52421600  1
  P  P6  1  0.71189000  0.77773600  0.96107400  1
  P  P7  1  0.22226400  0.28811000  0.53892600  1
  P  P8  1  0.77773600  0.71189000  0.46107400  1
  P  P9  1  0.28811000  0.22226400  0.03892600  1
  P  P10  1  0.22311800  0.85257600  0.47578400  1
  P  P11  1  0.85257600  0.22311800  0.97578400  1
  O  O12  1  0.25784700  0.78171000  0.89291100  1
  O  O13  1  0.62905500  0.15223900  0.63804300  1
  O  O14  1  0.62873900  0.66017700  0.83868800  1
  O  O15  1  0.78171000  0.25784700  0.39291100  1
  O  O16  1  0.42572700  0.25824000  0.91300100  1
  O  O17  1  0.15223900  0.62905500  0.13804300  1
  O  O18  1  0.25528700  0.08633700  0.49536400  1
  O  O19  1  0.77842300  0.00648100  0.90752200  1
  O  O20  1  0.99351900  0.22157700  0.59247800  1
  O  O21  1  0.91366300  0.74471300  0.00463600  1
  O  O22  1  0.66017700  0.62873900  0.33868800  1
  O  O23  1  0.74176000  0.57427300  0.58699900  1
  O  O24  1  0.25824000  0.42572700  0.41300100  1
  O  O25  1  0.33982300  0.37126100  0.66131200  1
  O  O26  1  0.08633700  0.25528700  0.99536400  1
  O  O27  1  0.00648100  0.77842300  0.40752200  1
  O  O28  1  0.22157700  0.99351900  0.09247800  1
  O  O29  1  0.74471300  0.91366300  0.50463600  1
  O  O30  1  0.84776100  0.37094500  0.86195700  1
  O  O31  1  0.57427300  0.74176000  0.08699900  1
  O  O32  1  0.21829000  0.74215300  0.60708900  1
  O  O33  1  0.37126100  0.33982300  0.16131200  1
  O  O34  1  0.37094500  0.84776100  0.36195700  1
  O  O35  1  0.74215300  0.21829000  0.10708900  1
