# generated using pymatgen
data_Li3FeO3
_symmetry_space_group_name_H-M   'P 1'
_cell_length_a   8.90190407
_cell_length_b   8.90187807
_cell_length_c   3.62976800
_cell_angle_alpha   90.00008598
_cell_angle_beta   90.00015617
_cell_angle_gamma   89.98582713
_symmetry_Int_Tables_number   1
_chemical_formula_structural   Li3FeO3
_chemical_formula_sum   'Li12 Fe4 O12'
_cell_volume   287.63610912
_cell_formula_units_Z   4
loop_
 _symmetry_equiv_pos_site_id
 _symmetry_equiv_pos_as_xyz
  1  'x, y, z'
loop_
 _atom_site_type_symbol
 _atom_site_label
 _atom_site_symmetry_multiplicity
 _atom_site_fract_x
 _atom_site_fract_y
 _atom_site_fract_z
 _atom_site_occupancy
  Li  Li0  1  0.10078000  0.35906300  0.50000000  1
  Li  Li1  1  0.14092800  0.60084000  0.00000100  1
  Li  Li2  1  0.16800800  0.16799400  0.00000200  1
  Li  Li3  1  0.33194400  0.66808200  0.50000100  1
  Li  Li4  1  0.35907600  0.10076600  0.50000300  1
  Li  Li5  1  0.39917400  0.85910700  0.00000100  1
  Li  Li6  1  0.60084500  0.14091300  0.00000300  1
  Li  Li7  1  0.64095700  0.89923700  0.49999900  1
  Li  Li8  1  0.66809000  0.33194200  0.50000100  1
  Li  Li9  1  0.83201400  0.83200100  0.00000200  1
  Li  Li10  1  0.85911300  0.39917400  0.00000400  1
  Li  Li11  1  0.89924100  0.64094200  0.49999700  1
  Fe  Fe12  1  0.11525300  0.88474400  0.49999600  1
  Fe  Fe13  1  0.38483900  0.38484300  0.99999300  1
  Fe  Fe14  1  0.61506300  0.61511900  0.99997800  1
  Fe  Fe15  1  0.88473900  0.11525800  0.50002700  1
  O  O16  1  0.10154500  0.10154400  0.49999800  1
  O  O17  1  0.11181200  0.67796000  0.49999900  1
  O  O18  1  0.17792100  0.38814700  0.99999900  1
  O  O19  1  0.32204000  0.88820500  0.49999800  1
  O  O20  1  0.38816100  0.17791300  0.00000700  1
  O  O21  1  0.39842200  0.60153800  0.00000000  1
  O  O22  1  0.60153500  0.39844300  0.99999800  1
  O  O23  1  0.61184200  0.82205800  0.99998800  1
  O  O24  1  0.67795800  0.11181200  0.50000400  1
  O  O25  1  0.82203000  0.61184500  0.99998800  1
  O  O26  1  0.88821400  0.32204800  0.50000700  1
  O  O27  1  0.89845800  0.89846300  0.50000500  1
