# generated using pymatgen
data_Li4VP2O9
_symmetry_space_group_name_H-M   'P 1'
_cell_length_a   6.85492100
_cell_length_b   10.24113600
_cell_length_c   13.77038900
_cell_angle_alpha   90.00000000
_cell_angle_beta   90.00000000
_cell_angle_gamma   90.00000000
_symmetry_Int_Tables_number   1
_chemical_formula_structural   Li4VP2O9
_chemical_formula_sum   'Li16 V4 P8 O36'
_cell_volume   966.71130288
_cell_formula_units_Z   4
loop_
 _symmetry_equiv_pos_site_id
 _symmetry_equiv_pos_as_xyz
  1  'x, y, z'
loop_
 _atom_site_type_symbol
 _atom_site_label
 _atom_site_symmetry_multiplicity
 _atom_site_fract_x
 _atom_site_fract_y
 _atom_site_fract_z
 _atom_site_occupancy
  Li  Li0  1  0.16262300  0.39595000  0.58758400  1
  Li  Li1  1  0.16262300  0.39595000  0.91241600  1
  Li  Li2  1  0.09517600  0.80627000  0.53802700  1
  Li  Li3  1  0.09517600  0.80627000  0.96197300  1
  Li  Li4  1  0.40482400  0.30627000  0.03802700  1
  Li  Li5  1  0.40482400  0.30627000  0.46197300  1
  Li  Li6  1  0.33737700  0.89595000  0.08758400  1
  Li  Li7  1  0.33737700  0.89595000  0.41241600  1
  Li  Li8  1  0.66262300  0.10405000  0.58758400  1
  Li  Li9  1  0.66262300  0.10405000  0.91241600  1
  Li  Li10  1  0.59517600  0.69373000  0.53802700  1
  Li  Li11  1  0.59517600  0.69373000  0.96197300  1
  Li  Li12  1  0.90482400  0.19373000  0.46197300  1
  Li  Li13  1  0.90482400  0.19373000  0.03802700  1
  Li  Li14  1  0.83737700  0.60405000  0.41241600  1
  Li  Li15  1  0.83737700  0.60405000  0.08758400  1
  V  V16  1  0.06376500  0.76602000  0.25000000  1
  V  V17  1  0.43623500  0.26602000  0.75000000  1
  V  V18  1  0.56376500  0.73398000  0.25000000  1
  V  V19  1  0.93623500  0.23398000  0.75000000  1
  P  P20  1  0.20071300  0.10202400  0.91658400  1
  P  P21  1  0.20071300  0.10202400  0.58341600  1
  P  P22  1  0.29928700  0.60202400  0.08341600  1
  P  P23  1  0.29928700  0.60202400  0.41658400  1
  P  P24  1  0.70071300  0.39797600  0.58341600  1
  P  P25  1  0.70071300  0.39797600  0.91658400  1
  P  P26  1  0.79928700  0.89797600  0.08341600  1
  P  P27  1  0.79928700  0.89797600  0.41658400  1
  O  O28  1  0.98309700  0.89680200  0.15076400  1
  O  O29  1  0.98309700  0.89680200  0.34923600  1
  O  O30  1  0.17585800  0.21636200  0.50935700  1
  O  O31  1  0.17585800  0.21636200  0.99064300  1
  O  O32  1  0.18988500  0.31610800  0.75000000  1
  O  O33  1  0.22221300  0.97056500  0.96821100  1
  O  O34  1  0.22221300  0.97056500  0.53178900  1
  O  O35  1  0.11057400  0.62713000  0.35521900  1
  O  O36  1  0.11057400  0.62713000  0.14478100  1
  O  O37  1  0.38942600  0.12713000  0.64478100  1
  O  O38  1  0.38942600  0.12713000  0.85521900  1
  O  O39  1  0.27778700  0.47056500  0.03178900  1
  O  O40  1  0.27778700  0.47056500  0.46821100  1
  O  O41  1  0.31011500  0.81610800  0.25000000  1
  O  O42  1  0.32414200  0.71636200  0.00935700  1
  O  O43  1  0.32414200  0.71636200  0.49064300  1
  O  O44  1  0.51690300  0.39680200  0.65076400  1
  O  O45  1  0.51690300  0.39680200  0.84923600  1
  O  O46  1  0.48309700  0.60319800  0.15076400  1
  O  O47  1  0.48309700  0.60319800  0.34923600  1
  O  O48  1  0.67585800  0.28363800  0.50935700  1
  O  O49  1  0.67585800  0.28363800  0.99064300  1
  O  O50  1  0.68988500  0.18389200  0.75000000  1
  O  O51  1  0.72221300  0.52943500  0.53178900  1
  O  O52  1  0.72221300  0.52943500  0.96821100  1
  O  O53  1  0.61057400  0.87287000  0.14478100  1
  O  O54  1  0.61057400  0.87287000  0.35521900  1
  O  O55  1  0.88942600  0.37287000  0.64478100  1
  O  O56  1  0.88942600  0.37287000  0.85521900  1
  O  O57  1  0.77778700  0.02943500  0.03178900  1
  O  O58  1  0.77778700  0.02943500  0.46821100  1
  O  O59  1  0.81011500  0.68389200  0.25000000  1
  O  O60  1  0.82414200  0.78363800  0.49064300  1
  O  O61  1  0.82414200  0.78363800  0.00935700  1
  O  O62  1  0.01690300  0.10319800  0.65076400  1
  O  O63  1  0.01690300  0.10319800  0.84923600  1
