# generated using pymatgen
data_Li5Mn2Fe3(PO4)6
_symmetry_space_group_name_H-M   'P 1'
_cell_length_a   8.54833800
_cell_length_b   8.62437986
_cell_length_c   8.63285339
_cell_angle_alpha   61.71923386
_cell_angle_beta   62.05098324
_cell_angle_gamma   61.97367031
_symmetry_Int_Tables_number   1
_chemical_formula_structural   Li5Mn2Fe3(PO4)6
_chemical_formula_sum   'Li5 Mn2 Fe3 P6 O24'
_cell_volume   469.31464080
_cell_formula_units_Z   1
loop_
 _symmetry_equiv_pos_site_id
 _symmetry_equiv_pos_as_xyz
  1  'x, y, z'
loop_
 _atom_site_type_symbol
 _atom_site_label
 _atom_site_symmetry_multiplicity
 _atom_site_fract_x
 _atom_site_fract_y
 _atom_site_fract_z
 _atom_site_occupancy
  Li  Li0  1  0.75387700  0.14271000  0.35565700  1
  Li  Li1  1  0.19786300  0.85124400  0.66221500  1
  Li  Li2  1  0.66199300  0.19590900  0.85219400  1
  Li  Li3  1  0.85150900  0.66135800  0.19677100  1
  Li  Li4  1  0.84515800  0.83985100  0.84501100  1
  Mn  Mn5  1  0.00760500  0.99703900  0.99188300  1
  Mn  Mn6  1  0.48842400  0.50661200  0.50042300  1
  Fe  Fe7  1  0.14887200  0.14674200  0.14133700  1
  Fe  Fe8  1  0.35182100  0.35690200  0.35328100  1
  Fe  Fe9  1  0.65038300  0.65130200  0.65660800  1
  P  P10  1  0.05410700  0.75155500  0.45267800  1
  P  P11  1  0.45153200  0.05289900  0.75547300  1
  P  P12  1  0.75323700  0.45202700  0.05447100  1
  P  P13  1  0.25555600  0.54153000  0.95671300  1
  P  P14  1  0.54791600  0.95915200  0.25697400  1
  P  P15  1  0.94976000  0.25373200  0.53920600  1
  O  O16  1  0.11237200  0.32145200  0.47818600  1
  O  O17  1  0.33386900  0.49117100  0.10659200  1
  O  O18  1  0.04984900  0.91647800  0.26377600  1
  O  O19  1  0.52165800  0.10721500  0.32539400  1
  O  O20  1  0.03370900  0.80973100  0.60304700  1
  O  O21  1  0.24558700  0.59376900  0.42161200  1
  O  O22  1  0.25502000  0.06909200  0.90881200  1
  O  O23  1  0.43972800  0.23913100  0.58686300  1
  O  O24  1  0.18867200  0.38604500  0.99551700  1
  O  O25  1  0.59791200  0.41978800  0.25047100  1
  O  O26  1  0.09889800  0.73327600  0.94590200  1
  O  O27  1  0.38006700  0.00915800  0.19997400  1
  O  O28  1  0.60358900  0.02643200  0.81777400  1
  O  O29  1  0.90346100  0.25170900  0.07439100  1
  O  O30  1  0.40728900  0.56684600  0.75821500  1
  O  O31  1  0.81471200  0.60174200  0.03052300  1
  O  O32  1  0.56472100  0.76144400  0.41046000  1
  O  O33  1  0.73739500  0.94158800  0.09705700  1
  O  O34  1  0.75385400  0.40902500  0.57038300  1
  O  O35  1  0.96771200  0.19331400  0.38777800  1
  O  O36  1  0.49219300  0.88904200  0.69706700  1
  O  O37  1  0.94657600  0.09689600  0.73045700  1
  O  O38  1  0.69238400  0.49299300  0.89264400  1
  O  O39  1  0.88915700  0.68910200  0.49920900  1
