# generated using pymatgen
data_Li2FeF4
_symmetry_space_group_name_H-M   'P 1'
_cell_length_a   5.10095100
_cell_length_b   10.02655200
_cell_length_c   12.52602100
_cell_angle_alpha   90.00000000
_cell_angle_beta   90.00000000
_cell_angle_gamma   90.00000000
_symmetry_Int_Tables_number   1
_chemical_formula_structural   Li2FeF4
_chemical_formula_sum   'Li16 Fe8 F32'
_cell_volume   640.64272339
_cell_formula_units_Z   8
loop_
 _symmetry_equiv_pos_site_id
 _symmetry_equiv_pos_as_xyz
  1  'x, y, z'
loop_
 _atom_site_type_symbol
 _atom_site_label
 _atom_site_symmetry_multiplicity
 _atom_site_fract_x
 _atom_site_fract_y
 _atom_site_fract_z
 _atom_site_occupancy
  Li  Li0  1  0.00000000  0.00000000  0.31873800  1
  Li  Li1  1  0.00000000  0.00000000  0.68776100  1
  Li  Li2  1  0.50000000  0.00000000  0.56257600  1
  Li  Li3  1  0.00000000  0.00000000  0.98119100  1
  Li  Li4  1  0.98068200  0.29586100  0.84491800  1
  Li  Li5  1  0.01928200  0.24849500  0.18922100  1
  Li  Li6  1  0.51928200  0.25150500  0.68922100  1
  Li  Li7  1  0.48068200  0.20413900  0.34491800  1
  Li  Li8  1  0.50000000  0.50000000  0.48119100  1
  Li  Li9  1  0.00000000  0.50000000  0.06257600  1
  Li  Li10  1  0.50000000  0.50000000  0.18776100  1
  Li  Li11  1  0.50000000  0.50000000  0.81873800  1
  Li  Li12  1  0.51931800  0.79586100  0.34491800  1
  Li  Li13  1  0.48071800  0.74849500  0.68922100  1
  Li  Li14  1  0.98071800  0.75150500  0.18922100  1
  Li  Li15  1  0.01931800  0.70413900  0.84491800  1
  Fe  Fe16  1  0.50000000  0.00000000  0.13556500  1
  Fe  Fe17  1  0.50000000  0.00000000  0.84702100  1
  Fe  Fe18  1  0.02072600  0.22954000  0.49762700  1
  Fe  Fe19  1  0.52072600  0.27046000  0.99762700  1
  Fe  Fe20  1  0.00000000  0.50000000  0.34702100  1
  Fe  Fe21  1  0.00000000  0.50000000  0.63556500  1
  Fe  Fe22  1  0.47927400  0.72954000  0.99762700  1
  Fe  Fe23  1  0.97927400  0.77046000  0.49762700  1
  F  F24  1  0.29962000  0.10228600  0.73019600  1
  F  F25  1  0.26991400  0.11017800  0.23777600  1
  F  F26  1  0.31283800  0.09946200  0.99455600  1
  F  F27  1  0.77177900  0.14194400  0.10629200  1
  F  F28  1  0.79738300  0.12654400  0.87644500  1
  F  F29  1  0.32404600  0.11458500  0.46875600  1
  F  F30  1  0.78671300  0.13321000  0.60941600  1
  F  F31  1  0.83195900  0.15894000  0.36108800  1
  F  F32  1  0.33195900  0.34106000  0.86108800  1
  F  F33  1  0.28671300  0.36679100  0.10941600  1
  F  F34  1  0.82404600  0.38541500  0.96875600  1
  F  F35  1  0.29738300  0.37345600  0.37644500  1
  F  F36  1  0.27177900  0.35805600  0.60629200  1
  F  F37  1  0.81283800  0.40053800  0.49455600  1
  F  F38  1  0.76991400  0.38982200  0.73777600  1
  F  F39  1  0.79962000  0.39771400  0.23019600  1
  F  F40  1  0.20038000  0.60228600  0.23019600  1
  F  F41  1  0.23008600  0.61017800  0.73777600  1
  F  F42  1  0.18716200  0.59946200  0.49455600  1
  F  F43  1  0.70261700  0.62654400  0.37644500  1
  F  F44  1  0.72822100  0.64194400  0.60629200  1
  F  F45  1  0.17595400  0.61458500  0.96875600  1
  F  F46  1  0.71328700  0.63320900  0.10941600  1
  F  F47  1  0.66804100  0.65894000  0.86108800  1
  F  F48  1  0.16804100  0.84106000  0.36108800  1
  F  F49  1  0.21328700  0.86679100  0.60941600  1
  F  F50  1  0.67595400  0.88541500  0.46875600  1
  F  F51  1  0.20261700  0.87345600  0.87644500  1
  F  F52  1  0.22822100  0.85805600  0.10629200  1
  F  F53  1  0.68716200  0.90053800  0.99455600  1
  F  F54  1  0.73008600  0.88982200  0.23777600  1
  F  F55  1  0.70038000  0.89771400  0.73019600  1
