# generated using pymatgen
data_Li2VO2F3
_symmetry_space_group_name_H-M   'P 1'
_cell_length_a   5.39889400
_cell_length_b   7.16661900
_cell_length_c   9.46095100
_cell_angle_alpha   90.00000000
_cell_angle_beta   90.00000000
_cell_angle_gamma   90.00000000
_symmetry_Int_Tables_number   1
_chemical_formula_structural   Li2VO2F3
_chemical_formula_sum   'Li8 V4 O8 F12'
_cell_volume   366.06137830
_cell_formula_units_Z   4
loop_
 _symmetry_equiv_pos_site_id
 _symmetry_equiv_pos_as_xyz
  1  'x, y, z'
loop_
 _atom_site_type_symbol
 _atom_site_label
 _atom_site_symmetry_multiplicity
 _atom_site_fract_x
 _atom_site_fract_y
 _atom_site_fract_z
 _atom_site_occupancy
  Li  Li0  1  0.75000000  0.96802100  0.27295500  1
  Li  Li1  1  0.25000000  0.14128000  0.43468600  1
  Li  Li2  1  0.75000000  0.35872000  0.93468600  1
  Li  Li3  1  0.25000000  0.53197900  0.77295500  1
  Li  Li4  1  0.75000000  0.46802100  0.22704500  1
  Li  Li5  1  0.25000000  0.64128000  0.06531400  1
  Li  Li6  1  0.75000000  0.85872000  0.56531400  1
  Li  Li7  1  0.25000000  0.03197900  0.72704500  1
  V  V8  1  0.25000000  0.21469900  0.05701400  1
  V  V9  1  0.75000000  0.28530100  0.55701400  1
  V  V10  1  0.25000000  0.71469900  0.44298600  1
  V  V11  1  0.75000000  0.78530100  0.94298600  1
  O  O12  1  0.50794300  0.14422300  0.58609500  1
  O  O13  1  0.99205700  0.14422300  0.58609500  1
  O  O14  1  0.00794300  0.35577700  0.08609500  1
  O  O15  1  0.49205700  0.35577700  0.08609500  1
  O  O16  1  0.50794300  0.64422300  0.91390500  1
  O  O17  1  0.99205700  0.64422300  0.91390500  1
  O  O18  1  0.00794300  0.85577700  0.41390500  1
  O  O19  1  0.49205700  0.85577700  0.41390500  1
  F  F20  1  0.00000000  0.00000000  0.00000000  1
  F  F21  1  0.50000000  0.00000000  0.00000000  1
  F  F22  1  0.25000000  0.10709200  0.23726700  1
  F  F23  1  0.75000000  0.24542600  0.35141200  1
  F  F24  1  0.25000000  0.25457400  0.85141200  1
  F  F25  1  0.75000000  0.39290800  0.73726700  1
  F  F26  1  0.00000000  0.50000000  0.50000000  1
  F  F27  1  0.50000000  0.50000000  0.50000000  1
  F  F28  1  0.25000000  0.60709200  0.26273300  1
  F  F29  1  0.75000000  0.74542600  0.14858800  1
  F  F30  1  0.25000000  0.75457400  0.64858800  1
  F  F31  1  0.75000000  0.89290800  0.76273300  1
