# generated using pymatgen
data_Li3Mn(BO3)2
_symmetry_space_group_name_H-M   'P 1'
_cell_length_a   6.16020200
_cell_length_b   9.26345300
_cell_length_c   9.27961843
_cell_angle_alpha   65.47911347
_cell_angle_beta   90.00000000
_cell_angle_gamma   90.00000000
_symmetry_Int_Tables_number   1
_chemical_formula_structural   Li3Mn(BO3)2
_chemical_formula_sum   'Li12 Mn4 B8 O24'
_cell_volume   481.77992408
_cell_formula_units_Z   4
loop_
 _symmetry_equiv_pos_site_id
 _symmetry_equiv_pos_as_xyz
  1  'x, y, z'
loop_
 _atom_site_type_symbol
 _atom_site_label
 _atom_site_symmetry_multiplicity
 _atom_site_fract_x
 _atom_site_fract_y
 _atom_site_fract_z
 _atom_site_occupancy
  Li  Li0  1  0.26217700  0.38775700  0.98732400  1
  Li  Li1  1  0.93521600  0.28910100  0.18506600  1
  Li  Li2  1  0.76217700  0.61224300  0.51267600  1
  Li  Li3  1  0.72502600  0.12078600  0.08034700  1
  Li  Li4  1  0.56478400  0.28910100  0.68506600  1
  Li  Li5  1  0.22502600  0.87921400  0.41965300  1
  Li  Li6  1  0.77497400  0.12078600  0.58034700  1
  Li  Li7  1  0.43521600  0.71089900  0.31493400  1
  Li  Li8  1  0.27497400  0.87921400  0.91965300  1
  Li  Li9  1  0.23782300  0.38775700  0.48732400  1
  Li  Li10  1  0.06478400  0.71089900  0.81493400  1
  Li  Li11  1  0.73782300  0.61224300  0.01267600  1
  Mn  Mn12  1  0.46685200  0.22702700  0.29044500  1
  Mn  Mn13  1  0.03314800  0.22702700  0.79044500  1
  Mn  Mn14  1  0.96685200  0.77297300  0.20955500  1
  Mn  Mn15  1  0.53314800  0.77297300  0.70955500  1
  B  B16  1  0.35313300  0.55316900  0.68108100  1
  B  B17  1  0.85313300  0.44683100  0.81891900  1
  B  B18  1  0.80099900  0.94476400  0.41441100  1
  B  B19  1  0.30099900  0.05523600  0.08558900  1
  B  B20  1  0.69900100  0.94476400  0.91441100  1
  B  B21  1  0.19900100  0.05523600  0.58558900  1
  B  B22  1  0.14686700  0.55316900  0.18108100  1
  B  B23  1  0.64686700  0.44683100  0.31891900  1
  O  O24  1  0.80809400  0.58829500  0.81969400  1
  O  O25  1  0.32954000  0.58705800  0.81373200  1
  O  O26  1  0.44589700  0.68472900  0.55309700  1
  O  O27  1  0.94589700  0.31527100  0.94690300  1
  O  O28  1  0.82954000  0.41294200  0.68626800  1
  O  O29  1  0.72558700  0.92453900  0.56361800  1
  O  O30  1  0.40463400  0.18227300  0.10121400  1
  O  O31  1  0.30809400  0.41170500  0.68030600  1
  O  O32  1  0.78129800  0.09266600  0.29456100  1
  O  O33  1  0.28129800  0.90733400  0.20543900  1
  O  O34  1  0.90463400  0.81772700  0.39878600  1
  O  O35  1  0.22558700  0.07546100  0.93638200  1
  O  O36  1  0.77441300  0.92453900  0.06361800  1
  O  O37  1  0.09536600  0.18227300  0.60121400  1
  O  O38  1  0.71870200  0.09266600  0.79456100  1
  O  O39  1  0.21870200  0.90733400  0.70543900  1
  O  O40  1  0.69190600  0.58829500  0.31969400  1
  O  O41  1  0.59536600  0.81772700  0.89878600  1
  O  O42  1  0.27441300  0.07546100  0.43638200  1
  O  O43  1  0.17046000  0.58705800  0.31373200  1
  O  O44  1  0.05410300  0.68472900  0.05309700  1
  O  O45  1  0.55410300  0.31527100  0.44690300  1
  O  O46  1  0.67046000  0.41294200  0.18626800  1
  O  O47  1  0.19190600  0.41170500  0.18030600  1
