# generated using pymatgen
data_LiMn2(BO3)2
_symmetry_space_group_name_H-M   'P 1'
_cell_length_a   9.09193100
_cell_length_b   9.15621554
_cell_length_c   10.36828807
_cell_angle_alpha   91.56518632
_cell_angle_beta   89.99748564
_cell_angle_gamma   119.32083844
_symmetry_Int_Tables_number   1
_chemical_formula_structural   LiMn2(BO3)2
_chemical_formula_sum   'Li6 Mn12 B12 O36'
_cell_volume   752.19184292
_cell_formula_units_Z   6
loop_
 _symmetry_equiv_pos_site_id
 _symmetry_equiv_pos_as_xyz
  1  'x, y, z'
loop_
 _atom_site_type_symbol
 _atom_site_label
 _atom_site_symmetry_multiplicity
 _atom_site_fract_x
 _atom_site_fract_y
 _atom_site_fract_z
 _atom_site_occupancy
  Li  Li0  1  0.09897300  0.04565700  0.67045800  1
  Li  Li1  1  0.76934500  0.36791900  0.67541500  1
  Li  Li2  1  0.76288600  0.39636300  0.16306400  1
  Li  Li3  1  0.43304800  0.70337600  0.66920800  1
  Li  Li4  1  0.41953100  0.71647600  0.16998100  1
  Li  Li5  1  0.90246500  0.97606400  0.34841100  1
  Mn  Mn6  1  0.42386500  0.05329900  0.13735300  1
  Mn  Mn7  1  0.44836200  0.37388600  0.61955100  1
  Mn  Mn8  1  0.77267100  0.04433800  0.62704200  1
  Mn  Mn9  1  0.89532400  0.30781600  0.39141100  1
  Mn  Mn10  1  0.25080800  0.31632100  0.87273200  1
  Mn  Mn11  1  0.90056800  0.61169500  0.88497300  1
  Mn  Mn12  1  0.08814900  0.34628900  0.12311000  1
  Mn  Mn13  1  0.78580100  0.73713900  0.13137800  1
  Mn  Mn14  1  0.09938400  0.71828900  0.63087500  1
  Mn  Mn15  1  0.55139900  0.60756300  0.37879100  1
  Mn  Mn16  1  0.23597700  0.93458700  0.38333400  1
  Mn  Mn17  1  0.55468600  0.94812600  0.88298900  1
  B  B18  1  0.44985700  0.04616500  0.62159800  1
  B  B19  1  0.76249400  0.05585000  0.13201500  1
  B  B20  1  0.44992500  0.39960300  0.12861500  1
  B  B21  1  0.88701700  0.25942100  0.87393700  1
  B  B22  1  0.77666400  0.71445700  0.62066100  1
  B  B23  1  0.11225800  0.39369900  0.63628900  1
  B  B24  1  0.21525000  0.26908300  0.36969000  1
  B  B25  1  0.88951900  0.63528500  0.36785700  1
  B  B26  1  0.10527000  0.70079600  0.14285500  1
  B  B27  1  0.22407800  0.95281400  0.87625100  1
  B  B28  1  0.56492400  0.60958400  0.87752500  1
  B  B29  1  0.56733600  0.95815600  0.36597400  1
  O  O30  1  0.18574600  0.07088600  0.84394200  1
  O  O31  1  0.14292700  0.10121100  0.38075100  1
  O  O32  1  0.36231700  0.98530800  0.95730500  1
  O  O33  1  0.48033700  0.04748900  0.32918800  1
  O  O34  1  0.37238200  0.37793100  0.42519000  1
  O  O35  1  0.54414400  0.21508300  0.62179000  1
  O  O36  1  0.73016000  0.05002800  0.41505100  1
  O  O37  1  0.52288900  0.30251600  0.13663300  1
  O  O38  1  0.80311200  0.09486000  0.83299800  1
  O  O39  1  0.48978200  0.44197500  0.82824000  1
  O  O40  1  0.84252900  0.23111600  0.15207900  1
  O  O41  1  0.83081500  0.36848000  0.85382400  1
  O  O42  1  0.94567400  0.30250700  0.59121300  1
  O  O43  1  0.81108300  0.46863300  0.34607700  1
  O  O44  1  0.71369500  0.66541500  0.95141200  1
  O  O45  1  0.04791000  0.32028400  0.93654600  1
  O  O46  1  0.18778700  0.30084100  0.68620100  1
  O  O47  1  0.83544400  0.61230800  0.67117400  1
  O  O48  1  0.12684900  0.33967800  0.30755300  1
  O  O49  1  0.81501600  0.73154800  0.32355200  1
  O  O50  1  0.93815500  0.63751800  0.09592700  1
  O  O51  1  0.29610400  0.34427900  0.06276600  1
  O  O52  1  0.20127300  0.56171300  0.63155800  1
  O  O53  1  0.04142300  0.72206200  0.43456300  1
  O  O54  1  0.18144400  0.60729000  0.13542400  1
  O  O55  1  0.13742200  0.78954300  0.82592900  1
  O  O56  1  0.18730200  0.86812300  0.19581600  1
  O  O57  1  0.52221700  0.56244100  0.18500000  1
  O  O58  1  0.49480800  0.70451200  0.85069900  1
  O  O59  1  0.60738700  0.63110900  0.56953900  1
  O  O60  1  0.28138400  0.96449300  0.57164600  1
  O  O61  1  0.48669500  0.78885400  0.35187900  1
  O  O62  1  0.51036200  0.94521300  0.66954900  1
  O  O63  1  0.59397400  0.96834300  0.09442900  1
  O  O64  1  0.87180300  0.88354600  0.61743600  1
  O  O65  1  0.85206400  0.97463900  0.15364100  1
