# generated using pymatgen
data_Li7Ti2P7O24
_symmetry_space_group_name_H-M   'P 1'
_cell_length_a   5.17231400
_cell_length_b   11.75608300
_cell_length_c   15.28489626
_cell_angle_alpha   82.62720890
_cell_angle_beta   90.00000000
_cell_angle_gamma   90.00000000
_symmetry_Int_Tables_number   1
_chemical_formula_structural   Li7Ti2P7O24
_chemical_formula_sum   'Li14 Ti4 P14 O48'
_cell_volume   921.73152484
_cell_formula_units_Z   2
loop_
 _symmetry_equiv_pos_site_id
 _symmetry_equiv_pos_as_xyz
  1  'x, y, z'
loop_
 _atom_site_type_symbol
 _atom_site_label
 _atom_site_symmetry_multiplicity
 _atom_site_fract_x
 _atom_site_fract_y
 _atom_site_fract_z
 _atom_site_occupancy
  Li  Li0  1  0.27568800  0.48207100  0.05789900  1
  Li  Li1  1  0.18187000  0.11138700  0.13793800  1
  Li  Li2  1  0.72431200  0.98207100  0.05789900  1
  Li  Li3  1  0.81813000  0.61138700  0.13793800  1
  Li  Li4  1  0.84877700  0.44853100  0.41085300  1
  Li  Li5  1  0.15122300  0.94853100  0.41085300  1
  Li  Li6  1  0.29129700  0.25000000  0.50000000  1
  Li  Li7  1  0.70870300  0.75000000  0.50000000  1
  Li  Li8  1  0.84877700  0.05146900  0.58914700  1
  Li  Li9  1  0.15122300  0.55146900  0.58914700  1
  Li  Li10  1  0.18187000  0.38861300  0.86206200  1
  Li  Li11  1  0.27568800  0.01792900  0.94210100  1
  Li  Li12  1  0.81813000  0.88861300  0.86206200  1
  Li  Li13  1  0.72431200  0.51792900  0.94210100  1
  Ti  Ti14  1  0.35429100  0.31243000  0.27776500  1
  Ti  Ti15  1  0.64570900  0.81243000  0.27776500  1
  Ti  Ti16  1  0.35429100  0.18757000  0.72223500  1
  Ti  Ti17  1  0.64570900  0.68757000  0.72223500  1
  P  P18  1  0.57275600  0.25000000  0.00000000  1
  P  P19  1  0.42724400  0.75000000  0.00000000  1
  P  P20  1  0.87365200  0.34469900  0.13778000  1
  P  P21  1  0.12634800  0.84469900  0.13778000  1
  P  P22  1  0.61636400  0.05038500  0.27566700  1
  P  P23  1  0.38363600  0.55038500  0.27566700  1
  P  P24  1  0.84424900  0.19758700  0.39262000  1
  P  P25  1  0.15575100  0.69758700  0.39262000  1
  P  P26  1  0.84424900  0.30241300  0.60738000  1
  P  P27  1  0.15575100  0.80241300  0.60738000  1
  P  P28  1  0.61636400  0.44961500  0.72433300  1
  P  P29  1  0.38363600  0.94961500  0.72433300  1
  P  P30  1  0.87365200  0.15530100  0.86222000  1
  P  P31  1  0.12634800  0.65530100  0.86222000  1
  O  O32  1  0.42887000  0.13754200  0.01406300  1
  O  O33  1  0.57113000  0.63754200  0.01406300  1
  O  O34  1  0.77252700  0.24424600  0.08082400  1
  O  O35  1  0.89844700  0.45635900  0.07710000  1
  O  O36  1  0.22747300  0.74424600  0.08082400  1
  O  O37  1  0.10155300  0.95635900  0.07710000  1
  O  O38  1  0.13198300  0.28817900  0.17031100  1
  O  O39  1  0.73804900  0.99441500  0.20093300  1
  O  O40  1  0.67960000  0.35066000  0.21026100  1
  O  O41  1  0.86801700  0.78817900  0.17031100  1
  O  O42  1  0.26195100  0.49441500  0.20093300  1
  O  O43  1  0.40344300  0.13695900  0.24776100  1
  O  O44  1  0.32040000  0.85066000  0.21026100  1
  O  O45  1  0.59655700  0.63695900  0.24776100  1
  O  O46  1  0.85926400  0.11463200  0.31504800  1
  O  O47  1  0.14073600  0.61463200  0.31504800  1
  O  O48  1  0.02526100  0.29953100  0.36197800  1
  O  O49  1  0.47298600  0.45329500  0.34750700  1
  O  O50  1  0.55787900  0.23296400  0.39704400  1
  O  O51  1  0.97473900  0.79953100  0.36197800  1
  O  O52  1  0.52701400  0.95329500  0.34750700  1
  O  O53  1  0.44212100  0.73296400  0.39704400  1
  O  O54  1  0.95009000  0.12465700  0.47420900  1
  O  O55  1  0.04991000  0.62465700  0.47420900  1
  O  O56  1  0.95009000  0.37534300  0.52579100  1
  O  O57  1  0.04991000  0.87534300  0.52579100  1
  O  O58  1  0.55787900  0.26703600  0.60295600  1
  O  O59  1  0.47298600  0.04670500  0.65249300  1
  O  O60  1  0.02526100  0.20046900  0.63802200  1
  O  O61  1  0.44212100  0.76703600  0.60295600  1
  O  O62  1  0.52701400  0.54670500  0.65249300  1
  O  O63  1  0.97473900  0.70046900  0.63802200  1
  O  O64  1  0.85926400  0.38536800  0.68495200  1
  O  O65  1  0.14073600  0.88536800  0.68495200  1
  O  O66  1  0.40344300  0.36304100  0.75223900  1
  O  O67  1  0.67960000  0.14934000  0.78973900  1
  O  O68  1  0.59655700  0.86304100  0.75223900  1
  O  O69  1  0.73804900  0.50558500  0.79906700  1
  O  O70  1  0.13198300  0.21182100  0.82968900  1
  O  O71  1  0.32040000  0.64934000  0.78973900  1
  O  O72  1  0.26195100  0.00558500  0.79906700  1
  O  O73  1  0.86801700  0.71182100  0.82968900  1
  O  O74  1  0.89844700  0.04364100  0.92290000  1
  O  O75  1  0.77252700  0.25575400  0.91917600  1
  O  O76  1  0.10155300  0.54364100  0.92290000  1
  O  O77  1  0.22747300  0.75575400  0.91917600  1
  O  O78  1  0.42887000  0.36245800  0.98593700  1
  O  O79  1  0.57113000  0.86245800  0.98593700  1
