# generated using pymatgen
data_LiFeSi3O8
_symmetry_space_group_name_H-M   'P 1'
_cell_length_a   8.02381806
_cell_length_b   7.10999044
_cell_length_c   7.11511838
_cell_angle_alpha   81.61615785
_cell_angle_beta   109.02920059
_cell_angle_gamma   61.75694641
_symmetry_Int_Tables_number   1
_chemical_formula_structural   LiFeSi3O8
_chemical_formula_sum   'Li2 Fe2 Si6 O16'
_cell_volume   315.33656208
_cell_formula_units_Z   2
loop_
 _symmetry_equiv_pos_site_id
 _symmetry_equiv_pos_as_xyz
  1  'x, y, z'
loop_
 _atom_site_type_symbol
 _atom_site_label
 _atom_site_symmetry_multiplicity
 _atom_site_fract_x
 _atom_site_fract_y
 _atom_site_fract_z
 _atom_site_occupancy
  Li  Li0  1  0.81765915  0.83001582  0.80212266  1
  Li  Li1  1  0.18234085  0.16998418  0.19787734  1
  Fe  Fe2  1  0.20401000  0.72886596  0.14545258  1
  Fe  Fe3  1  0.79599000  0.27113404  0.85454742  1
  Si  Si4  1  0.21143662  0.55678615  0.73167050  1
  Si  Si5  1  0.44883835  0.73558797  0.62095336  1
  Si  Si6  1  0.17609842  0.14878223  0.74378838  1
  Si  Si7  1  0.82390158  0.85121777  0.25621162  1
  Si  Si8  1  0.55116165  0.26441203  0.37904664  1
  Si  Si9  1  0.78856338  0.44321385  0.26832950  1
  O  O10  1  0.12193658  0.69674723  0.87181999  1
  O  O11  1  0.36103817  0.93530464  0.72015421  1
  O  O12  1  0.03384385  0.69904175  0.48430320  1
  O  O13  1  0.30816168  0.83987433  0.36390640  1
  O  O14  1  0.10759846  0.08538361  0.92551958  1
  O  O15  1  0.43168347  0.52945023  0.74349582  1
  O  O16  1  0.27293436  0.29737859  0.81356367  1
  O  O17  1  0.70507548  0.59525213  0.70943168  1
  O  O18  1  0.29492452  0.40474787  0.29056832  1
  O  O19  1  0.72706564  0.70262141  0.18643633  1
  O  O20  1  0.56831653  0.47054977  0.25650418  1
  O  O21  1  0.89240154  0.91461639  0.07448042  1
  O  O22  1  0.69183832  0.16012567  0.63609360  1
  O  O23  1  0.96615615  0.30095825  0.51569680  1
  O  O24  1  0.63896283  0.06469536  0.27984579  1
  O  O25  1  0.87806342  0.30325277  0.12818001  1
