# generated using pymatgen
data_Li2Cr3NiO8
_symmetry_space_group_name_H-M   'P 1'
_cell_length_a   8.33552700
_cell_length_b   8.38919617
_cell_length_c   8.30941328
_cell_angle_alpha   90.15752502
_cell_angle_beta   89.67840382
_cell_angle_gamma   90.11358920
_symmetry_Int_Tables_number   1
_chemical_formula_structural   Li2Cr3NiO8
_chemical_formula_sum   'Li8 Cr12 Ni4 O32'
_cell_volume   581.05126323
_cell_formula_units_Z   4
loop_
 _symmetry_equiv_pos_site_id
 _symmetry_equiv_pos_as_xyz
  1  'x, y, z'
loop_
 _atom_site_type_symbol
 _atom_site_label
 _atom_site_symmetry_multiplicity
 _atom_site_fract_x
 _atom_site_fract_y
 _atom_site_fract_z
 _atom_site_occupancy
  Li  Li0  1  0.99756800  0.99982000  0.00366700  1
  Li  Li1  1  0.25059500  0.25068700  0.25193600  1
  Li  Li2  1  0.24952000  0.75021900  0.74854900  1
  Li  Li3  1  0.49637000  0.00172400  0.49720100  1
  Li  Li4  1  0.49627400  0.49995000  0.99937700  1
  Li  Li5  1  0.75001000  0.24772200  0.74759100  1
  Li  Li6  1  0.75068200  0.75018100  0.24981500  1
  Li  Li7  1  0.99923400  0.49847600  0.50233000  1
  Cr  Cr8  1  0.12972800  0.12830700  0.62841500  1
  Cr  Cr9  1  0.12747500  0.37729400  0.87956900  1
  Cr  Cr10  1  0.12806000  0.62571300  0.13056000  1
  Cr  Cr11  1  0.37656200  0.38017600  0.62250900  1
  Cr  Cr12  1  0.37494600  0.62149900  0.37362900  1
  Cr  Cr13  1  0.37473000  0.87770100  0.12352700  1
  Cr  Cr14  1  0.62721500  0.37823400  0.37091200  1
  Cr  Cr15  1  0.62741500  0.12242700  0.12063900  1
  Cr  Cr16  1  0.62695200  0.86730000  0.87445800  1
  Cr  Cr17  1  0.87614700  0.12813000  0.37652300  1
  Cr  Cr18  1  0.87819700  0.87086700  0.62489800  1
  Cr  Cr19  1  0.87897000  0.62470000  0.88224800  1
  Ni  Ni20  1  0.12404900  0.87514000  0.37236200  1
  Ni  Ni21  1  0.37263500  0.12500800  0.87654200  1
  Ni  Ni22  1  0.62318900  0.62516700  0.62451800  1
  Ni  Ni23  1  0.87185700  0.37337300  0.12344500  1
  O  O24  1  0.10243700  0.12978200  0.39474200  1
  O  O25  1  0.11114900  0.88823400  0.60460800  1
  O  O26  1  0.11630800  0.61571500  0.89405400  1
  O  O27  1  0.12178400  0.13985900  0.85529500  1
  O  O28  1  0.12344400  0.38971400  0.10357300  1
  O  O29  1  0.13910300  0.36484800  0.64083900  1
  O  O30  1  0.13293900  0.62575100  0.35252000  1
  O  O31  1  0.13682600  0.86398000  0.14314100  1
  O  O32  1  0.35299500  0.14390900  0.62360300  1
  O  O33  1  0.35519600  0.36779800  0.85945800  1
  O  O34  1  0.35898700  0.64429200  0.13022600  1
  O  O35  1  0.37656200  0.60327700  0.61244400  1
  O  O36  1  0.35501300  0.86322300  0.35846300  1
  O  O37  1  0.39083600  0.38500900  0.38558700  1
  O  O38  1  0.39496200  0.10409600  0.13083500  1
  O  O39  1  0.38997300  0.87741400  0.89462100  1
  O  O40  1  0.60321300  0.37050600  0.60567000  1
  O  O41  1  0.61467100  0.60602800  0.37877700  1
  O  O42  1  0.61358200  0.88447100  0.10866200  1
  O  O43  1  0.62271600  0.35800400  0.14295200  1
  O  O44  1  0.62465000  0.10466300  0.89594600  1
  O  O45  1  0.64255700  0.13341300  0.35994600  1
  O  O46  1  0.64602700  0.88088100  0.64478800  1
  O  O47  1  0.64153400  0.64375300  0.87558700  1
  O  O48  1  0.85878600  0.35707300  0.37370200  1
  O  O49  1  0.85587500  0.13089600  0.14038600  1
  O  O50  1  0.86668200  0.85664300  0.86401300  1
  O  O51  1  0.89038300  0.89197200  0.38685100  1
  O  O52  1  0.87382000  0.64751900  0.64370000  1
  O  O53  1  0.89082900  0.10631000  0.61530600  1
  O  O54  1  0.89379200  0.39878600  0.86702600  1
  O  O55  1  0.89398700  0.62250000  0.10759600  1
