# generated using pymatgen
data_Li4Ti3Co3(TeO8)2
_symmetry_space_group_name_H-M   'P 1'
_cell_length_a   6.00103932
_cell_length_b   6.00103932
_cell_length_c   10.11412279
_cell_angle_alpha   89.91509110
_cell_angle_beta   89.91509110
_cell_angle_gamma   59.89380221
_symmetry_Int_Tables_number   1
_chemical_formula_structural   Li4Ti3Co3(TeO8)2
_chemical_formula_sum   'Li4 Ti3 Co3 Te2 O16'
_cell_volume   315.09783605
_cell_formula_units_Z   1
loop_
 _symmetry_equiv_pos_site_id
 _symmetry_equiv_pos_as_xyz
  1  'x, y, z'
loop_
 _atom_site_type_symbol
 _atom_site_label
 _atom_site_symmetry_multiplicity
 _atom_site_fract_x
 _atom_site_fract_y
 _atom_site_fract_z
 _atom_site_occupancy
  Li  Li0  1  0.66183900  0.66183900  0.91010800  1
  Li  Li1  1  0.99666900  0.99666900  0.98241000  1
  Li  Li2  1  0.00661500  0.00661500  0.49176800  1
  Li  Li3  1  0.33250500  0.33250500  0.40139300  1
  Ti  Ti4  1  0.83180800  0.35148100  0.21890100  1
  Ti  Ti5  1  0.35148100  0.83180800  0.21890100  1
  Ti  Ti6  1  0.17408500  0.17408500  0.72493900  1
  Co  Co7  1  0.82604400  0.82604400  0.20173100  1
  Co  Co8  1  0.65624400  0.17108400  0.72057900  1
  Co  Co9  1  0.17108400  0.65624400  0.72057900  1
  Te  Te10  1  0.67501600  0.67501600  0.51059800  1
  Te  Te11  1  0.33414000  0.33414000  0.98698500  1
  O  O12  1  0.84669800  0.34514700  0.61213100  1
  O  O13  1  0.51033900  0.51033900  0.31610800  1
  O  O14  1  0.65004600  0.65004600  0.10372700  1
  O  O15  1  0.00348200  0.00348200  0.29471500  1
  O  O16  1  0.00637100  0.00637100  0.80063900  1
  O  O17  1  0.34514700  0.84669800  0.61213100  1
  O  O18  1  0.98157000  0.48752400  0.32125300  1
  O  O19  1  0.48752400  0.98157000  0.32125300  1
  O  O20  1  0.16631900  0.16631900  0.08842900  1
  O  O21  1  0.84275800  0.84275800  0.59402300  1
  O  O22  1  0.46640800  0.03691800  0.85835500  1
  O  O23  1  0.03691800  0.46640800  0.85835500  1
  O  O24  1  0.32174200  0.32174200  0.61122100  1
  O  O25  1  0.65999900  0.16403900  0.08427400  1
  O  O26  1  0.47683900  0.47683900  0.85781400  1
  O  O27  1  0.16403900  0.65999900  0.08427400  1
