# generated using pymatgen
data_Li5MnO4
_symmetry_space_group_name_H-M   'P 1'
_cell_length_a   12.80422200
_cell_length_b   12.80422200
_cell_length_c   4.70173700
_cell_angle_alpha   90.00000000
_cell_angle_beta   90.00000000
_cell_angle_gamma   90.00000000
_symmetry_Int_Tables_number   1
_chemical_formula_structural   Li5MnO4
_chemical_formula_sum   'Li40 Mn8 O32'
_cell_volume   770.84085267
_cell_formula_units_Z   8
loop_
 _symmetry_equiv_pos_site_id
 _symmetry_equiv_pos_as_xyz
  1  'x, y, z'
loop_
 _atom_site_type_symbol
 _atom_site_label
 _atom_site_symmetry_multiplicity
 _atom_site_fract_x
 _atom_site_fract_y
 _atom_site_fract_z
 _atom_site_occupancy
  Li  Li0  1  0.76400500  0.23599500  0.00000000  1
  Li  Li1  1  0.73599500  0.26400500  0.50000000  1
  Li  Li2  1  0.23599500  0.23599500  0.00000000  1
  Li  Li3  1  0.26400500  0.26400500  0.50000000  1
  Li  Li4  1  0.10684900  0.35976000  0.55650200  1
  Li  Li5  1  0.89315100  0.35976000  0.55650200  1
  Li  Li6  1  0.37191800  0.37191800  0.00000000  1
  Li  Li7  1  0.62808200  0.37191800  0.00000000  1
  Li  Li8  1  0.85976000  0.39315100  0.05650200  1
  Li  Li9  1  0.14024000  0.39315100  0.05650200  1
  Li  Li10  1  0.00000000  0.50000000  0.10797800  1
  Li  Li11  1  0.50000000  0.50000000  0.50000000  1
  Li  Li12  1  0.50000000  0.50000000  0.00000000  1
  Li  Li13  1  0.00000000  0.50000000  0.60797800  1
  Li  Li14  1  0.85976000  0.60684900  0.05650200  1
  Li  Li15  1  0.14024000  0.60684900  0.05650200  1
  Li  Li16  1  0.37191800  0.62808200  0.00000000  1
  Li  Li17  1  0.62808200  0.62808200  0.00000000  1
  Li  Li18  1  0.89315100  0.64024000  0.55650200  1
  Li  Li19  1  0.10684900  0.64024000  0.55650200  1
  Li  Li20  1  0.23599500  0.76400500  0.00000000  1
  Li  Li21  1  0.26400500  0.73599500  0.50000000  1
  Li  Li22  1  0.76400500  0.76400500  0.00000000  1
  Li  Li23  1  0.73599500  0.73599500  0.50000000  1
  Li  Li24  1  0.39315100  0.85976000  0.94349800  1
  Li  Li25  1  0.60684900  0.85976000  0.94349800  1
  Li  Li26  1  0.87191800  0.87191800  0.50000000  1
  Li  Li27  1  0.12808200  0.87191800  0.50000000  1
  Li  Li28  1  0.35976000  0.89315100  0.44349800  1
  Li  Li29  1  0.64024000  0.89315100  0.44349800  1
  Li  Li30  1  0.00000000  0.00000000  0.00000000  1
  Li  Li31  1  0.00000000  0.00000000  0.50000000  1
  Li  Li32  1  0.50000000  0.00000000  0.89202200  1
  Li  Li33  1  0.50000000  0.00000000  0.39202200  1
  Li  Li34  1  0.35976000  0.10684900  0.44349800  1
  Li  Li35  1  0.64024000  0.10684900  0.44349800  1
  Li  Li36  1  0.87191800  0.12808200  0.50000000  1
  Li  Li37  1  0.12808200  0.12808200  0.50000000  1
  Li  Li38  1  0.39315100  0.14024000  0.94349800  1
  Li  Li39  1  0.60684900  0.14024000  0.94349800  1
  Mn  Mn40  1  0.50000000  0.27115900  0.46261300  1
  Mn  Mn41  1  0.27115900  0.50000000  0.53738700  1
  Mn  Mn42  1  0.72884100  0.50000000  0.53738700  1
  Mn  Mn43  1  0.50000000  0.72884100  0.46261300  1
  Mn  Mn44  1  0.00000000  0.77115900  0.03738700  1
  Mn  Mn45  1  0.77115900  0.00000000  0.96261300  1
  Mn  Mn46  1  0.22884100  0.00000000  0.96261300  1
  Mn  Mn47  1  0.00000000  0.22884100  0.03738700  1
  O  O48  1  0.87502700  0.25621300  0.26221700  1
  O  O49  1  0.12497300  0.25621300  0.26221700  1
  O  O50  1  0.75621300  0.37502700  0.76221700  1
  O  O51  1  0.24378700  0.37502700  0.76221700  1
  O  O52  1  0.00000000  0.37840500  0.84546400  1
  O  O53  1  0.50000000  0.37623600  0.75169500  1
  O  O54  1  0.87840500  0.50000000  0.34546400  1
  O  O55  1  0.37623600  0.50000000  0.24830500  1
  O  O56  1  0.62376400  0.50000000  0.24830500  1
  O  O57  1  0.12159500  0.50000000  0.34546400  1
  O  O58  1  0.50000000  0.62376400  0.75169500  1
  O  O59  1  0.00000000  0.62159500  0.84546400  1
  O  O60  1  0.24378700  0.62497300  0.76221700  1
  O  O61  1  0.75621300  0.62497300  0.76221700  1
  O  O62  1  0.87502700  0.74378700  0.26221700  1
  O  O63  1  0.12497300  0.74378700  0.26221700  1
  O  O64  1  0.37502700  0.75621300  0.23778300  1
  O  O65  1  0.62497300  0.75621300  0.23778300  1
  O  O66  1  0.74378700  0.87502700  0.73778300  1
  O  O67  1  0.25621300  0.87502700  0.73778300  1
  O  O68  1  0.50000000  0.87840500  0.65453600  1
  O  O69  1  0.00000000  0.87623600  0.74830500  1
  O  O70  1  0.87623600  0.00000000  0.25169500  1
  O  O71  1  0.12376400  0.00000000  0.25169500  1
  O  O72  1  0.37840500  0.00000000  0.15453600  1
  O  O73  1  0.62159500  0.00000000  0.15453600  1
  O  O74  1  0.00000000  0.12376400  0.74830500  1
  O  O75  1  0.50000000  0.12159500  0.65453600  1
  O  O76  1  0.74378700  0.12497300  0.73778300  1
  O  O77  1  0.25621300  0.12497300  0.73778300  1
  O  O78  1  0.37502700  0.24378700  0.23778300  1
  O  O79  1  0.62497300  0.24378700  0.23778300  1
