# generated using pymatgen
data_Li3AlCoO4
_symmetry_space_group_name_H-M   'P 1'
_cell_length_a   10.11567982
_cell_length_b   10.11567982
_cell_length_c   10.11567982
_cell_angle_alpha   116.75850753
_cell_angle_beta   116.75850753
_cell_angle_gamma   95.71256370
_symmetry_Int_Tables_number   1
_chemical_formula_structural   Li3AlCoO4
_chemical_formula_sum   'Li24 Al8 Co8 O32'
_cell_volume   763.68305554
_cell_formula_units_Z   8
loop_
 _symmetry_equiv_pos_site_id
 _symmetry_equiv_pos_as_xyz
  1  'x, y, z'
loop_
 _atom_site_type_symbol
 _atom_site_label
 _atom_site_symmetry_multiplicity
 _atom_site_fract_x
 _atom_site_fract_y
 _atom_site_fract_z
 _atom_site_occupancy
  Li  Li0  1  0.92632700  0.10759100  0.15433700  1
  Li  Li1  1  0.82367300  0.14240900  0.34566300  1
  Li  Li2  1  0.89240900  0.04674700  0.81873600  1
  Li  Li3  1  0.52198900  0.17632700  0.31873600  1
  Li  Li4  1  0.44351900  0.29459700  0.13564900  1
  Li  Li5  1  0.71957600  0.56734100  0.14657300  1
  Li  Li6  1  0.85759100  0.20325300  0.68126400  1
  Li  Li7  1  0.22801100  0.07367300  0.18126400  1
  Li  Li8  1  0.70540300  0.84105200  0.14892200  1
  Li  Li9  1  0.43265900  0.57923200  0.15223600  1
  Li  Li10  1  0.79674700  0.47801100  0.65433700  1
  Li  Li11  1  0.95325300  0.77198900  0.84566300  1
  Li  Li12  1  0.42699600  0.28042400  0.84776400  1
  Li  Li13  1  0.31734100  0.67076800  0.34776400  1
  Li  Li14  1  0.04459700  0.40894800  0.35107800  1
  Li  Li15  1  0.69213000  0.55648100  0.85107800  1
  Li  Li16  1  0.03042400  0.68265900  0.35342700  1
  Li  Li17  1  0.42076800  0.57300400  0.85342700  1
  Li  Li18  1  0.59105200  0.94213000  0.63564900  1
  Li  Li19  1  0.15894800  0.30787000  0.86435100  1
  Li  Li20  1  0.30648100  0.95540300  0.36435100  1
  Li  Li21  1  0.32923200  0.67699600  0.64657300  1
  Li  Li22  1  0.05787000  0.69351900  0.64892200  1
  Li  Li23  1  0.32300400  0.96957600  0.65223600  1
  Al  Al24  1  0.75035400  0.41421700  0.30223900  1
  Al  Al25  1  0.55188600  0.24964600  0.66386300  1
  Al  Al26  1  0.16421700  0.36197800  0.16386300  1
  Al  Al27  1  0.58578300  0.88802200  0.33613700  1
  Al  Al28  1  0.63802200  0.80188600  0.80223900  1
  Al  Al29  1  0.99964600  0.83578300  0.19776100  1
  Al  Al30  1  0.11197800  0.44811400  0.69776100  1
  Al  Al31  1  0.19811400  0.00035400  0.83613700  1
  Co  Co32  1  0.45019100  0.92556700  0.99841800  1
  Co  Co33  1  0.67556700  0.17714900  0.97537600  1
  Co  Co34  1  0.54822600  0.54980900  0.47537600  1
  Co  Co35  1  0.82285100  0.79822600  0.49841800  1
  Co  Co36  1  0.29980900  0.32443300  0.50158200  1
  Co  Co37  1  0.07443300  0.07285100  0.52462400  1
  Co  Co38  1  0.20177300  0.70019100  0.02462400  1
  Co  Co39  1  0.92714900  0.45177300  0.00158200  1
  O  O40  1  0.83292800  0.26709600  0.24430000  1
  O  O41  1  0.33862900  0.08292800  0.06583200  1
  O  O42  1  0.60091000  0.35236300  0.07944900  1
  O  O43  1  0.86404200  0.64078800  0.09339400  1
  O  O44  1  0.88595800  0.60921200  0.40660600  1
  O  O45  1  0.64505700  0.39467600  0.39748100  1
  O  O46  1  0.41137100  0.16707200  0.43416800  1
  O  O47  1  0.35921200  0.45260500  0.22325400  1
  O  O48  1  0.52064800  0.11404200  0.72325400  1
  O  O49  1  0.91707200  0.98290400  0.25570000  1
  O  O50  1  0.14467600  0.24719600  0.24961900  1
  O  O51  1  0.75242300  0.35494200  0.74961900  1
  O  O52  1  0.64763700  0.72708700  0.24854700  1
  O  O53  1  0.10236300  0.52291300  0.25145300  1
  O  O54  1  0.47853900  0.39909000  0.75145300  1
  O  O55  1  0.60532400  0.00280400  0.25038100  1
  O  O56  1  0.72720300  0.66137100  0.74430000  1
  O  O57  1  0.22935200  0.13595800  0.77674600  1
  O  O58  1  0.39078800  0.79739500  0.27674600  1
  O  O59  1  0.73290400  0.97720300  0.56583200  1
  O  O60  1  0.47708700  0.72853900  0.57944900  1
  O  O61  1  0.10494200  0.85532400  0.10251900  1
  O  O62  1  0.99719600  0.24757700  0.60251900  1
  O  O63  1  0.20260500  0.47935200  0.59339400  1
  O  O64  1  0.54739500  0.77064800  0.90660600  1
  O  O65  1  0.75280400  0.00242300  0.89748100  1
  O  O66  1  0.14909000  0.89763700  0.42055100  1
  O  O67  1  0.27291300  0.52146100  0.92055000  1
  O  O68  1  0.01709600  0.27279700  0.93416800  1
  O  O69  1  0.02279700  0.58862900  0.75570000  1
  O  O70  1  0.27146100  0.85091000  0.74854700  1
  O  O71  1  0.99757700  0.89505700  0.75038100  1
