# generated using pymatgen
data_Li2Cr2O7
_symmetry_space_group_name_H-M   'P 1'
_cell_length_a   6.87500900
_cell_length_b   6.71074900
_cell_length_c   12.98584337
_cell_angle_alpha   72.43380148
_cell_angle_beta   90.00000000
_cell_angle_gamma   90.00000000
_symmetry_Int_Tables_number   1
_chemical_formula_structural   Li2Cr2O7
_chemical_formula_sum   'Li8 Cr8 O28'
_cell_volume   571.18316678
_cell_formula_units_Z   4
loop_
 _symmetry_equiv_pos_site_id
 _symmetry_equiv_pos_as_xyz
  1  'x, y, z'
loop_
 _atom_site_type_symbol
 _atom_site_label
 _atom_site_symmetry_multiplicity
 _atom_site_fract_x
 _atom_site_fract_y
 _atom_site_fract_z
 _atom_site_occupancy
  Li  Li0  1  0.89082100  0.45289700  0.38609900  1
  Li  Li1  1  0.39082100  0.54710300  0.11390100  1
  Li  Li2  1  0.67441700  0.20042700  0.65578700  1
  Li  Li3  1  0.17441700  0.79957300  0.84421300  1
  Li  Li4  1  0.82558300  0.20042700  0.15578700  1
  Li  Li5  1  0.32558300  0.79957300  0.34421300  1
  Li  Li6  1  0.60917900  0.45289700  0.88609900  1
  Li  Li7  1  0.10917900  0.54710300  0.61390100  1
  Cr  Cr8  1  0.92833000  0.69665100  0.11635900  1
  Cr  Cr9  1  0.42833000  0.30334900  0.38364100  1
  Cr  Cr10  1  0.17295100  0.10887800  0.59079500  1
  Cr  Cr11  1  0.67295100  0.89112200  0.90920500  1
  Cr  Cr12  1  0.32704900  0.10887800  0.09079500  1
  Cr  Cr13  1  0.82704900  0.89112200  0.40920500  1
  Cr  Cr14  1  0.57167000  0.69665100  0.61635900  1
  Cr  Cr15  1  0.07167000  0.30334900  0.88364100  1
  O  O16  1  0.78756300  0.90613900  0.02978800  1
  O  O17  1  0.99294300  0.77346900  0.21794600  1
  O  O18  1  0.29209100  0.51272200  0.34040200  1
  O  O19  1  0.12073800  0.64546300  0.05404300  1
  O  O20  1  0.59766100  0.12379700  0.83962000  1
  O  O21  1  0.62073800  0.35453700  0.44595700  1
  O  O22  1  0.99151700  0.27914400  0.55709000  1
  O  O23  1  0.79209100  0.48727800  0.15959800  1
  O  O24  1  0.33691700  0.19737400  0.65625000  1
  O  O25  1  0.49294300  0.22653100  0.28205400  1
  O  O26  1  0.28756300  0.09386100  0.47021200  1
  O  O27  1  0.90233900  0.12379700  0.33962000  1
  O  O28  1  0.83691700  0.80262600  0.84375000  1
  O  O29  1  0.50848300  0.27914400  0.05709000  1
  O  O30  1  0.49151700  0.72085600  0.94291000  1
  O  O31  1  0.16308300  0.19737400  0.15625000  1
  O  O32  1  0.09766100  0.87620300  0.66038000  1
  O  O33  1  0.71243700  0.90613900  0.52978800  1
  O  O34  1  0.50705700  0.77346900  0.71794600  1
  O  O35  1  0.66308300  0.80262600  0.34375000  1
  O  O36  1  0.20790900  0.51272200  0.84040200  1
  O  O37  1  0.00848300  0.72085600  0.44291000  1
  O  O38  1  0.37926200  0.64546300  0.55404300  1
  O  O39  1  0.40233900  0.87620300  0.16038000  1
  O  O40  1  0.87926200  0.35453700  0.94595700  1
  O  O41  1  0.70790900  0.48727800  0.65959800  1
  O  O42  1  0.00705700  0.22653100  0.78205400  1
  O  O43  1  0.21243700  0.09386100  0.97021200  1
