# generated using pymatgen
data_Li5La3Nb2O12
_symmetry_space_group_name_H-M   'P 1'
_cell_length_a   11.18866655
_cell_length_b   11.14644962
_cell_length_c   11.16091022
_cell_angle_alpha   109.76778511
_cell_angle_beta   109.50649615
_cell_angle_gamma   109.27468180
_symmetry_Int_Tables_number   1
_chemical_formula_structural   Li5La3Nb2O12
_chemical_formula_sum   'Li20 La12 Nb8 O48'
_cell_volume   1069.69328061
_cell_formula_units_Z   4
loop_
 _symmetry_equiv_pos_site_id
 _symmetry_equiv_pos_as_xyz
  1  'x, y, z'
loop_
 _atom_site_type_symbol
 _atom_site_label
 _atom_site_symmetry_multiplicity
 _atom_site_fract_x
 _atom_site_fract_y
 _atom_site_fract_z
 _atom_site_occupancy
  Li  Li0  1  0.80962520  0.06014416  0.11001335  1
  Li  Li1  1  0.42893358  0.24565316  0.04110898  1
  Li  Li2  1  0.80013253  0.24692368  0.69267836  1
  Li  Li3  1  0.70388819  0.39564029  0.45154851  1
  Li  Li4  1  0.88899546  0.18040241  0.92532562  1
  Li  Li5  1  0.60795418  0.53040290  0.28496719  1
  Li  Li6  1  0.24894900  0.04571293  0.43989379  1
  Li  Li7  1  0.53779220  0.29075213  0.61671831  1
  Li  Li8  1  0.96678879  0.58108799  0.75555909  1
  Li  Li9  1  0.69002736  0.79951974  0.24933437  1
  Li  Li10  1  0.47687789  0.71526550  0.38863389  1
  Li  Li11  1  0.01709454  0.41179849  0.23757079  1
  Li  Li12  1  0.39300254  0.44394660  0.69692131  1
  Li  Li13  1  0.10953905  0.82623757  0.09099443  1
  Li  Li14  1  0.06118013  0.11035804  0.80948937  1
  Li  Li15  1  0.21271581  0.74331815  0.32189618  1
  Li  Li16  1  0.28810823  0.61165122  0.53429569  1
  Li  Li17  1  0.56992570  0.75085283  0.95856476  1
  Li  Li18  1  0.25293980  0.68537758  0.78682530  1
  Li  Li19  1  0.17271509  0.91287642  0.89062217  1
  La  La20  1  0.74970936  0.12421915  0.37480007  1
  La  La21  1  0.37838204  0.12684485  0.25117649  1
  La  La22  1  0.87989155  0.63449726  0.25087935  1
  La  La23  1  0.25000325  0.38017624  0.13000417  1
  La  La24  1  0.62366471  0.25017788  0.88472689  1
  La  La25  1  0.12595515  0.24697708  0.37603335  1
  La  La26  1  0.86804656  0.76039358  0.61591998  1
  La  La27  1  0.36947245  0.74882525  0.11859333  1
  La  La28  1  0.75595258  0.63001376  0.88258718  1
  La  La29  1  0.12580206  0.37284019  0.74823967  1
  La  La30  1  0.62314733  0.87407467  0.74624107  1
  La  La31  1  0.24944036  0.89393842  0.63629374  1
  Nb  Nb32  1  0.50560394  0.00314484  0.00434967  1
  Nb  Nb33  1  0.99934595  0.99973278  0.00472517  1
  Nb  Nb34  1  0.50597242  0.00012715  0.50293632  1
  Nb  Nb35  1  0.49311109  0.49357883  0.99239639  1
  Nb  Nb36  1  0.50212478  0.50017347  0.50445819  1
  Nb  Nb37  1  0.99870541  0.00567040  0.49687373  1
  Nb  Nb38  1  0.99775468  0.49666060  0.99550803  1
  Nb  Nb39  1  0.99363209  0.50070803  0.49409965  1
  O  O40  1  0.90163163  0.02519477  0.32484563  1
  O  O41  1  0.88461886  0.40421690  0.07593687  1
  O  O42  1  0.92553203  0.30573115  0.32734490  1
  O  O43  1  0.97834945  0.67227217  0.09277500  1
  O  O44  1  0.58027940  0.16939838  0.20377134  1
  O  O45  1  0.92401138  0.12460266  0.59631469  1
  O  O46  1  0.60828251  0.41928731  0.09391336  1
  O  O47  1  0.19629525  0.11296427  0.01919498  1
  O  O48  1  0.68727915  0.67489047  0.07555198  1
  O  O49  1  0.59883562  0.17915649  0.48634353  1
  O  O50  1  0.89917756  0.38908359  0.57728258  1
  O  O51  1  0.12364442  0.02834813  0.20230800  1
  O  O52  1  0.67541595  0.08858473  0.70730766  1
  O  O53  1  0.82440816  0.53529697  0.41293776  1
  O  O54  1  0.47587826  0.38252751  0.30025684  1
  O  O55  1  0.42185691  0.09574604  0.61419608  1
  O  O56  1  0.01728546  0.19873748  0.11640306  1
  O  O57  1  0.48016062  0.59591283  0.17844308  1
  O  O58  1  0.82634755  0.79643870  0.40321228  1
  O  O59  1  0.67423167  0.08352929  0.97234661  1
  O  O60  1  0.38738724  0.30017140  0.48056173  1
  O  O61  1  0.80262043  0.41672608  0.82286539  1
  O  O62  1  0.69947370  0.52544694  0.61617591  1
  O  O63  1  0.59349618  0.91378577  0.11443246  1
  O  O64  1  0.29940926  0.47198919  0.38633207  1
  O  O65  1  0.20182656  0.58470658  0.17219534  1
  O  O66  1  0.41493545  0.08843633  0.89279884  1
  O  O67  1  0.32442894  0.90458859  0.02201285  1
  O  O68  1  0.17381377  0.19974314  0.57537965  1
  O  O69  1  0.61155692  0.69456576  0.52178056  1
  O  O70  1  0.57541329  0.90284627  0.37555112  1
  O  O71  1  0.53068399  0.41200063  0.82452773  1
  O  O72  1  0.98356284  0.80331638  0.89274659  1
  O  O73  1  0.52344104  0.61413702  0.70101900  1
  O  O74  1  0.88946351  0.98609859  0.81104715  1
  O  O75  1  0.32058756  0.91799610  0.30379824  1
  O  O76  1  0.17651557  0.48983477  0.59909711  1
  O  O77  1  0.29718344  0.32737605  0.92183443  1
  O  O78  1  0.09213898  0.61434774  0.41261371  1
  O  O79  1  0.40670870  0.81954240  0.51617185  1
  O  O80  1  0.79623180  0.88430653  0.97015367  1
  O  O81  1  0.38301021  0.58173753  0.90013362  1
  O  O82  1  0.02291249  0.32043648  0.90574618  1
  O  O83  1  0.09394803  0.88927844  0.42159568  1
  O  O84  1  0.41428168  0.82667840  0.79792344  1
  O  O85  1  0.08223433  0.70363721  0.68087424  1
  O  O86  1  0.11423689  0.58638965  0.91003195  1
  O  O87  1  0.07777334  0.97016095  0.67230937  1
