# generated using pymatgen
data_Li4MnO3
_symmetry_space_group_name_H-M   'P 1'
_cell_length_a   5.08610209
_cell_length_b   10.24651415
_cell_length_c   6.79569679
_cell_angle_alpha   107.28156650
_cell_angle_beta   90.01304107
_cell_angle_gamma   90.01529180
_symmetry_Int_Tables_number   1
_chemical_formula_structural   Li4MnO3
_chemical_formula_sum   'Li16 Mn4 O12'
_cell_volume   338.16857471
_cell_formula_units_Z   4
loop_
 _symmetry_equiv_pos_site_id
 _symmetry_equiv_pos_as_xyz
  1  'x, y, z'
loop_
 _atom_site_type_symbol
 _atom_site_label
 _atom_site_symmetry_multiplicity
 _atom_site_fract_x
 _atom_site_fract_y
 _atom_site_fract_z
 _atom_site_occupancy
  Li  Li0  1  0.35315300  0.38038600  0.30306900  1
  Li  Li1  1  0.85313400  0.88038600  0.80307800  1
  Li  Li2  1  0.64586200  0.38026100  0.80223700  1
  Li  Li3  1  0.14585300  0.88026000  0.30223000  1
  Li  Li4  1  0.15860400  0.27571000  0.91574500  1
  Li  Li5  1  0.65859100  0.77570300  0.41577100  1
  Li  Li6  1  0.84093400  0.27546600  0.41570400  1
  Li  Li7  1  0.34092200  0.77547200  0.91567800  1
  Li  Li8  1  0.71724600  0.20597900  0.03592900  1
  Li  Li9  1  0.21725700  0.70600700  0.53597600  1
  Li  Li10  1  0.28195900  0.20564800  0.53603900  1
  Li  Li11  1  0.78196500  0.70561900  0.03599400  1
  Li  Li12  1  0.84880900  0.13630500  0.66938300  1
  Li  Li13  1  0.34884200  0.63628200  0.16934000  1
  Li  Li14  1  0.15020100  0.13666000  0.16954900  1
  Li  Li15  1  0.65022700  0.63667700  0.66957900  1
  Mn  Mn16  1  0.85071300  0.51590700  0.25672600  1
  Mn  Mn17  1  0.64817700  0.01599500  0.25596200  1
  Mn  Mn18  1  0.35059000  0.01590100  0.75666100  1
  Mn  Mn19  1  0.14825200  0.51597900  0.75588500  1
  O  O20  1  0.00598400  0.33268700  0.19119900  1
  O  O21  1  0.50596300  0.83270500  0.69123300  1
  O  O22  1  0.99342200  0.33261900  0.69106900  1
  O  O23  1  0.49341600  0.83261000  0.19102700  1
  O  O24  1  0.49680400  0.20305400  0.78595600  1
  O  O25  1  0.99682300  0.70303600  0.28595700  1
  O  O26  1  0.50240000  0.20325700  0.28613800  1
  O  O27  1  0.00240900  0.70326800  0.78612700  1
  O  O28  1  0.99292800  0.06239100  0.89183500  1
  O  O29  1  0.49297200  0.56241600  0.39190900  1
  O  O30  1  0.00595200  0.06228600  0.39155100  1
  O  O31  1  0.50595300  0.56226000  0.89146000  1
