# generated using pymatgen
data_Li3LaNiO4
_symmetry_space_group_name_H-M   'P 1'
_cell_length_a   5.88309300
_cell_length_b   7.41277950
_cell_length_c   9.79225804
_cell_angle_alpha   85.03308776
_cell_angle_beta   76.98285965
_cell_angle_gamma   79.73994008
_symmetry_Int_Tables_number   1
_chemical_formula_structural   Li3LaNiO4
_chemical_formula_sum   'Li12 La4 Ni4 O16'
_cell_volume   408.93309094
_cell_formula_units_Z   4
loop_
 _symmetry_equiv_pos_site_id
 _symmetry_equiv_pos_as_xyz
  1  'x, y, z'
loop_
 _atom_site_type_symbol
 _atom_site_label
 _atom_site_symmetry_multiplicity
 _atom_site_fract_x
 _atom_site_fract_y
 _atom_site_fract_z
 _atom_site_occupancy
  Li  Li0  1  0.97276900  0.80487700  0.12470200  1
  Li  Li1  1  0.31979500  0.06124800  0.09788900  1
  Li  Li2  1  0.04032100  0.45044200  0.12878600  1
  Li  Li3  1  0.97089200  0.05428400  0.37568100  1
  Li  Li4  1  0.67721700  0.43388500  0.40246500  1
  Li  Li5  1  0.32412000  0.31603100  0.34684600  1
  Li  Li6  1  0.67588000  0.68396900  0.65315400  1
  Li  Li7  1  0.32278300  0.56611500  0.59753500  1
  Li  Li8  1  0.02910800  0.94571600  0.62431900  1
  Li  Li9  1  0.95967900  0.54955800  0.87121400  1
  Li  Li10  1  0.68020500  0.93875100  0.90211100  1
  Li  Li11  1  0.02723100  0.19512300  0.87529800  1
  La  La12  1  0.52000300  0.62773300  0.12279800  1
  La  La13  1  0.50525600  0.87755700  0.37583400  1
  La  La14  1  0.49474400  0.12244300  0.62416600  1
  La  La15  1  0.47999700  0.37226700  0.87720200  1
  Ni  Ni16  1  0.68581800  0.18628900  0.15034000  1
  Ni  Ni17  1  0.03720400  0.69394400  0.37657500  1
  Ni  Ni18  1  0.96279600  0.30605600  0.62342500  1
  Ni  Ni19  1  0.31418200  0.81371100  0.84966000  1
  O  O20  1  0.83021200  0.36473400  0.01951400  1
  O  O21  1  0.65616300  0.93350900  0.11246700  1
  O  O22  1  0.82146900  0.61674600  0.27068100  1
  O  O23  1  0.35881800  0.31967700  0.13554700  1
  O  O24  1  0.65696000  0.17817600  0.35639100  1
  O  O25  1  0.18467700  0.87931600  0.23523700  1
  O  O26  1  0.82055700  0.85948500  0.51561800  1
  O  O27  1  0.34850300  0.56744500  0.39164800  1
  O  O28  1  0.65149700  0.43255500  0.60835200  1
  O  O29  1  0.17944300  0.14051500  0.48438200  1
  O  O30  1  0.81532300  0.12068400  0.76476300  1
  O  O31  1  0.34304000  0.82182400  0.64360900  1
  O  O32  1  0.64118200  0.68032300  0.86445300  1
  O  O33  1  0.17853100  0.38325400  0.72931900  1
  O  O34  1  0.34383700  0.06649100  0.88753300  1
  O  O35  1  0.16978800  0.63526600  0.98048600  1
