# generated using pymatgen
data_Li5Fe5(PO4)6
_symmetry_space_group_name_H-M   'P 1'
_cell_length_a   8.46160100
_cell_length_b   8.58256555
_cell_length_c   8.58730763
_cell_angle_alpha   61.74094754
_cell_angle_beta   62.29440563
_cell_angle_gamma   62.20968912
_symmetry_Int_Tables_number   1
_chemical_formula_structural   Li5Fe5(PO4)6
_chemical_formula_sum   'Li5 Fe5 P6 O24'
_cell_volume   461.46971083
_cell_formula_units_Z   1
loop_
 _symmetry_equiv_pos_site_id
 _symmetry_equiv_pos_as_xyz
  1  'x, y, z'
loop_
 _atom_site_type_symbol
 _atom_site_label
 _atom_site_symmetry_multiplicity
 _atom_site_fract_x
 _atom_site_fract_y
 _atom_site_fract_z
 _atom_site_occupancy
  Li  Li0  1  0.84511600  0.84001300  0.84317000  1
  Li  Li1  1  0.75325400  0.13976400  0.35689400  1
  Li  Li2  1  0.19379200  0.85323500  0.67015000  1
  Li  Li3  1  0.66787700  0.19015500  0.85889100  1
  Li  Li4  1  0.85718600  0.66502600  0.19123900  1
  Fe  Fe5  1  0.00557200  0.99923500  0.99475000  1
  Fe  Fe6  1  0.35446900  0.35771200  0.35415800  1
  Fe  Fe7  1  0.49127600  0.50381400  0.50011000  1
  Fe  Fe8  1  0.14579600  0.14644500  0.14124500  1
  Fe  Fe9  1  0.64707900  0.65088300  0.65498200  1
  P  P10  1  0.05400300  0.75060600  0.45271100  1
  P  P11  1  0.44962300  0.05209900  0.75629700  1
  P  P12  1  0.75282500  0.45219600  0.05275000  1
  P  P13  1  0.25493300  0.54075300  0.95822700  1
  P  P14  1  0.54931300  0.96152500  0.25673700  1
  P  P15  1  0.94966400  0.25294600  0.53756200  1
  O  O16  1  0.48888500  0.89001500  0.69592900  1
  O  O17  1  0.69124000  0.49132800  0.89134400  1
  O  O18  1  0.88990600  0.68629800  0.49707600  1
  O  O19  1  0.05011100  0.91453700  0.26169800  1
  O  O20  1  0.03223100  0.81082200  0.60320500  1
  O  O21  1  0.24949600  0.59397600  0.42333800  1
  O  O22  1  0.25143100  0.06672600  0.90921300  1
  O  O23  1  0.43733700  0.24208900  0.58917700  1
  O  O24  1  0.18673400  0.38621100  0.99549900  1
  O  O25  1  0.59851600  0.42062500  0.25171800  1
  O  O26  1  0.09547400  0.73201400  0.95551200  1
  O  O27  1  0.37880300  0.01512900  0.20147300  1
  O  O28  1  0.60287400  0.02532600  0.81978800  1
  O  O29  1  0.90195800  0.25037900  0.07323300  1
  O  O30  1  0.40117900  0.57556400  0.75439100  1
  O  O31  1  0.81575500  0.60288600  0.02727700  1
  O  O32  1  0.57149100  0.75933000  0.40554100  1
  O  O33  1  0.73937300  0.94934800  0.09294900  1
  O  O34  1  0.74782000  0.40292700  0.57773500  1
  O  O35  1  0.96170000  0.19254900  0.38809300  1
  O  O36  1  0.95680200  0.09353200  0.72798500  1
  O  O37  1  0.10959700  0.32923000  0.46694900  1
  O  O38  1  0.34298200  0.48448600  0.10379700  1
  O  O39  1  0.52652500  0.10526600  0.33020600  1
