# generated using pymatgen
data_Li3Ni(BO3)2
_symmetry_space_group_name_H-M   'P 1'
_cell_length_a   8.82893500
_cell_length_b   5.24363000
_cell_length_c   10.49582548
_cell_angle_alpha   62.40330985
_cell_angle_beta   90.00000000
_cell_angle_gamma   90.00000000
_symmetry_Int_Tables_number   1
_chemical_formula_structural   Li3Ni(BO3)2
_chemical_formula_sum   'Li12 Ni4 B8 O24'
_cell_volume   430.62929869
_cell_formula_units_Z   4
loop_
 _symmetry_equiv_pos_site_id
 _symmetry_equiv_pos_as_xyz
  1  'x, y, z'
loop_
 _atom_site_type_symbol
 _atom_site_label
 _atom_site_symmetry_multiplicity
 _atom_site_fract_x
 _atom_site_fract_y
 _atom_site_fract_z
 _atom_site_occupancy
  Li  Li0  1  0.97879100  0.50388000  0.34103300  1
  Li  Li1  1  0.65974600  0.45576700  0.37669500  1
  Li  Li2  1  0.99138500  0.93279400  0.88984800  1
  Li  Li3  1  0.15974600  0.54423300  0.12330500  1
  Li  Li4  1  0.49138500  0.06720600  0.61015200  1
  Li  Li5  1  0.47879100  0.49612000  0.15896700  1
  Li  Li6  1  0.52120900  0.50388000  0.84103300  1
  Li  Li7  1  0.50861500  0.93279400  0.38984800  1
  Li  Li8  1  0.84025400  0.45576700  0.87669500  1
  Li  Li9  1  0.00861500  0.06720600  0.11015200  1
  Li  Li10  1  0.34025400  0.54423300  0.62330500  1
  Li  Li11  1  0.02120900  0.49612000  0.65896700  1
  Ni  Ni12  1  0.31105900  0.98220200  0.87498600  1
  Ni  Ni13  1  0.81105900  0.01779800  0.62501400  1
  Ni  Ni14  1  0.18894100  0.98220200  0.37498600  1
  Ni  Ni15  1  0.68894100  0.01779800  0.12501400  1
  B  B16  1  0.31874200  0.44557500  0.37983500  1
  B  B17  1  0.65688900  0.96747200  0.86926200  1
  B  B18  1  0.81874200  0.55442500  0.12016500  1
  B  B19  1  0.15688900  0.03252800  0.63073800  1
  B  B20  1  0.84311100  0.96747200  0.36926200  1
  B  B21  1  0.18125800  0.44557500  0.87983500  1
  B  B22  1  0.34311100  0.03252800  0.13073800  1
  B  B23  1  0.68125800  0.55442500  0.62016500  1
  O  O24  1  0.32613800  0.83087800  0.07857600  1
  O  O25  1  0.67345400  0.32109200  0.59297800  1
  O  O26  1  0.94844800  0.69971000  0.11637900  1
  O  O27  1  0.02219800  0.13932200  0.64516600  1
  O  O28  1  0.28967100  0.12323300  0.67327800  1
  O  O29  1  0.67797100  0.63200900  0.15123500  1
  O  O30  1  0.17797100  0.36799100  0.34876500  1
  O  O31  1  0.78967100  0.87676700  0.82672200  1
  O  O32  1  0.52219800  0.86067800  0.85483400  1
  O  O33  1  0.44844800  0.30029000  0.38362100  1
  O  O34  1  0.82613800  0.16912200  0.42142400  1
  O  O35  1  0.17345400  0.67890800  0.90702200  1
  O  O36  1  0.82654600  0.32109200  0.09297800  1
  O  O37  1  0.17386200  0.83087800  0.57857600  1
  O  O38  1  0.55155200  0.69971000  0.61637900  1
  O  O39  1  0.47780200  0.13932200  0.14516600  1
  O  O40  1  0.21032900  0.12323300  0.17327800  1
  O  O41  1  0.82202900  0.63200900  0.65123500  1
  O  O42  1  0.32202900  0.36799100  0.84876500  1
  O  O43  1  0.71032900  0.87676700  0.32672200  1
  O  O44  1  0.97780200  0.86067800  0.35483400  1
  O  O45  1  0.05155200  0.30029000  0.88362100  1
  O  O46  1  0.32654600  0.67890800  0.40702200  1
  O  O47  1  0.67386200  0.16912200  0.92142400  1
