# generated using pymatgen
data_Li4Cr5(P3O11)2
_symmetry_space_group_name_H-M   'P 1'
_cell_length_a   6.91336200
_cell_length_b   10.91090100
_cell_length_c   12.63548696
_cell_angle_alpha   74.93691419
_cell_angle_beta   90.00000000
_cell_angle_gamma   90.00000000
_symmetry_Int_Tables_number   1
_chemical_formula_structural   Li4Cr5(P3O11)2
_chemical_formula_sum   'Li8 Cr10 P12 O44'
_cell_volume   920.35900238
_cell_formula_units_Z   2
loop_
 _symmetry_equiv_pos_site_id
 _symmetry_equiv_pos_as_xyz
  1  'x, y, z'
loop_
 _atom_site_type_symbol
 _atom_site_label
 _atom_site_symmetry_multiplicity
 _atom_site_fract_x
 _atom_site_fract_y
 _atom_site_fract_z
 _atom_site_occupancy
  Li  Li0  1  0.83153500  0.44788100  0.18513500  1
  Li  Li1  1  0.66846500  0.94788100  0.18513500  1
  Li  Li2  1  0.48690200  0.10335900  0.32878500  1
  Li  Li3  1  0.01309800  0.60335900  0.32878500  1
  Li  Li4  1  0.98690200  0.39664100  0.67121500  1
  Li  Li5  1  0.51309800  0.89664100  0.67121500  1
  Li  Li6  1  0.33153500  0.05211900  0.81486500  1
  Li  Li7  1  0.16846500  0.55211900  0.81486500  1
  Cr  Cr8  1  0.50000000  0.50000000  0.00000000  1
  Cr  Cr9  1  0.24683700  0.21303900  0.12673500  1
  Cr  Cr10  1  0.00000000  0.00000000  0.00000000  1
  Cr  Cr11  1  0.25316300  0.71303900  0.12673500  1
  Cr  Cr12  1  0.01731300  0.20653400  0.33861500  1
  Cr  Cr13  1  0.48268700  0.70653400  0.33861500  1
  Cr  Cr14  1  0.51731300  0.29346600  0.66138500  1
  Cr  Cr15  1  0.98268700  0.79346600  0.66138500  1
  Cr  Cr16  1  0.74683700  0.28696100  0.87326500  1
  Cr  Cr17  1  0.75316300  0.78696100  0.87326500  1
  P  P18  1  0.73773800  0.22998900  0.09870400  1
  P  P19  1  0.76226200  0.72998900  0.09870400  1
  P  P20  1  0.38555600  0.42807800  0.26249100  1
  P  P21  1  0.11444400  0.92807800  0.26249100  1
  P  P22  1  0.70437600  0.43085300  0.41716300  1
  P  P23  1  0.79562400  0.93085300  0.41716300  1
  P  P24  1  0.20437600  0.06914700  0.58283700  1
  P  P25  1  0.29562400  0.56914700  0.58283700  1
  P  P26  1  0.88555600  0.07192200  0.73750900  1
  P  P27  1  0.61444400  0.57192200  0.73750900  1
  P  P28  1  0.23773800  0.27001100  0.90129600  1
  P  P29  1  0.26226200  0.77001100  0.90129600  1
  O  O30  1  0.78126200  0.14512700  0.01870800  1
  O  O31  1  0.69713500  0.35952800  0.00964600  1
  O  O32  1  0.71873800  0.64512700  0.01870800  1
  O  O33  1  0.80286500  0.85952800  0.00964600  1
  O  O34  1  0.56885800  0.16985900  0.17246100  1
  O  O35  1  0.90841900  0.25786500  0.16895000  1
  O  O36  1  0.54234500  0.45412000  0.17480600  1
  O  O37  1  0.23308100  0.04797400  0.26018700  1
  O  O38  1  0.93114200  0.66985900  0.17246100  1
  O  O39  1  0.59158100  0.75786500  0.16895000  1
  O  O40  1  0.25516600  0.31587500  0.25474000  1
  O  O41  1  0.95765500  0.95412000  0.17480600  1
  O  O42  1  0.26691900  0.54797400  0.26018700  1
  O  O43  1  0.79783000  0.07670000  0.39308100  1
  O  O44  1  0.24483400  0.81587500  0.25474000  1
  O  O45  1  0.86495700  0.39418000  0.34728100  1
  O  O46  1  0.49380000  0.38339800  0.37952400  1
  O  O47  1  0.21846600  0.13758700  0.46190000  1
  O  O48  1  0.70217000  0.57670000  0.39308100  1
  O  O49  1  0.63504300  0.89418000  0.34728100  1
  O  O50  1  0.00620000  0.88339800  0.37952400  1
  O  O51  1  0.28153400  0.63758700  0.46190000  1
  O  O52  1  0.71846600  0.36241300  0.53810000  1
  O  O53  1  0.99380000  0.11660200  0.62047600  1
  O  O54  1  0.36495700  0.10582000  0.65271900  1
  O  O55  1  0.29783000  0.42330000  0.60691900  1
  O  O56  1  0.78153400  0.86241300  0.53810000  1
  O  O57  1  0.50620000  0.61660200  0.62047600  1
  O  O58  1  0.13504300  0.60582000  0.65271900  1
  O  O59  1  0.75516600  0.18412500  0.74526000  1
  O  O60  1  0.20217000  0.92330000  0.60691900  1
  O  O61  1  0.73308100  0.45202600  0.73981300  1
  O  O62  1  0.04234500  0.04588000  0.82519400  1
  O  O63  1  0.74483400  0.68412500  0.74526000  1
  O  O64  1  0.40841900  0.24213500  0.83105000  1
  O  O65  1  0.06885800  0.33014100  0.82753900  1
  O  O66  1  0.76691900  0.95202600  0.73981300  1
  O  O67  1  0.45765500  0.54588000  0.82519400  1
  O  O68  1  0.09158100  0.74213500  0.83105000  1
  O  O69  1  0.43114200  0.83014100  0.82753900  1
  O  O70  1  0.19713500  0.14047200  0.99035400  1
  O  O71  1  0.28126200  0.35487300  0.98129200  1
  O  O72  1  0.30286500  0.64047200  0.99035400  1
  O  O73  1  0.21873800  0.85487300  0.98129200  1
