# generated using pymatgen
data_Li5Cr3NiO8
_symmetry_space_group_name_H-M   'P 1'
_cell_length_a   8.48384300
_cell_length_b   8.48384300
_cell_length_c   8.48384300
_cell_angle_alpha   90.00000000
_cell_angle_beta   90.00000000
_cell_angle_gamma   90.00000000
_symmetry_Int_Tables_number   1
_chemical_formula_structural   Li5Cr3NiO8
_chemical_formula_sum   'Li20 Cr12 Ni4 O32'
_cell_volume   610.62962277
_cell_formula_units_Z   4
loop_
 _symmetry_equiv_pos_site_id
 _symmetry_equiv_pos_as_xyz
  1  'x, y, z'
loop_
 _atom_site_type_symbol
 _atom_site_label
 _atom_site_symmetry_multiplicity
 _atom_site_fract_x
 _atom_site_fract_y
 _atom_site_fract_z
 _atom_site_occupancy
  Li  Li0  1  0.63857900  0.87500000  0.88857900  1
  Li  Li1  1  0.62500000  0.11142100  0.13857900  1
  Li  Li2  1  0.61142100  0.36142100  0.37500000  1
  Li  Li3  1  0.80676300  0.30676300  0.19323700  1
  Li  Li4  1  0.69323700  0.69323700  0.69323700  1
  Li  Li5  1  0.88857900  0.63857900  0.87500000  1
  Li  Li6  1  0.87500000  0.88857900  0.63857900  1
  Li  Li7  1  0.86142100  0.12500000  0.38857900  1
  Li  Li8  1  0.05676300  0.94323700  0.44323700  1
  Li  Li9  1  0.94323700  0.44323700  0.05676300  1
  Li  Li10  1  0.13857900  0.62500000  0.11142100  1
  Li  Li11  1  0.12500000  0.38857900  0.86142100  1
  Li  Li12  1  0.11142100  0.13857900  0.62500000  1
  Li  Li13  1  0.30676300  0.19323700  0.80676300  1
  Li  Li14  1  0.19323700  0.80676300  0.30676300  1
  Li  Li15  1  0.38857900  0.86142100  0.12500000  1
  Li  Li16  1  0.37500000  0.61142100  0.36142100  1
  Li  Li17  1  0.36142100  0.37500000  0.61142100  1
  Li  Li18  1  0.55676300  0.55676300  0.55676300  1
  Li  Li19  1  0.44323700  0.05676300  0.94323700  1
  Cr  Cr20  1  0.62500000  0.87272300  0.37727700  1
  Cr  Cr21  1  0.62727700  0.62272300  0.12500000  1
  Cr  Cr22  1  0.62272300  0.12500000  0.62727700  1
  Cr  Cr23  1  0.87727700  0.87500000  0.12727700  1
  Cr  Cr24  1  0.87500000  0.12727700  0.87727700  1
  Cr  Cr25  1  0.87272300  0.37727700  0.62500000  1
  Cr  Cr26  1  0.12727700  0.87727700  0.87500000  1
  Cr  Cr27  1  0.12500000  0.62727700  0.62272300  1
  Cr  Cr28  1  0.12272300  0.37500000  0.37272300  1
  Cr  Cr29  1  0.37272300  0.12272300  0.37500000  1
  Cr  Cr30  1  0.37727700  0.62500000  0.87272300  1
  Cr  Cr31  1  0.37500000  0.37272300  0.12272300  1
  Ni  Ni32  1  0.62500000  0.37500000  0.87500000  1
  Ni  Ni33  1  0.87500000  0.62500000  0.37500000  1
  Ni  Ni34  1  0.12500000  0.12500000  0.12500000  1
  Ni  Ni35  1  0.37500000  0.87500000  0.62500000  1
  O  O36  1  0.61664200  0.62588800  0.88557700  1
  O  O37  1  0.61442300  0.38335800  0.12588800  1
  O  O38  1  0.61637100  0.11637100  0.38362900  1
  O  O39  1  0.62588800  0.88557700  0.61664200  1
  O  O40  1  0.62411200  0.63335800  0.36442300  1
  O  O41  1  0.63335800  0.36442300  0.62411200  1
  O  O42  1  0.63362900  0.86637100  0.13362900  1
  O  O43  1  0.63557700  0.12411200  0.86664200  1
  O  O44  1  0.86664200  0.63557700  0.12411200  1
  O  O45  1  0.86442300  0.87588800  0.36664200  1
  O  O46  1  0.86637100  0.13362900  0.63362900  1
  O  O47  1  0.87588800  0.36664200  0.86442300  1
  O  O48  1  0.87411200  0.11442300  0.11664200  1
  O  O49  1  0.88362900  0.88362900  0.88362900  1
  O  O50  1  0.88335800  0.37411200  0.38557700  1
  O  O51  1  0.88557700  0.61664200  0.62588800  1
  O  O52  1  0.11664200  0.87411200  0.11442300  1
  O  O53  1  0.11442300  0.11664200  0.87411200  1
  O  O54  1  0.11637100  0.38362900  0.61637100  1
  O  O55  1  0.12588800  0.61442300  0.38335800  1
  O  O56  1  0.12411200  0.86664200  0.63557700  1
  O  O57  1  0.13335800  0.13557700  0.37588800  1
  O  O58  1  0.13362900  0.63362900  0.86637100  1
  O  O59  1  0.13557700  0.37588800  0.13335800  1
  O  O60  1  0.36664200  0.86442300  0.87588800  1
  O  O61  1  0.36442300  0.62411200  0.63335800  1
  O  O62  1  0.36637100  0.36637100  0.36637100  1
  O  O63  1  0.37588800  0.13335800  0.13557700  1
  O  O64  1  0.37411200  0.38557700  0.88335800  1
  O  O65  1  0.38335800  0.12588800  0.61442300  1
  O  O66  1  0.38362900  0.61637100  0.11637100  1
  O  O67  1  0.38557700  0.88335800  0.37411200  1
