# generated using pymatgen
data_LiFePO4
_symmetry_space_group_name_H-M   'P 1'
_cell_length_a   6.29964000
_cell_length_b   10.00911161
_cell_length_c   6.06375819
_cell_angle_alpha   101.40069457
_cell_angle_beta   99.85490219
_cell_angle_gamma   71.39626536
_symmetry_Int_Tables_number   1
_chemical_formula_structural   LiFePO4
_chemical_formula_sum   'Li4 Fe4 P4 O16'
_cell_volume   352.80231883
_cell_formula_units_Z   4
loop_
 _symmetry_equiv_pos_site_id
 _symmetry_equiv_pos_as_xyz
  1  'x, y, z'
loop_
 _atom_site_type_symbol
 _atom_site_label
 _atom_site_symmetry_multiplicity
 _atom_site_fract_x
 _atom_site_fract_y
 _atom_site_fract_z
 _atom_site_occupancy
  Li  Li0  1  0.23106208  0.74021142  0.00021509  1
  Li  Li1  1  0.32783639  0.01297480  0.82531003  1
  Li  Li2  1  0.67216361  0.98702520  0.17468997  1
  Li  Li3  1  0.76893792  0.25978858  0.99978491  1
  Fe  Fe4  1  0.23129169  0.32222190  0.62687643  1
  Fe  Fe5  1  0.23869704  0.74222163  0.50104488  1
  Fe  Fe6  1  0.76130296  0.25777837  0.49895512  1
  Fe  Fe7  1  0.76870831  0.67777810  0.37312357  1
  P  P8  1  0.32262517  0.43593880  0.19150240  1
  P  P9  1  0.18554573  0.04553744  0.30467358  1
  P  P10  1  0.81445427  0.95446256  0.69532642  1
  P  P11  1  0.67737483  0.56406120  0.80849760  1
  O  O12  1  0.24587443  0.11437787  0.55645684  1
  O  O13  1  0.18502537  0.40678628  0.35659690  1
  O  O14  1  0.25919271  0.37132092  0.94763346  1
  O  O15  1  0.07367656  0.87861716  0.75962335  1
  O  O16  1  0.33208215  0.06763682  0.14698364  1
  O  O17  1  0.26806860  0.60111028  0.21119722  1
  O  O18  1  0.21860443  0.88380841  0.29565816  1
  O  O19  1  0.41891917  0.63014619  0.74519165  1
  O  O20  1  0.58108083  0.36985381  0.25480835  1
  O  O21  1  0.78139557  0.11619159  0.70434184  1
  O  O22  1  0.73193140  0.39888972  0.78880278  1
  O  O23  1  0.66791785  0.93236318  0.85301636  1
  O  O24  1  0.92632344  0.12138284  0.24037665  1
  O  O25  1  0.74080729  0.62867908  0.05236654  1
  O  O26  1  0.81497463  0.59321372  0.64340310  1
  O  O27  1  0.75412557  0.88562213  0.44354316  1
