# generated using pymatgen
data_Li3Fe4(BO3)4
_symmetry_space_group_name_H-M   'P 1'
_cell_length_a   5.23972100
_cell_length_b   9.02723822
_cell_length_c   10.25711474
_cell_angle_alpha   90.29004075
_cell_angle_beta   91.50471079
_cell_angle_gamma   90.01276379
_symmetry_Int_Tables_number   1
_chemical_formula_structural   Li3Fe4(BO3)4
_chemical_formula_sum   'Li6 Fe8 B8 O24'
_cell_volume   484.99013385
_cell_formula_units_Z   2
loop_
 _symmetry_equiv_pos_site_id
 _symmetry_equiv_pos_as_xyz
  1  'x, y, z'
loop_
 _atom_site_type_symbol
 _atom_site_label
 _atom_site_symmetry_multiplicity
 _atom_site_fract_x
 _atom_site_fract_y
 _atom_site_fract_z
 _atom_site_occupancy
  Li  Li0  1  0.66433700  0.00891700  0.16737200  1
  Li  Li1  1  0.34096100  0.00565000  0.91120700  1
  Li  Li2  1  0.83687100  0.50092200  0.89830700  1
  Li  Li3  1  0.16326600  0.51126700  0.15654100  1
  Li  Li4  1  0.66015500  0.99108700  0.66251300  1
  Li  Li5  1  0.34116100  0.99545800  0.41542700  1
  Fe  Fe6  1  0.84011500  0.16387800  0.88539100  1
  Fe  Fe7  1  0.15135800  0.17643200  0.63624500  1
  Fe  Fe8  1  0.66335300  0.34397000  0.13181100  1
  Fe  Fe9  1  0.33887000  0.33507900  0.37942800  1
  Fe  Fe10  1  0.66809400  0.66021000  0.63241900  1
  Fe  Fe11  1  0.85214200  0.82240300  0.37815300  1
  Fe  Fe12  1  0.33280400  0.65771400  0.87706800  1
  Fe  Fe13  1  0.15918900  0.84016400  0.12700800  1
  B  B14  1  0.82921700  0.16547300  0.37314700  1
  B  B15  1  0.65870500  0.32931700  0.62833800  1
  B  B16  1  0.16562000  0.16827800  0.12985700  1
  B  B17  1  0.33628500  0.33100800  0.88373900  1
  B  B18  1  0.66448200  0.67073200  0.12359700  1
  B  B19  1  0.34794600  0.66921600  0.37931500  1
  B  B20  1  0.83728600  0.83231600  0.87264300  1
  B  B21  1  0.17714000  0.83591400  0.62927300  1
  O  O22  1  0.70158100  0.03209000  0.36841400  1
  O  O23  1  0.90518100  0.16217000  0.09882300  1
  O  O24  1  0.31557900  0.04354500  0.11441200  1
  O  O25  1  0.77891700  0.19857100  0.66677900  1
  O  O26  1  0.69783400  0.29492700  0.34066400  1
  O  O27  1  0.22555300  0.19559200  0.84521000  1
  O  O28  1  0.08938000  0.17221700  0.40648400  1
  O  O29  1  0.59510000  0.33464600  0.92037900  1
  O  O30  1  0.77434300  0.46324300  0.65100900  1
  O  O31  1  0.41754200  0.32074600  0.56899700  1
  O  O32  1  0.27694400  0.30096800  0.17339500  1
  O  O33  1  0.81228900  0.54507200  0.11030500  1
  O  O34  1  0.19026300  0.45587100  0.88811800  1
  O  O35  1  0.72457900  0.69657300  0.83830400  1
  O  O36  1  0.58568900  0.67780400  0.44098300  1
  O  O37  1  0.23628200  0.53484900  0.34999500  1
  O  O38  1  0.40466400  0.66661300  0.09188100  1
  O  O39  1  0.91347900  0.82674200  0.60399100  1
  O  O40  1  0.77800400  0.80287600  0.16629800  1
  O  O41  1  0.31156900  0.71137500  0.66964200  1
  O  O42  1  0.22378000  0.80041600  0.34384600  1
  O  O43  1  0.69160600  0.95980600  0.86270900  1
  O  O44  1  0.09213800  0.83812200  0.91351200  1
  O  O45  1  0.30251400  0.96854300  0.61009200  1
