# generated using pymatgen
data_LiTi2(PO4)3
_symmetry_space_group_name_H-M   'P 1'
_cell_length_a   8.61742000
_cell_length_b   8.68141377
_cell_length_c   11.99879626
_cell_angle_alpha   89.93975005
_cell_angle_beta   89.51055305
_cell_angle_gamma   89.90974081
_symmetry_Int_Tables_number   1
_chemical_formula_structural   LiTi2(PO4)3
_chemical_formula_sum   'Li4 Ti8 P12 O48'
_cell_volume   897.61226107
_cell_formula_units_Z   4
loop_
 _symmetry_equiv_pos_site_id
 _symmetry_equiv_pos_as_xyz
  1  'x, y, z'
loop_
 _atom_site_type_symbol
 _atom_site_label
 _atom_site_symmetry_multiplicity
 _atom_site_fract_x
 _atom_site_fract_y
 _atom_site_fract_z
 _atom_site_occupancy
  Li  Li0  1  0.29941200  0.72178500  0.68090300  1
  Li  Li1  1  0.20143600  0.22224300  0.82016900  1
  Li  Li2  1  0.07972200  0.29846800  0.23740700  1
  Li  Li3  1  0.06975500  0.91789600  0.29801400  1
  Ti  Ti4  1  0.75234600  0.53111200  0.62087500  1
  Ti  Ti5  1  0.74788600  0.03297800  0.87758700  1
  Ti  Ti6  1  0.74690600  0.46664700  0.11851100  1
  Ti  Ti7  1  0.73998500  0.96775100  0.38303800  1
  Ti  Ti8  1  0.24686100  0.04077000  0.61104400  1
  Ti  Ti9  1  0.25142300  0.54071000  0.89022700  1
  Ti  Ti10  1  0.26333000  0.96579900  0.11143300  1
  Ti  Ti11  1  0.25840100  0.47547000  0.38614100  1
  P  P12  1  0.96407600  0.24935200  0.49209700  1
  P  P13  1  0.89621900  0.38466100  0.85536300  1
  P  P14  1  0.89268700  0.10535900  0.14326100  1
  P  P15  1  0.60314700  0.88345800  0.64625300  1
  P  P16  1  0.61002200  0.60959200  0.35662300  1
  P  P17  1  0.53727100  0.74781300  0.00317900  1
  P  P18  1  0.47040700  0.25336300  0.99401100  1
  P  P19  1  0.39709900  0.39116800  0.64743800  1
  P  P20  1  0.39209500  0.11626900  0.35111700  1
  P  P21  1  0.10349000  0.89244400  0.85451000  1
  P  P22  1  0.10090600  0.61630100  0.14935400  1
  P  P23  1  0.03224000  0.75127700  0.50672400  1
  O  O24  1  0.95121100  0.86519300  0.42808600  1
  O  O25  1  0.92639000  0.89109300  0.85969300  1
  O  O26  1  0.92315500  0.67967200  0.59310600  1
  O  O27  1  0.92753600  0.58356200  0.16326200  1
  O  O28  1  0.89373500  0.37228400  0.56918500  1
  O  O29  1  0.87014700  0.21144500  0.82996600  1
  O  O30  1  0.84741900  0.42287000  0.97507600  1
  O  O31  1  0.84800700  0.99166500  0.23788400  1
  O  O32  1  0.85004600  0.27282500  0.17642700  1
  O  O33  1  0.83537800  0.15545300  0.43736300  1
  O  O34  1  0.82238200  0.05827400  0.03283400  1
  O  O35  1  0.81004000  0.49004600  0.77294500  1
  O  O36  1  0.69094300  0.99071900  0.72620900  1
  O  O37  1  0.67546300  0.55969800  0.46931300  1
  O  O38  1  0.66441500  0.65850400  0.06307100  1
  O  O39  1  0.66303200  0.77394500  0.32764700  1
  O  O40  1  0.65186200  0.92231700  0.52567900  1
  O  O41  1  0.66132700  0.49587500  0.26501700  1
  O  O42  1  0.63022000  0.71104700  0.67120700  1
  O  O43  1  0.60759600  0.87137400  0.92721800  1
  O  O44  1  0.57485200  0.17812000  0.90575300  1
  O  O45  1  0.57418000  0.38911500  0.64206300  1
  O  O46  1  0.56520100  0.08273400  0.33172700  1
  O  O47  1  0.55871400  0.36376700  0.06940900  1
  O  O48  1  0.43886400  0.63762300  0.93026200  1
  O  O49  1  0.42584700  0.91084100  0.66124300  1
  O  O50  1  0.42835700  0.60802200  0.36089500  1
  O  O51  1  0.42624600  0.82106800  0.09143600  1
  O  O52  1  0.39186200  0.13013200  0.07052500  1
  O  O53  1  0.35862300  0.28704900  0.32504600  1
  O  O54  1  0.33827900  0.51222300  0.73296100  1
  O  O55  1  0.34860600  0.08114100  0.47467100  1
  O  O56  1  0.33226700  0.23111300  0.68202000  1
  O  O57  1  0.33425600  0.33500400  0.93259600  1
  O  O58  1  0.32631000  0.43648500  0.53345500  1
  O  O59  1  0.29258900  0.00810300  0.27751500  1
  O  O60  1  0.18772400  0.50102900  0.22584000  1
  O  O61  1  0.17452900  0.93827500  0.96829600  1
  O  O62  1  0.16616400  0.83394800  0.57036300  1
  O  O63  1  0.16757300  0.73209200  0.81968500  1
  O  O64  1  0.16177500  0.01319700  0.76853200  1
  O  O65  1  0.15347600  0.58507300  0.02697900  1
  O  O66  1  0.13456900  0.78593700  0.17795700  1
  O  O67  1  0.11255400  0.62870000  0.43136900  1
  O  O68  1  0.07438700  0.41105900  0.84010900  1
  O  O69  1  0.07053300  0.31843400  0.40039400  1
  O  O70  1  0.07506800  0.10502400  0.14378700  1
  O  O71  1  0.06417200  0.14014800  0.56674900  1
