# generated using pymatgen
data_LiVPH2O5
_symmetry_space_group_name_H-M   'P 1'
_cell_length_a   5.21707300
_cell_length_b   10.61094600
_cell_length_c   16.47620500
_cell_angle_alpha   90.00000000
_cell_angle_beta   90.00000000
_cell_angle_gamma   90.00000000
_symmetry_Int_Tables_number   1
_chemical_formula_structural   LiVPH2O5
_chemical_formula_sum   'Li8 V8 P8 H16 O40'
_cell_volume   912.09107253
_cell_formula_units_Z   8
loop_
 _symmetry_equiv_pos_site_id
 _symmetry_equiv_pos_as_xyz
  1  'x, y, z'
loop_
 _atom_site_type_symbol
 _atom_site_label
 _atom_site_symmetry_multiplicity
 _atom_site_fract_x
 _atom_site_fract_y
 _atom_site_fract_z
 _atom_site_occupancy
  Li  Li0  1  0.47356300  0.16732700  0.50088300  1
  Li  Li1  1  0.52643700  0.16732700  0.00088300  1
  Li  Li2  1  0.91678900  0.40645000  0.25179000  1
  Li  Li3  1  0.08321100  0.40645000  0.75179000  1
  Li  Li4  1  0.47356300  0.66732700  0.99911700  1
  Li  Li5  1  0.52643700  0.66732700  0.49911700  1
  Li  Li6  1  0.08321100  0.90645000  0.74821000  1
  Li  Li7  1  0.91678900  0.90645000  0.24821000  1
  V  V8  1  0.40872100  0.14950400  0.68243900  1
  V  V9  1  0.59127900  0.14950400  0.18243900  1
  V  V10  1  0.16075200  0.42144600  0.93359300  1
  V  V11  1  0.83924800  0.42144600  0.43359300  1
  V  V12  1  0.40872100  0.64950400  0.81756100  1
  V  V13  1  0.59127900  0.64950400  0.31756100  1
  V  V14  1  0.16075200  0.92144600  0.56640700  1
  V  V15  1  0.83924800  0.92144600  0.06640700  1
  P  P16  1  0.02303800  0.23677800  0.09574000  1
  P  P17  1  0.97696200  0.23677800  0.59574000  1
  P  P18  1  0.40559400  0.33497300  0.34404200  1
  P  P19  1  0.59440600  0.33497300  0.84404200  1
  P  P20  1  0.02303800  0.73677800  0.40426000  1
  P  P21  1  0.97696200  0.73677800  0.90426000  1
  P  P22  1  0.59440600  0.83497300  0.65595800  1
  P  P23  1  0.40559400  0.83497300  0.15595800  1
  H  H24  1  0.07930900  0.00237800  0.37048200  1
  H  H25  1  0.92069100  0.00237800  0.87048200  1
  H  H26  1  0.62080500  0.05415000  0.38236100  1
  H  H27  1  0.37919500  0.05415000  0.88236100  1
  H  H28  1  0.14010500  0.11126000  0.30834700  1
  H  H29  1  0.85989500  0.11126000  0.80834700  1
  H  H30  1  0.65458600  0.44959600  0.05248400  1
  H  H31  1  0.34541400  0.44959600  0.55248400  1
  H  H32  1  0.07930900  0.50237800  0.12951800  1
  H  H33  1  0.92069100  0.50237800  0.62951800  1
  H  H34  1  0.62080500  0.55415000  0.11763900  1
  H  H35  1  0.37919500  0.55415000  0.61763900  1
  H  H36  1  0.14010500  0.61126000  0.19165300  1
  H  H37  1  0.85989500  0.61126000  0.69165300  1
  H  H38  1  0.65458600  0.94959600  0.44751600  1
  H  H39  1  0.34541400  0.94959600  0.94751600  1
  O  O40  1  0.53897800  0.01852600  0.43099700  1
  O  O41  1  0.46102200  0.01852600  0.93099700  1
  O  O42  1  0.01157400  0.04550500  0.32217400  1
  O  O43  1  0.98842600  0.04550500  0.82217400  1
  O  O44  1  0.83989900  0.12622000  0.06629300  1
  O  O45  1  0.16010100  0.12622000  0.56629300  1
  O  O46  1  0.30235300  0.19027900  0.09623800  1
  O  O47  1  0.69764700  0.19027900  0.59623800  1
  O  O48  1  0.57752000  0.21641500  0.79053200  1
  O  O49  1  0.42248000  0.21641500  0.29053200  1
  O  O50  1  0.91903600  0.26643300  0.18237600  1
  O  O51  1  0.08096400  0.26643300  0.68237600  1
  O  O52  1  0.48869000  0.30521800  0.93076400  1
  O  O53  1  0.51131000  0.30521800  0.43076400  1
  O  O54  1  0.98874200  0.35450900  0.04171000  1
  O  O55  1  0.01125800  0.35450900  0.54171000  1
  O  O56  1  0.12835900  0.38385900  0.34791300  1
  O  O57  1  0.87164100  0.38385900  0.84791300  1
  O  O58  1  0.58965600  0.44358600  0.31258100  1
  O  O59  1  0.41034400  0.44358600  0.81258100  1
  O  O60  1  0.46102200  0.51852600  0.56900300  1
  O  O61  1  0.53897800  0.51852600  0.06900300  1
  O  O62  1  0.01157400  0.54550500  0.17782600  1
  O  O63  1  0.98842600  0.54550500  0.67782600  1
  O  O64  1  0.16010100  0.62622000  0.93370700  1
  O  O65  1  0.83989900  0.62622000  0.43370700  1
  O  O66  1  0.30235300  0.69027900  0.40376200  1
  O  O67  1  0.69764700  0.69027900  0.90376200  1
  O  O68  1  0.42248000  0.71641500  0.20946800  1
  O  O69  1  0.57752000  0.71641500  0.70946800  1
  O  O70  1  0.91903600  0.76643300  0.31762400  1
  O  O71  1  0.08096400  0.76643300  0.81762400  1
  O  O72  1  0.48869000  0.80521800  0.56923600  1
  O  O73  1  0.51131000  0.80521800  0.06923600  1
  O  O74  1  0.98874200  0.85450900  0.45829000  1
  O  O75  1  0.01125800  0.85450900  0.95829000  1
  O  O76  1  0.87164100  0.88385900  0.65208700  1
  O  O77  1  0.12835900  0.88385900  0.15208700  1
  O  O78  1  0.41034400  0.94358600  0.68741900  1
  O  O79  1  0.58965600  0.94358600  0.18741900  1
