# generated using pymatgen
data_Li4V2Ni3Sn3O16
_symmetry_space_group_name_H-M   'P 1'
_cell_length_a   6.09313302
_cell_length_b   6.09313302
_cell_length_c   9.61041927
_cell_angle_alpha   89.87949648
_cell_angle_beta   89.87949648
_cell_angle_gamma   59.75830570
_symmetry_Int_Tables_number   1
_chemical_formula_structural   Li4V2Ni3Sn3O16
_chemical_formula_sum   'Li4 V2 Ni3 Sn3 O16'
_cell_volume   308.24080849
_cell_formula_units_Z   1
loop_
 _symmetry_equiv_pos_site_id
 _symmetry_equiv_pos_as_xyz
  1  'x, y, z'
loop_
 _atom_site_type_symbol
 _atom_site_label
 _atom_site_symmetry_multiplicity
 _atom_site_fract_x
 _atom_site_fract_y
 _atom_site_fract_z
 _atom_site_occupancy
  Li  Li0  1  0.68109600  0.68109600  0.89927400  1
  Li  Li1  1  0.98246800  0.98246800  0.98355600  1
  Li  Li2  1  0.99021200  0.99021200  0.50023700  1
  Li  Li3  1  0.33206900  0.33206900  0.40517700  1
  V  V4  1  0.67541500  0.67541500  0.49907300  1
  V  V5  1  0.35920600  0.35920600  0.97432700  1
  Ni  Ni6  1  0.82552600  0.82552600  0.21656700  1
  Ni  Ni7  1  0.66020600  0.17549800  0.71075000  1
  Ni  Ni8  1  0.17549800  0.66020600  0.71075000  1
  Sn  Sn9  1  0.83175200  0.33767900  0.21511200  1
  Sn  Sn10  1  0.33767900  0.83175200  0.21511200  1
  Sn  Sn11  1  0.17477100  0.17477100  0.71619000  1
  O  O12  1  0.82562700  0.35534800  0.58682000  1
  O  O13  1  0.51272900  0.51272900  0.34374400  1
  O  O14  1  0.66654500  0.66654500  0.09982300  1
  O  O15  1  0.99156500  0.99156500  0.31240900  1
  O  O16  1  0.99975300  0.99975300  0.79594300  1
  O  O17  1  0.35534800  0.82562700  0.58682000  1
  O  O18  1  0.95098800  0.51964100  0.35365500  1
  O  O19  1  0.51964100  0.95098800  0.35365500  1
  O  O20  1  0.15465400  0.15465400  0.09203500  1
  O  O21  1  0.81877600  0.81877600  0.58862700  1
  O  O22  1  0.48090500  0.05160300  0.85532200  1
  O  O23  1  0.05160300  0.48090500  0.85532200  1
  O  O24  1  0.33641400  0.33641400  0.60596600  1
  O  O25  1  0.64406100  0.17856800  0.08740500  1
  O  O26  1  0.48701300  0.48701300  0.85687700  1
  O  O27  1  0.17856800  0.64406100  0.08740500  1
