# generated using pymatgen
data_LiCuP4O11
_symmetry_space_group_name_H-M   'P 1'
_cell_length_a   9.57924100
_cell_length_b   9.62337542
_cell_length_c   10.90971916
_cell_angle_alpha   109.56693821
_cell_angle_beta   109.29903064
_cell_angle_gamma   89.13234146
_symmetry_Int_Tables_number   1
_chemical_formula_structural   LiCuP4O11
_chemical_formula_sum   'Li4 Cu4 P16 O44'
_cell_volume   889.20235094
_cell_formula_units_Z   4
loop_
 _symmetry_equiv_pos_site_id
 _symmetry_equiv_pos_as_xyz
  1  'x, y, z'
loop_
 _atom_site_type_symbol
 _atom_site_label
 _atom_site_symmetry_multiplicity
 _atom_site_fract_x
 _atom_site_fract_y
 _atom_site_fract_z
 _atom_site_occupancy
  Li  Li0  1  0.61323200  0.55178400  0.06144400  1
  Li  Li1  1  0.77306900  0.63423800  0.69028800  1
  Li  Li2  1  0.22411600  0.36139900  0.30559700  1
  Li  Li3  1  0.27428600  0.19215100  0.78027600  1
  Cu  Cu4  1  0.77757900  0.79301500  0.03127200  1
  Cu  Cu5  1  0.72981700  0.25056800  0.49514000  1
  Cu  Cu6  1  0.27016800  0.74608100  0.50118300  1
  Cu  Cu7  1  0.21268200  0.22900700  0.99804400  1
  P  P8  1  0.91464500  0.23844200  0.07032300  1
  P  P9  1  0.93975000  0.57600200  0.22206700  1
  P  P10  1  0.91387400  0.10644200  0.29309000  1
  P  P11  1  0.73819800  0.59387100  0.38792800  1
  P  P12  1  0.75709700  0.91425200  0.56320400  1
  P  P13  1  0.40192100  0.76536000  0.10233100  1
  P  P14  1  0.40142400  0.09167000  0.23354500  1
  P  P15  1  0.41560700  0.56583600  0.26654900  1
  P  P16  1  0.58354200  0.43616700  0.73139400  1
  P  P17  1  0.60130400  0.90561800  0.76521800  1
  P  P18  1  0.60060200  0.23102100  0.89386400  1
  P  P19  1  0.24171500  0.08397200  0.43641400  1
  P  P20  1  0.26189400  0.40904000  0.61090900  1
  P  P21  1  0.08334400  0.89103400  0.70516900  1
  P  P22  1  0.06028900  0.42275700  0.77417700  1
  P  P23  1  0.08942500  0.76226100  0.93226800  1
  O  O24  1  0.98140000  0.40819400  0.15032300  1
  O  O25  1  0.96806100  0.17573700  0.19102600  1
  O  O26  1  0.81510400  0.61248200  0.11463800  1
  O  O27  1  0.86213000  0.53668700  0.32465100  1
  O  O28  1  0.89853500  0.23633400  0.40765700  1
  O  O29  1  0.80046800  0.97800600  0.20627900  1
  O  O30  1  0.73647700  0.24136600  0.03149800  1
  O  O31  1  0.92810500  0.96082900  0.64826000  1
  O  O32  1  0.91139900  0.34066800  0.69320800  1
  O  O33  1  0.96521200  0.16927400  0.95228100  1
  O  O34  1  0.75381200  0.76990300  0.43059800  1
  O  O35  1  0.74393200  0.54280700  0.50231800  1
  O  O36  1  0.53323600  0.72815700  0.06033800  1
  O  O37  1  0.58748000  0.53977300  0.25355600  1
  O  O38  1  0.68043500  0.03082400  0.51935500  1
  O  O39  1  0.69751000  0.84932800  0.65564000  1
  O  O40  1  0.54822600  0.18017400  0.30341500  1
  O  O41  1  0.67366200  0.58317800  0.79257600  1
  O  O42  1  0.70750000  0.91232200  0.90284400  1
  O  O43  1  0.56580200  0.32498000  0.59366500  1
  O  O44  1  0.41708800  0.91551300  0.22333900  1
  O  O45  1  0.64896200  0.36386900  0.85616200  1
  O  O46  1  0.34735700  0.64233300  0.14807000  1
  O  O47  1  0.59262600  0.08424100  0.77298300  1
  O  O48  1  0.43762000  0.67097000  0.40780900  1
  O  O49  1  0.29275300  0.08652000  0.09711000  1
  O  O50  1  0.32694300  0.41738900  0.20649500  1
  O  O51  1  0.45137200  0.82345000  0.69642700  1
  O  O52  1  0.30406600  0.14531700  0.34426900  1
  O  O53  1  0.31794500  0.97059800  0.48683900  1
  O  O54  1  0.41303500  0.46564700  0.73988500  1
  O  O55  1  0.46394700  0.25969900  0.92957500  1
  O  O56  1  0.25030200  0.45227200  0.49089300  1
  O  O57  1  0.24783300  0.23083600  0.57380300  1
  O  O58  1  0.03670100  0.83179900  0.04831200  1
  O  O59  1  0.08333700  0.66849400  0.30219400  1
  O  O60  1  0.07140000  0.03874100  0.35280600  1
  O  O61  1  0.26645700  0.76307700  0.96861100  1
  O  O62  1  0.19602300  0.02260200  0.78860500  1
  O  O63  1  0.10220000  0.76236200  0.59225200  1
  O  O64  1  0.13815900  0.46673200  0.67393800  1
  O  O65  1  0.18232000  0.36486400  0.86734400  1
  O  O66  1  0.03591500  0.82506100  0.81049700  1
  O  O67  1  0.02971200  0.59059400  0.85718100  1
