# generated using pymatgen
data_Li4V3P8O29
_symmetry_space_group_name_H-M   'P 1'
_cell_length_a   9.78250464
_cell_length_b   9.78250464
_cell_length_c   13.97720126
_cell_angle_alpha   89.65000174
_cell_angle_beta   89.65000174
_cell_angle_gamma   60.15796201
_symmetry_Int_Tables_number   1
_chemical_formula_structural   Li4V3P8O29
_chemical_formula_sum   'Li8 V6 P16 O58'
_cell_volume   1160.19031528
_cell_formula_units_Z   2
loop_
 _symmetry_equiv_pos_site_id
 _symmetry_equiv_pos_as_xyz
  1  'x, y, z'
loop_
 _atom_site_type_symbol
 _atom_site_label
 _atom_site_symmetry_multiplicity
 _atom_site_fract_x
 _atom_site_fract_y
 _atom_site_fract_z
 _atom_site_occupancy
  Li  Li0  1  0.32353700  0.90711500  0.56082400  1
  Li  Li1  1  0.90711500  0.32353700  0.06082400  1
  Li  Li2  1  0.77442100  0.90252900  0.05922400  1
  Li  Li3  1  0.08695800  0.23125400  0.43921400  1
  Li  Li4  1  0.90252900  0.77442100  0.55922400  1
  Li  Li5  1  0.23125400  0.08695800  0.93921400  1
  Li  Li6  1  0.22841200  0.67497200  0.43865900  1
  Li  Li7  1  0.67497200  0.22841200  0.93865900  1
  V  V8  1  0.99942000  0.43331400  0.24879600  1
  V  V9  1  0.00582400  0.56550500  0.75604800  1
  V  V10  1  0.43331400  0.99942000  0.74879600  1
  V  V11  1  0.56550500  0.00582400  0.25604800  1
  V  V12  1  0.43704700  0.56755700  0.24501300  1
  V  V13  1  0.56755700  0.43704700  0.74501300  1
  P  P14  1  0.31406100  0.76953200  0.84489700  1
  P  P15  1  0.31694300  0.91209600  0.34042700  1
  P  P16  1  0.76953200  0.31406100  0.34489700  1
  P  P17  1  0.66912200  0.66894400  0.12766800  1
  P  P18  1  0.66894400  0.66912200  0.62766800  1
  P  P19  1  0.91209600  0.31694300  0.84042700  1
  P  P20  1  0.08721300  0.23233900  0.65609100  1
  P  P21  1  0.76806500  0.91283700  0.84211200  1
  P  P22  1  0.23233900  0.08721300  0.15609100  1
  P  P23  1  0.91283700  0.76806500  0.34211200  1
  P  P24  1  0.08723100  0.68444300  0.15826100  1
  P  P25  1  0.32949300  0.33679500  0.37327500  1
  P  P26  1  0.33679500  0.32949300  0.87327500  1
  P  P27  1  0.22976300  0.68411200  0.65848100  1
  P  P28  1  0.68444300  0.08723100  0.65826100  1
  P  P29  1  0.68411200  0.22976300  0.15848100  1
  O  O30  1  0.24265700  0.75680200  0.56661700  1
  O  O31  1  0.33769100  0.74442500  0.34001900  1
  O  O32  1  0.24248200  0.00507900  0.06569600  1
  O  O33  1  0.33916000  0.91502300  0.83765400  1
  O  O34  1  0.47505000  0.61695100  0.82059800  1
  O  O35  1  0.51807700  0.66826100  0.17402400  1
  O  O36  1  0.61695100  0.47505000  0.32059800  1
  O  O37  1  0.75680200  0.24265700  0.06661700  1
  O  O38  1  0.74442500  0.33769100  0.84001900  1
  O  O39  1  0.51333500  0.81394000  0.66631000  1
  O  O40  1  0.47926900  0.90177200  0.32360000  1
  O  O41  1  0.66826100  0.51807700  0.67402400  1
  O  O42  1  0.66637500  0.66637700  0.02142700  1
  O  O43  1  0.66637700  0.66637500  0.52142700  1
  O  O44  1  0.81394000  0.51333500  0.16631000  1
  O  O45  1  0.62201300  0.89916200  0.82484800  1
  O  O46  1  0.66954700  0.81764100  0.16899200  1
  O  O47  1  0.91502300  0.33916000  0.33765400  1
  O  O48  1  0.99815600  0.21029000  0.74902000  1
  O  O49  1  0.00507900  0.24248200  0.56569600  1
  O  O50  1  0.99936400  0.24131000  0.93068400  1
  O  O51  1  0.90177200  0.47926900  0.82360000  1
  O  O52  1  0.81764100  0.66954700  0.66899200  1
  O  O53  1  0.08362500  0.25276200  0.16029100  1
  O  O54  1  0.89916200  0.62201300  0.32484800  1
  O  O55  1  0.74442600  0.91543000  0.33428000  1
  O  O56  1  0.21029000  0.99815600  0.24902000  1
  O  O57  1  0.24131000  0.99936400  0.43068400  1
  O  O58  1  0.76835800  0.99579900  0.57279800  1
  O  O59  1  0.25276200  0.08362500  0.66029100  1
  O  O60  1  0.09552500  0.38355200  0.67950000  1
  O  O61  1  0.91543000  0.74442600  0.83428000  1
  O  O62  1  0.18619900  0.32680000  0.33313700  1
  O  O63  1  0.09465400  0.52374400  0.17631500  1
  O  O64  1  0.99579900  0.76835800  0.07279800  1
  O  O65  1  0.99695800  0.76120400  0.43296900  1
  O  O66  1  0.00631100  0.79006700  0.25371100  1
  O  O67  1  0.08326400  0.66232100  0.65991700  1
  O  O68  1  0.32680000  0.18619900  0.83313700  1
  O  O69  1  0.38355200  0.09552500  0.17950000  1
  O  O70  1  0.18580100  0.48139500  0.82669400  1
  O  O71  1  0.33150400  0.33389900  0.97950400  1
  O  O72  1  0.33389900  0.33150400  0.47950400  1
  O  O73  1  0.32944300  0.48674000  0.33133000  1
  O  O74  1  0.52374400  0.09465400  0.67631500  1
  O  O75  1  0.48139500  0.18580100  0.32669400  1
  O  O76  1  0.25809300  0.65627900  0.16558900  1
  O  O77  1  0.21045900  0.79310700  0.74712400  1
  O  O78  1  0.23431400  0.76169900  0.93165700  1
  O  O79  1  0.38096200  0.52134300  0.67589400  1
  O  O80  1  0.48674000  0.32944300  0.83133000  1
  O  O81  1  0.52134300  0.38096200  0.17589400  1
  O  O82  1  0.66232100  0.08326400  0.15991700  1
  O  O83  1  0.76120400  0.99695800  0.93296900  1
  O  O84  1  0.79006700  0.00631100  0.75371100  1
  O  O85  1  0.65627900  0.25809300  0.66558900  1
  O  O86  1  0.76169900  0.23431400  0.43165700  1
  O  O87  1  0.79310700  0.21045900  0.24712400  1
