# generated using pymatgen
data_Li2Nb6NiO18
_symmetry_space_group_name_H-M   'P 1'
_cell_length_a   7.65656900
_cell_length_b   8.96129904
_cell_length_c   11.18404420
_cell_angle_alpha   104.79273979
_cell_angle_beta   96.51630012
_cell_angle_gamma   113.42358420
_symmetry_Int_Tables_number   1
_chemical_formula_structural   Li2Nb6NiO18
_chemical_formula_sum   'Li4 Nb12 Ni2 O36'
_cell_volume   660.50218617
_cell_formula_units_Z   2
loop_
 _symmetry_equiv_pos_site_id
 _symmetry_equiv_pos_as_xyz
  1  'x, y, z'
loop_
 _atom_site_type_symbol
 _atom_site_label
 _atom_site_symmetry_multiplicity
 _atom_site_fract_x
 _atom_site_fract_y
 _atom_site_fract_z
 _atom_site_occupancy
  Li  Li0  1  0.04686200  0.67334400  0.95205800  1
  Li  Li1  1  0.54494700  0.67131200  0.44886100  1
  Li  Li2  1  0.88981500  0.34572500  0.12284600  1
  Li  Li3  1  0.38403600  0.34176300  0.61578400  1
  Nb  Nb4  1  0.33403700  0.64515000  0.15849100  1
  Nb  Nb5  1  0.50526200  0.01271900  0.50724800  1
  Nb  Nb6  1  0.15842400  0.33054100  0.33265100  1
  Nb  Nb7  1  0.32139700  0.66919700  0.65563400  1
  Nb  Nb8  1  0.02569400  0.00631400  0.50493700  1
  Nb  Nb9  1  0.51100500  0.97737900  0.99426700  1
  Nb  Nb10  1  0.84885100  0.68330600  0.17239500  1
  Nb  Nb11  1  0.65599900  0.34267400  0.32040100  1
  Nb  Nb12  1  0.18015400  0.35466600  0.82900400  1
  Nb  Nb13  1  0.81427400  0.64823100  0.65681200  1
  Nb  Nb14  1  0.99914100  0.00917000  0.00277200  1
  Nb  Nb15  1  0.67002300  0.32658900  0.84488800  1
  Ni  Ni16  1  0.69453100  0.99727700  0.30381200  1
  Ni  Ni17  1  0.19688000  0.99837200  0.80529700  1
  O  O18  1  0.01158800  0.86316400  0.09534000  1
  O  O19  1  0.33920700  0.78172000  0.02029400  1
  O  O20  1  0.06572000  0.59414700  0.13499200  1
  O  O21  1  0.04260200  0.89277700  0.62738500  1
  O  O22  1  0.42977500  0.88324800  0.29072900  1
  O  O23  1  0.31893300  0.46823800  0.00476900  1
  O  O24  1  0.65569400  0.78059700  0.18463100  1
  O  O25  1  0.36856900  0.79184300  0.52254100  1
  O  O26  1  0.72563600  0.92252700  0.44533200  1
  O  O27  1  0.05663800  0.58909300  0.62708600  1
  O  O28  1  0.34848800  0.53865200  0.28090200  1
  O  O29  1  0.37113500  0.88806300  0.79279500  1
  O  O30  1  0.05314900  0.21322900  0.12680900  1
  O  O31  1  0.97719500  0.79698000  0.34146300  1
  O  O32  1  0.30219900  0.45796100  0.50539500  1
  O  O33  1  0.63460200  0.73877400  0.65780200  1
  O  O34  1  0.98009400  0.10888200  0.34873500  1
  O  O35  1  0.69675000  0.45787800  0.19027200  1
  O  O36  1  0.71762000  0.91395700  0.95123200  1
  O  O37  1  0.38830500  0.25664200  0.29583800  1
  O  O38  1  0.34671700  0.53094800  0.76452900  1
  O  O39  1  0.72445100  0.54188500  0.46398400  1
  O  O40  1  0.07678700  0.21034700  0.62974200  1
  O  O41  1  0.00118100  0.80729900  0.83066100  1
  O  O42  1  0.64365800  0.10473200  0.17778900  1
  O  O43  1  0.96538200  0.40365600  0.32297900  1
  O  O44  1  0.30831600  0.09657700  0.50013900  1
  O  O45  1  0.67488300  0.45766000  0.70189000  1
  O  O46  1  0.04460800  0.11174000  0.84885600  1
  O  O47  1  0.37600900  0.21976500  0.79599500  1
  O  O48  1  0.68562800  0.18292100  0.41976900  1
  O  O49  1  0.73894900  0.53855100  0.96616600  1
  O  O50  1  0.64304600  0.13608500  0.67162600  1
  O  O51  1  0.29785500  0.06772000  0.97939000  1
  O  O52  1  0.97146100  0.40930200  0.84461200  1
  O  O53  1  0.68764100  0.20871500  0.95757600  1
