# generated using pymatgen
data_LiMnP2HO7
_symmetry_space_group_name_H-M   'P 1'
_cell_length_a   6.45219900
_cell_length_b   8.73044371
_cell_length_c   9.94216452
_cell_angle_alpha   91.52301622
_cell_angle_beta   107.86096054
_cell_angle_gamma   102.10452341
_symmetry_Int_Tables_number   1
_chemical_formula_structural   LiMnP2HO7
_chemical_formula_sum   'Li4 Mn4 P8 H4 O28'
_cell_volume   518.71198028
_cell_formula_units_Z   4
loop_
 _symmetry_equiv_pos_site_id
 _symmetry_equiv_pos_as_xyz
  1  'x, y, z'
loop_
 _atom_site_type_symbol
 _atom_site_label
 _atom_site_symmetry_multiplicity
 _atom_site_fract_x
 _atom_site_fract_y
 _atom_site_fract_z
 _atom_site_occupancy
  Li  Li0  1  0.27526700  0.52024200  0.87451100  1
  Li  Li1  1  0.72473300  0.47975800  0.12548900  1
  Li  Li2  1  0.31417800  0.00660300  0.38410400  1
  Li  Li3  1  0.68582200  0.99339700  0.61589600  1
  Mn  Mn4  1  0.20729300  0.92289100  0.80915900  1
  Mn  Mn5  1  0.35854800  0.46851000  0.28472100  1
  Mn  Mn6  1  0.79270700  0.07710900  0.19084100  1
  Mn  Mn7  1  0.64145200  0.53149000  0.71527900  1
  P  P8  1  0.19520600  0.74700200  0.13447800  1
  P  P9  1  0.80479400  0.25299800  0.86552200  1
  P  P10  1  0.24041100  0.21151000  0.06177400  1
  P  P11  1  0.25366300  0.72349000  0.56537100  1
  P  P12  1  0.75958900  0.78849000  0.93822600  1
  P  P13  1  0.74633700  0.27651000  0.43462900  1
  P  P14  1  0.18299100  0.24311800  0.62742000  1
  P  P15  1  0.81700900  0.75688200  0.37258000  1
  H  H16  1  0.56622900  0.20619600  0.98832100  1
  H  H17  1  0.59122800  0.71994700  0.50353600  1
  H  H18  1  0.43377100  0.79380400  0.01167900  1
  H  H19  1  0.40877200  0.28005300  0.49646400  1
  O  O20  1  0.27542200  0.72685500  0.99799100  1
  O  O21  1  0.63501000  0.61610100  0.92949400  1
  O  O22  1  0.89432300  0.41655900  0.82676500  1
  O  O23  1  0.63418000  0.13651100  0.75317200  1
  O  O24  1  0.10567700  0.58344100  0.17323500  1
  O  O25  1  0.64344100  0.63187600  0.26230500  1
  O  O26  1  0.36499000  0.38389900  0.07050600  1
  O  O27  1  0.72457800  0.27314500  0.00200900  1
  O  O28  1  0.01372800  0.17449700  0.92881600  1
  O  O29  1  0.82733400  0.81454100  0.80346700  1
  O  O30  1  0.36559400  0.09609600  0.01660200  1
  O  O31  1  0.01617700  0.66836800  0.43947700  1
  O  O32  1  0.78755900  0.29651800  0.29094300  1
  O  O33  1  0.39299800  0.60786600  0.53363700  1
  O  O34  1  0.63440600  0.90390400  0.98339800  1
  O  O35  1  0.17266600  0.18545900  0.19653300  1
  O  O36  1  0.98627200  0.82550300  0.07118400  1
  O  O37  1  0.60700200  0.39213400  0.46636300  1
  O  O38  1  0.21244100  0.70348200  0.70905700  1
  O  O39  1  0.98382300  0.33163200  0.56052300  1
  O  O40  1  0.26459600  0.20552100  0.49864100  1
  O  O41  1  0.64429500  0.10781100  0.44670900  1
  O  O42  1  0.36582000  0.86348900  0.24682800  1
  O  O43  1  0.90960300  0.90908600  0.32040600  1
  O  O44  1  0.35655900  0.36812400  0.73769500  1
  O  O45  1  0.09039700  0.09091400  0.67959400  1
  O  O46  1  0.35570500  0.89218900  0.55329100  1
  O  O47  1  0.73540400  0.79447900  0.50135900  1
