# generated using pymatgen
data_Li5V3P8O29
_symmetry_space_group_name_H-M   'P 1'
_cell_length_a   9.79153500
_cell_length_b   9.80852725
_cell_length_c   13.98905026
_cell_angle_alpha   89.87214206
_cell_angle_beta   89.87855246
_cell_angle_gamma   60.06776256
_symmetry_Int_Tables_number   1
_chemical_formula_structural   Li5V3P8O29
_chemical_formula_sum   'Li10 V6 P16 O58'
_cell_volume   1164.30888588
_cell_formula_units_Z   2
loop_
 _symmetry_equiv_pos_site_id
 _symmetry_equiv_pos_as_xyz
  1  'x, y, z'
loop_
 _atom_site_type_symbol
 _atom_site_label
 _atom_site_symmetry_multiplicity
 _atom_site_fract_x
 _atom_site_fract_y
 _atom_site_fract_z
 _atom_site_occupancy
  Li  Li0  1  0.22637100  0.09149800  0.93895300  1
  Li  Li1  1  0.09429500  0.22707600  0.44158200  1
  Li  Li2  1  0.67780200  0.09387400  0.44234300  1
  Li  Li3  1  0.68054700  0.22964500  0.93734100  1
  Li  Li4  1  0.09871200  0.67420500  0.93789500  1
  Li  Li5  1  0.77208900  0.32629200  0.56493200  1
  Li  Li6  1  0.22861400  0.67679500  0.44215200  1
  Li  Li7  1  0.32390800  0.90223900  0.56407700  1
  Li  Li8  1  0.90268300  0.77115400  0.56533700  1
  Li  Li9  1  0.77239200  0.90924000  0.05712700  1
  V  V10  1  0.56753800  0.43363800  0.75228900  1
  V  V11  1  0.43364000  0.56704600  0.24592900  1
  V  V12  1  0.99830900  0.43246600  0.24533000  1
  V  V13  1  0.00050600  0.56659600  0.75218500  1
  V  V14  1  0.43081800  0.99889100  0.75014400  1
  V  V15  1  0.56582200  0.00108400  0.25015300  1
  P  P16  1  0.23176500  0.08708100  0.15772400  1
  P  P17  1  0.08732800  0.23354600  0.65669200  1
  P  P18  1  0.67913200  0.08890000  0.65879200  1
  P  P19  1  0.33398400  0.33182800  0.87334800  1
  P  P20  1  0.33153600  0.33592700  0.37125900  1
  P  P21  1  0.68298200  0.22995800  0.15635800  1
  P  P22  1  0.76858400  0.31898700  0.34082700  1
  P  P23  1  0.08792200  0.68249400  0.15920400  1
  P  P24  1  0.91485800  0.31626200  0.84148000  1
  P  P25  1  0.23320100  0.67896500  0.65757900  1
  P  P26  1  0.31654600  0.76882500  0.84178000  1
  P  P27  1  0.66693500  0.66715000  0.62598400  1
  P  P28  1  0.66749900  0.66731100  0.12787700  1
  P  P29  1  0.31984100  0.91007200  0.34109900  1
  P  P30  1  0.91172100  0.76730700  0.34260500  1
  P  P31  1  0.76758800  0.91175900  0.84169600  1
  O  O32  1  0.23855200  0.99692800  0.43063200  1
  O  O33  1  0.25207700  0.08227200  0.65854500  1
  O  O34  1  0.00832400  0.23156100  0.92663500  1
  O  O35  1  0.08563200  0.25630000  0.16948500  1
  O  O36  1  0.38142100  0.09882500  0.17736700  1
  O  O37  1  0.32478700  0.18682000  0.83250300  1
  O  O38  1  0.51941900  0.09912700  0.67501800  1
  O  O39  1  0.75732700  0.00154000  0.93123300  1
  O  O40  1  0.66425500  0.08236300  0.16122000  1
  O  O41  1  0.18238400  0.33268200  0.32974600  1
  O  O42  1  0.10047600  0.38027000  0.67363700  1
  O  O43  1  0.48554600  0.18938000  0.33257800  1
  O  O44  1  0.33381800  0.33273800  0.98031000  1
  O  O45  1  0.32676000  0.34193200  0.47757400  1
  O  O46  1  0.48948200  0.32351300  0.83310100  1
  O  O47  1  0.09677100  0.52118700  0.17675200  1
  O  O48  1  0.18742100  0.48793100  0.83342600  1
  O  O49  1  0.66384500  0.25374100  0.65976500  1
  O  O50  1  0.79048100  0.21073200  0.24904700  1
  O  O51  1  0.75931500  0.24130200  0.43097700  1
  O  O52  1  0.75247400  0.24367600  0.06566100  1
  O  O53  1  0.52084200  0.38142300  0.17889500  1
  O  O54  1  0.32836700  0.48873600  0.32874700  1
  O  O55  1  0.74740500  0.33629400  0.84098400  1
  O  O56  1  0.38064900  0.51936500  0.67456200  1
  O  O57  1  0.08224800  0.66466000  0.66085300  1
  O  O58  1  0.99352500  0.21385500  0.74507500  1
  O  O59  1  0.00124300  0.24016400  0.56573800  1
  O  O60  1  0.00033900  0.75677500  0.43205700  1
  O  O61  1  0.91628500  0.33866000  0.33958400  1
  O  O62  1  0.61677700  0.47820400  0.32275300  1
  O  O63  1  0.25582800  0.65859400  0.16430700  1
  O  O64  1  0.67594600  0.51238900  0.66653800  1
  O  O65  1  0.47880500  0.61927400  0.82446400  1
  O  O66  1  0.22994500  0.76227800  0.92700100  1
  O  O67  1  0.23934700  0.75776500  0.56611300  1
  O  O68  1  0.21401100  0.79249600  0.74534000  1
  O  O69  1  0.33642800  0.74342600  0.33809200  1
  O  O70  1  0.81617900  0.51803400  0.17510600  1
  O  O71  1  0.90236300  0.47889500  0.82332800  1
  O  O72  1  0.52054100  0.66389400  0.17439900  1
  O  O73  1  0.67128800  0.65965300  0.02249200  1
  O  O74  1  0.66615400  0.66822300  0.51876300  1
  O  O75  1  0.51023700  0.81281900  0.66607000  1
  O  O76  1  0.90407900  0.61688900  0.32249700  1
  O  O77  1  0.81185000  0.67708900  0.66667600  1
  O  O78  1  0.33696300  0.91616200  0.84042100  1
  O  O79  1  0.21082400  0.99770700  0.24924300  1
  O  O80  1  0.23436500  0.01063100  0.06670700  1
  O  O81  1  0.48032500  0.89798300  0.32477500  1
  O  O82  1  0.67247600  0.81398800  0.16734700  1
  O  O83  1  0.61993500  0.89881100  0.82418700  1
  O  O84  1  0.91798400  0.74776100  0.84236000  1
  O  O85  1  0.00063100  0.75791100  0.06950800  1
  O  O86  1  0.99958200  0.79062900  0.25058000  1
  O  O87  1  0.74620500  0.91577000  0.34097200  1
  O  O88  1  0.75963700  0.00108600  0.56855600  1
  O  O89  1  0.78968800  0.99985600  0.74983400  1
