# generated using pymatgen
data_Li2Fe3P9O28
_symmetry_space_group_name_H-M   'P 1'
_cell_length_a   7.10128200
_cell_length_b   9.03706868
_cell_length_c   9.25100591
_cell_angle_alpha   111.43961868
_cell_angle_beta   109.30381534
_cell_angle_gamma   98.43862567
_symmetry_Int_Tables_number   1
_chemical_formula_structural   Li2Fe3P9O28
_chemical_formula_sum   'Li2 Fe3 P9 O28'
_cell_volume   496.74960907
_cell_formula_units_Z   1
loop_
 _symmetry_equiv_pos_site_id
 _symmetry_equiv_pos_as_xyz
  1  'x, y, z'
loop_
 _atom_site_type_symbol
 _atom_site_label
 _atom_site_symmetry_multiplicity
 _atom_site_fract_x
 _atom_site_fract_y
 _atom_site_fract_z
 _atom_site_occupancy
  Li  Li0  1  0.70061700  0.92288200  0.23428800  1
  Li  Li1  1  0.29938300  0.07711800  0.76571200  1
  Fe  Fe2  1  0.50000000  0.50000000  0.00000000  1
  Fe  Fe3  1  0.23074000  0.97757500  0.23760800  1
  Fe  Fe4  1  0.76926000  0.02242500  0.76239200  1
  P  P5  1  0.31410900  0.75933600  0.46163900  1
  P  P6  1  0.78496200  0.75888800  0.93343700  1
  P  P7  1  0.68970400  0.70560900  0.42319400  1
  P  P8  1  0.14061200  0.66725400  0.88912900  1
  P  P9  1  0.00000000  0.50000000  0.50000000  1
  P  P10  1  0.31029600  0.29439100  0.57680600  1
  P  P11  1  0.85938800  0.33274600  0.11087100  1
  P  P12  1  0.68589100  0.24066400  0.53836100  1
  P  P13  1  0.21503800  0.24111200  0.06656300  1
  O  O14  1  0.42271100  0.91481400  0.63431400  1
  O  O15  1  0.91429100  0.89201800  0.12029500  1
  O  O16  1  0.26291500  0.84879200  0.01957000  1
  O  O17  1  0.81579600  0.88410900  0.55684400  1
  O  O18  1  0.74955500  0.82830400  0.80457000  1
  O  O19  1  0.24188600  0.79668400  0.30896200  1
  O  O20  1  0.63592100  0.69830300  0.24627200  1
  O  O21  1  0.10920100  0.65481200  0.70683900  1
  O  O22  1  0.58166100  0.65973000  0.91753100  1
  O  O23  1  0.12141500  0.63576100  0.44547400  1
  O  O24  1  0.47333800  0.65134200  0.44048100  1
  O  O25  1  0.91059600  0.62700200  0.88442800  1
  O  O26  1  0.22460200  0.53713300  0.92903900  1
  O  O27  1  0.78356800  0.56842000  0.45356800  1
  O  O28  1  0.77539800  0.46286700  0.07096100  1
  O  O29  1  0.21643200  0.43158000  0.54643200  1
  O  O30  1  0.52666200  0.34865800  0.55951900  1
  O  O31  1  0.08940400  0.37299800  0.11557200  1
  O  O32  1  0.41833900  0.34027000  0.08246900  1
  O  O33  1  0.87858500  0.36423900  0.55452600  1
  O  O34  1  0.36407900  0.30169700  0.75372800  1
  O  O35  1  0.89079900  0.34518800  0.29316100  1
  O  O36  1  0.25044500  0.17169600  0.19543000  1
  O  O37  1  0.75811400  0.20331600  0.69103800  1
  O  O38  1  0.73708500  0.15120800  0.98043000  1
  O  O39  1  0.18420400  0.11589100  0.44315600  1
  O  O40  1  0.57728900  0.08518600  0.36568600  1
  O  O41  1  0.08570900  0.10798200  0.87970500  1
