# generated using pymatgen
data_Li3V3P8O29
_symmetry_space_group_name_H-M   'P 1'
_cell_length_a   9.76923200
_cell_length_b   9.78610100
_cell_length_c   14.33745623
_cell_angle_alpha   89.90412235
_cell_angle_beta   90.84683607
_cell_angle_gamma   119.89768776
_symmetry_Int_Tables_number   1
_chemical_formula_structural   Li3V3P8O29
_chemical_formula_sum   'Li6 V6 P16 O58'
_cell_volume   1188.12700704
_cell_formula_units_Z   2
loop_
 _symmetry_equiv_pos_site_id
 _symmetry_equiv_pos_as_xyz
  1  'x, y, z'
loop_
 _atom_site_type_symbol
 _atom_site_label
 _atom_site_symmetry_multiplicity
 _atom_site_fract_x
 _atom_site_fract_y
 _atom_site_fract_z
 _atom_site_occupancy
  Li  Li0  1  0.30938400  0.21890500  0.55442800  1
  Li  Li1  1  0.30737700  0.08060100  0.06273700  1
  Li  Li2  1  0.69352600  0.91580000  0.94046500  1
  Li  Li3  1  0.69446200  0.77754500  0.44163300  1
  Li  Li4  1  0.08261100  0.31039800  0.43926500  1
  Li  Li5  1  0.22388200  0.31237800  0.94772300  1
  V  V6  1  0.43580500  0.43723000  0.75160300  1
  V  V7  1  0.00232500  0.56908000  0.75108500  1
  V  V8  1  0.42866100  0.99147700  0.25698000  1
  V  V9  1  0.56770600  0.00501100  0.74628800  1
  V  V10  1  0.99571700  0.43619200  0.24606000  1
  V  V11  1  0.57362800  0.56903700  0.24626800  1
  P  P12  1  0.77636400  0.68656600  0.83778400  1
  P  P13  1  0.91938200  0.68870600  0.34288100  1
  P  P14  1  0.32341200  0.23424600  0.33941100  1
  P  P15  1  0.66420900  0.33542200  0.63207100  1
  P  P16  1  0.65765200  0.32571400  0.13078200  1
  P  P17  1  0.32128100  0.08991400  0.84391100  1
  P  P18  1  0.22434200  0.91248000  0.66390200  1
  P  P19  1  0.91640600  0.22992100  0.83635500  1
  P  P20  1  0.08272500  0.77199800  0.15887900  1
  P  P21  1  0.77381000  0.08834600  0.33684300  1
  P  P22  1  0.67889400  0.91411900  0.15705600  1
  P  P23  1  0.33744900  0.66846500  0.86874900  1
  P  P24  1  0.33582100  0.65958100  0.36980600  1
  P  P25  1  0.67986200  0.76968000  0.65870600  1
  P  P26  1  0.08658500  0.31885300  0.65614000  1
  P  P27  1  0.22921100  0.32109000  0.16141900  1
  O  O28  1  0.74018800  0.75964000  0.56682700  1
  O  O29  1  0.74690300  0.66170600  0.33509200  1
  O  O30  1  0.00083800  0.79179000  0.25077000  1
  O  O31  1  0.00125400  0.76531000  0.07087000  1
  O  O32  1  0.62116100  0.52357200  0.82081000  1
  O  O33  1  0.91785800  0.65784800  0.83446500  1
  O  O34  1  0.66049900  0.47724800  0.17618600  1
  O  O35  1  0.48199100  0.38514200  0.32255500  1
  O  O36  1  0.23845600  0.24308800  0.07384400  1
  O  O37  1  0.34066200  0.25801300  0.83525700  1
  O  O38  1  0.81358500  0.47917400  0.67620500  1
  O  O39  1  0.51297200  0.33333000  0.67331500  1
  O  O40  1  0.90982800  0.52646600  0.32028600  1
  O  O41  1  0.65322900  0.32638400  0.52893700  1
  O  O42  1  0.65544500  0.33180700  0.02764600  1
  O  O43  1  0.90978500  0.38394100  0.82228500  1
  O  O44  1  0.50977300  0.17813700  0.17091800  1
  O  O45  1  0.81061100  0.33165700  0.17546800  1
  O  O46  1  0.34541100  0.08841800  0.33374300  1
  O  O47  1  0.20484200  0.99124200  0.75881200  1
  O  O48  1  0.25648500  0.01988900  0.93581500  1
  O  O49  1  0.23253700  0.00611200  0.58108400  1
  O  O50  1  0.47998400  0.09761100  0.82113100  1
  O  O51  1  0.66241900  0.18405400  0.67625500  1
  O  O52  1  0.91633000  0.25829800  0.33784000  1
  O  O53  1  0.25480900  0.91595200  0.16714500  1
  O  O54  1  0.61770200  0.09459300  0.32287000  1
  O  O55  1  0.00104600  0.76381500  0.43069700  1
  O  O56  1  0.01491900  0.25106200  0.56363700  1
  O  O57  1  0.38082000  0.90576500  0.67917300  1
  O  O58  1  0.74588200  0.08631000  0.83699400  1
  O  O59  1  0.98830700  0.20489400  0.74043300  1
  O  O60  1  0.08450200  0.74236800  0.66772400  1
  O  O61  1  0.33589900  0.81132600  0.32518900  1
  O  O62  1  0.51943400  0.90493600  0.18009400  1
  O  O63  1  0.74276500  0.98335300  0.06543400  1
  O  O64  1  0.76728800  0.99256400  0.41852300  1
  O  O65  1  0.79698800  0.01661700  0.24056000  1
  O  O66  1  0.65704500  0.91445600  0.67242800  1
  O  O67  1  0.18744600  0.66505500  0.82394400  1
  O  O68  1  0.09299600  0.61783100  0.17908200  1
  O  O69  1  0.48629800  0.81833500  0.83096300  1
  O  O70  1  0.34256200  0.66567000  0.47326500  1
  O  O71  1  0.33527800  0.65407500  0.97192600  1
  O  O72  1  0.09434500  0.47785900  0.67802400  1
  O  O73  1  0.48636600  0.66426600  0.32851700  1
  O  O74  1  0.18409700  0.51145900  0.32924400  1
  O  O75  1  0.65673400  0.74626300  0.17165200  1
  O  O76  1  0.79710100  0.78476500  0.74232800  1
  O  O77  1  0.76480400  0.77082500  0.91965200  1
  O  O78  1  0.51913000  0.61904400  0.68159700  1
  O  O79  1  0.33444500  0.51542900  0.82547100  1
  O  O80  1  0.08502800  0.34441100  0.16680700  1
  O  O81  1  0.38278400  0.48081300  0.17831900  1
  O  O82  1  0.01155800  0.23393200  0.91893900  1
  O  O83  1  0.25510700  0.33807700  0.66565700  1
  O  O84  1  0.24478300  0.24166100  0.42670200  1
  O  O85  1  0.21097600  0.21199600  0.25011500  1
