# generated using pymatgen
data_Li2MnV(P2O7)2
_symmetry_space_group_name_H-M   'P 1'
_cell_length_a   4.86871600
_cell_length_b   8.29607154
_cell_length_c   20.11759406
_cell_angle_alpha   89.53609720
_cell_angle_beta   84.56037702
_cell_angle_gamma   89.76541051
_symmetry_Int_Tables_number   1
_chemical_formula_structural   Li2MnV(P2O7)2
_chemical_formula_sum   'Li6 Mn3 V3 P12 O42'
_cell_volume   808.88375147
_cell_formula_units_Z   3
loop_
 _symmetry_equiv_pos_site_id
 _symmetry_equiv_pos_as_xyz
  1  'x, y, z'
loop_
 _atom_site_type_symbol
 _atom_site_label
 _atom_site_symmetry_multiplicity
 _atom_site_fract_x
 _atom_site_fract_y
 _atom_site_fract_z
 _atom_site_occupancy
  Li  Li0  1  0.94887000  0.64047600  0.77531000  1
  Li  Li1  1  0.71847200  0.14016800  0.89083000  1
  Li  Li2  1  0.61836100  0.63994300  0.44206600  1
  Li  Li3  1  0.38366200  0.13787500  0.55811200  1
  Li  Li4  1  0.28563600  0.63849600  0.10791300  1
  Li  Li5  1  0.04848100  0.13774900  0.22527400  1
  Mn  Mn6  1  0.97054600  0.00283800  0.75662200  1
  Mn  Mn7  1  0.69612900  0.50291600  0.90952400  1
  Mn  Mn8  1  0.63877700  0.00084500  0.42316700  1
  V  V9  1  0.36141700  0.50074600  0.57588300  1
  V  V10  1  0.30551600  0.99880500  0.09036000  1
  V  V11  1  0.02759800  0.49892800  0.24297700  1
  P  P12  1  0.84934400  0.71304600  0.63752700  1
  P  P13  1  0.89227400  0.32013300  0.49401400  1
  P  P14  1  0.77373200  0.81955000  0.17436900  1
  P  P15  1  0.81640900  0.21282000  0.02922000  1
  P  P16  1  0.43933900  0.82365500  0.83878100  1
  P  P17  1  0.48180600  0.21652700  0.69620800  1
  P  P18  1  0.51555800  0.71214800  0.30444300  1
  P  P19  1  0.55927900  0.31815100  0.15891100  1
  P  P20  1  0.18412600  0.71598100  0.97078000  1
  P  P21  1  0.22716500  0.32269300  0.82799000  1
  P  P22  1  0.10606700  0.82130900  0.50745900  1
  P  P23  1  0.14914300  0.21570400  0.36248700  1
  O  O24  1  0.89404800  0.67484300  0.95198800  1
  O  O25  1  0.98587900  0.84719600  0.58420100  1
  O  O26  1  0.83575300  0.29709200  0.96157100  1
  O  O27  1  0.83089200  0.79710300  0.70466900  1
  O  O28  1  0.96561900  0.06585500  0.36083400  1
  O  O29  1  0.77285300  0.17460100  0.71491700  1
  O  O30  1  0.86121500  0.82327800  0.46394200  1
  O  O31  1  0.97472400  0.96046800  0.16070900  1
  O  O32  1  0.92081000  0.65564900  0.16892500  1
  O  O33  1  0.63816800  0.96722700  0.82720600  1
  O  O34  1  0.74717900  0.15777100  0.50192900  1
  O  O35  1  0.58260800  0.66052900  0.83164600  1
  O  O36  1  0.69384800  0.46378300  0.50563400  1
  O  O37  1  0.80583100  0.32173600  0.20152000  1
  O  O38  1  0.70479800  0.56290700  0.30421300  1
  O  O39  1  0.47599400  0.32804500  0.87003600  1
  O  O40  1  0.56740500  0.67227900  0.61529700  1
  O  O41  1  0.65418800  0.84589400  0.25136700  1
  O  O42  1  0.37000200  0.56601800  0.97233600  1
  O  O43  1  0.49543700  0.30628500  0.62964500  1
  O  O44  1  0.67815400  0.34588500  0.08187900  1
  O  O45  1  0.31947800  0.84611600  0.91630100  1
  O  O46  1  0.49655200  0.79534300  0.37178300  1
  O  O47  1  0.62940100  0.06396500  0.02980100  1
  O  O48  1  0.34686400  0.34591200  0.75020100  1
  O  O49  1  0.43968200  0.17525400  0.38136600  1
  O  O50  1  0.52751700  0.82292300  0.13189400  1
  O  O51  1  0.29680300  0.06666500  0.69508800  1
  O  O52  1  0.18945400  0.82908000  0.79662000  1
  O  O53  1  0.30472800  0.96385000  0.49416500  1
  O  O54  1  0.41322600  0.15490300  0.16410900  1
  O  O55  1  0.25263600  0.65768200  0.50263600  1
  O  O56  1  0.35792100  0.46029700  0.17218800  1
  O  O57  1  0.08421300  0.16006400  0.83540300  1
  O  O58  1  0.02897200  0.46683900  0.83917400  1
  O  O59  1  0.14309000  0.32590600  0.53502700  1
  O  O60  1  0.23394700  0.67281900  0.28171600  1
  O  O61  1  0.03801200  0.56402900  0.63731800  1
  O  O62  1  0.16361500  0.30453100  0.29564100  1
  O  O63  1  0.17092400  0.80449800  0.03706400  1
  O  O64  1  0.01103300  0.34440800  0.41616600  1
  O  O65  1  0.09881400  0.17223500  0.05165000  1
