# generated using pymatgen
data_Li4V3Cr2Fe3O16
_symmetry_space_group_name_H-M   'P 1'
_cell_length_a   5.90769900
_cell_length_b   5.92176247
_cell_length_c   9.58969289
_cell_angle_alpha   90.80305608
_cell_angle_beta   90.14097378
_cell_angle_gamma   119.85877982
_symmetry_Int_Tables_number   1
_chemical_formula_structural   Li4V3Cr2Fe3O16
_chemical_formula_sum   'Li4 V3 Cr2 Fe3 O16'
_cell_volume   290.90591033
_cell_formula_units_Z   1
loop_
 _symmetry_equiv_pos_site_id
 _symmetry_equiv_pos_as_xyz
  1  'x, y, z'
loop_
 _atom_site_type_symbol
 _atom_site_label
 _atom_site_symmetry_multiplicity
 _atom_site_fract_x
 _atom_site_fract_y
 _atom_site_fract_z
 _atom_site_occupancy
  Li  Li0  1  0.66683900  0.33896900  0.10624100  1
  Li  Li1  1  0.00032800  0.99634600  0.00346200  1
  Li  Li2  1  0.99809700  0.00226100  0.50389300  1
  Li  Li3  1  0.34045800  0.67841600  0.60550300  1
  V  V4  1  0.65720800  0.83938000  0.28593300  1
  V  V5  1  0.83089500  0.66146200  0.78792700  1
  V  V6  1  0.15965800  0.82460400  0.28949000  1
  Cr  Cr7  1  0.66748800  0.33223100  0.51566300  1
  Cr  Cr8  1  0.33077100  0.65616500  0.01580700  1
  Fe  Fe9  1  0.83407200  0.17167900  0.78553200  1
  Fe  Fe10  1  0.33902200  0.17004100  0.78568300  1
  Fe  Fe11  1  0.17264200  0.33759000  0.28661300  1
  O  O12  1  0.83420400  0.16306300  0.39861800  1
  O  O13  1  0.52398600  0.04534600  0.65831400  1
  O  O14  1  0.68005700  0.35680800  0.89710900  1
  O  O15  1  0.99086400  0.98134300  0.68978300  1
  O  O16  1  0.99421900  0.99231000  0.18931400  1
  O  O17  1  0.32584300  0.14400000  0.39745900  1
  O  O18  1  0.96290500  0.49697300  0.66115900  1
  O  O19  1  0.53382000  0.49529500  0.66166700  1
  O  O20  1  0.16045600  0.31957800  0.90192900  1
  O  O21  1  0.82721400  0.67297800  0.39304500  1
  O  O22  1  0.47918600  0.51834600  0.15988900  1
  O  O23  1  0.04148400  0.53761400  0.16208100  1
  O  O24  1  0.33780100  0.67232800  0.39899300  1
  O  O25  1  0.66876400  0.81600000  0.89491500  1
  O  O26  1  0.49229600  0.96168900  0.16155500  1
  O  O27  1  0.14972100  0.81718700  0.89458200  1
