# generated using pymatgen
data_Li2MnV(PO4)3
_symmetry_space_group_name_H-M   'P 1'
_cell_length_a   9.19031292
_cell_length_b   8.32259297
_cell_length_c   8.32148870
_cell_angle_alpha   61.14885731
_cell_angle_beta   62.22263937
_cell_angle_gamma   92.49859666
_symmetry_Int_Tables_number   1
_chemical_formula_structural   Li2MnV(PO4)3
_chemical_formula_sum   'Li4 Mn2 V2 P6 O24'
_cell_volume   462.69676906
_cell_formula_units_Z   2
loop_
 _symmetry_equiv_pos_site_id
 _symmetry_equiv_pos_as_xyz
  1  'x, y, z'
loop_
 _atom_site_type_symbol
 _atom_site_label
 _atom_site_symmetry_multiplicity
 _atom_site_fract_x
 _atom_site_fract_y
 _atom_site_fract_z
 _atom_site_occupancy
  Li  Li0  1  0.13979204  0.74884268  0.17232513  1
  Li  Li1  1  0.36277405  0.18947925  0.37546315  1
  Li  Li2  1  0.86130402  0.92466966  0.40774177  1
  Li  Li3  1  0.87779201  0.24257114  0.82040895  1
  Mn  Mn4  1  0.56910441  0.85402597  0.28585404  1
  Mn  Mn5  1  0.43812994  0.14465133  0.71055074  1
  V  V6  1  0.04657482  0.35213612  0.29956739  1
  V  V7  1  0.95746489  0.64719787  0.70427403  1
  P  P8  1  0.24996639  0.04843797  0.20679706  1
  P  P9  1  0.24617800  0.46504182  0.49387668  1
  P  P10  1  0.25988287  0.74843942  0.77775030  1
  P  P11  1  0.75005110  0.24890312  0.21540530  1
  P  P12  1  0.75914465  0.53596480  0.50246732  1
  P  P13  1  0.74764008  0.95687892  0.78892444  1
  O  O14  1  0.09441421  0.84462659  0.37101196  1
  O  O15  1  0.27279215  0.11821709  0.98651329  1
  O  O16  1  0.18794520  0.18861136  0.27960978  1
  O  O17  1  0.19511977  0.50530202  0.32414080  1
  O  O18  1  0.08942254  0.46383558  0.68578647  1
  O  O19  1  0.12411668  0.77758303  0.70971651  1
  O  O20  1  0.41003886  0.03711368  0.21659601  1
  O  O21  1  0.26755660  0.26606778  0.58466248  1
  O  O22  1  0.41633040  0.62937018  0.36747669  1
  O  O23  1  0.18758230  0.53768355  0.98351746  1
  O  O24  1  0.26626619  0.88934692  0.84739692  1
  O  O25  1  0.43722465  0.79205466  0.58626519  1
  O  O26  1  0.56739173  0.20362302  0.40534432  1
  O  O27  1  0.74015740  0.11335399  0.14024885  1
  O  O28  1  0.81611184  0.46303809  0.02117501  1
  O  O29  1  0.58718644  0.37556385  0.62789026  1
  O  O30  1  0.74974050  0.73979054  0.39265626  1
  O  O31  1  0.58133862  0.96752365  0.79770630  1
  O  O32  1  0.88056464  0.20518701  0.28816723  1
  O  O33  1  0.91324414  0.52741233  0.31811972  1
  O  O34  1  0.81029866  0.50512937  0.67111249  1
  O  O35  1  0.82176430  0.82740094  0.70647725  1
  O  O36  1  0.73339038  0.89062355  0.00459903  1
  O  O37  1  0.89627857  0.17025217  0.61809642  1
