# generated using pymatgen
data_Li2Mn3FeO8
_symmetry_space_group_name_H-M   'P 1'
_cell_length_a   8.33784200
_cell_length_b   8.33784200
_cell_length_c   8.53667300
_cell_angle_alpha   90.00000000
_cell_angle_beta   90.00000000
_cell_angle_gamma   90.00000000
_symmetry_Int_Tables_number   1
_chemical_formula_structural   Li2Mn3FeO8
_chemical_formula_sum   'Li8 Mn12 Fe4 O32'
_cell_volume   593.46617097
_cell_formula_units_Z   4
loop_
 _symmetry_equiv_pos_site_id
 _symmetry_equiv_pos_as_xyz
  1  'x, y, z'
loop_
 _atom_site_type_symbol
 _atom_site_label
 _atom_site_symmetry_multiplicity
 _atom_site_fract_x
 _atom_site_fract_y
 _atom_site_fract_z
 _atom_site_occupancy
  Li  Li0  1  0.49766600  0.74767000  0.87045300  1
  Li  Li1  1  0.25233000  0.50233400  0.62954700  1
  Li  Li2  1  0.24767000  0.00233400  0.12045300  1
  Li  Li3  1  0.00233400  0.24767000  0.87954700  1
  Li  Li4  1  0.99766600  0.75233000  0.37954700  1
  Li  Li5  1  0.75233000  0.99766600  0.62045300  1
  Li  Li6  1  0.74767000  0.49766600  0.12954700  1
  Li  Li7  1  0.50233400  0.25233000  0.37045300  1
  Mn  Mn8  1  0.37734100  0.12339200  0.75171200  1
  Mn  Mn9  1  0.37660800  0.87734100  0.50171200  1
  Mn  Mn10  1  0.37159400  0.62840600  0.25000000  1
  Mn  Mn11  1  0.12840600  0.12840600  0.50000000  1
  Mn  Mn12  1  0.12339200  0.37734100  0.24828800  1
  Mn  Mn13  1  0.12265900  0.62339200  0.99828800  1
  Mn  Mn14  1  0.87734100  0.37660800  0.49828800  1
  Mn  Mn15  1  0.87660800  0.62265900  0.74828800  1
  Mn  Mn16  1  0.87159400  0.87159400  0.00000000  1
  Mn  Mn17  1  0.62840600  0.37159400  0.75000000  1
  Mn  Mn18  1  0.62339200  0.12265900  0.00171200  1
  Mn  Mn19  1  0.62265900  0.87660800  0.25171200  1
  Fe  Fe20  1  0.37637400  0.37637400  0.00000000  1
  Fe  Fe21  1  0.12362600  0.87637400  0.75000000  1
  Fe  Fe22  1  0.87637400  0.12362600  0.25000000  1
  Fe  Fe23  1  0.62362600  0.62362600  0.50000000  1
  O  O24  1  0.39086700  0.35586000  0.76051300  1
  O  O25  1  0.39147900  0.12794600  0.97948900  1
  O  O26  1  0.38579200  0.86625200  0.26997100  1
  O  O27  1  0.37205400  0.89147900  0.72948900  1
  O  O28  1  0.38575800  0.64964900  0.50487100  1
  O  O29  1  0.36625200  0.11420800  0.51997100  1
  O  O30  1  0.35586000  0.39086700  0.23948700  1
  O  O31  1  0.35035100  0.61424200  0.99512900  1
  O  O32  1  0.14964900  0.11424200  0.75487100  1
  O  O33  1  0.14414000  0.89086700  0.51051300  1
  O  O34  1  0.13374800  0.61420800  0.23002900  1
  O  O35  1  0.11424200  0.14964900  0.24512900  1
  O  O36  1  0.12794600  0.39147900  0.02051100  1
  O  O37  1  0.11420800  0.36625200  0.48002900  1
  O  O38  1  0.10852100  0.62794600  0.77051100  1
  O  O39  1  0.10913300  0.85586000  0.98948700  1
  O  O40  1  0.89086700  0.14414000  0.48948700  1
  O  O41  1  0.89147900  0.37205400  0.27051100  1
  O  O42  1  0.88579200  0.63374800  0.98002900  1
  O  O43  1  0.87205400  0.60852100  0.52051100  1
  O  O44  1  0.88575800  0.85035100  0.74512900  1
  O  O45  1  0.86625200  0.38579200  0.73002900  1
  O  O46  1  0.85586000  0.10913300  0.01051300  1
  O  O47  1  0.85035100  0.88575800  0.25487100  1
  O  O48  1  0.64964900  0.38575800  0.49512900  1
  O  O49  1  0.64414000  0.60913300  0.73948700  1
  O  O50  1  0.63374800  0.88579200  0.01997100  1
  O  O51  1  0.61424200  0.35035100  0.00487100  1
  O  O52  1  0.62794600  0.10852100  0.22948900  1
  O  O53  1  0.61420800  0.13374800  0.76997100  1
  O  O54  1  0.60852100  0.87205400  0.47948900  1
  O  O55  1  0.60913300  0.64414000  0.26051300  1
