# generated using pymatgen
data_Li2VCrO4
_symmetry_space_group_name_H-M   'P 1'
_cell_length_a   5.95672614
_cell_length_b   5.95672614
_cell_length_c   5.14794636
_cell_angle_alpha   73.67354618
_cell_angle_beta   73.67354618
_cell_angle_gamma   60.50357168
_symmetry_Int_Tables_number   1
_chemical_formula_structural   Li2VCrO4
_chemical_formula_sum   'Li4 V2 Cr2 O8'
_cell_volume   150.33283269
_cell_formula_units_Z   2
loop_
 _symmetry_equiv_pos_site_id
 _symmetry_equiv_pos_as_xyz
  1  'x, y, z'
loop_
 _atom_site_type_symbol
 _atom_site_label
 _atom_site_symmetry_multiplicity
 _atom_site_fract_x
 _atom_site_fract_y
 _atom_site_fract_z
 _atom_site_occupancy
  Li  Li0  1  0.12354500  0.37356400  0.75340300  1
  Li  Li1  1  0.62643600  0.87645500  0.74659700  1
  Li  Li2  1  0.37356400  0.12354500  0.25340300  1
  Li  Li3  1  0.87645500  0.62643600  0.24659700  1
  V  V4  1  0.62414800  0.37585200  0.75000000  1
  V  V5  1  0.37585200  0.62414800  0.25000000  1
  Cr  Cr6  1  0.12313600  0.87686400  0.75000000  1
  Cr  Cr7  1  0.87686400  0.12313600  0.25000000  1
  O  O8  1  0.48663000  0.73995600  0.51074300  1
  O  O9  1  0.99138300  0.23569600  0.50754200  1
  O  O10  1  0.23569600  0.99138300  0.00754200  1
  O  O11  1  0.51337000  0.26004400  0.48925700  1
  O  O12  1  0.00861700  0.76430400  0.49245800  1
  O  O13  1  0.26004400  0.51337000  0.98925700  1
  O  O14  1  0.73995600  0.48663000  0.01074300  1
  O  O15  1  0.76430400  0.00861700  0.99245800  1
