# generated using pymatgen
data_Li4Cr3GaO8
_symmetry_space_group_name_H-M   'P 1'
_cell_length_a   5.14049400
_cell_length_b   5.92846065
_cell_length_c   10.68779034
_cell_angle_alpha   73.90527060
_cell_angle_beta   76.11000092
_cell_angle_gamma   73.23146107
_symmetry_Int_Tables_number   1
_chemical_formula_structural   Li4Cr3GaO8
_chemical_formula_sum   'Li8 Cr6 Ga2 O16'
_cell_volume   295.06807581
_cell_formula_units_Z   2
loop_
 _symmetry_equiv_pos_site_id
 _symmetry_equiv_pos_as_xyz
  1  'x, y, z'
loop_
 _atom_site_type_symbol
 _atom_site_label
 _atom_site_symmetry_multiplicity
 _atom_site_fract_x
 _atom_site_fract_y
 _atom_site_fract_z
 _atom_site_occupancy
  Li  Li0  1  0.00000000  0.00000000  0.50000000  1
  Li  Li1  1  0.99998800  0.62480300  0.75014100  1
  Li  Li2  1  0.00001200  0.37519700  0.24985900  1
  Li  Li3  1  0.99997300  0.75009800  0.99989000  1
  Li  Li4  1  0.00000000  0.50000000  0.50000000  1
  Li  Li5  1  0.99949300  0.12525900  0.74994500  1
  Li  Li6  1  0.00050700  0.87474100  0.25005500  1
  Li  Li7  1  0.00002700  0.24990200  0.00011000  1
  Cr  Cr8  1  0.50000400  0.56231100  0.12510000  1
  Cr  Cr9  1  0.50019500  0.31241200  0.62482700  1
  Cr  Cr10  1  0.49999500  0.93747800  0.87482000  1
  Cr  Cr11  1  0.49980500  0.68758800  0.37517300  1
  Cr  Cr12  1  0.50000500  0.06252200  0.12518000  1
  Cr  Cr13  1  0.49999600  0.43768900  0.87490000  1
  Ga  Ga14  1  0.49996500  0.81270900  0.62488900  1
  Ga  Ga15  1  0.50003500  0.18729100  0.37511100  1
  O  O16  1  0.27527800  0.40094800  0.06040000  1
  O  O17  1  0.72595800  0.22371300  0.18961600  1
  O  O18  1  0.27376200  0.15065700  0.56036300  1
  O  O19  1  0.72564000  0.97363700  0.68935800  1
  O  O20  1  0.72472200  0.59905200  0.93960000  1
  O  O21  1  0.27404200  0.77628700  0.81038400  1
  O  O22  1  0.27464600  0.52594400  0.31052900  1
  O  O23  1  0.72540500  0.34895900  0.43938600  1
  O  O24  1  0.27558000  0.90107200  0.06022000  1
  O  O25  1  0.72435100  0.72386900  0.18976700  1
  O  O26  1  0.27459500  0.65104100  0.56061400  1
  O  O27  1  0.72535400  0.47405600  0.68947100  1
  O  O28  1  0.27564900  0.27613100  0.81023300  1
  O  O29  1  0.27436000  0.02636300  0.31064200  1
  O  O30  1  0.72442000  0.09892800  0.93978000  1
  O  O31  1  0.72623800  0.84934300  0.43963700  1
