# generated using pymatgen
data_Li3V3P8O29
_symmetry_space_group_name_H-M   'P 1'
_cell_length_a   9.75467060
_cell_length_b   9.75467060
_cell_length_c   13.99752578
_cell_angle_alpha   89.41117934
_cell_angle_beta   89.41117934
_cell_angle_gamma   59.82102287
_symmetry_Int_Tables_number   1
_chemical_formula_structural   Li3V3P8O29
_chemical_formula_sum   'Li6 V6 P16 O58'
_cell_volume   1151.30535553
_cell_formula_units_Z   2
loop_
 _symmetry_equiv_pos_site_id
 _symmetry_equiv_pos_as_xyz
  1  'x, y, z'
loop_
 _atom_site_type_symbol
 _atom_site_label
 _atom_site_symmetry_multiplicity
 _atom_site_fract_x
 _atom_site_fract_y
 _atom_site_fract_z
 _atom_site_occupancy
  Li  Li0  1  0.09672500  0.23591800  0.93966000  1
  Li  Li1  1  0.90327500  0.76408200  0.06034000  1
  Li  Li2  1  0.00000000  0.00000000  0.50000000  1
  Li  Li3  1  0.76408200  0.90327500  0.56034000  1
  Li  Li4  1  0.23591800  0.09672500  0.43966000  1
  Li  Li5  1  0.00000000  0.00000000  0.00000000  1
  V  V6  1  0.99353000  0.43747800  0.74429000  1
  V  V7  1  0.43718900  0.56281100  0.75000000  1
  V  V8  1  0.56281100  0.43718900  0.25000000  1
  V  V9  1  0.00647000  0.56252200  0.25571000  1
  V  V10  1  0.43747800  0.99353000  0.24429000  1
  V  V11  1  0.56252200  0.00647000  0.75571000  1
  P  P12  1  0.77715200  0.30543300  0.84438400  1
  P  P13  1  0.77117400  0.91337300  0.34383400  1
  P  P14  1  0.08823900  0.69080200  0.65945400  1
  P  P15  1  0.08662700  0.22882600  0.15616600  1
  P  P16  1  0.33699200  0.32706100  0.37145000  1
  P  P17  1  0.69456700  0.22284800  0.65561600  1
  P  P18  1  0.30919800  0.91176100  0.84054600  1
  P  P19  1  0.22882600  0.08662700  0.65616600  1
  P  P20  1  0.91337300  0.77117400  0.84383400  1
  P  P21  1  0.91176100  0.30919800  0.34054600  1
  P  P22  1  0.67293900  0.66300800  0.12855000  1
  P  P23  1  0.32706100  0.33699200  0.87145000  1
  P  P24  1  0.66300800  0.67293900  0.62855000  1
  P  P25  1  0.30543300  0.77715200  0.34438400  1
  P  P26  1  0.22284800  0.69456700  0.15561600  1
  P  P27  1  0.69080200  0.08823900  0.15945400  1
  O  O28  1  0.91296100  0.46785200  0.32761200  1
  O  O29  1  0.38181200  0.53557100  0.17175900  1
  O  O30  1  0.08877800  0.38398900  0.17365200  1
  O  O31  1  0.46785200  0.91296100  0.82761200  1
  O  O32  1  0.22115700  0.01671400  0.56411500  1
  O  O33  1  0.46442900  0.61818800  0.32824100  1
  O  O34  1  0.26088100  0.65503400  0.66435400  1
  O  O35  1  0.61818800  0.46442900  0.82824100  1
  O  O36  1  0.47851000  0.18638700  0.82484200  1
  O  O37  1  0.79227900  0.21288700  0.93169400  1
  O  O38  1  0.25915000  0.08737200  0.16807000  1
  O  O39  1  0.08703900  0.53214800  0.67238800  1
  O  O40  1  0.53557100  0.38181200  0.67175900  1
  O  O41  1  0.74085000  0.91262800  0.83193000  1
  O  O42  1  0.98328600  0.77884300  0.93588500  1
  O  O43  1  0.21208000  0.00484500  0.92373600  1
  O  O44  1  0.79150700  0.00815600  0.25603500  1
  O  O45  1  0.33285100  0.48002800  0.82397000  1
  O  O46  1  0.20849300  0.99184400  0.74396500  1
  O  O47  1  0.65744100  0.08375400  0.66384000  1
  O  O48  1  0.21288700  0.79227900  0.43169400  1
  O  O49  1  0.08737200  0.25915000  0.66807000  1
  O  O50  1  0.18087400  0.33210700  0.83002700  1
  O  O51  1  0.73911900  0.34496600  0.33564600  1
  O  O52  1  0.66789300  0.81912600  0.66997300  1
  O  O53  1  0.18638700  0.47851000  0.32484200  1
  O  O54  1  0.77884300  0.98328600  0.43588500  1
  O  O55  1  0.38398900  0.08877800  0.67365200  1
  O  O56  1  0.20772100  0.78711300  0.06830600  1
  O  O57  1  0.61601100  0.91122200  0.32634800  1
  O  O58  1  0.33210700  0.18087400  0.33002700  1
  O  O59  1  0.81361300  0.52149000  0.67515800  1
  O  O60  1  0.48002800  0.33285100  0.32397000  1
  O  O61  1  0.20278300  0.79721700  0.25000000  1
  O  O62  1  0.00484500  0.21208000  0.42373600  1
  O  O63  1  0.01671400  0.22115700  0.06411500  1
  O  O64  1  0.00815600  0.79150700  0.75603500  1
  O  O65  1  0.99184400  0.20849300  0.24396500  1
  O  O66  1  0.91122200  0.61601100  0.82634800  1
  O  O67  1  0.32844900  0.33134400  0.47703200  1
  O  O68  1  0.33134400  0.32844900  0.97703200  1
  O  O69  1  0.91262800  0.74085000  0.33193000  1
  O  O70  1  0.81912600  0.66789300  0.16997300  1
  O  O71  1  0.99515500  0.78792000  0.57626400  1
  O  O72  1  0.67155100  0.66865600  0.52296800  1
  O  O73  1  0.78792000  0.99515500  0.07626400  1
  O  O74  1  0.65503400  0.26088100  0.16435400  1
  O  O75  1  0.79721700  0.20278300  0.75000000  1
  O  O76  1  0.66714900  0.51997200  0.17603000  1
  O  O77  1  0.78711300  0.20772100  0.56830600  1
  O  O78  1  0.08375400  0.65744100  0.16384000  1
  O  O79  1  0.51997200  0.66714900  0.67603000  1
  O  O80  1  0.34496600  0.73911900  0.83564600  1
  O  O81  1  0.91624600  0.34255900  0.83616000  1
  O  O82  1  0.66865600  0.67155100  0.02296800  1
  O  O83  1  0.52149000  0.81361300  0.17515800  1
  O  O84  1  0.53214800  0.08703900  0.17238800  1
  O  O85  1  0.34255900  0.91624600  0.33616000  1
