# generated using pymatgen
data_Li2Cr3(SiO3)4
_symmetry_space_group_name_H-M   'P 1'
_cell_length_a   7.60888400
_cell_length_b   10.24138100
_cell_length_c   13.89178300
_cell_angle_alpha   90.00000000
_cell_angle_beta   90.00000000
_cell_angle_gamma   90.00000000
_symmetry_Int_Tables_number   1
_chemical_formula_structural   Li2Cr3(SiO3)4
_chemical_formula_sum   'Li8 Cr12 Si16 O48'
_cell_volume   1082.52385873
_cell_formula_units_Z   4
loop_
 _symmetry_equiv_pos_site_id
 _symmetry_equiv_pos_as_xyz
  1  'x, y, z'
loop_
 _atom_site_type_symbol
 _atom_site_label
 _atom_site_symmetry_multiplicity
 _atom_site_fract_x
 _atom_site_fract_y
 _atom_site_fract_z
 _atom_site_occupancy
  Li  Li0  1  0.03906600  0.75000000  0.14284400  1
  Li  Li1  1  0.22992700  0.75000000  0.49350600  1
  Li  Li2  1  0.27007300  0.25000000  0.99350600  1
  Li  Li3  1  0.46093400  0.25000000  0.64284400  1
  Li  Li4  1  0.53906600  0.75000000  0.35715600  1
  Li  Li5  1  0.72992700  0.75000000  0.00649400  1
  Li  Li6  1  0.77007300  0.25000000  0.50649400  1
  Li  Li7  1  0.96093400  0.25000000  0.85715600  1
  Cr  Cr8  1  0.00000000  0.00000000  0.00000000  1
  Cr  Cr9  1  0.00000000  0.50000000  0.00000000  1
  Cr  Cr10  1  0.23144300  0.75000000  0.71203200  1
  Cr  Cr11  1  0.23215500  0.25000000  0.43288700  1
  Cr  Cr12  1  0.26784500  0.75000000  0.93288700  1
  Cr  Cr13  1  0.26855700  0.25000000  0.21203200  1
  Cr  Cr14  1  0.50000000  0.00000000  0.50000000  1
  Cr  Cr15  1  0.50000000  0.50000000  0.50000000  1
  Cr  Cr16  1  0.73144300  0.75000000  0.78796800  1
  Cr  Cr17  1  0.76784500  0.75000000  0.56711300  1
  Cr  Cr18  1  0.73215500  0.25000000  0.06711300  1
  Cr  Cr19  1  0.76855700  0.25000000  0.28796800  1
  Si  Si20  1  0.17765800  0.03804300  0.62015800  1
  Si  Si21  1  0.17765800  0.46195700  0.62015800  1
  Si  Si22  1  0.22063400  0.54020100  0.33144200  1
  Si  Si23  1  0.22063400  0.95979900  0.33144200  1
  Si  Si24  1  0.27936600  0.45979900  0.83144200  1
  Si  Si25  1  0.27936600  0.04020100  0.83144200  1
  Si  Si26  1  0.32234200  0.53804300  0.12015800  1
  Si  Si27  1  0.32234200  0.96195700  0.12015800  1
  Si  Si28  1  0.67765800  0.03804300  0.87984200  1
  Si  Si29  1  0.67765800  0.46195700  0.87984200  1
  Si  Si30  1  0.72063400  0.54020100  0.16855800  1
  Si  Si31  1  0.72063400  0.95979900  0.16855800  1
  Si  Si32  1  0.77936600  0.04020100  0.66855800  1
  Si  Si33  1  0.77936600  0.45979900  0.66855800  1
  Si  Si34  1  0.82234200  0.53804300  0.37984200  1
  Si  Si35  1  0.82234200  0.96195700  0.37984200  1
  O  O36  1  0.02942500  0.58376800  0.37769400  1
  O  O37  1  0.02942500  0.91623200  0.37769400  1
  O  O38  1  0.13049500  0.10838100  0.89839000  1
  O  O39  1  0.13049500  0.39161900  0.89839000  1
  O  O40  1  0.20576300  0.88230600  0.60667900  1
  O  O41  1  0.20576300  0.61769400  0.60667900  1
  O  O42  1  0.21947800  0.61203800  0.03232900  1
  O  O43  1  0.21947800  0.88796200  0.03232900  1
  O  O44  1  0.23647500  0.11919000  0.32307500  1
  O  O45  1  0.23647500  0.38081000  0.32307500  1
  O  O46  1  0.22788500  0.59648900  0.21953000  1
  O  O47  1  0.22788500  0.90351100  0.21953000  1
  O  O48  1  0.27211500  0.40351100  0.71953000  1
  O  O49  1  0.27211500  0.09648900  0.71953000  1
  O  O50  1  0.26352500  0.61919000  0.82307500  1
  O  O51  1  0.26352500  0.88081000  0.82307500  1
  O  O52  1  0.28052200  0.11203800  0.53232900  1
  O  O53  1  0.28052200  0.38796200  0.53232900  1
  O  O54  1  0.29423700  0.38230600  0.10667900  1
  O  O55  1  0.29423700  0.11769400  0.10667900  1
  O  O56  1  0.36950500  0.60838100  0.39839000  1
  O  O57  1  0.36950500  0.89161900  0.39839000  1
  O  O58  1  0.47057500  0.08376800  0.87769400  1
  O  O59  1  0.47057500  0.41623200  0.87769400  1
  O  O60  1  0.52942500  0.91623200  0.12230600  1
  O  O61  1  0.52942500  0.58376800  0.12230600  1
  O  O62  1  0.63049500  0.10838100  0.60161000  1
  O  O63  1  0.63049500  0.39161900  0.60161000  1
  O  O64  1  0.70576300  0.61769400  0.89332100  1
  O  O65  1  0.70576300  0.88230600  0.89332100  1
  O  O66  1  0.71947800  0.61203800  0.46767100  1
  O  O67  1  0.71947800  0.88796200  0.46767100  1
  O  O68  1  0.73647500  0.11919000  0.17692500  1
  O  O69  1  0.73647500  0.38081000  0.17692500  1
  O  O70  1  0.72788500  0.59648900  0.28047000  1
  O  O71  1  0.72788500  0.90351100  0.28047000  1
  O  O72  1  0.77211500  0.09648900  0.78047000  1
  O  O73  1  0.77211500  0.40351100  0.78047000  1
  O  O74  1  0.76352500  0.61919000  0.67692500  1
  O  O75  1  0.76352500  0.88081000  0.67692500  1
  O  O76  1  0.78052200  0.11203800  0.96767100  1
  O  O77  1  0.78052200  0.38796200  0.96767100  1
  O  O78  1  0.79423700  0.11769400  0.39332100  1
  O  O79  1  0.79423700  0.38230600  0.39332100  1
  O  O80  1  0.86950500  0.60838100  0.10161000  1
  O  O81  1  0.86950500  0.89161900  0.10161000  1
  O  O82  1  0.97057500  0.08376800  0.62230600  1
  O  O83  1  0.97057500  0.41623200  0.62230600  1
