# generated using pymatgen
data_LiVP2HO8
_symmetry_space_group_name_H-M   'P 1'
_cell_length_a   7.46057700
_cell_length_b   7.98248802
_cell_length_c   9.74457851
_cell_angle_alpha   90.14067980
_cell_angle_beta   104.78890611
_cell_angle_gamma   90.09077621
_symmetry_Int_Tables_number   1
_chemical_formula_structural   LiVP2HO8
_chemical_formula_sum   'Li4 V4 P8 H4 O32'
_cell_volume   561.10051004
_cell_formula_units_Z   4
loop_
 _symmetry_equiv_pos_site_id
 _symmetry_equiv_pos_as_xyz
  1  'x, y, z'
loop_
 _atom_site_type_symbol
 _atom_site_label
 _atom_site_symmetry_multiplicity
 _atom_site_fract_x
 _atom_site_fract_y
 _atom_site_fract_z
 _atom_site_occupancy
  Li  Li0  1  0.65206300  0.62960400  0.05292500  1
  Li  Li1  1  0.14462500  0.86952700  0.29000200  1
  Li  Li2  1  0.85450500  0.12779100  0.70494800  1
  Li  Li3  1  0.35158800  0.36902900  0.95006000  1
  V  V4  1  0.00679900  0.48816500  0.25497800  1
  V  V5  1  0.49731200  0.00020200  0.50098500  1
  V  V6  1  0.99726800  0.50881300  0.74612400  1
  V  V7  1  0.49843800  0.99973600  0.99930600  1
  P  P8  1  0.26510600  0.65394400  0.06328900  1
  P  P9  1  0.23069000  0.14881300  0.18183400  1
  P  P10  1  0.76059800  0.84922800  0.31208300  1
  P  P11  1  0.73414200  0.34776100  0.43727200  1
  P  P12  1  0.26865300  0.64839400  0.56515000  1
  P  P13  1  0.23331300  0.14787300  0.68791800  1
  P  P14  1  0.76599600  0.84618200  0.81690900  1
  P  P15  1  0.73757600  0.34366200  0.93733500  1
  H  H16  1  0.51363600  0.48721900  0.27015800  1
  H  H17  1  0.98886400  0.99314400  0.48518100  1
  H  H18  1  0.49234500  0.50836500  0.74051700  1
  H  H19  1  0.99459900  0.99428600  0.99163700  1
  O  O20  1  0.84664800  0.44620300  0.07126400  1
  O  O21  1  0.31560400  0.82903600  0.02061000  1
  O  O22  1  0.35771000  0.17340200  0.07807500  1
  O  O23  1  0.44050400  0.54998700  0.12128500  1
  O  O24  1  0.65097300  0.94852200  0.18044400  1
  O  O25  1  0.80899800  0.67630000  0.26112300  1
  O  O26  1  0.05929900  0.04218700  0.12044600  1
  O  O27  1  0.14008600  0.66869800  0.16803700  1
  O  O28  1  0.85983100  0.32789100  0.33526800  1
  O  O29  1  0.94723200  0.93952000  0.37925100  1
  O  O30  1  0.17975800  0.32524700  0.22388100  1
  O  O31  1  0.34061400  0.05092100  0.31439600  1
  O  O32  1  0.55401600  0.44519300  0.37391400  1
  O  O33  1  0.63900900  0.84220200  0.41865700  1
  O  O34  1  0.68504300  0.17725100  0.49330700  1
  O  O35  1  0.84946700  0.44438400  0.57128000  1
  O  O36  1  0.15605300  0.54974400  0.43039600  1
  O  O37  1  0.31578400  0.81877500  0.50690700  1
  O  O38  1  0.36234100  0.15496800  0.58410800  1
  O  O39  1  0.44724000  0.55388800  0.63425600  1
  O  O40  1  0.65844400  0.94655900  0.68620500  1
  O  O41  1  0.82022500  0.67176200  0.77481700  1
  O  O42  1  0.05208600  0.06040200  0.61862300  1
  O  O43  1  0.13709100  0.67082600  0.66288200  1
  O  O44  1  0.86251400  0.32742200  0.83292900  1
  O  O45  1  0.93997000  0.95394900  0.87751100  1
  O  O46  1  0.19545700  0.32376000  0.74144800  1
  O  O47  1  0.34834800  0.04920200  0.82006600  1
  O  O48  1  0.56173400  0.44783900  0.87837900  1
  O  O49  1  0.64276600  0.82369000  0.92275900  1
  O  O50  1  0.68339300  0.16967800  0.97980600  1
  O  O51  1  0.15364200  0.55315700  0.92905600  1
