# generated using pymatgen
data_Li4CoO4
_symmetry_space_group_name_H-M   'P 1'
_cell_length_a   4.80287200
_cell_length_b   8.82908801
_cell_length_c   8.80159287
_cell_angle_alpha   89.99978861
_cell_angle_beta   90.00092356
_cell_angle_gamma   89.99979363
_symmetry_Int_Tables_number   1
_chemical_formula_structural   Li4CoO4
_chemical_formula_sum   'Li16 Co4 O16'
_cell_volume   373.23136555
_cell_formula_units_Z   4
loop_
 _symmetry_equiv_pos_site_id
 _symmetry_equiv_pos_as_xyz
  1  'x, y, z'
loop_
 _atom_site_type_symbol
 _atom_site_label
 _atom_site_symmetry_multiplicity
 _atom_site_fract_x
 _atom_site_fract_y
 _atom_site_fract_z
 _atom_site_occupancy
  Li  Li0  1  0.75001000  0.50001100  0.44803700  1
  Li  Li1  1  0.75001000  0.00001100  0.94804100  1
  Li  Li2  1  0.75000300  0.50001100  0.05196400  1
  Li  Li3  1  0.75000500  0.00001100  0.55196000  1
  Li  Li4  1  0.25000400  0.30177300  0.74999900  1
  Li  Li5  1  0.25000300  0.80176900  0.24999900  1
  Li  Li6  1  0.25000000  0.69824800  0.75000100  1
  Li  Li7  1  0.25000200  0.19825500  0.25000100  1
  Li  Li8  1  0.18458000  0.25001000  0.99999900  1
  Li  Li9  1  0.18457700  0.75000500  0.49999900  1
  Li  Li10  1  0.68468200  0.25001100  0.99999800  1
  Li  Li11  1  0.68468300  0.75001000  0.50001000  1
  Li  Li12  1  0.31543300  0.75000600  0.99999900  1
  Li  Li13  1  0.31543300  0.25001000  0.50000000  1
  Li  Li14  1  0.81532600  0.75000800  0.99998700  1
  Li  Li15  1  0.81532600  0.25000900  0.50000000  1
  Co  Co16  1  0.25000500  0.00001000  0.74999900  1
  Co  Co17  1  0.75000100  0.00001000  0.24999900  1
  Co  Co18  1  0.25000500  0.50001100  0.24999900  1
  Co  Co19  1  0.75000400  0.50001000  0.75000100  1
  O  O20  1  0.94526700  0.61850400  0.61895900  1
  O  O21  1  0.94527000  0.11850200  0.11895900  1
  O  O22  1  0.44577000  0.36881600  0.13192500  1
  O  O23  1  0.44577900  0.86882000  0.63192600  1
  O  O24  1  0.44577200  0.63120500  0.36807900  1
  O  O25  1  0.44578000  0.13120400  0.86807900  1
  O  O26  1  0.94526700  0.38151200  0.88104600  1
  O  O27  1  0.94526800  0.88151400  0.38104500  1
  O  O28  1  0.05423400  0.63120500  0.13192000  1
  O  O29  1  0.05422600  0.13120300  0.63192200  1
  O  O30  1  0.55474100  0.38151300  0.61895300  1
  O  O31  1  0.55473900  0.88151300  0.11895400  1
  O  O32  1  0.55473900  0.61850500  0.88104300  1
  O  O33  1  0.55473400  0.11850300  0.38104200  1
  O  O34  1  0.05424000  0.36881900  0.36807400  1
  O  O35  1  0.05422700  0.86882000  0.86807400  1
