# generated using pymatgen
data_Li4V2Fe3Sb3O16
_symmetry_space_group_name_H-M   'P 1'
_cell_length_a   6.08588419
_cell_length_b   6.14159838
_cell_length_c   9.73031457
_cell_angle_alpha   90.07168240
_cell_angle_beta   91.02592136
_cell_angle_gamma   119.67294276
_symmetry_Int_Tables_number   1
_chemical_formula_structural   Li4V2Fe3Sb3O16
_chemical_formula_sum   'Li4 V2 Fe3 Sb3 O16'
_cell_volume   315.92603160
_cell_formula_units_Z   1
loop_
 _symmetry_equiv_pos_site_id
 _symmetry_equiv_pos_as_xyz
  1  'x, y, z'
loop_
 _atom_site_type_symbol
 _atom_site_label
 _atom_site_symmetry_multiplicity
 _atom_site_fract_x
 _atom_site_fract_y
 _atom_site_fract_z
 _atom_site_occupancy
  Li  Li0  1  0.33225200  0.66329400  0.88038700  1
  Li  Li1  1  0.95855400  0.98014500  0.98792600  1
  Li  Li2  1  0.97669000  0.98577700  0.50178700  1
  Li  Li3  1  0.65364600  0.32666400  0.40147700  1
  V  V4  1  0.34796300  0.67806300  0.49842100  1
  V  V5  1  0.69366900  0.34525600  0.97710100  1
  Fe  Fe6  1  0.66490100  0.83173700  0.21493000  1
  Fe  Fe7  1  0.83529800  0.66362700  0.71388500  1
  Fe  Fe8  1  0.83360000  0.17210700  0.71356000  1
  Sb  Sb9  1  0.17149600  0.83357800  0.21350200  1
  Sb  Sb10  1  0.17234800  0.33978800  0.21422800  1
  Sb  Sb11  1  0.34259800  0.17050700  0.71430700  1
  O  O12  1  0.17783000  0.85290400  0.59653900  1
  O  O13  1  0.03393000  0.51945500  0.33660000  1
  O  O14  1  0.32720000  0.66273100  0.10187200  1
  O  O15  1  0.01081000  0.00766700  0.31596700  1
  O  O16  1  0.01413600  0.01636700  0.80908600  1
  O  O17  1  0.17068600  0.32968800  0.59791600  1
  O  O18  1  0.47277500  0.95955900  0.33676900  1
  O  O19  1  0.47258600  0.51070100  0.33784400  1
  O  O20  1  0.32051700  0.15964200  0.10200100  1
  O  O21  1  0.66606000  0.84052600  0.59864700  1
  O  O22  1  0.50669700  0.46296000  0.84963000  1
  O  O23  1  0.52003100  0.03630500  0.84199200  1
  O  O24  1  0.65565800  0.31886600  0.60230400  1
  O  O25  1  0.85462600  0.68540600  0.10179900  1
  O  O26  1  0.96028400  0.47089600  0.84535700  1
  O  O27  1  0.85315900  0.17608500  0.10200400  1
