# generated using pymatgen
data_Li4Cr3CoO8
_symmetry_space_group_name_H-M   'P 1'
_cell_length_a   5.10918500
_cell_length_b   5.86102219
_cell_length_c   10.56417723
_cell_angle_alpha   73.91037264
_cell_angle_beta   76.20451092
_cell_angle_gamma   73.34834458
_symmetry_Int_Tables_number   1
_chemical_formula_structural   Li4Cr3CoO8
_chemical_formula_sum   'Li8 Cr6 Co2 O16'
_cell_volume   286.82780161
_cell_formula_units_Z   2
loop_
 _symmetry_equiv_pos_site_id
 _symmetry_equiv_pos_as_xyz
  1  'x, y, z'
loop_
 _atom_site_type_symbol
 _atom_site_label
 _atom_site_symmetry_multiplicity
 _atom_site_fract_x
 _atom_site_fract_y
 _atom_site_fract_z
 _atom_site_occupancy
  Li  Li0  1  0.00618100  0.93342600  0.37504200  1
  Li  Li1  1  0.99778400  0.55872000  0.62876200  1
  Li  Li2  1  0.99186700  0.31609800  0.12645700  1
  Li  Li3  1  0.00813300  0.68390200  0.87354300  1
  Li  Li4  1  0.00221600  0.44128000  0.37123800  1
  Li  Li5  1  0.99381900  0.06657400  0.62495800  1
  Li  Li6  1  0.00000700  0.80930900  0.12718300  1
  Li  Li7  1  0.99999300  0.19069100  0.87281700  1
  Cr  Cr8  1  0.49969600  0.74792000  0.50017300  1
  Cr  Cr9  1  0.50019600  0.12471800  0.25021200  1
  Cr  Cr10  1  0.50000000  0.50000000  0.00000000  1
  Cr  Cr11  1  0.50030400  0.25208000  0.49982700  1
  Cr  Cr12  1  0.49980400  0.87528200  0.74978800  1
  Cr  Cr13  1  0.50000000  0.00000000  0.00000000  1
  Co  Co14  1  0.49989800  0.62514800  0.24982300  1
  Co  Co15  1  0.50010200  0.37485200  0.75017700  1
  O  O16  1  0.27653300  0.33974300  0.93244800  1
  O  O17  1  0.72695700  0.16116100  0.06471600  1
  O  O18  1  0.27306100  0.08874600  0.43626200  1
  O  O19  1  0.72693900  0.91125400  0.56373800  1
  O  O20  1  0.72237100  0.53362300  0.81334000  1
  O  O21  1  0.27650000  0.70709600  0.68697000  1
  O  O22  1  0.27762900  0.46637700  0.18666000  1
  O  O23  1  0.72350000  0.29290400  0.31303000  1
  O  O24  1  0.27304300  0.83883900  0.93528400  1
  O  O25  1  0.72346700  0.66025700  0.06755200  1
  O  O26  1  0.27655100  0.58983200  0.43157300  1
  O  O27  1  0.72344900  0.41016800  0.56842700  1
  O  O28  1  0.27792100  0.21756300  0.68644300  1
  O  O29  1  0.27674400  0.95808400  0.18695500  1
  O  O30  1  0.72325600  0.04191600  0.81304500  1
  O  O31  1  0.72207900  0.78243700  0.31355700  1
