# generated using pymatgen
data_Li3MnFeCo(PO4)3
_symmetry_space_group_name_H-M   'P 1'
_cell_length_a   10.43749902
_cell_length_b   6.07784800
_cell_length_c   14.27562801
_cell_angle_alpha   90.00000000
_cell_angle_beta   90.00573789
_cell_angle_gamma   90.00000000
_symmetry_Int_Tables_number   1
_chemical_formula_structural   Li3MnFeCo(PO4)3
_chemical_formula_sum   'Li12 Mn4 Fe4 Co4 P12 O48'
_cell_volume   905.61061188
_cell_formula_units_Z   4
loop_
 _symmetry_equiv_pos_site_id
 _symmetry_equiv_pos_as_xyz
  1  'x, y, z'
loop_
 _atom_site_type_symbol
 _atom_site_label
 _atom_site_symmetry_multiplicity
 _atom_site_fract_x
 _atom_site_fract_y
 _atom_site_fract_z
 _atom_site_occupancy
  Li  Li0  1  0.99617000  0.50070600  0.66718500  1
  Li  Li1  1  0.99693800  0.00074700  0.99974700  1
  Li  Li2  1  0.99693800  0.49925300  0.99974700  1
  Li  Li3  1  0.99992800  0.99932900  0.33346400  1
  Li  Li4  1  0.99992800  0.50067100  0.33346400  1
  Li  Li5  1  0.99617000  0.99929400  0.66718500  1
  Li  Li6  1  0.50107700  0.00087100  0.50038400  1
  Li  Li7  1  0.50107700  0.49912900  0.50038400  1
  Li  Li8  1  0.50253500  0.99879500  0.16688100  1
  Li  Li9  1  0.50253500  0.50120500  0.16688100  1
  Li  Li10  1  0.50436300  0.99851100  0.83262400  1
  Li  Li11  1  0.50436300  0.50148900  0.83262400  1
  Mn  Mn12  1  0.21801000  0.75000000  0.16031400  1
  Mn  Mn13  1  0.21845100  0.75000000  0.82644700  1
  Mn  Mn14  1  0.28131900  0.25000000  0.66010600  1
  Mn  Mn15  1  0.28165700  0.25000000  0.99349700  1
  Fe  Fe16  1  0.21847600  0.75000000  0.49203400  1
  Fe  Fe17  1  0.27975800  0.25000000  0.32781400  1
  Fe  Fe18  1  0.72421300  0.75000000  0.00428300  1
  Fe  Fe19  1  0.72000700  0.75000000  0.33932700  1
  Co  Co20  1  0.72293700  0.75000000  0.67236500  1
  Co  Co21  1  0.77702400  0.25000000  0.83937800  1
  Co  Co22  1  0.77988200  0.25000000  0.50554000  1
  Co  Co23  1  0.77709100  0.25000000  0.17439400  1
  P  P24  1  0.08936600  0.25000000  0.80584500  1
  P  P25  1  0.09057400  0.25000000  0.13980500  1
  P  P26  1  0.09217900  0.25000000  0.47314100  1
  P  P27  1  0.40665800  0.75000000  0.30722400  1
  P  P28  1  0.40857900  0.75000000  0.63745300  1
  P  P29  1  0.41064700  0.75000000  0.97241800  1
  P  P30  1  0.59719500  0.25000000  0.36152600  1
  P  P31  1  0.59873900  0.25000000  0.02833100  1
  P  P32  1  0.59823000  0.25000000  0.69364700  1
  P  P33  1  0.90171500  0.75000000  0.86085800  1
  P  P34  1  0.90167100  0.75000000  0.19410600  1
  P  P35  1  0.90357500  0.75000000  0.52669600  1
  O  O36  1  0.03917300  0.75000000  0.23604100  1
  O  O37  1  0.04214500  0.75000000  0.56745200  1
  O  O38  1  0.03942200  0.75000000  0.90176200  1
  O  O39  1  0.09622800  0.25000000  0.58055700  1
  O  O40  1  0.09457700  0.25000000  0.91339200  1
  O  O41  1  0.09712000  0.25000000  0.24736400  1
  O  O42  1  0.16067400  0.04788000  0.09415300  1
  O  O43  1  0.16067400  0.45212000  0.09415300  1
  O  O44  1  0.16423100  0.04811400  0.42782100  1
  O  O45  1  0.16423100  0.45188600  0.42782100  1
  O  O46  1  0.15969600  0.04764400  0.76048300  1
  O  O47  1  0.15969600  0.45235600  0.76048300  1
  O  O48  1  0.33829300  0.54751400  0.59185800  1
  O  O49  1  0.33829300  0.95248600  0.59185800  1
  O  O50  1  0.33648700  0.54695700  0.26225600  1
  O  O51  1  0.33648700  0.95304300  0.26225600  1
  O  O52  1  0.34015500  0.54805300  0.92714800  1
  O  O53  1  0.34015500  0.95194700  0.92714800  1
  O  O54  1  0.40190200  0.75000000  0.41487700  1
  O  O55  1  0.40511700  0.75000000  0.07980100  1
  O  O56  1  0.40265900  0.75000000  0.74510800  1
  O  O57  1  0.45884300  0.25000000  0.40100800  1
  O  O58  1  0.46051600  0.25000000  0.06903600  1
  O  O59  1  0.46026600  0.25000000  0.73520400  1
  O  O60  1  0.54569500  0.75000000  0.26693900  1
  O  O61  1  0.54957800  0.75000000  0.93215600  1
  O  O62  1  0.54782500  0.75000000  0.59863600  1
  O  O63  1  0.60137600  0.25000000  0.25354100  1
  O  O64  1  0.60143300  0.25000000  0.92031600  1
  O  O65  1  0.60155100  0.25000000  0.58593700  1
  O  O66  1  0.66847600  0.04613300  0.07306400  1
  O  O67  1  0.66760500  0.04695300  0.40722000  1
  O  O68  1  0.66863300  0.04564400  0.73817300  1
  O  O69  1  0.66863300  0.45435600  0.73817300  1
  O  O70  1  0.66847600  0.45386700  0.07306400  1
  O  O71  1  0.66760500  0.45304700  0.40722000  1
  O  O72  1  0.83127800  0.54637600  0.90573600  1
  O  O73  1  0.83127800  0.95362400  0.90573600  1
  O  O74  1  0.83088300  0.54665400  0.23865300  1
  O  O75  1  0.83322100  0.54622300  0.57194900  1
  O  O76  1  0.83088300  0.95334600  0.23865300  1
  O  O77  1  0.83322100  0.95377700  0.57194900  1
  O  O78  1  0.89904200  0.75000000  0.75268700  1
  O  O79  1  0.90035300  0.75000000  0.41873200  1
  O  O80  1  0.89981600  0.75000000  0.08616700  1
  O  O81  1  0.95050100  0.25000000  0.76621800  1
  O  O82  1  0.95166900  0.25000000  0.10056100  1
  O  O83  1  0.95394700  0.25000000  0.43236800  1
