# generated using pymatgen
data_Li2Cr2Si5O13
_symmetry_space_group_name_H-M   'P 1'
_cell_length_a   7.65969200
_cell_length_b   7.95208076
_cell_length_c   9.85875713
_cell_angle_alpha   82.99732795
_cell_angle_beta   111.33292245
_cell_angle_gamma   111.03266601
_symmetry_Int_Tables_number   1
_chemical_formula_structural   Li2Cr2Si5O13
_chemical_formula_sum   'Li4 Cr4 Si10 O26'
_cell_volume   522.06432122
_cell_formula_units_Z   2
loop_
 _symmetry_equiv_pos_site_id
 _symmetry_equiv_pos_as_xyz
  1  'x, y, z'
loop_
 _atom_site_type_symbol
 _atom_site_label
 _atom_site_symmetry_multiplicity
 _atom_site_fract_x
 _atom_site_fract_y
 _atom_site_fract_z
 _atom_site_occupancy
  Li  Li0  1  0.21909500  0.93415100  0.14784100  1
  Li  Li1  1  0.15170500  0.60025500  0.25881600  1
  Li  Li2  1  0.84829500  0.39974500  0.74118400  1
  Li  Li3  1  0.78090500  0.06584900  0.85215900  1
  Cr  Cr4  1  0.03759300  0.85103800  0.39904700  1
  Cr  Cr5  1  0.43307900  0.16380300  0.59608500  1
  Cr  Cr6  1  0.56692100  0.83619700  0.40391500  1
  Cr  Cr7  1  0.96240700  0.14896200  0.60095300  1
  Si  Si8  1  0.16774800  0.77443400  0.73711300  1
  Si  Si9  1  0.20339900  0.30332900  0.95203900  1
  Si  Si10  1  0.31601100  0.54470800  0.59466400  1
  Si  Si11  1  0.24085300  0.24564000  0.26293800  1
  Si  Si12  1  0.61701100  0.29397800  0.95372300  1
  Si  Si13  1  0.38298900  0.70602200  0.04627700  1
  Si  Si14  1  0.75914700  0.75436000  0.73706200  1
  Si  Si15  1  0.68398900  0.45529200  0.40533600  1
  Si  Si16  1  0.79660100  0.69667100  0.04796100  1
  Si  Si17  1  0.83225200  0.22556600  0.26288700  1
  O  O18  1  0.00744900  0.22838900  0.81092200  1
  O  O19  1  0.18407900  0.94139800  0.62435100  1
  O  O20  1  0.32024300  0.83539400  0.90492700  1
  O  O21  1  0.20742800  0.60667900  0.68865200  1
  O  O22  1  0.05964800  0.31695100  0.25264400  1
  O  O23  1  0.39895100  0.30282200  0.92602800  1
  O  O24  1  0.21277400  0.32936800  0.57085400  1
  O  O25  1  0.31579500  0.67257500  0.45280900  1
  O  O26  1  0.55406900  0.58272400  0.69930700  1
  O  O27  1  0.37272800  0.78146400  0.18675500  1
  O  O28  1  0.22071800  0.50060100  0.00055600  1
  O  O29  1  0.26679600  0.08034400  0.37331800  1
  O  O30  1  0.18580100  0.16998200  0.09588400  1
  O  O31  1  0.81419900  0.83001800  0.90411600  1
  O  O32  1  0.73320400  0.91965600  0.62668200  1
  O  O33  1  0.77928200  0.49939900  0.99944400  1
  O  O34  1  0.62727200  0.21853600  0.81324500  1
  O  O35  1  0.44593100  0.41727600  0.30069300  1
  O  O36  1  0.68420500  0.32742500  0.54719100  1
  O  O37  1  0.78722600  0.67063200  0.42914600  1
  O  O38  1  0.60104900  0.69717800  0.07397200  1
  O  O39  1  0.94035200  0.68304900  0.74735600  1
  O  O40  1  0.79257200  0.39332100  0.31134800  1
  O  O41  1  0.67975700  0.16460600  0.09507300  1
  O  O42  1  0.81592100  0.05860200  0.37564900  1
  O  O43  1  0.99255100  0.77161100  0.18907800  1
