# generated using pymatgen
data_Li4Ti3(CoO4)3
_symmetry_space_group_name_H-M   'P 1'
_cell_length_a   7.95131919
_cell_length_b   8.32734546
_cell_length_c   7.94472370
_cell_angle_alpha   104.30178409
_cell_angle_beta   65.66149025
_cell_angle_gamma   106.22103932
_symmetry_Int_Tables_number   1
_chemical_formula_structural   Li4Ti3(CoO4)3
_chemical_formula_sum   'Li8 Ti6 Co6 O24'
_cell_volume   454.95423337
_cell_formula_units_Z   2
loop_
 _symmetry_equiv_pos_site_id
 _symmetry_equiv_pos_as_xyz
  1  'x, y, z'
loop_
 _atom_site_type_symbol
 _atom_site_label
 _atom_site_symmetry_multiplicity
 _atom_site_fract_x
 _atom_site_fract_y
 _atom_site_fract_z
 _atom_site_occupancy
  Li  Li0  1  0.91710100  0.58348300  0.41655000  1
  Li  Li1  1  0.41635100  0.08329300  0.91672300  1
  Li  Li2  1  0.16971300  0.83545100  0.16499400  1
  Li  Li3  1  0.66371600  0.33113500  0.66826700  1
  Li  Li4  1  0.72790500  0.72052900  0.27047800  1
  Li  Li5  1  0.23680600  0.23337100  0.75762700  1
  Li  Li6  1  0.59735100  0.93406500  0.07527800  1
  Li  Li7  1  0.10481900  0.44556600  0.56326700  1
  Ti  Ti8  1  0.16258700  0.32147700  0.16160800  1
  Ti  Ti9  1  0.67058400  0.84549200  0.67168200  1
  Ti  Ti10  1  0.33826000  0.18707800  0.34868400  1
  Ti  Ti11  1  0.82778600  0.67317700  0.84280600  1
  Ti  Ti12  1  0.49475500  0.97961600  0.48442200  1
  Ti  Ti13  1  0.00544400  0.49357400  0.99024300  1
  Co  Co14  1  0.91668700  0.08321700  0.41652200  1
  Co  Co15  1  0.58248000  0.41583400  0.07917100  1
  Co  Co16  1  0.25086100  0.75075000  0.75410600  1
  Co  Co17  1  0.41670500  0.58339100  0.91679200  1
  Co  Co18  1  0.08127800  0.91576900  0.58225000  1
  Co  Co19  1  0.75187900  0.25109900  0.25145000  1
  O  O20  1  0.26959900  0.98023400  0.72083100  1
  O  O21  1  0.76908900  0.47799500  0.22076100  1
  O  O22  1  0.06428700  0.68865300  0.61260900  1
  O  O23  1  0.56376600  0.18645600  0.11257200  1
  O  O24  1  0.49807200  0.23152700  0.49057100  1
  O  O25  1  0.00287700  0.73023200  0.98784600  1
  O  O26  1  0.33514000  0.93501500  0.34279300  1
  O  O27  1  0.83065100  0.43629400  0.84542200  1
  O  O28  1  0.89940000  0.83420900  0.44017300  1
  O  O29  1  0.40182500  0.33537100  0.93743000  1
  O  O30  1  0.43157100  0.83126300  0.89585100  1
  O  O31  1  0.93390100  0.33233200  0.39320300  1
  O  O32  1  0.17573500  0.10008100  0.18565600  1
  O  O33  1  0.67457300  0.60100900  0.69058900  1
  O  O34  1  0.15875600  0.56547300  0.14287100  1
  O  O35  1  0.65766100  0.06658800  0.64769100  1
  O  O36  1  0.32455200  0.39975000  0.31799000  1
  O  O37  1  0.82359500  0.90096100  0.82183900  1
  O  O38  1  0.00974500  0.26570300  0.01152100  1
  O  O39  1  0.50874500  0.76693200  0.51541000  1
  O  O40  1  0.60594200  0.65035800  0.07106300  1
  O  O41  1  0.10570900  0.14644500  0.56423900  1
  O  O42  1  0.72755900  0.02026500  0.26917200  1
  O  O43  1  0.22751600  0.51615800  0.76230500  1
