# generated using pymatgen
data_NaLi2MnPCO7
_symmetry_space_group_name_H-M   'P 1'
_cell_length_a   6.65221300
_cell_length_b   8.71873597
_cell_length_c   10.08034748
_cell_angle_alpha   89.00357158
_cell_angle_beta   89.95278376
_cell_angle_gamma   89.88694922
_symmetry_Int_Tables_number   1
_chemical_formula_structural   NaLi2MnPCO7
_chemical_formula_sum   'Na4 Li8 Mn4 P4 C4 O28'
_cell_volume   584.55922227
_cell_formula_units_Z   4
loop_
 _symmetry_equiv_pos_site_id
 _symmetry_equiv_pos_as_xyz
  1  'x, y, z'
loop_
 _atom_site_type_symbol
 _atom_site_label
 _atom_site_symmetry_multiplicity
 _atom_site_fract_x
 _atom_site_fract_y
 _atom_site_fract_z
 _atom_site_occupancy
  Na  Na0  1  0.74586700  0.08415900  0.87793100  1
  Na  Na1  1  0.74790500  0.08427700  0.37860400  1
  Na  Na2  1  0.00296100  0.25158000  0.12444500  1
  Na  Na3  1  0.49957900  0.74845400  0.37634200  1
  Li  Li4  1  0.97953500  0.26507500  0.61690400  1
  Li  Li5  1  0.52215500  0.26692800  0.61388400  1
  Li  Li6  1  0.51802900  0.26804900  0.11530500  1
  Li  Li7  1  0.48215100  0.73647500  0.88205500  1
  Li  Li8  1  0.01971100  0.73469000  0.88562000  1
  Li  Li9  1  0.01591700  0.73384600  0.38443700  1
  Li  Li10  1  0.24587700  0.91780600  0.62800500  1
  Li  Li11  1  0.25088100  0.91266300  0.12341300  1
  Mn  Mn12  1  0.25280700  0.35782200  0.88434600  1
  Mn  Mn13  1  0.25228600  0.35980900  0.39173500  1
  Mn  Mn14  1  0.75342000  0.64464100  0.61589600  1
  Mn  Mn15  1  0.75152500  0.64196800  0.10891900  1
  P  P16  1  0.74991900  0.41251300  0.84947900  1
  P  P17  1  0.75169700  0.41276800  0.35552500  1
  P  P18  1  0.25019600  0.59339100  0.65124700  1
  P  P19  1  0.25057800  0.59294200  0.14541200  1
  C  C20  1  0.25018400  0.04146100  0.86579900  1
  C  C21  1  0.24300900  0.04602800  0.36586600  1
  C  C22  1  0.75085900  0.95047100  0.63339400  1
  C  C23  1  0.74269600  0.94582200  0.13227700  1
  O  O24  1  0.75139400  0.10019800  0.64034400  1
  O  O25  1  0.72374400  0.09435000  0.14157400  1
  O  O26  1  0.24710400  0.08840000  0.98787800  1
  O  O27  1  0.25052700  0.08982000  0.48844400  1
  O  O28  1  0.25275400  0.14081400  0.76762600  1
  O  O29  1  0.25813200  0.14770800  0.26945400  1
  O  O30  1  0.93808800  0.32292800  0.89806800  1
  O  O31  1  0.56697800  0.32062500  0.90440400  1
  O  O32  1  0.93703400  0.31434600  0.39893900  1
  O  O33  1  0.56670000  0.32591000  0.41400000  1
  O  O34  1  0.74645300  0.41342800  0.69386100  1
  O  O35  1  0.24749500  0.42340200  0.60305400  1
  O  O36  1  0.73479800  0.41818200  0.20051500  1
  O  O37  1  0.26795500  0.42627400  0.09388000  1
  O  O38  1  0.74716000  0.58218000  0.89508500  1
  O  O39  1  0.24581700  0.58646500  0.80677400  1
  O  O40  1  0.76813300  0.57910600  0.40452800  1
  O  O41  1  0.23410400  0.58186100  0.30012400  1
  O  O42  1  0.43726200  0.68446600  0.60457900  1
  O  O43  1  0.06930500  0.68863100  0.59776800  1
  O  O44  1  0.43351300  0.69428600  0.10376100  1
  O  O45  1  0.06685900  0.68185500  0.08809200  1
  O  O46  1  0.75301800  0.86532300  0.74011200  1
  O  O47  1  0.75579300  0.86000100  0.23837100  1
  O  O48  1  0.74826300  0.88475900  0.51882700  1
  O  O49  1  0.74933900  0.88222700  0.01706600  1
  O  O50  1  0.25096200  0.89591400  0.83991700  1
  O  O51  1  0.22156900  0.90290200  0.33611400  1
