# generated using pymatgen
data_Li8Mn7Fe(BO3)8
_symmetry_space_group_name_H-M   'P 1'
_cell_length_a   5.24888000
_cell_length_b   9.11632203
_cell_length_c   10.51135577
_cell_angle_alpha   88.21803385
_cell_angle_beta   89.12985894
_cell_angle_gamma   89.85792190
_symmetry_Int_Tables_number   1
_chemical_formula_structural   Li8Mn7Fe(BO3)8
_chemical_formula_sum   'Li8 Mn7 Fe1 B8 O24'
_cell_volume   502.67119602
_cell_formula_units_Z   1
loop_
 _symmetry_equiv_pos_site_id
 _symmetry_equiv_pos_as_xyz
  1  'x, y, z'
loop_
 _atom_site_type_symbol
 _atom_site_label
 _atom_site_symmetry_multiplicity
 _atom_site_fract_x
 _atom_site_fract_y
 _atom_site_fract_z
 _atom_site_occupancy
  Li  Li0  1  0.14664500  0.17458800  0.66776300  1
  Li  Li1  1  0.18825100  0.16079200  0.16801100  1
  Li  Li2  1  0.32104000  0.33091600  0.41799100  1
  Li  Li3  1  0.33694200  0.32612400  0.91784800  1
  Li  Li4  1  0.64740800  0.67348400  0.66746500  1
  Li  Li5  1  0.68849100  0.66016600  0.16780800  1
  Li  Li6  1  0.82050500  0.83075100  0.41767000  1
  Li  Li7  1  0.83766900  0.82564500  0.91784700  1
  Mn  Mn8  1  0.17621600  0.49861200  0.13130500  1
  Mn  Mn9  1  0.15898300  0.83848400  0.63270900  1
  Mn  Mn10  1  0.33175000  0.66406800  0.38307400  1
  Mn  Mn11  1  0.33139300  0.99838700  0.88327700  1
  Mn  Mn12  1  0.65943200  0.33942500  0.63534700  1
  Mn  Mn13  1  0.67859000  0.99884500  0.13348000  1
  Mn  Mn14  1  0.83145400  0.16500000  0.38358300  1
  Fe  Fe15  1  0.82373200  0.49968900  0.88277900  1
  B  B16  1  0.17358800  0.82931100  0.12568900  1
  B  B17  1  0.15753400  0.50157600  0.62671900  1
  B  B18  1  0.33682800  0.99765400  0.37573200  1
  B  B19  1  0.32629900  0.66461300  0.87557500  1
  B  B20  1  0.67281400  0.32968500  0.12466600  1
  B  B21  1  0.65694100  0.00157400  0.62610400  1
  B  B22  1  0.83704700  0.49760900  0.37576100  1
  B  B23  1  0.83043800  0.16819500  0.87642100  1
  O  O24  1  0.09649400  0.48142000  0.34496100  1
  O  O25  1  0.09166300  0.17921000  0.86135200  1
  O  O26  1  0.17795100  0.78887200  0.84553600  1
  O  O27  1  0.19398400  0.87590500  0.41767900  1
  O  O28  1  0.22389200  0.13451000  0.36133600  1
  O  O29  1  0.21010100  0.53353700  0.91527200  1
  O  O30  1  0.26617700  0.36418300  0.61170500  1
  O  O31  1  0.28897700  0.96510500  0.09577500  1
  O  O32  1  0.30362200  0.62705600  0.59605200  1
  O  O33  1  0.32229900  0.71000200  0.16635500  1
  O  O34  1  0.41221600  0.31507400  0.11099900  1
  O  O35  1  0.40413700  0.01640500  0.66683600  1
  O  O36  1  0.59658300  0.98150600  0.34523100  1
  O  O37  1  0.59034100  0.67451000  0.86328500  1
  O  O38  1  0.67875100  0.29157600  0.84717400  1
  O  O39  1  0.69387500  0.37621400  0.41786200  1
  O  O40  1  0.72423500  0.63464600  0.36129500  1
  O  O41  1  0.71766600  0.03579200  0.91707800  1
  O  O42  1  0.78793600  0.46511400  0.09358700  1
  O  O43  1  0.76537300  0.86387700  0.61205600  1
  O  O44  1  0.80271500  0.12718100  0.59607700  1
  O  O45  1  0.82222800  0.21085500  0.16638700  1
  O  O46  1  0.91292500  0.81510500  0.11116200  1
  O  O47  1  0.90527600  0.51655600  0.66792300  1
