# generated using pymatgen
data_Li3V2O6
_symmetry_space_group_name_H-M   'P 1'
_cell_length_a   4.98571500
_cell_length_b   5.09131080
_cell_length_c   5.16367733
_cell_angle_alpha   100.25780335
_cell_angle_beta   101.62566310
_cell_angle_gamma   118.43429586
_symmetry_Int_Tables_number   1
_chemical_formula_structural   Li3V2O6
_chemical_formula_sum   'Li3 V2 O6'
_cell_volume   107.03095813
_cell_formula_units_Z   1
loop_
 _symmetry_equiv_pos_site_id
 _symmetry_equiv_pos_as_xyz
  1  'x, y, z'
loop_
 _atom_site_type_symbol
 _atom_site_label
 _atom_site_symmetry_multiplicity
 _atom_site_fract_x
 _atom_site_fract_y
 _atom_site_fract_z
 _atom_site_occupancy
  Li  Li0  1  0.00418600  0.49522800  0.99765400  1
  Li  Li1  1  0.65202800  0.84941700  0.99755700  1
  Li  Li2  1  0.35465500  0.15215400  0.00561000  1
  V  V3  1  0.83310600  0.67039000  0.48934100  1
  V  V4  1  0.16748700  0.31850100  0.51034100  1
  O  O5  1  0.80859700  0.29350800  0.25982400  1
  O  O6  1  0.20233800  0.69922600  0.73394100  1
  O  O7  1  0.96516300  0.09411800  0.72649500  1
  O  O8  1  0.42678900  0.54360000  0.27264900  1
  O  O9  1  0.57494900  0.45431900  0.73015800  1
  O  O10  1  0.05845400  0.93366700  0.27363300  1
