# generated using pymatgen
data_LiCr2O4
_symmetry_space_group_name_H-M   'P 1'
_cell_length_a   10.27369491
_cell_length_b   8.41940037
_cell_length_c   8.32037174
_cell_angle_alpha   90.45099321
_cell_angle_beta   144.44057727
_cell_angle_gamma   65.16581612
_symmetry_Int_Tables_number   1
_chemical_formula_structural   LiCr2O4
_chemical_formula_sum   'Li4 Cr8 O16'
_cell_volume   294.21412513
_cell_formula_units_Z   4
loop_
 _symmetry_equiv_pos_site_id
 _symmetry_equiv_pos_as_xyz
  1  'x, y, z'
loop_
 _atom_site_type_symbol
 _atom_site_label
 _atom_site_symmetry_multiplicity
 _atom_site_fract_x
 _atom_site_fract_y
 _atom_site_fract_z
 _atom_site_occupancy
  Li  Li0  1  0.00213960  0.99885979  0.00272883  1
  Li  Li1  1  0.50151608  0.99751463  0.75057047  1
  Li  Li2  1  0.50304510  0.49964581  0.24976169  1
  Li  Li3  1  0.99405046  0.50341682  0.49437772  1
  Cr  Cr4  1  0.24532665  0.00213589  0.87067617  1
  Cr  Cr5  1  0.25145929  0.24964726  0.12537527  1
  Cr  Cr6  1  0.24759900  0.75263678  0.62258308  1
  Cr  Cr7  1  0.25832367  0.49665699  0.38436457  1
  Cr  Cr8  1  0.75254136  0.99933415  0.37741897  1
  Cr  Cr9  1  0.75162161  0.75120658  0.62548895  1
  Cr  Cr10  1  0.74794566  0.24973541  0.12273771  1
  Cr  Cr11  1  0.74855216  0.50288908  0.87257238  1
  O  O12  1  0.22584779  0.99687024  0.61056624  1
  O  O13  1  0.23135342  0.77102127  0.83775252  1
  O  O14  1  0.22864638  0.49701985  0.11831615  1
  O  O15  1  0.27784299  0.00493807  0.14751680  1
  O  O16  1  0.22767146  0.27524240  0.33416670  1
  O  O17  1  0.27343554  0.22948182  0.91893739  1
  O  O18  1  0.25926364  0.50793398  0.61468882  1
  O  O19  1  0.26952372  0.72689142  0.40976304  1
  O  O20  1  0.72562010  0.77148382  0.37225760  1
  O  O21  1  0.72193907  0.99640016  0.59091488  1
  O  O22  1  0.70927514  0.28399886  0.83798034  1
  O  O23  1  0.77348191  0.22451035  0.38638329  1
  O  O24  1  0.70740720  0.50858527  0.07177227  1
  O  O25  1  0.78727616  0.99196542  0.17009471  1
  O  O26  1  0.78993791  0.72174467  0.89755942  1
  O  O27  1  0.78067793  0.50586420  0.66277401  1
