# generated using pymatgen
data_Li2MnCr3O8
_symmetry_space_group_name_H-M   'P 1'
_cell_length_a   5.88301350
_cell_length_b   5.88301350
_cell_length_c   9.36752800
_cell_angle_alpha   90.00000000
_cell_angle_beta   90.00000000
_cell_angle_gamma   119.99999440
_symmetry_Int_Tables_number   1
_chemical_formula_structural   Li2MnCr3O8
_chemical_formula_sum   'Li4 Mn2 Cr6 O16'
_cell_volume   280.77300260
_cell_formula_units_Z   2
loop_
 _symmetry_equiv_pos_site_id
 _symmetry_equiv_pos_as_xyz
  1  'x, y, z'
loop_
 _atom_site_type_symbol
 _atom_site_label
 _atom_site_symmetry_multiplicity
 _atom_site_fract_x
 _atom_site_fract_y
 _atom_site_fract_z
 _atom_site_occupancy
  Li  Li0  1  0.33333300  0.66666700  0.89700200  1
  Li  Li1  1  0.00000000  0.00000000  0.99586000  1
  Li  Li2  1  0.00000000  0.00000000  0.49586000  1
  Li  Li3  1  0.66666700  0.33333300  0.39700200  1
  Mn  Mn4  1  0.33333300  0.66666700  0.48264800  1
  Mn  Mn5  1  0.66666700  0.33333300  0.98264800  1
  Cr  Cr6  1  0.16959300  0.83040700  0.21091500  1
  Cr  Cr7  1  0.16959300  0.33918500  0.21091500  1
  Cr  Cr8  1  0.66081500  0.83040700  0.21091500  1
  Cr  Cr9  1  0.33918500  0.16959300  0.71091500  1
  Cr  Cr10  1  0.83040700  0.66081500  0.71091500  1
  Cr  Cr11  1  0.83040700  0.16959300  0.71091500  1
  O  O12  1  0.16688800  0.83311200  0.60020900  1
  O  O13  1  0.04312100  0.52156100  0.34445100  1
  O  O14  1  0.33333300  0.66666700  0.10312900  1
  O  O15  1  0.00000000  0.00000000  0.30858000  1
  O  O16  1  0.00000000  0.00000000  0.80858000  1
  O  O17  1  0.16688800  0.33377700  0.60020900  1
  O  O18  1  0.47843900  0.95687900  0.34445100  1
  O  O19  1  0.47843900  0.52156100  0.34445100  1
  O  O20  1  0.33377700  0.16688800  0.10020900  1
  O  O21  1  0.66622300  0.83311200  0.60020900  1
  O  O22  1  0.52156100  0.47843900  0.84445100  1
  O  O23  1  0.52156100  0.04312100  0.84445100  1
  O  O24  1  0.66666700  0.33333300  0.60312900  1
  O  O25  1  0.83311200  0.66622300  0.10020900  1
  O  O26  1  0.95687900  0.47843900  0.84445100  1
  O  O27  1  0.83311200  0.16688800  0.10020900  1
