# generated using pymatgen
data_LiFe(PO3)4
_symmetry_space_group_name_H-M   'P 1'
_cell_length_a   9.59254100
_cell_length_b   10.22211500
_cell_length_c   11.40254628
_cell_angle_alpha   57.26514085
_cell_angle_beta   90.00000000
_cell_angle_gamma   90.00000000
_symmetry_Int_Tables_number   1
_chemical_formula_structural   LiFe(PO3)4
_chemical_formula_sum   'Li4 Fe4 P16 O48'
_cell_volume   940.51604756
_cell_formula_units_Z   4
loop_
 _symmetry_equiv_pos_site_id
 _symmetry_equiv_pos_as_xyz
  1  'x, y, z'
loop_
 _atom_site_type_symbol
 _atom_site_label
 _atom_site_symmetry_multiplicity
 _atom_site_fract_x
 _atom_site_fract_y
 _atom_site_fract_z
 _atom_site_occupancy
  Li  Li0  1  0.45532100  0.14186000  0.97385400  1
  Li  Li1  1  0.04467900  0.14186000  0.47385400  1
  Li  Li2  1  0.95532100  0.85814000  0.52614600  1
  Li  Li3  1  0.54467900  0.85814000  0.02614600  1
  Fe  Fe4  1  0.16476700  0.80058900  0.21019600  1
  Fe  Fe5  1  0.66476700  0.19941100  0.28980400  1
  Fe  Fe6  1  0.33523300  0.80058900  0.71019600  1
  Fe  Fe7  1  0.83523300  0.19941100  0.78980400  1
  P  P8  1  0.82826500  0.80029300  0.15719200  1
  P  P9  1  0.88466900  0.28374600  0.02528300  1
  P  P10  1  0.99665400  0.51804100  0.24962700  1
  P  P11  1  0.49665400  0.48195900  0.25037300  1
  P  P12  1  0.10764700  0.09871000  0.23948600  1
  P  P13  1  0.60764700  0.90129000  0.26051400  1
  P  P14  1  0.32826500  0.19970700  0.34280800  1
  P  P15  1  0.61533100  0.28374600  0.52528300  1
  P  P16  1  0.38466900  0.71625400  0.47471700  1
  P  P17  1  0.67173500  0.80029300  0.65719200  1
  P  P18  1  0.39235300  0.09871000  0.73948600  1
  P  P19  1  0.89235300  0.90129000  0.76051400  1
  P  P20  1  0.50334600  0.51804100  0.74962700  1
  P  P21  1  0.00334600  0.48195900  0.75037300  1
  P  P22  1  0.11533100  0.71625400  0.97471700  1
  P  P23  1  0.17173500  0.19970700  0.84280800  1
  O  O24  1  0.74942300  0.88666600  0.02385400  1
  O  O25  1  0.18513100  0.80043800  0.03568000  1
  O  O26  1  0.05811100  0.55101000  0.10200300  1
  O  O27  1  0.85465200  0.62147800  0.20355500  1
  O  O28  1  0.46492900  0.64989400  0.15725700  1
  O  O29  1  0.80399500  0.30916200  0.12381200  1
  O  O30  1  0.03091100  0.20024600  0.09238300  1
  O  O31  1  0.59810400  0.41293900  0.19581600  1
  O  O32  1  0.09810400  0.58706100  0.30418400  1
  O  O33  1  0.22500000  0.22388000  0.21922500  1
  O  O34  1  0.96492900  0.35010600  0.34274300  1
  O  O35  1  0.50953800  0.94492400  0.14301200  1
  O  O36  1  0.35465200  0.37852200  0.29644500  1
  O  O37  1  0.96507200  0.86698000  0.16936400  1
  O  O38  1  0.55811100  0.44899000  0.39799700  1
  O  O39  1  0.68468500  0.03394500  0.25414800  1
  O  O40  1  0.18468500  0.96605500  0.24585200  1
  O  O41  1  0.46507200  0.13302000  0.33063600  1
  O  O42  1  0.00953800  0.05507600  0.35698800  1
  O  O43  1  0.72500000  0.77612000  0.28077500  1
  O  O44  1  0.68513100  0.19956200  0.46432000  1
  O  O45  1  0.24942300  0.11333400  0.47614600  1
  O  O46  1  0.69600500  0.30916200  0.62381200  1
  O  O47  1  0.53091100  0.79975400  0.40761700  1
  O  O48  1  0.46908900  0.20024600  0.59238300  1
  O  O49  1  0.30399500  0.69083800  0.37618800  1
  O  O50  1  0.75057700  0.88666600  0.52385400  1
  O  O51  1  0.31486900  0.80043800  0.53568000  1
  O  O52  1  0.27500000  0.22388000  0.71922500  1
  O  O53  1  0.99046200  0.94492400  0.64301200  1
  O  O54  1  0.53492800  0.86698000  0.66936400  1
  O  O55  1  0.81531500  0.03394500  0.75414800  1
  O  O56  1  0.31531500  0.96605500  0.74585200  1
  O  O57  1  0.44188900  0.55101000  0.60200300  1
  O  O58  1  0.03492800  0.13302000  0.83063600  1
  O  O59  1  0.64534800  0.62147800  0.70355500  1
  O  O60  1  0.49046200  0.05507600  0.85698800  1
  O  O61  1  0.03507100  0.64989400  0.65725700  1
  O  O62  1  0.77500000  0.77612000  0.78077500  1
  O  O63  1  0.90189600  0.41293900  0.69581600  1
  O  O64  1  0.40189600  0.58706100  0.80418400  1
  O  O65  1  0.96908900  0.79975400  0.90761700  1
  O  O66  1  0.19600500  0.69083800  0.87618800  1
  O  O67  1  0.53507100  0.35010600  0.84274300  1
  O  O68  1  0.14534800  0.37852200  0.79644500  1
  O  O69  1  0.94188900  0.44899000  0.89799700  1
  O  O70  1  0.81486900  0.19956200  0.96432000  1
  O  O71  1  0.25057700  0.11333400  0.97614600  1
