# generated using pymatgen
data_Li5(FeO2)4
_symmetry_space_group_name_H-M   'P 1'
_cell_length_a   6.00873523
_cell_length_b   6.00873523
_cell_length_c   9.91845139
_cell_angle_alpha   89.83584827
_cell_angle_beta   89.83584827
_cell_angle_gamma   119.70698243
_symmetry_Int_Tables_number   1
_chemical_formula_structural   Li5(FeO2)4
_chemical_formula_sum   'Li10 Fe8 O16'
_cell_volume   311.03433036
_cell_formula_units_Z   2
loop_
 _symmetry_equiv_pos_site_id
 _symmetry_equiv_pos_as_xyz
  1  'x, y, z'
loop_
 _atom_site_type_symbol
 _atom_site_label
 _atom_site_symmetry_multiplicity
 _atom_site_fract_x
 _atom_site_fract_y
 _atom_site_fract_z
 _atom_site_occupancy
  Li  Li0  1  0.81034200  0.20332100  0.95665900  1
  Li  Li1  1  0.39506000  0.19773800  0.96031800  1
  Li  Li2  1  0.66265800  0.33031800  0.74007000  1
  Li  Li3  1  0.80530300  0.61026400  0.95703400  1
  Li  Li4  1  0.19773800  0.39506000  0.46031800  1
  Li  Li5  1  0.61026400  0.80530300  0.45703400  1
  Li  Li6  1  0.99951000  0.99669700  0.52601200  1
  Li  Li7  1  0.33031800  0.66265800  0.24007000  1
  Li  Li8  1  0.99669700  0.99951000  0.02601200  1
  Li  Li9  1  0.20332100  0.81034200  0.45665900  1
  Fe  Fe10  1  0.66329900  0.32453500  0.48497400  1
  Fe  Fe11  1  0.32453500  0.66329900  0.98497400  1
  Fe  Fe12  1  0.83041000  0.16539500  0.22682500  1
  Fe  Fe13  1  0.33620700  0.16664300  0.22595300  1
  Fe  Fe14  1  0.82804400  0.65576000  0.22799000  1
  Fe  Fe15  1  0.16664300  0.33620700  0.72595300  1
  Fe  Fe16  1  0.65576000  0.82804400  0.72799000  1
  Fe  Fe17  1  0.16539500  0.83041000  0.72682500  1
  O  O18  1  0.82771700  0.15611500  0.60254000  1
  O  O19  1  0.51645900  0.01718800  0.34954200  1
  O  O20  1  0.68191000  0.33785000  0.10709400  1
  O  O21  1  0.33180300  0.15219700  0.59822000  1
  O  O22  1  0.98323000  0.48659400  0.35068200  1
  O  O23  1  0.52085700  0.49734500  0.35655700  1
  O  O24  1  0.15219700  0.33180300  0.09822000  1
  O  O25  1  0.83414100  0.66445700  0.60678100  1
  O  O26  1  0.49734500  0.52085700  0.85655700  1
  O  O27  1  0.66445700  0.83414100  0.10678100  1
  O  O28  1  0.33785000  0.68191000  0.60709400  1
  O  O29  1  0.98841700  0.97840300  0.83710600  1
  O  O30  1  0.01718800  0.51645900  0.84954100  1
  O  O31  1  0.48659400  0.98323000  0.85068200  1
  O  O32  1  0.15611500  0.82771700  0.10254000  1
  O  O33  1  0.97840300  0.98841700  0.33710600  1
