# generated using pymatgen
data_Li4Co2(PO4)3
_symmetry_space_group_name_H-M   'P 1'
_cell_length_a   8.74507100
_cell_length_b   8.91196700
_cell_length_c   12.17267100
_cell_angle_alpha   90.00000000
_cell_angle_beta   90.00000000
_cell_angle_gamma   90.00000000
_symmetry_Int_Tables_number   1
_chemical_formula_structural   Li4Co2(PO4)3
_chemical_formula_sum   'Li16 Co8 P12 O48'
_cell_volume   948.68665976
_cell_formula_units_Z   4
loop_
 _symmetry_equiv_pos_site_id
 _symmetry_equiv_pos_as_xyz
  1  'x, y, z'
loop_
 _atom_site_type_symbol
 _atom_site_label
 _atom_site_symmetry_multiplicity
 _atom_site_fract_x
 _atom_site_fract_y
 _atom_site_fract_z
 _atom_site_occupancy
  Li  Li0  1  0.42734200  0.05148800  0.71194700  1
  Li  Li1  1  0.07265800  0.05148800  0.28805300  1
  Li  Li2  1  0.76113700  0.20278700  0.82038300  1
  Li  Li3  1  0.73886300  0.20278700  0.17961700  1
  Li  Li4  1  0.26113700  0.29721300  0.67961700  1
  Li  Li5  1  0.23886300  0.29721300  0.32038300  1
  Li  Li6  1  0.92734200  0.44851200  0.78805300  1
  Li  Li7  1  0.57265800  0.44851200  0.21194700  1
  Li  Li8  1  0.42734200  0.55148800  0.78805300  1
  Li  Li9  1  0.07265800  0.55148800  0.21194700  1
  Li  Li10  1  0.76113700  0.70278700  0.67961700  1
  Li  Li11  1  0.73886300  0.70278700  0.32038300  1
  Li  Li12  1  0.26113700  0.79721300  0.82038300  1
  Li  Li13  1  0.23886300  0.79721300  0.17961700  1
  Li  Li14  1  0.92734200  0.94851200  0.71194700  1
  Li  Li15  1  0.57265800  0.94851200  0.28805300  1
  Co  Co16  1  0.04264200  0.25105600  0.10546900  1
  Co  Co17  1  0.45735800  0.25105600  0.89453100  1
  Co  Co18  1  0.95735800  0.24894400  0.60546900  1
  Co  Co19  1  0.54264200  0.24894400  0.39453100  1
  Co  Co20  1  0.45735800  0.75105600  0.60546900  1
  Co  Co21  1  0.04264200  0.75105600  0.39453100  1
  Co  Co22  1  0.95735800  0.74894400  0.89453100  1
  Co  Co23  1  0.54264200  0.74894400  0.10546900  1
  P  P24  1  0.25000000  0.04869300  0.50000000  1
  P  P25  1  0.75000000  0.45130700  0.00000000  1
  P  P26  1  0.25000000  0.54869300  0.00000000  1
  P  P27  1  0.75000000  0.95130700  0.50000000  1
  P  P28  1  0.10484300  0.10634200  0.84974500  1
  P  P29  1  0.39515700  0.10634200  0.15025500  1
  P  P30  1  0.60484300  0.39365800  0.65025500  1
  P  P31  1  0.89515700  0.39365800  0.34974500  1
  P  P32  1  0.10484300  0.60634200  0.65025500  1
  P  P33  1  0.39515700  0.60634200  0.34974500  1
  P  P34  1  0.60484300  0.89365800  0.84974500  1
  P  P35  1  0.89515700  0.89365800  0.15025500  1
  O  O36  1  0.85776400  0.04520000  0.57373600  1
  O  O37  1  0.64223600  0.04520000  0.42626400  1
  O  O38  1  0.59181300  0.06647000  0.83214400  1
  O  O39  1  0.90818700  0.06647000  0.16785600  1
  O  O40  1  0.16179700  0.15352200  0.58041300  1
  O  O41  1  0.33820300  0.15352200  0.41958700  1
  O  O42  1  0.26654800  0.15649700  0.81067300  1
  O  O43  1  0.23345200  0.15649700  0.18932700  1
  O  O44  1  0.07528800  0.15357600  0.96777800  1
  O  O45  1  0.42471200  0.15357600  0.03222200  1
  O  O46  1  0.97659900  0.17594900  0.77514500  1
  O  O47  1  0.52340100  0.17594900  0.22485500  1
  O  O48  1  0.47659900  0.32405100  0.72485500  1
  O  O49  1  0.02340100  0.32405100  0.27514500  1
  O  O50  1  0.57528800  0.34642400  0.53222200  1
  O  O51  1  0.92471200  0.34642400  0.46777800  1
  O  O52  1  0.73345200  0.34350300  0.31067300  1
  O  O53  1  0.76654800  0.34350300  0.68932700  1
  O  O54  1  0.66179700  0.34647800  0.91958700  1
  O  O55  1  0.83820300  0.34647800  0.08041300  1
  O  O56  1  0.09181300  0.43353000  0.66785600  1
  O  O57  1  0.40818700  0.43353000  0.33214400  1
  O  O58  1  0.35776400  0.45480000  0.92626400  1
  O  O59  1  0.14223600  0.45480000  0.07373600  1
  O  O60  1  0.64223600  0.54520000  0.07373600  1
  O  O61  1  0.85776400  0.54520000  0.92626400  1
  O  O62  1  0.59181300  0.56647000  0.66785600  1
  O  O63  1  0.90818700  0.56647000  0.33214400  1
  O  O64  1  0.16179700  0.65352200  0.91958700  1
  O  O65  1  0.33820300  0.65352200  0.08041300  1
  O  O66  1  0.26654800  0.65649700  0.68932700  1
  O  O67  1  0.23345200  0.65649700  0.31067300  1
  O  O68  1  0.07528800  0.65357600  0.53222200  1
  O  O69  1  0.42471200  0.65357600  0.46777800  1
  O  O70  1  0.97659900  0.67594900  0.72485500  1
  O  O71  1  0.52340100  0.67594900  0.27514500  1
  O  O72  1  0.47659900  0.82405100  0.77514500  1
  O  O73  1  0.02340100  0.82405100  0.22485500  1
  O  O74  1  0.57528800  0.84642400  0.96777800  1
  O  O75  1  0.92471200  0.84642400  0.03222200  1
  O  O76  1  0.76654800  0.84350300  0.81067300  1
  O  O77  1  0.73345200  0.84350300  0.18932700  1
  O  O78  1  0.66179700  0.84647800  0.58041300  1
  O  O79  1  0.83820300  0.84647800  0.41958700  1
  O  O80  1  0.09181300  0.93353000  0.83214400  1
  O  O81  1  0.40818700  0.93353000  0.16785600  1
  O  O82  1  0.35776400  0.95480000  0.57373600  1
  O  O83  1  0.14223600  0.95480000  0.42626400  1
