# generated using pymatgen
data_Na3Li3Mn2P2(CO7)2
_symmetry_space_group_name_H-M   'P 1'
_cell_length_a   6.76992800
_cell_length_b   8.74789124
_cell_length_c   10.13898889
_cell_angle_alpha   91.17395384
_cell_angle_beta   90.03763024
_cell_angle_gamma   90.21263545
_symmetry_Int_Tables_number   1
_chemical_formula_structural   Na3Li3Mn2P2(CO7)2
_chemical_formula_sum   'Na6 Li6 Mn4 P4 C4 O28'
_cell_volume   600.32689020
_cell_formula_units_Z   2
loop_
 _symmetry_equiv_pos_site_id
 _symmetry_equiv_pos_as_xyz
  1  'x, y, z'
loop_
 _atom_site_type_symbol
 _atom_site_label
 _atom_site_symmetry_multiplicity
 _atom_site_fract_x
 _atom_site_fract_y
 _atom_site_fract_z
 _atom_site_occupancy
  Na  Na0  1  0.24978600  0.91571900  0.37901200  1
  Na  Na1  1  0.99984300  0.74729100  0.62737000  1
  Na  Na2  1  0.99921300  0.74365900  0.12265300  1
  Na  Na3  1  0.50138800  0.74409000  0.12263300  1
  Na  Na4  1  0.50033100  0.25284500  0.87538400  1
  Na  Na5  1  0.50126800  0.25423200  0.37476200  1
  Li  Li6  1  0.24798400  0.92086900  0.87510900  1
  Li  Li7  1  0.47713700  0.72994100  0.61903000  1
  Li  Li8  1  0.98036600  0.26553600  0.88423600  1
  Li  Li9  1  0.97802700  0.27135000  0.38568200  1
  Li  Li10  1  0.75325200  0.08618900  0.62673500  1
  Li  Li11  1  0.76096800  0.08958200  0.12328900  1
  Mn  Mn12  1  0.74854300  0.64166500  0.88494200  1
  Mn  Mn13  1  0.74620200  0.63958200  0.39105600  1
  Mn  Mn14  1  0.24427500  0.35493300  0.61343300  1
  Mn  Mn15  1  0.24544400  0.35580700  0.10864800  1
  P  P16  1  0.24977800  0.59514900  0.84910300  1
  P  P17  1  0.24382800  0.58540200  0.35430800  1
  P  P18  1  0.74884200  0.40477100  0.64837100  1
  P  P19  1  0.75364500  0.40170400  0.14542400  1
  C  C20  1  0.75755700  0.95481600  0.86525400  1
  C  C21  1  0.75886100  0.95458600  0.36708200  1
  C  C22  1  0.25648400  0.05197900  0.63931000  1
  C  C23  1  0.24865800  0.05204100  0.12973200  1
  O  O24  1  0.27597900  0.90541600  0.65511500  1
  O  O25  1  0.25064500  0.90650400  0.15010100  1
  O  O26  1  0.75200500  0.91127700  0.98749500  1
  O  O27  1  0.75337700  0.91091100  0.48879000  1
  O  O28  1  0.74465600  0.85337000  0.76932900  1
  O  O29  1  0.74532600  0.85225600  0.27137500  1
  O  O30  1  0.06794900  0.69609900  0.88658400  1
  O  O31  1  0.43381100  0.68474600  0.90004300  1
  O  O32  1  0.06201800  0.68318100  0.39670100  1
  O  O33  1  0.42975000  0.67477700  0.40563100  1
  O  O34  1  0.26375200  0.57910500  0.69514900  1
  O  O35  1  0.73387400  0.57060200  0.59525500  1
  O  O36  1  0.25117400  0.57306100  0.20069400  1
  O  O37  1  0.75070100  0.56484900  0.08792100  1
  O  O38  1  0.23429700  0.43113800  0.90490800  1
  O  O39  1  0.77014300  0.41920300  0.80179700  1
  O  O40  1  0.23329700  0.42086300  0.40805000  1
  O  O41  1  0.77074700  0.41967700  0.29921400  1
  O  O42  1  0.56444200  0.30576300  0.61263800  1
  O  O43  1  0.92746200  0.31439400  0.59065600  1
  O  O44  1  0.56548700  0.30726300  0.10970000  1
  O  O45  1  0.92880300  0.30430600  0.09109400  1
  O  O46  1  0.23960400  0.14173000  0.74255200  1
  O  O47  1  0.24444600  0.14776000  0.22992400  1
  O  O48  1  0.25242900  0.11084200  0.52300500  1
  O  O49  1  0.25057500  0.10221500  0.01005200  1
  O  O50  1  0.77508300  0.09763200  0.83623600  1
  O  O51  1  0.77648500  0.09732200  0.33743400  1
