# generated using pymatgen
data_Li3Co3NiO8
_symmetry_space_group_name_H-M   'P 1'
_cell_length_a   5.64224805
_cell_length_b   5.64220134
_cell_length_c   9.24581547
_cell_angle_alpha   89.99477316
_cell_angle_beta   90.00479923
_cell_angle_gamma   60.00104293
_symmetry_Int_Tables_number   1
_chemical_formula_structural   Li3Co3NiO8
_chemical_formula_sum   'Li6 Co6 Ni2 O16'
_cell_volume   254.90664999
_cell_formula_units_Z   2
loop_
 _symmetry_equiv_pos_site_id
 _symmetry_equiv_pos_as_xyz
  1  'x, y, z'
loop_
 _atom_site_type_symbol
 _atom_site_label
 _atom_site_symmetry_multiplicity
 _atom_site_fract_x
 _atom_site_fract_y
 _atom_site_fract_z
 _atom_site_occupancy
  Li  Li0  1  0.16931000  0.16989000  0.44740600  1
  Li  Li1  1  0.16953300  0.66048300  0.44736100  1
  Li  Li2  1  0.66005900  0.17002900  0.44724800  1
  Li  Li3  1  0.33992000  0.83009400  0.94724800  1
  Li  Li4  1  0.83068000  0.33916700  0.94739400  1
  Li  Li5  1  0.83041100  0.83000500  0.94733600  1
  Co  Co6  1  0.16739500  0.16750200  0.71446000  1
  Co  Co7  1  0.16739800  0.66517200  0.71445100  1
  Co  Co8  1  0.66504600  0.16751300  0.71444600  1
  Co  Co9  1  0.33490800  0.83259100  0.21444300  1
  Co  Co10  1  0.83255500  0.33494000  0.21446800  1
  Co  Co11  1  0.83255200  0.83259200  0.21445700  1
  Ni  Ni12  1  0.33362600  0.33322100  0.99227900  1
  Ni  Ni13  1  0.66634800  0.66684200  0.49230300  1
  O  O14  1  0.00004000  0.99996500  0.32196500  1
  O  O15  1  0.15404400  0.15373800  0.10124200  1
  O  O16  1  0.03208700  0.48400100  0.83278600  1
  O  O17  1  0.15404500  0.69223200  0.10133900  1
  O  O18  1  0.00003100  0.99995700  0.82196200  1
  O  O19  1  0.33318800  0.33346600  0.60348400  1
  O  O20  1  0.48409600  0.03189200  0.83264800  1
  O  O21  1  0.48410100  0.48410100  0.83261800  1
  O  O22  1  0.30738600  0.84630300  0.60113600  1
  O  O23  1  0.69257400  0.15372300  0.10111600  1
  O  O24  1  0.51581500  0.51607000  0.33263300  1
  O  O25  1  0.66666400  0.66673200  0.10347000  1
  O  O26  1  0.51581900  0.96821300  0.33260500  1
  O  O27  1  0.84595000  0.30780800  0.60121500  1
  O  O28  1  0.96788600  0.51611100  0.33279100  1
  O  O29  1  0.84595400  0.84623500  0.60132200  1
