# generated using pymatgen
data_Li3V4(OF3)3
_symmetry_space_group_name_H-M   'P 1'
_cell_length_a   5.20369600
_cell_length_b   5.53089111
_cell_length_c   17.24356011
_cell_angle_alpha   88.75450903
_cell_angle_beta   97.03651685
_cell_angle_gamma   117.46851490
_symmetry_Int_Tables_number   1
_chemical_formula_structural   Li3V4(OF3)3
_chemical_formula_sum   'Li6 V8 O6 F18'
_cell_volume   436.68157907
_cell_formula_units_Z   2
loop_
 _symmetry_equiv_pos_site_id
 _symmetry_equiv_pos_as_xyz
  1  'x, y, z'
loop_
 _atom_site_type_symbol
 _atom_site_label
 _atom_site_symmetry_multiplicity
 _atom_site_fract_x
 _atom_site_fract_y
 _atom_site_fract_z
 _atom_site_occupancy
  Li  Li0  1  0.82556200  0.34046100  0.29861200  1
  Li  Li1  1  0.70574000  0.41944800  0.95849700  1
  Li  Li2  1  0.81619600  0.86243400  0.79787000  1
  Li  Li3  1  0.65849600  0.91249500  0.45359200  1
  Li  Li4  1  0.43082400  0.82023700  0.06459500  1
  Li  Li5  1  0.05643900  0.44880900  0.67298900  1
  V  V6  1  0.00505200  0.01370500  0.00264700  1
  V  V7  1  0.00179500  0.50586500  0.49915400  1
  V  V8  1  0.76246700  0.37469900  0.12784000  1
  V  V9  1  0.50680000  0.24467200  0.74765500  1
  V  V10  1  0.51049300  0.71596200  0.24858500  1
  V  V11  1  0.24443900  0.08447400  0.37851500  1
  V  V12  1  0.74485000  0.91335100  0.62264900  1
  V  V13  1  0.24224700  0.64285100  0.88129200  1
  O  O14  1  0.80179200  0.19922100  0.03346600  1
  O  O15  1  0.78962600  0.20003800  0.55969700  1
  O  O16  1  0.70183500  0.05874200  0.71968600  1
  O  O17  1  0.69408400  0.52665400  0.21592900  1
  O  O18  1  0.24025000  0.80467000  0.43848100  1
  O  O19  1  0.15799500  0.77847900  0.96585500  1
  F  F20  1  0.75457900  0.06154100  0.19670600  1
  F  F21  1  0.71986900  0.66815900  0.05477100  1
  F  F22  1  0.69592300  0.31671500  0.40120000  1
  F  F23  1  0.79290300  0.41604800  0.84829500  1
  F  F24  1  0.78322200  0.70948700  0.53074200  1
  F  F25  1  0.79582300  0.88928300  0.34997200  1
  F  F26  1  0.32117600  0.12647200  0.09402200  1
  F  F27  1  0.77202200  0.59220600  0.69423300  1
  F  F28  1  0.23228000  0.41005000  0.30897600  1
  F  F29  1  0.69313800  0.86018800  0.90107400  1
  F  F30  1  0.18929500  0.28466700  0.46233100  1
  F  F31  1  0.19248700  0.13342200  0.66023100  1
  F  F32  1  0.20301300  0.59812600  0.14831500  1
  F  F33  1  0.32607700  0.49565900  0.78099300  1
  F  F34  1  0.33299200  0.95580500  0.28264400  1
  F  F35  1  0.29911000  0.67296500  0.59865100  1
  F  F36  1  0.27729100  0.33265500  0.93648900  1
  F  F37  1  0.22382000  0.93475900  0.81069800  1
