# generated using pymatgen
data_LiVSiO4
_symmetry_space_group_name_H-M   'P 1'
_cell_length_a   9.33677658
_cell_length_b   5.63001787
_cell_length_c   6.39466545
_cell_angle_alpha   106.04881219
_cell_angle_beta   104.20602430
_cell_angle_gamma   80.27496617
_symmetry_Int_Tables_number   1
_chemical_formula_structural   LiVSiO4
_chemical_formula_sum   'Li4 V4 Si4 O16'
_cell_volume   311.31541614
_cell_formula_units_Z   4
loop_
 _symmetry_equiv_pos_site_id
 _symmetry_equiv_pos_as_xyz
  1  'x, y, z'
loop_
 _atom_site_type_symbol
 _atom_site_label
 _atom_site_symmetry_multiplicity
 _atom_site_fract_x
 _atom_site_fract_y
 _atom_site_fract_z
 _atom_site_occupancy
  Li  Li0  1  0.13784100  0.19638500  0.38337200  1
  Li  Li1  1  0.22060200  0.69823900  0.43176100  1
  Li  Li2  1  0.77942300  0.30189000  0.56810300  1
  Li  Li3  1  0.86207100  0.80385000  0.61666700  1
  V  V4  1  0.20615700  0.70745000  0.92888800  1
  V  V5  1  0.42552500  0.21516100  0.16524300  1
  V  V6  1  0.57445000  0.78482900  0.83465700  1
  V  V7  1  0.79370600  0.29255000  0.07129100  1
  Si  Si8  1  0.09543300  0.16468300  0.82784000  1
  Si  Si9  1  0.46241800  0.32228100  0.70948000  1
  Si  Si10  1  0.53761800  0.67770100  0.29045100  1
  Si  Si11  1  0.90460400  0.83525000  0.17208500  1
  O  O12  1  0.14686000  0.36434200  0.72650500  1
  O  O13  1  0.10070600  0.86867300  0.67610700  1
  O  O14  1  0.07595700  0.75356900  0.14239500  1
  O  O15  1  0.21264100  0.11576600  0.05969100  1
  O  O16  1  0.44653600  0.12603800  0.84650000  1
  O  O17  1  0.38565100  0.61714000  0.77762400  1
  O  O18  1  0.38775800  0.22106000  0.45140800  1
  O  O19  1  0.36093600  0.61340500  0.21751600  1
  O  O20  1  0.63908300  0.38660500  0.78249100  1
  O  O21  1  0.61230200  0.77891700  0.54870300  1
  O  O22  1  0.61436300  0.38279800  0.22242900  1
  O  O23  1  0.55349000  0.87395000  0.15360000  1
  O  O24  1  0.78734800  0.88421600  0.94029800  1
  O  O25  1  0.92402900  0.24635500  0.85756200  1
  O  O26  1  0.89934300  0.13130900  0.32386700  1
  O  O27  1  0.85314900  0.63558800  0.27346700  1
