# generated using pymatgen
data_Li3MnV(PO4)3
_symmetry_space_group_name_H-M   'P 1'
_cell_length_a   8.54904800
_cell_length_b   8.56493565
_cell_length_c   9.14166382
_cell_angle_alpha   90.10929025
_cell_angle_beta   117.13232480
_cell_angle_gamma   119.71139383
_symmetry_Int_Tables_number   1
_chemical_formula_structural   Li3MnV(PO4)3
_chemical_formula_sum   'Li6 Mn2 V2 P6 O24'
_cell_volume   494.38619679
_cell_formula_units_Z   2
loop_
 _symmetry_equiv_pos_site_id
 _symmetry_equiv_pos_as_xyz
  1  'x, y, z'
loop_
 _atom_site_type_symbol
 _atom_site_label
 _atom_site_symmetry_multiplicity
 _atom_site_fract_x
 _atom_site_fract_y
 _atom_site_fract_z
 _atom_site_occupancy
  Li  Li0  1  0.18784500  0.93015100  0.85796300  1
  Li  Li1  1  0.60928200  0.67649200  0.87052600  1
  Li  Li2  1  0.92357900  0.26100200  0.84900400  1
  Li  Li3  1  0.07642100  0.73899800  0.15099600  1
  Li  Li4  1  0.39071800  0.32350800  0.12947400  1
  Li  Li5  1  0.81215500  0.06984900  0.14203700  1
  Mn  Mn6  1  0.29535500  0.15093300  0.43961800  1
  Mn  Mn7  1  0.70464500  0.84906700  0.56038200  1
  V  V8  1  0.30625800  0.65418200  0.96015000  1
  V  V9  1  0.69374200  0.34581800  0.03985000  1
  P  P10  1  0.21262000  0.26061900  0.75062000  1
  P  P11  1  0.49472400  0.95439100  0.75074800  1
  P  P12  1  0.79912600  0.54325600  0.75242500  1
  P  P13  1  0.20087400  0.45674400  0.24757500  1
  P  P14  1  0.50527600  0.04560900  0.24925200  1
  P  P15  1  0.78738000  0.73938100  0.24938000  1
  O  O16  1  0.36864800  0.21282000  0.89398600  1
  O  O17  1  0.00167200  0.13846100  0.74385200  1
  O  O18  1  0.31347000  0.47785100  0.82277400  1
  O  O19  1  0.34935000  0.83670100  0.82308800  1
  O  O20  1  0.68560500  0.15505800  0.89559900  1
  O  O21  1  0.74240500  0.52750300  0.89991800  1
  O  O22  1  0.19888400  0.22495600  0.58302100  1
  O  O23  1  0.60672600  0.86197500  0.74170700  1
  O  O24  1  0.36766300  0.98085000  0.58578400  1
  O  O25  1  0.98937600  0.51713900  0.81980200  1
  O  O26  1  0.88046100  0.74908800  0.74948100  1
  O  O27  1  0.61058200  0.39324200  0.58682700  1
  O  O28  1  0.38941800  0.60675800  0.41317300  1
  O  O29  1  0.11953900  0.25091200  0.25051900  1
  O  O30  1  0.01062400  0.48286100  0.18019800  1
  O  O31  1  0.63233700  0.01915000  0.41421600  1
  O  O32  1  0.39327400  0.13802500  0.25829300  1
  O  O33  1  0.80111600  0.77504400  0.41697900  1
  O  O34  1  0.25759500  0.47249700  0.10008200  1
  O  O35  1  0.31439500  0.84494200  0.10440100  1
  O  O36  1  0.65065000  0.16329900  0.17691200  1
  O  O37  1  0.68653000  0.52214900  0.17722600  1
  O  O38  1  0.99832800  0.86153900  0.25614800  1
  O  O39  1  0.63135200  0.78718000  0.10601400  1
