# generated using pymatgen
data_Li6CrCoP2(CO7)2
_symmetry_space_group_name_H-M   'P 1'
_cell_length_a   6.46127000
_cell_length_b   5.00789100
_cell_length_c   8.55661073
_cell_angle_alpha   85.58168463
_cell_angle_beta   90.00000000
_cell_angle_gamma   90.00000000
_symmetry_Int_Tables_number   1
_chemical_formula_structural   Li6CrCoP2(CO7)2
_chemical_formula_sum   'Li6 Cr1 Co1 P2 C2 O14'
_cell_volume   276.04632144
_cell_formula_units_Z   1
loop_
 _symmetry_equiv_pos_site_id
 _symmetry_equiv_pos_as_xyz
  1  'x, y, z'
loop_
 _atom_site_type_symbol
 _atom_site_label
 _atom_site_symmetry_multiplicity
 _atom_site_fract_x
 _atom_site_fract_y
 _atom_site_fract_z
 _atom_site_occupancy
  Li  Li0  1  0.50000000  0.76169900  0.09763200  1
  Li  Li1  1  0.27294900  0.24865300  0.27415300  1
  Li  Li2  1  0.72705100  0.24865300  0.27415300  1
  Li  Li3  1  0.77338200  0.75026000  0.72498800  1
  Li  Li4  1  0.22661800  0.75026000  0.72498800  1
  Li  Li5  1  0.00000000  0.23761900  0.90613600  1
  Cr  Cr6  1  0.50000000  0.21432300  0.66424800  1
  Co  Co7  1  0.00000000  0.79010100  0.33144400  1
  P  P8  1  0.50000000  0.71975600  0.41069000  1
  P  P9  1  0.00000000  0.28210100  0.58553300  1
  C  C10  1  0.00000000  0.70344300  0.03646100  1
  C  C11  1  0.50000000  0.29454500  0.96798400  1
  O  O12  1  0.00000000  0.94869300  0.07277600  1
  O  O13  1  0.50000000  0.36209700  0.11154700  1
  O  O14  1  0.00000000  0.51441400  0.15090500  1
  O  O15  1  0.31181000  0.82867900  0.31032400  1
  O  O16  1  0.68819000  0.82867900  0.31032400  1
  O  O17  1  0.00000000  0.17759300  0.41995600  1
  O  O18  1  0.50000000  0.40893500  0.42036600  1
  O  O19  1  0.00000000  0.59445800  0.56776100  1
  O  O20  1  0.50000000  0.81359300  0.57859300  1
  O  O21  1  0.18583400  0.17530400  0.68859800  1
  O  O22  1  0.81416600  0.17530400  0.68859800  1
  O  O23  1  0.50000000  0.48279300  0.85322600  1
  O  O24  1  0.00000000  0.64103500  0.89176700  1
  O  O25  1  0.50000000  0.04700800  0.93684900  1
