# generated using pymatgen
data_Li2Cr2Si4O11
_symmetry_space_group_name_H-M   'P 1'
_cell_length_a   7.13355600
_cell_length_b   7.82650653
_cell_length_c   8.81972806
_cell_angle_alpha   98.55050631
_cell_angle_beta   102.04142211
_cell_angle_gamma   108.53502023
_symmetry_Int_Tables_number   1
_chemical_formula_structural   Li2Cr2Si4O11
_chemical_formula_sum   'Li4 Cr4 Si8 O22'
_cell_volume   444.15559189
_cell_formula_units_Z   2
loop_
 _symmetry_equiv_pos_site_id
 _symmetry_equiv_pos_as_xyz
  1  'x, y, z'
loop_
 _atom_site_type_symbol
 _atom_site_label
 _atom_site_symmetry_multiplicity
 _atom_site_fract_x
 _atom_site_fract_y
 _atom_site_fract_z
 _atom_site_occupancy
  Li  Li0  1  0.37886500  0.21878600  0.79876500  1
  Li  Li1  1  0.84891100  0.25504200  0.84659000  1
  Li  Li2  1  0.15108900  0.74495800  0.15341000  1
  Li  Li3  1  0.62113500  0.78121400  0.20123500  1
  Cr  Cr4  1  0.11962900  0.38097000  0.61422500  1
  Cr  Cr5  1  0.63529900  0.38609400  0.59963500  1
  Cr  Cr6  1  0.36470100  0.61390600  0.40036500  1
  Cr  Cr7  1  0.88037100  0.61903000  0.38577500  1
  Si  Si8  1  0.75705300  0.61399400  0.96422800  1
  Si  Si9  1  0.04432100  0.78027000  0.76773400  1
  Si  Si10  1  0.47870500  0.78265300  0.78080200  1
  Si  Si11  1  0.22505300  0.02635000  0.39704400  1
  Si  Si12  1  0.77494700  0.97365000  0.60295600  1
  Si  Si13  1  0.52129500  0.21734700  0.21919800  1
  Si  Si14  1  0.95567900  0.21973000  0.23226600  1
  Si  Si15  1  0.24294700  0.38600600  0.03577200  1
  O  O16  1  0.18700700  0.37762600  0.84928300  1
  O  O17  1  0.60233800  0.73591200  0.93972000  1
  O  O18  1  0.67193700  0.41026000  0.84292900  1
  O  O19  1  0.97782500  0.74278800  0.93202700  1
  O  O20  1  0.29663700  0.85104700  0.82302600  1
  O  O21  1  0.63514300  0.96102100  0.73612400  1
  O  O22  1  0.34256700  0.18623300  0.55992700  1
  O  O23  1  0.39438600  0.60119100  0.63496500  1
  O  O24  1  0.83499000  0.18812500  0.59321800  1
  O  O25  1  0.98783400  0.94957900  0.70534000  1
  O  O26  1  0.92743900  0.59306000  0.62658800  1
  O  O27  1  0.07256100  0.40694000  0.37341200  1
  O  O28  1  0.01216600  0.05042100  0.29466000  1
  O  O29  1  0.16501000  0.81187500  0.40678200  1
  O  O30  1  0.60561400  0.39880900  0.36503500  1
  O  O31  1  0.65743300  0.81376700  0.44007300  1
  O  O32  1  0.36485700  0.03897900  0.26387600  1
  O  O33  1  0.70336300  0.14895300  0.17697400  1
  O  O34  1  0.02217500  0.25721200  0.06797300  1
  O  O35  1  0.32806300  0.58974000  0.15707100  1
  O  O36  1  0.39766200  0.26408800  0.06028000  1
  O  O37  1  0.81299300  0.62237400  0.15071700  1
