# generated using pymatgen
data_LiV3(CoO6)2
_symmetry_space_group_name_H-M   'P 1'
_cell_length_a   8.87610500
_cell_length_b   8.58974700
_cell_length_c   14.81124866
_cell_angle_alpha   54.85205478
_cell_angle_beta   90.00000000
_cell_angle_gamma   90.00000000
_symmetry_Int_Tables_number   1
_chemical_formula_structural   LiV3(CoO6)2
_chemical_formula_sum   'Li4 V12 Co8 O48'
_cell_volume   923.36119566
_cell_formula_units_Z   4
loop_
 _symmetry_equiv_pos_site_id
 _symmetry_equiv_pos_as_xyz
  1  'x, y, z'
loop_
 _atom_site_type_symbol
 _atom_site_label
 _atom_site_symmetry_multiplicity
 _atom_site_fract_x
 _atom_site_fract_y
 _atom_site_fract_z
 _atom_site_occupancy
  Li  Li0  1  0.21657400  0.99567100  0.18511000  1
  Li  Li1  1  0.71657400  0.00432900  0.31489000  1
  Li  Li2  1  0.28342600  0.99567100  0.68511000  1
  Li  Li3  1  0.78342600  0.00432900  0.81489000  1
  V  V4  1  0.74942500  0.53772000  0.49155200  1
  V  V5  1  0.61545500  0.25925200  0.85562900  1
  V  V6  1  0.88469000  0.97165100  0.13869100  1
  V  V7  1  0.11545500  0.74074800  0.64437100  1
  V  V8  1  0.38469000  0.02834900  0.36130900  1
  V  V9  1  0.24942500  0.46228000  0.00844800  1
  V  V10  1  0.75057500  0.53772000  0.99155200  1
  V  V11  1  0.61531000  0.97165100  0.63869100  1
  V  V12  1  0.88454500  0.25925200  0.35562900  1
  V  V13  1  0.11531000  0.02834900  0.86130900  1
  V  V14  1  0.38454500  0.74074800  0.14437100  1
  V  V15  1  0.25057500  0.46228000  0.50844800  1
  Co  Co16  1  0.97475100  0.36600200  0.88630300  1
  Co  Co17  1  0.47475100  0.63399800  0.61369700  1
  Co  Co18  1  0.02780900  0.87220000  0.37948900  1
  Co  Co19  1  0.52780900  0.12780000  0.12051100  1
  Co  Co20  1  0.47219100  0.87220000  0.87948900  1
  Co  Co21  1  0.97219100  0.12780000  0.62051100  1
  Co  Co22  1  0.52524900  0.36600200  0.38630300  1
  Co  Co23  1  0.02524900  0.63399800  0.11369700  1
  O  O24  1  0.11054000  0.17941300  0.90218100  1
  O  O25  1  0.34055600  0.46597200  0.61208400  1
  O  O26  1  0.11852700  0.64096000  0.43864600  1
  O  O27  1  0.42197700  0.89895000  0.18175400  1
  O  O28  1  0.62934800  0.51577500  0.59070500  1
  O  O29  1  0.81431800  0.27183400  0.85044100  1
  O  O30  1  0.56225500  0.15377500  0.99031300  1
  O  O31  1  0.01150600  0.89190100  0.24660500  1
  O  O32  1  0.70652300  0.99186700  0.18163300  1
  O  O33  1  0.83391000  0.76355600  0.42264000  1
  O  O34  1  0.52435400  0.47239700  0.76669900  1
  O  O35  1  0.02435400  0.52760300  0.73330100  1
  O  O36  1  0.44311600  0.79825700  0.46344100  1
  O  O37  1  0.94311600  0.20174300  0.03655900  1
  O  O38  1  0.33391000  0.23644400  0.07736000  1
  O  O39  1  0.20652300  0.00813300  0.31836700  1
  O  O40  1  0.06225500  0.84622500  0.50968700  1
  O  O41  1  0.31431800  0.72816600  0.64955900  1
  O  O42  1  0.12934800  0.48422500  0.90929500  1
  O  O43  1  0.51150600  0.10809900  0.25339500  1
  O  O44  1  0.84055600  0.53402800  0.88791600  1
  O  O45  1  0.61054000  0.82058700  0.59781900  1
  O  O46  1  0.92197700  0.10105000  0.31824600  1
  O  O47  1  0.61852700  0.35904000  0.06135400  1
  O  O48  1  0.38147300  0.64096000  0.93864600  1
  O  O49  1  0.07802300  0.89895000  0.68175400  1
  O  O50  1  0.38946000  0.17941300  0.40218100  1
  O  O51  1  0.15944400  0.46597200  0.11208400  1
  O  O52  1  0.48849400  0.89190100  0.74660500  1
  O  O53  1  0.87065200  0.51577500  0.09070500  1
  O  O54  1  0.68568200  0.27183400  0.35044100  1
  O  O55  1  0.93774500  0.15377500  0.49031300  1
  O  O56  1  0.79347700  0.99186700  0.68163300  1
  O  O57  1  0.66609000  0.76355600  0.92264000  1
  O  O58  1  0.05688400  0.79825700  0.96344100  1
  O  O59  1  0.55688400  0.20174300  0.53655900  1
  O  O60  1  0.97564600  0.47239700  0.26669900  1
  O  O61  1  0.47564600  0.52760300  0.23330100  1
  O  O62  1  0.16609000  0.23644400  0.57736000  1
  O  O63  1  0.29347700  0.00813300  0.81836700  1
  O  O64  1  0.98849400  0.10809900  0.75339500  1
  O  O65  1  0.43774500  0.84622500  0.00968700  1
  O  O66  1  0.18568200  0.72816600  0.14955900  1
  O  O67  1  0.37065200  0.48422500  0.40929500  1
  O  O68  1  0.57802300  0.10105000  0.81824600  1
  O  O69  1  0.88147300  0.35904000  0.56135400  1
  O  O70  1  0.65944400  0.53402800  0.38791600  1
  O  O71  1  0.88946000  0.82058700  0.09781900  1
