# generated using pymatgen
data_Li4Cu5(P3O11)2
_symmetry_space_group_name_H-M   'P 1'
_cell_length_a   6.75908900
_cell_length_b   10.65132800
_cell_length_c   12.33552390
_cell_angle_alpha   74.53484325
_cell_angle_beta   90.00000000
_cell_angle_gamma   90.00000000
_symmetry_Int_Tables_number   1
_chemical_formula_structural   Li4Cu5(P3O11)2
_chemical_formula_sum   'Li8 Cu10 P12 O44'
_cell_volume   855.92004238
_cell_formula_units_Z   2
loop_
 _symmetry_equiv_pos_site_id
 _symmetry_equiv_pos_as_xyz
  1  'x, y, z'
loop_
 _atom_site_type_symbol
 _atom_site_label
 _atom_site_symmetry_multiplicity
 _atom_site_fract_x
 _atom_site_fract_y
 _atom_site_fract_z
 _atom_site_occupancy
  Li  Li0  1  0.88205800  0.44739300  0.18317000  1
  Li  Li1  1  0.61794200  0.94739300  0.18317000  1
  Li  Li2  1  0.47475900  0.12282800  0.33640400  1
  Li  Li3  1  0.02524100  0.62282800  0.33640400  1
  Li  Li4  1  0.97475900  0.37717200  0.66359600  1
  Li  Li5  1  0.52524100  0.87717200  0.66359600  1
  Li  Li6  1  0.38205800  0.05260700  0.81683000  1
  Li  Li7  1  0.11794200  0.55260700  0.81683000  1
  Cu  Cu8  1  0.50000000  0.50000000  0.00000000  1
  Cu  Cu9  1  0.24044000  0.21373100  0.12938700  1
  Cu  Cu10  1  0.00000000  0.00000000  0.00000000  1
  Cu  Cu11  1  0.25956000  0.71373100  0.12938700  1
  Cu  Cu12  1  0.00764600  0.20022500  0.33863900  1
  Cu  Cu13  1  0.49235400  0.70022500  0.33863900  1
  Cu  Cu14  1  0.50764600  0.29977500  0.66136100  1
  Cu  Cu15  1  0.99235400  0.79977500  0.66136100  1
  Cu  Cu16  1  0.74044000  0.28626900  0.87061300  1
  Cu  Cu17  1  0.75956000  0.78626900  0.87061300  1
  P  P18  1  0.73052600  0.22820800  0.09446000  1
  P  P19  1  0.76947400  0.72820800  0.09446000  1
  P  P20  1  0.38819800  0.43036800  0.25708200  1
  P  P21  1  0.11180200  0.93036800  0.25708200  1
  P  P22  1  0.70712700  0.42071800  0.41846300  1
  P  P23  1  0.79287300  0.92071800  0.41846300  1
  P  P24  1  0.20712700  0.07928200  0.58153700  1
  P  P25  1  0.29287300  0.57928200  0.58153700  1
  P  P26  1  0.88819800  0.06963200  0.74291800  1
  P  P27  1  0.61180200  0.56963200  0.74291800  1
  P  P28  1  0.23052600  0.27179200  0.90554000  1
  P  P29  1  0.26947400  0.77179200  0.90554000  1
  O  O30  1  0.77314800  0.14552600  0.00872800  1
  O  O31  1  0.69002100  0.36198200  0.00090600  1
  O  O32  1  0.72685200  0.64552600  0.00872800  1
  O  O33  1  0.80997900  0.86198200  0.00090600  1
  O  O34  1  0.55971700  0.16351300  0.17037900  1
  O  O35  1  0.90652000  0.25482300  0.16558500  1
  O  O36  1  0.55234600  0.45364700  0.16910000  1
  O  O37  1  0.21889700  0.05570300  0.26299900  1
  O  O38  1  0.94028300  0.66351300  0.17037900  1
  O  O39  1  0.59348000  0.75482300  0.16558500  1
  O  O40  1  0.23961300  0.32541800  0.24403700  1
  O  O41  1  0.94765400  0.95364700  0.16910000  1
  O  O42  1  0.28110300  0.55570300  0.26299900  1
  O  O43  1  0.79356400  0.07108800  0.39032700  1
  O  O44  1  0.26038700  0.82541800  0.24403700  1
  O  O45  1  0.87549100  0.38129000  0.35129700  1
  O  O46  1  0.49656200  0.37111300  0.37688100  1
  O  O47  1  0.21674200  0.14776200  0.45645000  1
  O  O48  1  0.70643600  0.57108800  0.39032700  1
  O  O49  1  0.62450900  0.88129000  0.35129700  1
  O  O50  1  0.00343800  0.87111300  0.37688100  1
  O  O51  1  0.28325800  0.64776200  0.45645000  1
  O  O52  1  0.71674200  0.35223800  0.54355000  1
  O  O53  1  0.99656200  0.12888700  0.62311900  1
  O  O54  1  0.37549100  0.11871000  0.64870300  1
  O  O55  1  0.29356400  0.42891200  0.60967300  1
  O  O56  1  0.78325800  0.85223800  0.54355000  1
  O  O57  1  0.50343800  0.62888700  0.62311900  1
  O  O58  1  0.12450900  0.61871000  0.64870300  1
  O  O59  1  0.73961300  0.17458200  0.75596300  1
  O  O60  1  0.20643600  0.92891200  0.60967300  1
  O  O61  1  0.71889700  0.44429700  0.73700100  1
  O  O62  1  0.05234600  0.04635300  0.83090000  1
  O  O63  1  0.76038700  0.67458200  0.75596300  1
  O  O64  1  0.40652000  0.24517700  0.83441500  1
  O  O65  1  0.05971700  0.33648700  0.82962100  1
  O  O66  1  0.78110300  0.94429700  0.73700100  1
  O  O67  1  0.44765400  0.54635300  0.83090000  1
  O  O68  1  0.09348000  0.74517700  0.83441500  1
  O  O69  1  0.44028300  0.83648700  0.82962100  1
  O  O70  1  0.19002100  0.13801800  0.99909400  1
  O  O71  1  0.27314800  0.35447400  0.99127200  1
  O  O72  1  0.30997900  0.63801800  0.99909400  1
  O  O73  1  0.22685200  0.85447400  0.99127200  1
