# generated using pymatgen
data_Li3MnVP2(O4F)2
_symmetry_space_group_name_H-M   'P 1'
_cell_length_a   5.43624433
_cell_length_b   10.55817939
_cell_length_c   7.44527853
_cell_angle_alpha   107.47129809
_cell_angle_beta   73.03507751
_cell_angle_gamma   83.26355124
_symmetry_Int_Tables_number   1
_chemical_formula_structural   Li3MnVP2(O4F)2
_chemical_formula_sum   'Li6 Mn2 V2 P4 O16 F4'
_cell_volume   379.92314480
_cell_formula_units_Z   2
loop_
 _symmetry_equiv_pos_site_id
 _symmetry_equiv_pos_as_xyz
  1  'x, y, z'
loop_
 _atom_site_type_symbol
 _atom_site_label
 _atom_site_symmetry_multiplicity
 _atom_site_fract_x
 _atom_site_fract_y
 _atom_site_fract_z
 _atom_site_occupancy
  Li  Li0  1  0.59797600  0.86815900  0.84521700  1
  Li  Li1  1  0.59801600  0.36817000  0.84524800  1
  Li  Li2  1  0.04343100  0.25431300  0.48660700  1
  Li  Li3  1  0.04338000  0.75431900  0.48661900  1
  Li  Li4  1  0.41639300  0.12267600  0.13926300  1
  Li  Li5  1  0.41642000  0.62269400  0.13929300  1
  Mn  Mn6  1  0.99132600  0.50566400  0.50219200  1
  Mn  Mn7  1  0.99104400  0.00541500  0.50223600  1
  V  V8  1  0.99968200  0.00007400  0.00090300  1
  V  V9  1  0.99967800  0.50004900  0.00087000  1
  P  P10  1  0.35439300  0.67268300  0.76322500  1
  P  P11  1  0.35438100  0.17270000  0.76321500  1
  P  P12  1  0.64171800  0.32811700  0.24003400  1
  P  P13  1  0.64168900  0.82813000  0.24002500  1
  O  O14  1  0.24127600  0.82113600  0.92324300  1
  O  O15  1  0.24131100  0.32115100  0.92327300  1
  O  O16  1  0.20979400  0.64319400  0.61233300  1
  O  O17  1  0.20981400  0.14317200  0.61228800  1
  O  O18  1  0.64838700  0.67016600  0.66681900  1
  O  O19  1  0.64841700  0.17017100  0.66690600  1
  O  O20  1  0.67000800  0.42981400  0.11965500  1
  O  O21  1  0.66997400  0.92981300  0.11965500  1
  O  O22  1  0.32655600  0.56932000  0.88009400  1
  O  O23  1  0.32655200  0.06931500  0.88008600  1
  O  O24  1  0.34655600  0.33097100  0.33786700  1
  O  O25  1  0.34654000  0.83097600  0.33794500  1
  O  O26  1  0.78921400  0.35881900  0.38893500  1
  O  O27  1  0.78917900  0.85881000  0.38890000  1
  O  O28  1  0.75558600  0.17914600  0.08071200  1
  O  O29  1  0.75560400  0.67917400  0.08075800  1
  F  F30  1  0.08968500  0.57828300  0.25579400  1
  F  F31  1  0.08966600  0.07823800  0.25579000  1
  F  F32  1  0.91712500  0.42417100  0.74287800  1
  F  F33  1  0.91711200  0.92412000  0.74287300  1
