# generated using pymatgen
data_Li13Mn8O24
_symmetry_space_group_name_H-M   'P 1'
_cell_length_a   4.97642000
_cell_length_b   8.65708237
_cell_length_c   10.18668771
_cell_angle_alpha   107.01722242
_cell_angle_beta   99.72076138
_cell_angle_gamma   89.65343353
_symmetry_Int_Tables_number   1
_chemical_formula_structural   Li13Mn8O24
_chemical_formula_sum   'Li13 Mn8 O24'
_cell_volume   413.17791182
_cell_formula_units_Z   1
loop_
 _symmetry_equiv_pos_site_id
 _symmetry_equiv_pos_as_xyz
  1  'x, y, z'
loop_
 _atom_site_type_symbol
 _atom_site_label
 _atom_site_symmetry_multiplicity
 _atom_site_fract_x
 _atom_site_fract_y
 _atom_site_fract_z
 _atom_site_occupancy
  Li  Li0  1  0.23889900  0.92422200  0.24864400  1
  Li  Li1  1  0.22841200  0.92231400  0.75349000  1
  Li  Li2  1  0.00000000  0.00000000  0.50000000  1
  Li  Li3  1  0.77158800  0.07768600  0.24651000  1
  Li  Li4  1  0.74718300  0.74567600  0.24670200  1
  Li  Li5  1  0.72525700  0.42389800  0.25035600  1
  Li  Li6  1  0.76110100  0.07577800  0.75135600  1
  Li  Li7  1  0.75273700  0.75139000  0.74900700  1
  Li  Li8  1  0.73087700  0.42149300  0.74807200  1
  Li  Li9  1  0.26912300  0.57850700  0.25192800  1
  Li  Li10  1  0.24726300  0.24861000  0.25099300  1
  Li  Li11  1  0.27474300  0.57610200  0.74964400  1
  Li  Li12  1  0.25281700  0.25432400  0.75329800  1
  Mn  Mn13  1  0.00126100  0.66572700  0.99968700  1
  Mn  Mn14  1  0.99873900  0.33427300  0.00031300  1
  Mn  Mn15  1  0.00311200  0.66364900  0.49991300  1
  Mn  Mn16  1  0.99688800  0.33635100  0.50008700  1
  Mn  Mn17  1  0.50019900  0.16648500  0.00022100  1
  Mn  Mn18  1  0.49980100  0.83351500  0.99977900  1
  Mn  Mn19  1  0.50012000  0.16863000  0.49997600  1
  Mn  Mn20  1  0.49988000  0.83137000  0.50002400  1
  O  O21  1  0.13994800  0.14085300  0.38516000  1
  O  O22  1  0.14254900  0.78160500  0.38804000  1
  O  O23  1  0.09017900  0.46058300  0.38535100  1
  O  O24  1  0.91181700  0.53948900  0.11446600  1
  O  O25  1  0.14639100  0.14683100  0.88339900  1
  O  O26  1  0.14732100  0.77439300  0.88500200  1
  O  O27  1  0.85267900  0.22560700  0.11499800  1
  O  O28  1  0.85360900  0.85316900  0.11660100  1
  O  O29  1  0.08818300  0.46051100  0.88553400  1
  O  O30  1  0.90982100  0.53941700  0.61464900  1
  O  O31  1  0.85745100  0.21839500  0.61196000  1
  O  O32  1  0.86005200  0.85914700  0.61484000  1
  O  O33  1  0.64664500  0.64527400  0.38335400  1
  O  O34  1  0.64487900  0.27628400  0.38581600  1
  O  O35  1  0.60471800  0.96204800  0.38896400  1
  O  O36  1  0.41063800  0.03898300  0.11446100  1
  O  O37  1  0.64727400  0.64700600  0.88266400  1
  O  O38  1  0.64621300  0.27456100  0.88571000  1
  O  O39  1  0.35378700  0.72543900  0.11429000  1
  O  O40  1  0.35272600  0.35299400  0.11733600  1
  O  O41  1  0.58936200  0.96101700  0.88553900  1
  O  O42  1  0.39528200  0.03795200  0.61103600  1
  O  O43  1  0.35512100  0.72371600  0.61418400  1
  O  O44  1  0.35335500  0.35472600  0.61664600  1
