# generated using pymatgen
data_LiMnPH2O5
_symmetry_space_group_name_H-M   'P 1'
_cell_length_a   5.15745600
_cell_length_b   8.20120000
_cell_length_c   11.18708000
_cell_angle_alpha   90.00000000
_cell_angle_beta   90.00000000
_cell_angle_gamma   90.00000000
_symmetry_Int_Tables_number   1
_chemical_formula_structural   LiMnPH2O5
_chemical_formula_sum   'Li4 Mn4 P4 H8 O20'
_cell_volume   473.18359377
_cell_formula_units_Z   4
loop_
 _symmetry_equiv_pos_site_id
 _symmetry_equiv_pos_as_xyz
  1  'x, y, z'
loop_
 _atom_site_type_symbol
 _atom_site_label
 _atom_site_symmetry_multiplicity
 _atom_site_fract_x
 _atom_site_fract_y
 _atom_site_fract_z
 _atom_site_occupancy
  Li  Li0  1  0.19504200  0.12253200  0.11556600  1
  Li  Li1  1  0.69504200  0.62253200  0.38443400  1
  Li  Li2  1  0.19504200  0.37746800  0.61556600  1
  Li  Li3  1  0.69504200  0.87746800  0.88443400  1
  Mn  Mn4  1  0.70132600  0.31159400  0.19597800  1
  Mn  Mn5  1  0.20132600  0.81159400  0.30402200  1
  Mn  Mn6  1  0.70132600  0.18840600  0.69597800  1
  Mn  Mn7  1  0.20132600  0.68840600  0.80402200  1
  P  P8  1  0.69113400  0.91166400  0.16429600  1
  P  P9  1  0.19113400  0.41166400  0.33570400  1
  P  P10  1  0.69113400  0.58833600  0.66429600  1
  P  P11  1  0.19113400  0.08833600  0.83570400  1
  H  H12  1  0.37328900  0.57047000  0.00972100  1
  H  H13  1  0.14365100  0.68786900  0.04040600  1
  H  H14  1  0.64365100  0.18786900  0.45959400  1
  H  H15  1  0.87328900  0.07047000  0.49027900  1
  H  H16  1  0.37328900  0.92953000  0.50972100  1
  H  H17  1  0.14365100  0.81213100  0.54040600  1
  H  H18  1  0.64365100  0.31213100  0.95959400  1
  H  H19  1  0.87328900  0.42953000  0.99027900  1
  O  O20  1  0.69207900  0.40363000  0.01108400  1
  O  O21  1  0.62701100  0.82285600  0.04847500  1
  O  O22  1  0.55756900  0.08363000  0.16785700  1
  O  O23  1  0.99114800  0.93671100  0.18015700  1
  O  O24  1  0.09402100  0.31481000  0.22303000  1
  O  O25  1  0.59402100  0.81481000  0.27697000  1
  O  O26  1  0.49114800  0.43671100  0.31984300  1
  O  O27  1  0.05756900  0.58363000  0.33214300  1
  O  O28  1  0.12701100  0.32285600  0.45152500  1
  O  O29  1  0.19207900  0.90363000  0.48891600  1
  O  O30  1  0.69207900  0.09637000  0.51108400  1
  O  O31  1  0.62701100  0.67714400  0.54847500  1
  O  O32  1  0.55756900  0.41637000  0.66785700  1
  O  O33  1  0.99114800  0.56328900  0.68015700  1
  O  O34  1  0.09402100  0.18519000  0.72303000  1
  O  O35  1  0.59402100  0.68519000  0.77697000  1
  O  O36  1  0.49114800  0.06328900  0.81984300  1
  O  O37  1  0.05756900  0.91637000  0.83214300  1
  O  O38  1  0.12701100  0.17714400  0.95152500  1
  O  O39  1  0.19207900  0.59637000  0.98891600  1
