# generated using pymatgen
data_LiMnV(P2O7)2
_symmetry_space_group_name_H-M   'P 1'
_cell_length_a   7.14474200
_cell_length_b   8.17944048
_cell_length_c   9.67722060
_cell_angle_alpha   90.78836241
_cell_angle_beta   111.24281632
_cell_angle_gamma   91.33778932
_symmetry_Int_Tables_number   1
_chemical_formula_structural   LiMnV(P2O7)2
_chemical_formula_sum   'Li2 Mn2 V2 P8 O28'
_cell_volume   526.81684425
_cell_formula_units_Z   2
loop_
 _symmetry_equiv_pos_site_id
 _symmetry_equiv_pos_as_xyz
  1  'x, y, z'
loop_
 _atom_site_type_symbol
 _atom_site_label
 _atom_site_symmetry_multiplicity
 _atom_site_fract_x
 _atom_site_fract_y
 _atom_site_fract_z
 _atom_site_occupancy
  Li  Li0  1  0.67230200  0.86323200  0.75054900  1
  Li  Li1  1  0.32638700  0.35803500  0.25165100  1
  Mn  Mn2  1  0.26659300  0.00741400  0.74108000  1
  Mn  Mn3  1  0.27791500  0.99316700  0.24391600  1
  V  V4  1  0.71894900  0.49570700  0.75557100  1
  V  V5  1  0.72557200  0.50571600  0.25596400  1
  P  P6  1  0.09141900  0.78075600  0.93615200  1
  P  P7  1  0.48494400  0.67830200  0.94029100  1
  P  P8  1  0.52261600  0.17782200  0.55880800  1
  P  P9  1  0.08974200  0.78267900  0.43617500  1
  P  P10  1  0.91397500  0.28850800  0.56234200  1
  P  P11  1  0.48243200  0.68273100  0.44133500  1
  P  P12  1  0.51806100  0.17470100  0.05905700  1
  P  P13  1  0.90965900  0.28761700  0.06305100  1
  O  O14  1  0.25222300  0.65219300  0.92164700  1
  O  O15  1  0.08576900  0.93267800  0.84453100  1
  O  O16  1  0.39192500  0.17374000  0.89421000  1
  O  O17  1  0.51062200  0.84340800  0.88005200  1
  O  O18  1  0.52800600  0.53583300  0.85248400  1
  O  O19  1  0.84280500  0.33265200  0.89861000  1
  O  O20  1  0.88806300  0.68665400  0.87242000  1
  O  O21  1  0.10895800  0.20367900  0.61173300  1
  O  O22  1  0.14244500  0.82843300  0.59990600  1
  O  O23  1  0.48148100  0.03840200  0.64825600  1
  O  O24  1  0.51533900  0.34802200  0.62568400  1
  O  O25  1  0.60744500  0.67067000  0.60943000  1
  O  O26  1  0.90121200  0.43924500  0.65705100  1
  O  O27  1  0.75122900  0.15142100  0.57293800  1
  O  O28  1  0.25013600  0.65066400  0.42352100  1
  O  O29  1  0.09430000  0.93182300  0.34399000  1
  O  O30  1  0.39019300  0.17719600  0.39423100  1
  O  O31  1  0.50737400  0.84734500  0.38458000  1
  O  O32  1  0.51857600  0.53698100  0.35162800  1
  O  O33  1  0.84254600  0.34134500  0.39854400  1
  O  O34  1  0.89170000  0.68305300  0.37998100  1
  O  O35  1  0.11185100  0.20974100  0.11857600  1
  O  O36  1  0.14042600  0.82035300  0.09963700  1
  O  O37  1  0.47057900  0.03801900  0.14664500  1
  O  O38  1  0.51357800  0.34432000  0.13129200  1
  O  O39  1  0.60624600  0.66210100  0.10785800  1
  O  O40  1  0.90884900  0.44106800  0.15820000  1
  O  O41  1  0.75016400  0.15171700  0.07607700  1
