# generated using pymatgen
data_Li3Mn2F7
_symmetry_space_group_name_H-M   'P 1'
_cell_length_a   10.87448300
_cell_length_b   7.59856100
_cell_length_c   9.12962701
_cell_angle_alpha   56.30191355
_cell_angle_beta   90.00000000
_cell_angle_gamma   90.00000000
_symmetry_Int_Tables_number   1
_chemical_formula_structural   Li3Mn2F7
_chemical_formula_sum   'Li12 Mn8 F28'
_cell_volume   627.62763653
_cell_formula_units_Z   4
loop_
 _symmetry_equiv_pos_site_id
 _symmetry_equiv_pos_as_xyz
  1  'x, y, z'
loop_
 _atom_site_type_symbol
 _atom_site_label
 _atom_site_symmetry_multiplicity
 _atom_site_fract_x
 _atom_site_fract_y
 _atom_site_fract_z
 _atom_site_occupancy
  Li  Li0  1  0.58450700  0.74871000  0.70962500  1
  Li  Li1  1  0.20676400  0.35407600  0.02825400  1
  Li  Li2  1  0.90377000  0.11015200  0.19521500  1
  Li  Li3  1  0.08450700  0.25129000  0.79037500  1
  Li  Li4  1  0.29323600  0.35407600  0.52825400  1
  Li  Li5  1  0.40377000  0.88984800  0.30478500  1
  Li  Li6  1  0.59623000  0.11015200  0.69521500  1
  Li  Li7  1  0.70676400  0.64592400  0.47174600  1
  Li  Li8  1  0.91549300  0.74871000  0.20962500  1
  Li  Li9  1  0.09623000  0.88984800  0.80478500  1
  Li  Li10  1  0.79323600  0.64592400  0.97174600  1
  Li  Li11  1  0.41549300  0.25129000  0.29037500  1
  Mn  Mn12  1  0.27872400  0.70775500  0.64489700  1
  Mn  Mn13  1  0.91640400  0.76812600  0.61553100  1
  Mn  Mn14  1  0.41640400  0.23187400  0.88446900  1
  Mn  Mn15  1  0.77872400  0.29224500  0.85510300  1
  Mn  Mn16  1  0.22127600  0.70775500  0.14489700  1
  Mn  Mn17  1  0.58359600  0.76812600  0.11553100  1
  Mn  Mn18  1  0.08359600  0.23187400  0.38446900  1
  Mn  Mn19  1  0.72127600  0.29224500  0.35510300  1
  F  F20  1  0.45461700  0.56131100  0.75468800  1
  F  F21  1  0.36398500  0.19800400  0.11710200  1
  F  F22  1  0.72996100  0.61711100  0.69869800  1
  F  F23  1  0.78084300  0.33869600  0.08503300  1
  F  F24  1  0.89375200  0.12870400  0.42845900  1
  F  F25  1  0.07135000  0.20826400  0.17142700  1
  F  F26  1  0.37406900  0.97127300  0.46982700  1
  F  F27  1  0.22996100  0.38288900  0.80130200  1
  F  F28  1  0.95461700  0.43868900  0.74531200  1
  F  F29  1  0.13601500  0.19800400  0.61710200  1
  F  F30  1  0.87406900  0.02872700  0.03017300  1
  F  F31  1  0.71915700  0.33869600  0.58503300  1
  F  F32  1  0.57135000  0.79173600  0.32857300  1
  F  F33  1  0.60624800  0.12870400  0.92845900  1
  F  F34  1  0.39375200  0.87129600  0.07154100  1
  F  F35  1  0.42865000  0.20826400  0.67142700  1
  F  F36  1  0.28084300  0.66130400  0.41496700  1
  F  F37  1  0.12593100  0.97127300  0.96982700  1
  F  F38  1  0.86398400  0.80199600  0.38289800  1
  F  F39  1  0.04538300  0.56131100  0.25468800  1
  F  F40  1  0.77003900  0.61711100  0.19869800  1
  F  F41  1  0.62593100  0.02872700  0.53017300  1
  F  F42  1  0.92865000  0.79173600  0.82857300  1
  F  F43  1  0.10624800  0.87129600  0.57154100  1
  F  F44  1  0.21915700  0.66130400  0.91496700  1
  F  F45  1  0.27003900  0.38288900  0.30130200  1
  F  F46  1  0.63601500  0.80199600  0.88289800  1
  F  F47  1  0.54538300  0.43868900  0.24531200  1
