# generated using pymatgen
data_Li4V3Cu3(TeO8)2
_symmetry_space_group_name_H-M   'P 1'
_cell_length_a   5.92158800
_cell_length_b   5.98616809
_cell_length_c   9.89465509
_cell_angle_alpha   92.46149113
_cell_angle_beta   89.99480006
_cell_angle_gamma   119.51810058
_symmetry_Int_Tables_number   1
_chemical_formula_structural   Li4V3Cu3(TeO8)2
_chemical_formula_sum   'Li4 V3 Cu3 Te2 O16'
_cell_volume   304.84452714
_cell_formula_units_Z   1
loop_
 _symmetry_equiv_pos_site_id
 _symmetry_equiv_pos_as_xyz
  1  'x, y, z'
loop_
 _atom_site_type_symbol
 _atom_site_label
 _atom_site_symmetry_multiplicity
 _atom_site_fract_x
 _atom_site_fract_y
 _atom_site_fract_z
 _atom_site_occupancy
  Li  Li0  1  0.33566400  0.66786200  0.91506300  1
  Li  Li1  1  0.00367600  0.00949100  0.98689200  1
  Li  Li2  1  0.99756600  0.99928100  0.47762600  1
  Li  Li3  1  0.65454400  0.30675700  0.40822800  1
  V  V4  1  0.17563100  0.35177400  0.22329100  1
  V  V5  1  0.83090800  0.18312600  0.71921000  1
  V  V6  1  0.34874000  0.18148600  0.71395400  1
  Cu  Cu7  1  0.65870100  0.83239400  0.20771500  1
  Cu  Cu8  1  0.17367000  0.83243700  0.20774800  1
  Cu  Cu9  1  0.83280000  0.66666400  0.70700000  1
  Te  Te10  1  0.33184200  0.66613600  0.48665500  1
  Te  Te11  1  0.67353700  0.34845100  0.98806000  1
  O  O12  1  0.66396200  0.83959800  0.58708800  1
  O  O13  1  0.46880800  0.93804800  0.35330500  1
  O  O14  1  0.31881800  0.63643300  0.11657400  1
  O  O15  1  0.00837700  0.01749100  0.28600900  1
  O  O16  1  0.99799500  0.01757900  0.79471400  1
  O  O17  1  0.17449800  0.84386300  0.58543700  1
  O  O18  1  0.45342100  0.47648000  0.36409600  1
  O  O19  1  0.02332900  0.47908700  0.36274800  1
  O  O20  1  0.84092900  0.68203500  0.08256500  1
  O  O21  1  0.16955700  0.34874300  0.60102900  1
  O  O22  1  0.96595800  0.46942800  0.85283900  1
  O  O23  1  0.50462300  0.46798300  0.85216900  1
  O  O24  1  0.67265900  0.31329300  0.60899200  1
  O  O25  1  0.83846400  0.19262200  0.08769900  1
  O  O26  1  0.52881600  0.04113300  0.84456300  1
  O  O27  1  0.35280700  0.19032600  0.08657300  1
