# generated using pymatgen
data_Li8Mn3Fe5(BO3)8
_symmetry_space_group_name_H-M   'P 1'
_cell_length_a   5.22858600
_cell_length_b   6.02856385
_cell_length_c   16.20040506
_cell_angle_alpha   81.61439464
_cell_angle_beta   89.17997319
_cell_angle_gamma   88.92713901
_symmetry_Int_Tables_number   1
_chemical_formula_structural   Li8Mn3Fe5(BO3)8
_chemical_formula_sum   'Li8 Mn3 Fe5 B8 O24'
_cell_volume   505.06822190
_cell_formula_units_Z   1
loop_
 _symmetry_equiv_pos_site_id
 _symmetry_equiv_pos_as_xyz
  1  'x, y, z'
loop_
 _atom_site_type_symbol
 _atom_site_label
 _atom_site_symmetry_multiplicity
 _atom_site_fract_x
 _atom_site_fract_y
 _atom_site_fract_z
 _atom_site_occupancy
  Li  Li0  1  0.84797700  0.06307800  0.39061100  1
  Li  Li1  1  0.15219000  0.43392500  0.10974000  1
  Li  Li2  1  0.65255400  0.18783600  0.85695800  1
  Li  Li3  1  0.34786500  0.31465500  0.64087200  1
  Li  Li4  1  0.65219600  0.68612200  0.36018600  1
  Li  Li5  1  0.34762100  0.81341500  0.14156100  1
  Li  Li6  1  0.84656100  0.56701400  0.88887700  1
  Li  Li7  1  0.15036800  0.93448700  0.61028100  1
  Mn  Mn8  1  0.67004200  0.27428800  0.04109700  1
  Mn  Mn9  1  0.16888100  0.51951300  0.29132800  1
  Mn  Mn10  1  0.32965900  0.72477800  0.95949700  1
  Fe  Fe11  1  0.16627700  0.02894500  0.79172200  1
  Fe  Fe12  1  0.33117900  0.22227000  0.46235700  1
  Fe  Fe13  1  0.83429400  0.47573700  0.70686800  1
  Fe  Fe14  1  0.66401400  0.77539800  0.53938700  1
  Fe  Fe15  1  0.83839800  0.97251500  0.20924600  1
  B  B16  1  0.33110700  0.03625500  0.29802100  1
  B  B17  1  0.82972200  0.28799700  0.54639200  1
  B  B18  1  0.67119400  0.46227200  0.20329100  1
  B  B19  1  0.16766000  0.21550000  0.95093400  1
  B  B20  1  0.83034100  0.78520700  0.04905000  1
  B  B21  1  0.32912700  0.53953600  0.79590200  1
  B  B22  1  0.17183500  0.71209100  0.45427100  1
  B  B23  1  0.66888900  0.96247000  0.70194400  1
  O  O24  1  0.59177000  0.01210100  0.30884000  1
  O  O25  1  0.18551900  0.16576100  0.34719900  1
  O  O26  1  0.70911800  0.17563300  0.48906000  1
  O  O27  1  0.28733600  0.32919800  0.00809600  1
  O  O28  1  0.79428000  0.07754400  0.75783300  1
  O  O29  1  0.82133700  0.32763500  0.15717200  1
  O  O30  1  0.31650000  0.08257800  0.90310500  1
  O  O31  1  0.09253200  0.26405100  0.55781900  1
  O  O32  1  0.41039900  0.48520200  0.18930700  1
  O  O33  1  0.90699300  0.23677000  0.93844200  1
  O  O34  1  0.68583100  0.41933800  0.59540400  1
  O  O35  1  0.20415800  0.42307900  0.74022100  1
  O  O36  1  0.78730600  0.58029900  0.25990300  1
  O  O37  1  0.31708300  0.57971200  0.40658000  1
  O  O38  1  0.09127600  0.76424600  0.06172300  1
  O  O39  1  0.58960200  0.51412000  0.80780600  1
  O  O40  1  0.91044000  0.73698400  0.44319300  1
  O  O41  1  0.68094900  0.91778300  0.09663500  1
  O  O42  1  0.18160800  0.67296200  0.84351300  1
  O  O43  1  0.20669400  0.92516300  0.24051700  1
  O  O44  1  0.71250300  0.67026900  0.99180000  1
  O  O45  1  0.29426000  0.82687900  0.51131200  1
  O  O46  1  0.81483700  0.82933900  0.65371300  1
  O  O47  1  0.40772200  0.98805000  0.69040900  1
