# generated using pymatgen
data_Li3Fe(PO4)2
_symmetry_space_group_name_H-M   'P 1'
_cell_length_a   4.70427601
_cell_length_b   13.79150440
_cell_length_c   9.14327636
_cell_angle_alpha   79.55213137
_cell_angle_beta   89.99446806
_cell_angle_gamma   99.81911776
_symmetry_Int_Tables_number   1
_chemical_formula_structural   Li3Fe(PO4)2
_chemical_formula_sum   'Li12 Fe4 P8 O32'
_cell_volume   574.53140363
_cell_formula_units_Z   4
loop_
 _symmetry_equiv_pos_site_id
 _symmetry_equiv_pos_as_xyz
  1  'x, y, z'
loop_
 _atom_site_type_symbol
 _atom_site_label
 _atom_site_symmetry_multiplicity
 _atom_site_fract_x
 _atom_site_fract_y
 _atom_site_fract_z
 _atom_site_occupancy
  Li  Li0  1  0.32732500  0.75101100  0.62399900  1
  Li  Li1  1  0.82732600  0.75100900  0.12401200  1
  Li  Li2  1  0.17213900  0.25097400  0.87410700  1
  Li  Li3  1  0.67213900  0.25098100  0.37409600  1
  Li  Li4  1  0.29636000  0.65833400  0.33850400  1
  Li  Li5  1  0.79636000  0.65833600  0.83849500  1
  Li  Li6  1  0.11013300  0.15809800  0.58826400  1
  Li  Li7  1  0.61015000  0.15809600  0.08825700  1
  Li  Li8  1  0.88919600  0.84378600  0.40959900  1
  Li  Li9  1  0.38919800  0.84377100  0.90959700  1
  Li  Li10  1  0.70238700  0.34359700  0.66031200  1
  Li  Li11  1  0.20239200  0.34360400  0.16031000  1
  Fe  Fe12  1  0.24931800  0.50090800  0.75006500  1
  Fe  Fe13  1  0.99996000  0.00092900  0.99859100  1
  Fe  Fe14  1  0.74937400  0.50096900  0.25005500  1
  Fe  Fe15  1  0.49982500  0.00091800  0.49863800  1
  P  P16  1  0.42444300  0.88606400  0.21401800  1
  P  P17  1  0.92440700  0.88606800  0.71402700  1
  P  P18  1  0.20992100  0.38602700  0.46509500  1
  P  P19  1  0.70992100  0.38603200  0.96510900  1
  P  P20  1  0.78901400  0.61590500  0.53455100  1
  P  P21  1  0.28900300  0.61589400  0.03453400  1
  P  P22  1  0.57526400  0.11569200  0.78356200  1
  P  P23  1  0.07523700  0.11569400  0.28356200  1
  O  O24  1  0.16610900  0.86809600  0.10684700  1
  O  O25  1  0.66606700  0.86809900  0.60686300  1
  O  O26  1  0.45046200  0.36817200  0.35801600  1
  O  O27  1  0.95046600  0.36816900  0.85801300  1
  O  O28  1  0.54895300  0.63388800  0.64187000  1
  O  O29  1  0.04894900  0.63388800  0.14186700  1
  O  O30  1  0.83343900  0.13366900  0.89080900  1
  O  O31  1  0.33340200  0.13366900  0.39081200  1
  O  O32  1  0.65454700  0.96923500  0.12631600  1
  O  O33  1  0.15449900  0.96924100  0.62631500  1
  O  O34  1  0.06298300  0.46925300  0.37759800  1
  O  O35  1  0.56298700  0.46925200  0.87758500  1
  O  O36  1  0.93603100  0.53272600  0.62225200  1
  O  O37  1  0.43600900  0.53272100  0.12226100  1
  O  O38  1  0.34529600  0.03232100  0.87106500  1
  O  O39  1  0.84526400  0.03232600  0.37105400  1
  O  O40  1  0.55792100  0.79115800  0.26546900  1
  O  O41  1  0.05789400  0.79115900  0.76545800  1
  O  O42  1  0.98163700  0.29099900  0.51602500  1
  O  O43  1  0.48164700  0.29099600  0.01601600  1
  O  O44  1  0.01736800  0.71080000  0.48285700  1
  O  O45  1  0.51735900  0.71079500  0.98287000  1
  O  O46  1  0.44146800  0.21059100  0.73264000  1
  O  O47  1  0.94145400  0.21059000  0.23262100  1
  O  O48  1  0.63873400  0.58552900  0.39336200  1
  O  O49  1  0.13873700  0.58552400  0.89334900  1
  O  O50  1  0.69481100  0.08561900  0.64207500  1
  O  O51  1  0.19483200  0.08561800  0.14208700  1
  O  O52  1  0.30479500  0.91630100  0.35532600  1
  O  O53  1  0.80480200  0.91629700  0.85534700  1
  O  O54  1  0.35920600  0.41609200  0.60669400  1
  O  O55  1  0.85919900  0.41609900  0.10670500  1
