# generated using pymatgen
data_Li2CrO4
_symmetry_space_group_name_H-M   'P 1'
_cell_length_a   5.06825000
_cell_length_b   5.36152800
_cell_length_c   6.65923300
_cell_angle_alpha   90.00000000
_cell_angle_beta   90.00000000
_cell_angle_gamma   90.00000000
_symmetry_Int_Tables_number   1
_chemical_formula_structural   Li2CrO4
_chemical_formula_sum   'Li4 Cr2 O8'
_cell_volume   180.95509602
_cell_formula_units_Z   2
loop_
 _symmetry_equiv_pos_site_id
 _symmetry_equiv_pos_as_xyz
  1  'x, y, z'
loop_
 _atom_site_type_symbol
 _atom_site_label
 _atom_site_symmetry_multiplicity
 _atom_site_fract_x
 _atom_site_fract_y
 _atom_site_fract_z
 _atom_site_occupancy
  Li  Li0  1  0.99252600  0.32204100  0.24640400  1
  Li  Li1  1  0.49252600  0.67795900  0.25359600  1
  Li  Li2  1  0.49252600  0.67795900  0.74640400  1
  Li  Li3  1  0.99252600  0.32204100  0.75359600  1
  Cr  Cr4  1  0.00170600  0.82188000  0.00000000  1
  Cr  Cr5  1  0.50170600  0.17812000  0.50000000  1
  O  O6  1  0.91589000  0.12110600  0.00000000  1
  O  O7  1  0.32859400  0.79610100  0.00000000  1
  O  O8  1  0.88433000  0.67833100  0.20324800  1
  O  O9  1  0.38433000  0.32166900  0.29675200  1
  O  O10  1  0.82859400  0.20389900  0.50000000  1
  O  O11  1  0.41589000  0.87889400  0.50000000  1
  O  O12  1  0.38433000  0.32166900  0.70324800  1
  O  O13  1  0.88433000  0.67833100  0.79675200  1
