# generated using pymatgen
data_LiCo2OF5
_symmetry_space_group_name_H-M   'P 1'
_cell_length_a   4.56096400
_cell_length_b   4.99134100
_cell_length_c   16.90329880
_cell_angle_alpha   89.72634467
_cell_angle_beta   90.00000000
_cell_angle_gamma   90.00000000
_symmetry_Int_Tables_number   1
_chemical_formula_structural   LiCo2OF5
_chemical_formula_sum   'Li4 Co8 O4 F20'
_cell_volume   384.80472886
_cell_formula_units_Z   4
loop_
 _symmetry_equiv_pos_site_id
 _symmetry_equiv_pos_as_xyz
  1  'x, y, z'
loop_
 _atom_site_type_symbol
 _atom_site_label
 _atom_site_symmetry_multiplicity
 _atom_site_fract_x
 _atom_site_fract_y
 _atom_site_fract_z
 _atom_site_occupancy
  Li  Li0  1  0.23348400  0.74404600  0.61544000  1
  Li  Li1  1  0.24644200  0.25401300  0.38409600  1
  Li  Li2  1  0.76651600  0.74404600  0.11544000  1
  Li  Li3  1  0.75355800  0.25401300  0.88409600  1
  Co  Co4  1  0.27218100  0.22178000  0.71750800  1
  Co  Co5  1  0.27708000  0.76778200  0.94001800  1
  Co  Co6  1  0.26261800  0.75787400  0.28786800  1
  Co  Co7  1  0.25101400  0.25730100  0.04938200  1
  Co  Co8  1  0.73738200  0.75787400  0.78786800  1
  Co  Co9  1  0.72292000  0.76778200  0.44001800  1
  Co  Co10  1  0.72781900  0.22178000  0.21750900  1
  Co  Co11  1  0.74898600  0.25730100  0.54938200  1
  O  O12  1  0.50550400  0.92677500  0.21661700  1
  O  O13  1  0.47907800  0.89494600  0.36961900  1
  O  O14  1  0.52092200  0.89494600  0.86961900  1
  O  O15  1  0.49449600  0.92677500  0.71661700  1
  F  F16  1  0.47644000  0.92750600  0.03997400  1
  F  F17  1  0.47834700  0.41385900  0.96171800  1
  F  F18  1  0.51643800  0.43568700  0.79272000  1
  F  F19  1  0.48886800  0.40760600  0.62334300  1
  F  F20  1  0.51113200  0.40760600  0.12334300  1
  F  F21  1  0.48356200  0.43568700  0.29272000  1
  F  F22  1  0.52356000  0.92750600  0.53997400  1
  F  F23  1  0.52165300  0.41385900  0.46171800  1
  F  F24  1  0.97196500  0.57659900  0.53326900  1
  F  F25  1  0.97799300  0.08523000  0.46530300  1
  F  F26  1  0.00776900  0.57618200  0.71191200  1
  F  F27  1  0.02528300  0.06835300  0.29530900  1
  F  F28  1  0.98019700  0.59132800  0.86897500  1
  F  F29  1  0.99199400  0.09313000  0.12693000  1
  F  F30  1  0.00800600  0.09313000  0.62693000  1
  F  F31  1  0.01980300  0.59132800  0.36897500  1
  F  F32  1  0.99223100  0.57618200  0.21191200  1
  F  F33  1  0.97471700  0.06835300  0.79530900  1
  F  F34  1  0.02200700  0.08523000  0.96530300  1
  F  F35  1  0.02803500  0.57659900  0.03326900  1
