# generated using pymatgen
data_Li(CoO2)4
_symmetry_space_group_name_H-M   'P 1'
_cell_length_a   5.63676635
_cell_length_b   5.65758779
_cell_length_c   10.59552751
_cell_angle_alpha   105.86168167
_cell_angle_beta   106.03523547
_cell_angle_gamma   59.67559507
_symmetry_Int_Tables_number   1
_chemical_formula_structural   Li(CoO2)4
_chemical_formula_sum   'Li2 Co8 O16'
_cell_volume   276.64509814
_cell_formula_units_Z   2
loop_
 _symmetry_equiv_pos_site_id
 _symmetry_equiv_pos_as_xyz
  1  'x, y, z'
loop_
 _atom_site_type_symbol
 _atom_site_label
 _atom_site_symmetry_multiplicity
 _atom_site_fract_x
 _atom_site_fract_y
 _atom_site_fract_z
 _atom_site_occupancy
  Li  Li0  1  0.50251000  0.99678300  0.99962600  1
  Li  Li1  1  0.99749000  0.50321700  0.50037500  1
  Co  Co2  1  0.24998900  0.75000100  0.24999600  1
  Co  Co3  1  0.74999700  0.24999000  0.75000000  1
  Co  Co4  1  0.24999300  0.74999900  0.75000000  1
  Co  Co5  1  0.75000400  0.75001500  0.75000200  1
  Co  Co6  1  0.25001400  0.25000000  0.75000300  1
  Co  Co7  1  0.74999300  0.24998300  0.24999800  1
  Co  Co8  1  0.25002500  0.24999100  0.25000100  1
  Co  Co9  1  0.74999700  0.75003000  0.24999900  1
  O  O10  1  0.88547100  0.38637300  0.15527200  1
  O  O11  1  0.38588800  0.88726600  0.65622500  1
  O  O12  1  0.61452300  0.11362200  0.34472000  1
  O  O13  1  0.11410900  0.61273200  0.84377400  1
  O  O14  1  0.11329500  0.61657000  0.34745900  1
  O  O15  1  0.61645800  0.11511300  0.84765700  1
  O  O16  1  0.37987800  0.38406200  0.15373700  1
  O  O17  1  0.88025100  0.88386400  0.65367800  1
  O  O18  1  0.61850700  0.61689400  0.34718600  1
  O  O19  1  0.11754300  0.11815500  0.84630900  1
  O  O20  1  0.88149600  0.88310500  0.15281800  1
  O  O21  1  0.38245500  0.38184700  0.65369200  1
  O  O22  1  0.12012200  0.11594100  0.34626500  1
  O  O23  1  0.61975000  0.61613500  0.84632400  1
  O  O24  1  0.38670500  0.88342600  0.15254100  1
  O  O25  1  0.88353900  0.38488700  0.65234000  1
