# generated using pymatgen
data_Li2MnF6
_symmetry_space_group_name_H-M   'P 1'
_cell_length_a   8.46784300
_cell_length_b   8.47621122
_cell_length_c   10.12806202
_cell_angle_alpha   85.24554142
_cell_angle_beta   85.82743109
_cell_angle_gamma   61.39281117
_symmetry_Int_Tables_number   1
_chemical_formula_structural   Li2MnF6
_chemical_formula_sum   'Li12 Mn6 F36'
_cell_volume   635.55008856
_cell_formula_units_Z   6
loop_
 _symmetry_equiv_pos_site_id
 _symmetry_equiv_pos_as_xyz
  1  'x, y, z'
loop_
 _atom_site_type_symbol
 _atom_site_label
 _atom_site_symmetry_multiplicity
 _atom_site_fract_x
 _atom_site_fract_y
 _atom_site_fract_z
 _atom_site_occupancy
  Li  Li0  1  0.47430300  0.85487200  0.45601000  1
  Li  Li1  1  0.37607000  0.68700600  0.96366100  1
  Li  Li2  1  0.33362000  0.62262700  0.53040800  1
  Li  Li3  1  0.99222800  0.71513700  0.76910600  1
  Li  Li4  1  0.98439500  0.29401000  0.22949100  1
  Li  Li5  1  0.81321400  0.19478700  0.74598300  1
  Li  Li6  1  0.63983400  0.32890000  0.03608000  1
  Li  Li7  1  0.11140100  0.54305800  0.04994900  1
  Li  Li8  1  0.54677800  0.12845600  0.55254500  1
  Li  Li9  1  0.04752200  0.35443300  0.56508400  1
  Li  Li10  1  0.72559700  0.99235000  0.27368100  1
  Li  Li11  1  0.35690200  0.04860400  0.06077000  1
  Mn  Mn12  1  0.66497200  0.66723900  0.70714400  1
  Mn  Mn13  1  0.00407600  0.99468000  0.49696200  1
  Mn  Mn14  1  0.66375400  0.66566000  0.20647200  1
  Mn  Mn15  1  0.99737200  0.00081300  0.00018700  1
  Mn  Mn16  1  0.33632400  0.33274600  0.79708400  1
  Mn  Mn17  1  0.33190300  0.33496100  0.29576800  1
  F  F18  1  0.92710700  0.93375000  0.66111400  1
  F  F19  1  0.92599400  0.92540800  0.15598700  1
  F  F20  1  0.58492300  0.88859300  0.60987200  1
  F  F21  1  0.76069000  0.73988900  0.82947100  1
  F  F22  1  0.58605500  0.88490500  0.11332900  1
  F  F23  1  0.72934400  0.76476600  0.33359100  1
  F  F24  1  0.23313800  0.91536900  0.55350900  1
  F  F25  1  0.88618900  0.58449600  0.61709600  1
  F  F26  1  0.45137800  0.75127700  0.80181600  1
  F  F27  1  0.23041700  0.91451000  0.05582200  1
  F  F28  1  0.88944600  0.57504800  0.12277700  1
  F  F29  1  0.44714600  0.74903100  0.29862900  1
  F  F30  1  0.56561200  0.60824100  0.57236200  1
  F  F31  1  0.08034400  0.76824800  0.93849200  1
  F  F32  1  0.74118700  0.44351900  0.79196100  1
  F  F33  1  0.58277200  0.57622000  0.07694500  1
  F  F34  1  0.08918300  0.76857600  0.44390500  1
  F  F35  1  0.75112000  0.44917100  0.29966100  1
  F  F36  1  0.24606700  0.55355600  0.69943900  1
  F  F37  1  0.92263600  0.21932400  0.56786100  1
  F  F38  1  0.40799400  0.42677500  0.92995100  1
  F  F39  1  0.25105600  0.54747400  0.19934000  1
  F  F40  1  0.92135000  0.22222600  0.06858500  1
  F  F41  1  0.41770300  0.40396100  0.42786300  1
  F  F42  1  0.55782000  0.25029600  0.70506900  1
  F  F43  1  0.11575400  0.42425200  0.88422200  1
  F  F44  1  0.76887500  0.09775900  0.93704200  1
  F  F45  1  0.55105100  0.24296300  0.19881700  1
  F  F46  1  0.11691600  0.40528100  0.38704100  1
  F  F47  1  0.77387800  0.06621300  0.43780900  1
  F  F48  1  0.26792100  0.24586900  0.66378300  1
  F  F49  1  0.41380100  0.12155100  0.89287600  1
  F  F50  1  0.23554300  0.26156000  0.16505100  1
  F  F51  1  0.42636900  0.10854600  0.38697400  1
  F  F52  1  0.05926900  0.07564400  0.84179800  1
  F  F53  1  0.06626900  0.07890000  0.34124800  1
