# generated using pymatgen
data_Li4Ti2Mn3(Fe2O9)2
_symmetry_space_group_name_H-M   'P 1'
_cell_length_a   2.93520000
_cell_length_b   8.99782800
_cell_length_c   25.46082100
_cell_angle_alpha   90.00000000
_cell_angle_beta   90.00000000
_cell_angle_gamma   90.00000000
_symmetry_Int_Tables_number   1
_chemical_formula_structural   Li4Ti2Mn3(Fe2O9)2
_chemical_formula_sum   'Li8 Ti4 Mn6 Fe8 O36'
_cell_volume   672.43109698
_cell_formula_units_Z   2
loop_
 _symmetry_equiv_pos_site_id
 _symmetry_equiv_pos_as_xyz
  1  'x, y, z'
loop_
 _atom_site_type_symbol
 _atom_site_label
 _atom_site_symmetry_multiplicity
 _atom_site_fract_x
 _atom_site_fract_y
 _atom_site_fract_z
 _atom_site_occupancy
  Li  Li0  1  0.00000000  0.19311200  0.98922700  1
  Li  Li1  1  0.00000000  0.19756900  0.20502900  1
  Li  Li2  1  0.00000000  0.30243100  0.70502900  1
  Li  Li3  1  0.00000000  0.30688800  0.48922700  1
  Li  Li4  1  0.00000000  0.69311200  0.51077300  1
  Li  Li5  1  0.00000000  0.69756900  0.29497100  1
  Li  Li6  1  0.00000000  0.80243100  0.79497100  1
  Li  Li7  1  0.00000000  0.80688800  0.01077300  1
  Ti  Ti8  1  0.00000000  0.00294100  0.10186700  1
  Ti  Ti9  1  0.00000000  0.49705900  0.60186700  1
  Ti  Ti10  1  0.00000000  0.50294100  0.39813300  1
  Ti  Ti11  1  0.00000000  0.99705900  0.89813300  1
  Mn  Mn12  1  0.00000000  0.00000000  0.50000000  1
  Mn  Mn13  1  0.50000000  0.14622300  0.80723500  1
  Mn  Mn14  1  0.50000000  0.35377700  0.30723500  1
  Mn  Mn15  1  0.00000000  0.50000000  0.00000000  1
  Mn  Mn16  1  0.50000000  0.64622300  0.69276500  1
  Mn  Mn17  1  0.50000000  0.85377700  0.19276500  1
  Fe  Fe18  1  0.00000000  0.02069100  0.30410600  1
  Fe  Fe19  1  0.50000000  0.13889800  0.58903000  1
  Fe  Fe20  1  0.50000000  0.36110200  0.08903000  1
  Fe  Fe21  1  0.00000000  0.47930900  0.80410600  1
  Fe  Fe22  1  0.00000000  0.52069100  0.19589400  1
  Fe  Fe23  1  0.50000000  0.63889800  0.91097000  1
  Fe  Fe24  1  0.50000000  0.86110200  0.41097000  1
  Fe  Fe25  1  0.00000000  0.97930900  0.69589400  1
  O  O26  1  0.00000000  0.00330800  0.42493800  1
  O  O27  1  0.00000000  0.99669200  0.57506200  1
  O  O28  1  0.50000000  0.06273300  0.94078600  1
  O  O29  1  0.50000000  0.04639100  0.15834600  1
  O  O30  1  0.50000000  0.10198700  0.66591900  1
  O  O31  1  0.00000000  0.09659400  0.76040100  1
  O  O32  1  0.50000000  0.14455000  0.50499800  1
  O  O33  1  0.50000000  0.15474900  0.27832200  1
  O  O34  1  0.00000000  0.19264600  0.85349400  1
  O  O35  1  0.00000000  0.20305900  0.08405800  1
  O  O36  1  0.00000000  0.29694100  0.58405800  1
  O  O37  1  0.00000000  0.30735400  0.35349400  1
  O  O38  1  0.50000000  0.34525100  0.77832200  1
  O  O39  1  0.50000000  0.35545000  0.00499800  1
  O  O40  1  0.00000000  0.40340600  0.26040100  1
  O  O41  1  0.50000000  0.39801300  0.16591900  1
  O  O42  1  0.50000000  0.45360900  0.65834600  1
  O  O43  1  0.50000000  0.43726700  0.44078600  1
  O  O44  1  0.00000000  0.50330800  0.07506200  1
  O  O45  1  0.00000000  0.49669200  0.92493800  1
  O  O46  1  0.50000000  0.56273300  0.55921400  1
  O  O47  1  0.50000000  0.54639100  0.34165400  1
  O  O48  1  0.50000000  0.60198700  0.83408100  1
  O  O49  1  0.00000000  0.59659400  0.73959900  1
  O  O50  1  0.50000000  0.64455000  0.99500200  1
  O  O51  1  0.50000000  0.65474900  0.22167800  1
  O  O52  1  0.00000000  0.69264600  0.64650600  1
  O  O53  1  0.00000000  0.70305900  0.41594200  1
  O  O54  1  0.00000000  0.79694100  0.91594200  1
  O  O55  1  0.00000000  0.80735400  0.14650600  1
  O  O56  1  0.50000000  0.84525100  0.72167800  1
  O  O57  1  0.50000000  0.85545000  0.49500200  1
  O  O58  1  0.00000000  0.90340600  0.23959900  1
  O  O59  1  0.50000000  0.89801300  0.33408100  1
  O  O60  1  0.50000000  0.95360900  0.84165400  1
  O  O61  1  0.50000000  0.93726700  0.05921400  1
