# generated using pymatgen
data_Li4MnSn3(PO4)4
_symmetry_space_group_name_H-M   'P 1'
_cell_length_a   4.88103872
_cell_length_b   11.00126268
_cell_length_c   13.59203324
_cell_angle_alpha   90.02048278
_cell_angle_beta   89.99209968
_cell_angle_gamma   91.47691449
_symmetry_Int_Tables_number   1
_chemical_formula_structural   Li4MnSn3(PO4)4
_chemical_formula_sum   'Li8 Mn2 Sn6 P8 O32'
_cell_volume   729.61689844
_cell_formula_units_Z   2
loop_
 _symmetry_equiv_pos_site_id
 _symmetry_equiv_pos_as_xyz
  1  'x, y, z'
loop_
 _atom_site_type_symbol
 _atom_site_label
 _atom_site_symmetry_multiplicity
 _atom_site_fract_x
 _atom_site_fract_y
 _atom_site_fract_z
 _atom_site_occupancy
  Li  Li0  1  0.96114700  0.99772600  0.01307100  1
  Li  Li1  1  0.96103100  0.99771200  0.51308300  1
  Li  Li2  1  0.96101700  0.99772400  0.23691000  1
  Li  Li3  1  0.96101700  0.99765900  0.73693100  1
  Li  Li4  1  0.50147600  0.50981800  0.25395700  1
  Li  Li5  1  0.50144600  0.50981100  0.75394700  1
  Li  Li6  1  0.50142700  0.50977100  0.99606100  1
  Li  Li7  1  0.50147000  0.50978000  0.49605600  1
  Mn  Mn8  1  0.04569500  0.72322000  0.87501100  1
  Mn  Mn9  1  0.04590900  0.72329200  0.37509500  1
  Sn  Sn10  1  0.46383400  0.21491400  0.37502600  1
  Sn  Sn11  1  0.46385500  0.21487500  0.87500200  1
  Sn  Sn12  1  0.54163800  0.78571900  0.12483900  1
  Sn  Sn13  1  0.54162600  0.78566900  0.62481700  1
  Sn  Sn14  1  0.95013600  0.29612800  0.12502000  1
  Sn  Sn15  1  0.95020000  0.29607900  0.62500600  1
  P  P16  1  0.09627200  0.58490800  0.12501300  1
  P  P17  1  0.09621000  0.58484900  0.62509500  1
  P  P18  1  0.38231600  0.07268900  0.12502900  1
  P  P19  1  0.38220500  0.07242000  0.62497200  1
  P  P20  1  0.62180200  0.90305700  0.37497500  1
  P  P21  1  0.62180100  0.90302500  0.87498200  1
  P  P22  1  0.91266900  0.43582700  0.37500100  1
  P  P23  1  0.91258000  0.43585100  0.87500400  1
  O  O24  1  0.23936600  0.45694100  0.12500100  1
  O  O25  1  0.23935100  0.45690300  0.62499000  1
  O  O26  1  0.22661700  0.44382500  0.37498700  1
  O  O27  1  0.22640800  0.44393500  0.87502900  1
  O  O28  1  0.30952600  0.88477800  0.37500700  1
  O  O29  1  0.30953500  0.88473200  0.87502600  1
  O  O30  1  0.22570100  0.94601100  0.12507000  1
  O  O31  1  0.22519800  0.94584000  0.62486400  1
  O  O32  1  0.72189900  0.04056200  0.37499700  1
  O  O33  1  0.72188200  0.04054300  0.87500300  1
  O  O34  1  0.69360100  0.05551700  0.12503900  1
  O  O35  1  0.69351300  0.05529900  0.62499900  1
  O  O36  1  0.78339200  0.56726400  0.12501000  1
  O  O37  1  0.78334700  0.56725100  0.62501900  1
  O  O38  1  0.78118200  0.56388700  0.37501100  1
  O  O39  1  0.78104600  0.56388100  0.87500600  1
  O  O40  1  0.21176300  0.65464800  0.03207100  1
  O  O41  1  0.21169000  0.65464000  0.53219300  1
  O  O42  1  0.21174900  0.65471200  0.21793100  1
  O  O43  1  0.21172800  0.65454800  0.71803500  1
  O  O44  1  0.27640200  0.14327700  0.03279700  1
  O  O45  1  0.27638600  0.14316200  0.53278400  1
  O  O46  1  0.27609900  0.14382600  0.21708600  1
  O  O47  1  0.27631600  0.14312600  0.71721600  1
  O  O48  1  0.76186400  0.84287900  0.28429500  1
  O  O49  1  0.76193100  0.84282400  0.78432600  1
  O  O50  1  0.76177400  0.84290400  0.46567200  1
  O  O51  1  0.76179200  0.84291300  0.96569900  1
  O  O52  1  0.78999100  0.36421100  0.28395800  1
  O  O53  1  0.79014800  0.36420500  0.78391500  1
  O  O54  1  0.79006500  0.36422100  0.46604800  1
  O  O55  1  0.78994900  0.36421400  0.96601400  1
