# generated using pymatgen
data_Li2FePCO7
_symmetry_space_group_name_H-M   'P 1'
_cell_length_a   6.50220400
_cell_length_b   5.08791000
_cell_length_c   16.65941593
_cell_angle_alpha   84.92581714
_cell_angle_beta   90.00000000
_cell_angle_gamma   90.00000000
_symmetry_Int_Tables_number   1
_chemical_formula_structural   Li2FePCO7
_chemical_formula_sum   'Li8 Fe4 P4 C4 O28'
_cell_volume   548.97737611
_cell_formula_units_Z   4
loop_
 _symmetry_equiv_pos_site_id
 _symmetry_equiv_pos_as_xyz
  1  'x, y, z'
loop_
 _atom_site_type_symbol
 _atom_site_label
 _atom_site_symmetry_multiplicity
 _atom_site_fract_x
 _atom_site_fract_y
 _atom_site_fract_z
 _atom_site_occupancy
  Li  Li0  1  0.26970000  0.76107300  0.04785600  1
  Li  Li1  1  0.03238000  0.24705600  0.13935100  1
  Li  Li2  1  0.53238000  0.75294400  0.36064900  1
  Li  Li3  1  0.76970000  0.23892700  0.45214400  1
  Li  Li4  1  0.23030000  0.76107300  0.54785600  1
  Li  Li5  1  0.46762000  0.24705600  0.63935100  1
  Li  Li6  1  0.96762000  0.75294400  0.86064900  1
  Li  Li7  1  0.73030000  0.23892700  0.95214400  1
  Fe  Fe8  1  0.73467900  0.79983000  0.16499800  1
  Fe  Fe9  1  0.23467900  0.20017000  0.33500200  1
  Fe  Fe10  1  0.76532100  0.79983000  0.66499800  1
  Fe  Fe11  1  0.26532100  0.20017000  0.83500200  1
  P  P12  1  0.24425400  0.72370800  0.20954600  1
  P  P13  1  0.74425400  0.27629200  0.29045400  1
  P  P14  1  0.25574600  0.72370800  0.70954600  1
  P  P15  1  0.75574600  0.27629200  0.79045400  1
  C  C16  1  0.77305100  0.70131300  0.02051600  1
  C  C17  1  0.27305100  0.29868700  0.47948400  1
  C  C18  1  0.72694900  0.70131300  0.52051600  1
  C  C19  1  0.22694900  0.29868700  0.97948400  1
  O  O20  1  0.75422600  0.94758400  0.03786800  1
  O  O21  1  0.21239800  0.36886500  0.05025200  1
  O  O22  1  0.77170500  0.52674300  0.08360000  1
  O  O23  1  0.05835400  0.83119000  0.15829000  1
  O  O24  1  0.43069300  0.78126700  0.15204800  1
  O  O25  1  0.77035500  0.14420700  0.21127700  1
  O  O26  1  0.21793500  0.42042300  0.23028200  1
  O  O27  1  0.71793500  0.57957700  0.26971800  1
  O  O28  1  0.27035500  0.85579300  0.28872300  1
  O  O29  1  0.55835400  0.16881000  0.34171000  1
  O  O30  1  0.93069300  0.21873300  0.34795200  1
  O  O31  1  0.27170500  0.47325700  0.41640000  1
  O  O32  1  0.71239800  0.63113500  0.44974800  1
  O  O33  1  0.25422600  0.05241600  0.46213200  1
  O  O34  1  0.74577400  0.94758400  0.53786800  1
  O  O35  1  0.28760200  0.36886500  0.55025200  1
  O  O36  1  0.72829500  0.52674300  0.58360000  1
  O  O37  1  0.06930700  0.78126700  0.65204800  1
  O  O38  1  0.44164600  0.83119000  0.65829000  1
  O  O39  1  0.72964500  0.14420700  0.71127700  1
  O  O40  1  0.28206500  0.42042300  0.73028200  1
  O  O41  1  0.78206500  0.57957700  0.76971800  1
  O  O42  1  0.22964500  0.85579300  0.78872300  1
  O  O43  1  0.56930700  0.21873300  0.84795200  1
  O  O44  1  0.94164600  0.16881000  0.84171000  1
  O  O45  1  0.22829500  0.47325700  0.91640000  1
  O  O46  1  0.78760200  0.63113500  0.94974800  1
  O  O47  1  0.24577400  0.05241600  0.96213200  1
