# generated using pymatgen
data_LiNiPO4
_symmetry_space_group_name_H-M   'P 1'
_cell_length_a   6.09203738
_cell_length_b   7.38725175
_cell_length_c   7.52104932
_cell_angle_alpha   82.36680417
_cell_angle_beta   81.71926975
_cell_angle_gamma   99.82908819
_symmetry_Int_Tables_number   1
_chemical_formula_structural   LiNiPO4
_chemical_formula_sum   'Li4 Ni4 P4 O16'
_cell_volume   325.69814478
_cell_formula_units_Z   4
loop_
 _symmetry_equiv_pos_site_id
 _symmetry_equiv_pos_as_xyz
  1  'x, y, z'
loop_
 _atom_site_type_symbol
 _atom_site_label
 _atom_site_symmetry_multiplicity
 _atom_site_fract_x
 _atom_site_fract_y
 _atom_site_fract_z
 _atom_site_occupancy
  Li  Li0  1  0.77661000  0.01426700  0.51267000  1
  Li  Li1  1  0.27662000  0.01423800  0.01262800  1
  Li  Li2  1  0.22336600  0.98573200  0.48732100  1
  Li  Li3  1  0.72335300  0.98577100  0.98736100  1
  Ni  Ni4  1  0.13556300  0.40676700  0.10440900  1
  Ni  Ni5  1  0.86443500  0.59330500  0.89560800  1
  Ni  Ni6  1  0.63584000  0.40679800  0.60442100  1
  Ni  Ni7  1  0.36412300  0.59311700  0.39564000  1
  P  P8  1  0.91550900  0.73603100  0.26984600  1
  P  P9  1  0.41569500  0.73605700  0.76987400  1
  P  P10  1  0.08449700  0.26397600  0.73012200  1
  P  P11  1  0.58429700  0.26394100  0.23012800  1
  O  O12  1  0.10485900  0.61559800  0.27155700  1
  O  O13  1  0.60514700  0.61578500  0.77135200  1
  O  O14  1  0.89513800  0.38439700  0.72847200  1
  O  O15  1  0.39485700  0.38422300  0.22865900  1
  O  O16  1  0.30275900  0.38308300  0.60758500  1
  O  O17  1  0.80227100  0.38296700  0.10726100  1
  O  O18  1  0.69729100  0.61689100  0.39241600  1
  O  O19  1  0.19773200  0.61702500  0.89275200  1
  O  O20  1  0.00961000  0.08330000  0.65747600  1
  O  O21  1  0.50956200  0.08323300  0.15750000  1
  O  O22  1  0.99037600  0.91670200  0.34251000  1
  O  O23  1  0.49043000  0.91677500  0.84249300  1
  O  O24  1  0.36928600  0.78443200  0.57237700  1
  O  O25  1  0.86952600  0.78453000  0.07222000  1
  O  O26  1  0.63070800  0.21556700  0.42762200  1
  O  O27  1  0.13053900  0.21549000  0.92772100  1
