# generated using pymatgen
data_Li4MnCr(WO6)2
_symmetry_space_group_name_H-M   'P 1'
_cell_length_a   5.08776200
_cell_length_b   5.35385394
_cell_length_c   7.38786394
_cell_angle_alpha   86.16051557
_cell_angle_beta   89.91811855
_cell_angle_gamma   89.89527230
_symmetry_Int_Tables_number   1
_chemical_formula_structural   Li4MnCr(WO6)2
_chemical_formula_sum   'Li4 Mn1 Cr1 W2 O12'
_cell_volume   200.78684408
_cell_formula_units_Z   1
loop_
 _symmetry_equiv_pos_site_id
 _symmetry_equiv_pos_as_xyz
  1  'x, y, z'
loop_
 _atom_site_type_symbol
 _atom_site_label
 _atom_site_symmetry_multiplicity
 _atom_site_fract_x
 _atom_site_fract_y
 _atom_site_fract_z
 _atom_site_occupancy
  Li  Li0  1  0.99800400  0.58134000  0.29095300  1
  Li  Li1  1  0.50018600  0.08113300  0.78815900  1
  Li  Li2  1  0.99979000  0.53458400  0.76713500  1
  Li  Li3  1  0.49987900  0.03843100  0.27042200  1
  Mn  Mn4  1  0.50074700  0.50236200  0.50082100  1
  Cr  Cr5  1  0.99621700  0.00428800  0.00311000  1
  W  W6  1  0.00079400  0.00471500  0.50324400  1
  W  W7  1  0.49714500  0.50815400  0.00135400  1
  O  O8  1  0.69845200  0.79693300  0.43456100  1
  O  O9  1  0.88227800  0.98900200  0.74810500  1
  O  O10  1  0.69003700  0.18127900  0.05175200  1
  O  O11  1  0.80487200  0.30147100  0.43460100  1
  O  O12  1  0.19847700  0.30085900  0.93789500  1
  O  O13  1  0.61662900  0.48424500  0.74756900  1
  O  O14  1  0.38216100  0.48993300  0.24894600  1
  O  O15  1  0.81197900  0.68125600  0.05286700  1
  O  O16  1  0.18952100  0.68384300  0.55180000  1
  O  O17  1  0.30448600  0.80477700  0.93596800  1
  O  O18  1  0.11497800  0.98833700  0.24801100  1
  O  O19  1  0.31336600  0.18546000  0.55393100  1
