# generated using pymatgen
data_LiVSO4F3
_symmetry_space_group_name_H-M   'P 1'
_cell_length_a   10.33798400
_cell_length_b   7.07148600
_cell_length_c   8.05703527
_cell_angle_alpha   89.44041212
_cell_angle_beta   90.00000000
_cell_angle_gamma   90.00000000
_symmetry_Int_Tables_number   1
_chemical_formula_structural   LiVSO4F3
_chemical_formula_sum   'Li4 V4 S4 O16 F12'
_cell_volume   588.98073920
_cell_formula_units_Z   4
loop_
 _symmetry_equiv_pos_site_id
 _symmetry_equiv_pos_as_xyz
  1  'x, y, z'
loop_
 _atom_site_type_symbol
 _atom_site_label
 _atom_site_symmetry_multiplicity
 _atom_site_fract_x
 _atom_site_fract_y
 _atom_site_fract_z
 _atom_site_occupancy
  Li  Li0  1  0.47718000  0.67595600  0.57886000  1
  Li  Li1  1  0.52282000  0.67595600  0.07886000  1
  Li  Li2  1  0.02129300  0.80863200  0.57245800  1
  Li  Li3  1  0.97870700  0.80863200  0.07245800  1
  V  V4  1  0.74352700  0.00065700  0.50690600  1
  V  V5  1  0.25647300  0.00065700  0.00690600  1
  V  V6  1  0.75690900  0.50015800  0.50723000  1
  V  V7  1  0.24309100  0.50015800  0.00723000  1
  S  S8  1  0.25126500  0.25550200  0.68051900  1
  S  S9  1  0.74873500  0.25550200  0.18051900  1
  S  S10  1  0.74899600  0.74729500  0.83837600  1
  S  S11  1  0.25100400  0.74729500  0.33837600  1
  O  O12  1  0.31235700  0.10356100  0.79830900  1
  O  O13  1  0.68764300  0.10356100  0.29830900  1
  O  O14  1  0.15150600  0.16452700  0.58647300  1
  O  O15  1  0.84849400  0.16452700  0.08647300  1
  O  O16  1  0.35419700  0.35396900  0.59430200  1
  O  O17  1  0.64580300  0.35396900  0.09430200  1
  O  O18  1  0.18713700  0.40100100  0.79996500  1
  O  O19  1  0.81286300  0.40100100  0.29996500  1
  O  O20  1  0.68988600  0.59870600  0.72346700  1
  O  O21  1  0.31011400  0.59870600  0.22346700  1
  O  O22  1  0.85643500  0.67016700  0.93419000  1
  O  O23  1  0.14356500  0.67016700  0.43419000  1
  O  O24  1  0.64297000  0.82004300  0.93792100  1
  O  O25  1  0.35703000  0.82004300  0.43792100  1
  O  O26  1  0.80683500  0.90112700  0.72565700  1
  O  O27  1  0.19316500  0.90112700  0.22565700  1
  F  F28  1  0.08342500  0.99885300  0.95198400  1
  F  F29  1  0.91657500  0.99885300  0.45198400  1
  F  F30  1  0.74866000  0.24963600  0.60580700  1
  F  F31  1  0.25134000  0.24963600  0.10580700  1
  F  F32  1  0.41475500  0.50584200  0.94676600  1
  F  F33  1  0.58524500  0.50584200  0.44676600  1
  F  F34  1  0.91800800  0.55505700  0.58214900  1
  F  F35  1  0.08199200  0.55505700  0.08214900  1
  F  F36  1  0.24743700  0.75168000  0.89917700  1
  F  F37  1  0.75256300  0.75168000  0.39917700  1
  F  F38  1  0.58173500  0.94368200  0.57726800  1
  F  F39  1  0.41826500  0.94368200  0.07726800  1
