# generated using pymatgen
data_Li10Ge(PO6)2
_symmetry_space_group_name_H-M   'P 1'
_cell_length_a   6.99241600
_cell_length_b   7.15829124
_cell_length_c   10.72442856
_cell_angle_alpha   90.25687173
_cell_angle_beta   90.58668619
_cell_angle_gamma   90.17977270
_symmetry_Int_Tables_number   1
_chemical_formula_structural   Li10Ge(PO6)2
_chemical_formula_sum   'Li20 Ge2 P4 O24'
_cell_volume   536.76161160
_cell_formula_units_Z   2
loop_
 _symmetry_equiv_pos_site_id
 _symmetry_equiv_pos_as_xyz
  1  'x, y, z'
loop_
 _atom_site_type_symbol
 _atom_site_label
 _atom_site_symmetry_multiplicity
 _atom_site_fract_x
 _atom_site_fract_y
 _atom_site_fract_z
 _atom_site_occupancy
  Li  Li0  1  0.53400000  0.02096500  0.92911800  1
  Li  Li1  1  0.52836500  0.05368300  0.42430300  1
  Li  Li2  1  0.95493600  0.46612900  0.55812600  1
  Li  Li3  1  0.99517400  0.52036500  0.06521300  1
  Li  Li4  1  0.26946300  0.73022700  0.15760300  1
  Li  Li5  1  0.72120300  0.30637700  0.28372400  1
  Li  Li6  1  0.84751800  0.80794200  0.74514100  1
  Li  Li7  1  0.76118100  0.78521900  0.26211700  1
  Li  Li8  1  0.23519500  0.24329100  0.35374000  1
  Li  Li9  1  0.50868700  0.54780100  0.74974700  1
  Li  Li10  1  0.27908700  0.76662400  0.38830800  1
  Li  Li11  1  0.25394300  0.21375000  0.87945600  1
  Li  Li12  1  0.76412700  0.76811900  0.99405900  1
  Li  Li13  1  0.20410000  0.25221800  0.11238200  1
  Li  Li14  1  0.73959600  0.23408400  0.67710400  1
  Li  Li15  1  0.23418400  0.83059300  0.91527100  1
  Li  Li16  1  0.78218800  0.23751800  0.00773000  1
  Li  Li17  1  0.70475700  0.72664100  0.49928600  1
  Li  Li18  1  0.22710100  0.25429300  0.62215800  1
  Li  Li19  1  0.20722500  0.73038400  0.64468800  1
  Ge  Ge20  1  0.49087400  0.01010900  0.17152500  1
  Ge  Ge21  1  0.99482400  0.49195000  0.81576600  1
  P  P22  1  0.97073600  0.99897900  0.49652000  1
  P  P23  1  0.50633300  0.50077000  0.99857000  1
  P  P24  1  0.48178500  0.98281500  0.68328300  1
  P  P25  1  0.00726600  0.51589300  0.31916400  1
  O  O26  1  0.16313200  0.00326800  0.42647800  1
  O  O27  1  0.79308000  0.97634300  0.40916800  1
  O  O28  1  0.50005700  0.67752300  0.91268400  1
  O  O29  1  0.51162200  0.31718000  0.91813300  1
  O  O30  1  0.69841700  0.51076600  0.07448600  1
  O  O31  1  0.32356400  0.49942600  0.07902000  1
  O  O32  1  0.96517800  0.82269300  0.58340400  1
  O  O33  1  0.95987400  0.18323900  0.57426100  1
  O  O34  1  0.30009100  0.00276900  0.05814800  1
  O  O35  1  0.70301000  0.99980900  0.08126600  1
  O  O36  1  0.47540100  0.79525000  0.60707600  1
  O  O37  1  0.48350300  0.15356200  0.59404400  1
  O  O38  1  0.81033900  0.52646700  0.38744100  1
  O  O39  1  0.17001800  0.50947500  0.41905500  1
  O  O40  1  0.98844900  0.71129800  0.89619800  1
  O  O41  1  0.01354700  0.31509600  0.93061700  1
  O  O42  1  0.66495200  0.99631700  0.76600500  1
  O  O43  1  0.30249700  0.99418700  0.76877800  1
  O  O44  1  0.47310800  0.20410300  0.27339900  1
  O  O45  1  0.47661600  0.81294300  0.27163500  1
  O  O46  1  0.19801500  0.48178000  0.71490600  1
  O  O47  1  0.79127100  0.49583200  0.71221700  1
  O  O48  1  0.01145100  0.33166600  0.23972400  1
  O  O49  1  0.02606100  0.68487200  0.23095700  1
