# generated using pymatgen
data_Li3MnAl2O6
_symmetry_space_group_name_H-M   'P 1'
_cell_length_a   5.60010700
_cell_length_b   9.78829700
_cell_length_c   11.30303999
_cell_angle_alpha   54.93654900
_cell_angle_beta   90.00000000
_cell_angle_gamma   90.00000000
_symmetry_Int_Tables_number   1
_chemical_formula_structural   Li3MnAl2O6
_chemical_formula_sum   'Li12 Mn4 Al8 O24'
_cell_volume   507.13791969
_cell_formula_units_Z   4
loop_
 _symmetry_equiv_pos_site_id
 _symmetry_equiv_pos_as_xyz
  1  'x, y, z'
loop_
 _atom_site_type_symbol
 _atom_site_label
 _atom_site_symmetry_multiplicity
 _atom_site_fract_x
 _atom_site_fract_y
 _atom_site_fract_z
 _atom_site_occupancy
  Li  Li0  1  0.24444100  0.42612600  0.96367600  1
  Li  Li1  1  0.00249700  0.24509100  0.23560600  1
  Li  Li2  1  0.74444100  0.57387400  0.53632400  1
  Li  Li3  1  0.75332900  0.07856600  0.13419000  1
  Li  Li4  1  0.49750300  0.24509100  0.73560600  1
  Li  Li5  1  0.25332900  0.92143400  0.36581000  1
  Li  Li6  1  0.74667100  0.07856600  0.63419000  1
  Li  Li7  1  0.50249700  0.75490900  0.26439400  1
  Li  Li8  1  0.24667100  0.92143400  0.86581000  1
  Li  Li9  1  0.25555900  0.42612600  0.46367600  1
  Li  Li10  1  0.99750300  0.75490900  0.76439400  1
  Li  Li11  1  0.75555900  0.57387400  0.03632400  1
  Mn  Mn12  1  0.50258200  0.24814200  0.24344100  1
  Mn  Mn13  1  0.99741800  0.24814200  0.74344100  1
  Mn  Mn14  1  0.00258200  0.75185800  0.25655900  1
  Mn  Mn15  1  0.49741800  0.75185800  0.75655900  1
  Al  Al16  1  0.23633600  0.62384700  0.60526600  1
  Al  Al17  1  0.73633600  0.37615300  0.89473400  1
  Al  Al18  1  0.74159100  0.87294200  0.47824200  1
  Al  Al19  1  0.24159100  0.12705800  0.02175800  1
  Al  Al20  1  0.75840900  0.87294200  0.97824200  1
  Al  Al21  1  0.25840900  0.12705800  0.52175800  1
  Al  Al22  1  0.26366400  0.62384700  0.10526600  1
  Al  Al23  1  0.76366400  0.37615300  0.39473400  1
  O  O24  1  0.72202800  0.57252800  0.86742400  1
  O  O25  1  0.24336400  0.61149300  0.76793500  1
  O  O26  1  0.49345200  0.74206900  0.49850100  1
  O  O27  1  0.99345200  0.25793100  0.00149900  1
  O  O28  1  0.74336400  0.38850700  0.73206500  1
  O  O29  1  0.74711800  0.89280800  0.62442100  1
  O  O30  1  0.49392000  0.24683200  0.01299400  1
  O  O31  1  0.22202800  0.42747200  0.63257600  1
  O  O32  1  0.72439300  0.06729800  0.30838400  1
  O  O33  1  0.22439300  0.93270200  0.19161600  1
  O  O34  1  0.99392000  0.75316800  0.48700600  1
  O  O35  1  0.24711800  0.10719200  0.87557900  1
  O  O36  1  0.75288200  0.89280800  0.12442100  1
  O  O37  1  0.00608000  0.24683200  0.51299400  1
  O  O38  1  0.77560700  0.06729800  0.80838400  1
  O  O39  1  0.27560700  0.93270200  0.69161600  1
  O  O40  1  0.77797200  0.57252800  0.36742400  1
  O  O41  1  0.50608000  0.75316800  0.98700600  1
  O  O42  1  0.25288200  0.10719200  0.37557900  1
  O  O43  1  0.25663600  0.61149300  0.26793500  1
  O  O44  1  0.00654800  0.74206900  0.99850100  1
  O  O45  1  0.50654800  0.25793100  0.50149900  1
  O  O46  1  0.75663600  0.38850700  0.23206500  1
  O  O47  1  0.27797200  0.42747200  0.13257600  1
