# generated using pymatgen
data_Li3V4P9O32
_symmetry_space_group_name_H-M   'P 1'
_cell_length_a   13.77768800
_cell_length_b   13.77768800
_cell_length_c   6.34549300
_cell_angle_alpha   90.00000000
_cell_angle_beta   90.00000000
_cell_angle_gamma   90.00000000
_symmetry_Int_Tables_number   1
_chemical_formula_structural   Li3V4P9O32
_chemical_formula_sum   'Li6 V8 P18 O64'
_cell_volume   1204.53122021
_cell_formula_units_Z   2
loop_
 _symmetry_equiv_pos_site_id
 _symmetry_equiv_pos_as_xyz
  1  'x, y, z'
loop_
 _atom_site_type_symbol
 _atom_site_label
 _atom_site_symmetry_multiplicity
 _atom_site_fract_x
 _atom_site_fract_y
 _atom_site_fract_z
 _atom_site_occupancy
  Li  Li0  1  0.00000000  0.50000000  0.35810900  1
  Li  Li1  1  0.50000000  0.00000000  0.14189100  1
  Li  Li2  1  0.00000000  0.50000000  0.85810900  1
  Li  Li3  1  0.50000000  0.50000000  0.50000000  1
  Li  Li4  1  0.50000000  0.00000000  0.64189100  1
  Li  Li5  1  0.00000000  0.00000000  0.00000000  1
  V  V6  1  0.11820400  0.80357000  0.37780600  1
  V  V7  1  0.38179600  0.30357000  0.12219400  1
  V  V8  1  0.19643000  0.11820400  0.62219400  1
  V  V9  1  0.80357000  0.88179600  0.62219400  1
  V  V10  1  0.88179600  0.19643000  0.37780600  1
  V  V11  1  0.69643000  0.38179600  0.87780600  1
  V  V12  1  0.30357000  0.61820400  0.87780600  1
  V  V13  1  0.61820400  0.69643000  0.12219400  1
  P  P14  1  0.89413900  0.24662500  0.86765300  1
  P  P15  1  0.80426900  0.55989900  0.11212000  1
  P  P16  1  0.19573100  0.44010100  0.11212000  1
  P  P17  1  0.30426900  0.94010100  0.38788000  1
  P  P18  1  0.94010100  0.69573100  0.61212000  1
  P  P19  1  0.69573100  0.05989900  0.38788000  1
  P  P20  1  0.50000000  0.50000000  0.00000000  1
  P  P21  1  0.05989900  0.30426900  0.61212000  1
  P  P22  1  0.00000000  0.00000000  0.50000000  1
  P  P23  1  0.39413900  0.25337500  0.63234700  1
  P  P24  1  0.24662500  0.10586100  0.13234700  1
  P  P25  1  0.55989900  0.19573100  0.88788000  1
  P  P26  1  0.74662500  0.39413900  0.36765300  1
  P  P27  1  0.75337500  0.89413900  0.13234700  1
  P  P28  1  0.25337500  0.60586100  0.36765300  1
  P  P29  1  0.44010100  0.80426900  0.88788000  1
  P  P30  1  0.60586100  0.74662500  0.63234700  1
  P  P31  1  0.10586100  0.75337500  0.86765300  1
  O  O32  1  0.00515600  0.25081800  0.43090500  1
  O  O33  1  0.27759200  0.99491100  0.16964500  1
  O  O34  1  0.15936700  0.25419800  0.63821700  1
  O  O35  1  0.60234200  0.68852300  0.42806200  1
  O  O36  1  0.65936700  0.24580200  0.86178300  1
  O  O37  1  0.68021100  0.36672400  0.18402400  1
  O  O38  1  0.13327600  0.81978900  0.68402400  1
  O  O39  1  0.24918200  0.49484400  0.93090500  1
  O  O40  1  0.16012900  0.66503700  0.38184500  1
  O  O41  1  0.84063300  0.74580200  0.63821700  1
  O  O42  1  0.83496300  0.33987100  0.88184500  1
  O  O43  1  0.56258000  0.56372800  0.14926200  1
  O  O44  1  0.06258000  0.93627200  0.35073800  1
  O  O45  1  0.63327600  0.68021100  0.81597600  1
  O  O46  1  0.49484400  0.75081800  0.06909500  1
  O  O47  1  0.33496300  0.16012900  0.61815500  1
  O  O48  1  0.68852300  0.39765800  0.57193800  1
  O  O49  1  0.75081800  0.50515600  0.93090500  1
  O  O50  1  0.93627200  0.93742000  0.64926200  1
  O  O51  1  0.99484400  0.74918200  0.43090500  1
  O  O52  1  0.99491100  0.72240800  0.83035500  1
  O  O53  1  0.81978900  0.86672400  0.31597600  1
  O  O54  1  0.24580200  0.34063300  0.13821700  1
  O  O55  1  0.43627200  0.56258000  0.85073800  1
  O  O56  1  0.50515600  0.24918200  0.06909500  1
  O  O57  1  0.75419800  0.65936700  0.13821700  1
  O  O58  1  0.86672400  0.18021100  0.68402400  1
  O  O59  1  0.66503700  0.83987100  0.61815500  1
  O  O60  1  0.25081800  0.99484400  0.56909500  1
  O  O61  1  0.39765800  0.31147700  0.42806200  1
  O  O62  1  0.31978900  0.63327600  0.18402400  1
  O  O63  1  0.81147700  0.89765800  0.92806200  1
  O  O64  1  0.16503700  0.66012900  0.88184500  1
  O  O65  1  0.25419800  0.84063300  0.36178300  1
  O  O66  1  0.89765800  0.18852300  0.07193800  1
  O  O67  1  0.10234200  0.81147700  0.07193800  1
  O  O68  1  0.43742000  0.43627200  0.14926200  1
  O  O69  1  0.77759200  0.50508900  0.33035500  1
  O  O70  1  0.58721900  0.05923600  0.40804400  1
  O  O71  1  0.34063300  0.75419800  0.86178300  1
  O  O72  1  0.94076400  0.58721900  0.59195600  1
  O  O73  1  0.56372800  0.43742000  0.85073800  1
  O  O74  1  0.44076400  0.91278100  0.90804400  1
  O  O75  1  0.55923600  0.08721900  0.90804400  1
  O  O76  1  0.18021100  0.13327600  0.31597600  1
  O  O77  1  0.66012900  0.83496300  0.11815500  1
  O  O78  1  0.18852300  0.10234200  0.92806200  1
  O  O79  1  0.31147700  0.60234200  0.57193800  1
  O  O80  1  0.49491100  0.77759200  0.66964500  1
  O  O81  1  0.06372800  0.06258000  0.64926200  1
  O  O82  1  0.91278100  0.55923600  0.09195600  1
  O  O83  1  0.50508900  0.22240800  0.66964500  1
  O  O84  1  0.22240800  0.49491100  0.33035500  1
  O  O85  1  0.93742000  0.06372800  0.35073800  1
  O  O86  1  0.74580200  0.15936700  0.36178300  1
  O  O87  1  0.41278100  0.94076400  0.40804400  1
  O  O88  1  0.33987100  0.16503700  0.11815500  1
  O  O89  1  0.00508900  0.27759200  0.83035500  1
  O  O90  1  0.83987100  0.33496300  0.38184500  1
  O  O91  1  0.36672400  0.31978900  0.81597600  1
  O  O92  1  0.05923600  0.41278100  0.59195600  1
  O  O93  1  0.72240800  0.00508900  0.16964500  1
  O  O94  1  0.74918200  0.00515600  0.56909500  1
  O  O95  1  0.08721900  0.44076400  0.09195600  1
