# generated using pymatgen
data_Li2Mn3CoO8
_symmetry_space_group_name_H-M   'P 1'
_cell_length_a   8.30293900
_cell_length_b   8.30293900
_cell_length_c   8.30293900
_cell_angle_alpha   90.00000000
_cell_angle_beta   90.00000000
_cell_angle_gamma   90.00000000
_symmetry_Int_Tables_number   1
_chemical_formula_structural   Li2Mn3CoO8
_chemical_formula_sum   'Li8 Mn12 Co4 O32'
_cell_volume   572.39461823
_cell_formula_units_Z   4
loop_
 _symmetry_equiv_pos_site_id
 _symmetry_equiv_pos_as_xyz
  1  'x, y, z'
loop_
 _atom_site_type_symbol
 _atom_site_label
 _atom_site_symmetry_multiplicity
 _atom_site_fract_x
 _atom_site_fract_y
 _atom_site_fract_z
 _atom_site_occupancy
  Li  Li0  1  0.12444200  0.87555800  0.37555800  1
  Li  Li1  1  0.25161000  0.75161000  0.74839000  1
  Li  Li2  1  0.24839000  0.24839000  0.24839000  1
  Li  Li3  1  0.37555800  0.12444200  0.87555800  1
  Li  Li4  1  0.62444200  0.62444200  0.62444200  1
  Li  Li5  1  0.75161000  0.74839000  0.25161000  1
  Li  Li6  1  0.74839000  0.25161000  0.75161000  1
  Li  Li7  1  0.87555800  0.37555800  0.12444200  1
  Mn  Mn8  1  0.12419900  0.62301600  0.12199000  1
  Mn  Mn9  1  0.12301600  0.37801000  0.87580100  1
  Mn  Mn10  1  0.12199000  0.12419900  0.62301600  1
  Mn  Mn11  1  0.37801000  0.87580100  0.12301600  1
  Mn  Mn12  1  0.37698400  0.62199000  0.37580100  1
  Mn  Mn13  1  0.37580100  0.37698400  0.62199000  1
  Mn  Mn14  1  0.62419900  0.87698400  0.87801000  1
  Mn  Mn15  1  0.62301600  0.12199000  0.12419900  1
  Mn  Mn16  1  0.62199000  0.37580100  0.37698400  1
  Mn  Mn17  1  0.87801000  0.62419900  0.87698400  1
  Mn  Mn18  1  0.87698400  0.87801000  0.62419900  1
  Mn  Mn19  1  0.87580100  0.12301600  0.37801000  1
  Co  Co20  1  0.99703300  0.50296700  0.49703300  1
  Co  Co21  1  0.50296700  0.49703300  0.99703300  1
  Co  Co22  1  0.49703300  0.99703300  0.50296700  1
  Co  Co23  1  0.00296700  0.00296700  0.00296700  1
  O  O24  1  0.10154100  0.12785400  0.39330400  1
  O  O25  1  0.10669600  0.89845900  0.62785400  1
  O  O26  1  0.11395600  0.61395600  0.88604400  1
  O  O27  1  0.12785400  0.39330400  0.10154100  1
  O  O28  1  0.12159000  0.14733000  0.85972000  1
  O  O29  1  0.13585900  0.36414100  0.63585900  1
  O  O30  1  0.14028000  0.62159000  0.35267000  1
  O  O31  1  0.14733000  0.85972000  0.12159000  1
  O  O32  1  0.35267000  0.14028000  0.62159000  1
  O  O33  1  0.35972000  0.37841000  0.85267000  1
  O  O34  1  0.36414100  0.63585900  0.13585900  1
  O  O35  1  0.37841000  0.85267000  0.35972000  1
  O  O36  1  0.37214600  0.60669600  0.60154100  1
  O  O37  1  0.38604400  0.38604400  0.38604400  1
  O  O38  1  0.39330400  0.10154100  0.12785400  1
  O  O39  1  0.39845900  0.87214600  0.89330400  1
  O  O40  1  0.60154100  0.37214600  0.60669600  1
  O  O41  1  0.60669600  0.60154100  0.37214600  1
  O  O42  1  0.61395600  0.88604400  0.11395600  1
  O  O43  1  0.62785400  0.10669600  0.89845900  1
  O  O44  1  0.62159000  0.35267000  0.14028000  1
  O  O45  1  0.63585900  0.13585900  0.36414100  1
  O  O46  1  0.64028000  0.87841000  0.64733000  1
  O  O47  1  0.64733000  0.64028000  0.87841000  1
  O  O48  1  0.85267000  0.35972000  0.37841000  1
  O  O49  1  0.85972000  0.12159000  0.14733000  1
  O  O50  1  0.86414100  0.86414100  0.86414100  1
  O  O51  1  0.87841000  0.64733000  0.64028000  1
  O  O52  1  0.87214600  0.89330400  0.39845900  1
  O  O53  1  0.88604400  0.11395600  0.61395600  1
  O  O54  1  0.89330400  0.39845900  0.87214600  1
  O  O55  1  0.89845900  0.62785400  0.10669600  1
