# generated using pymatgen
data_Li2Mn2(SiO3)3
_symmetry_space_group_name_H-M   'P 1'
_cell_length_a   10.18019433
_cell_length_b   10.18019433
_cell_length_c   12.52050300
_cell_angle_alpha   90.00000000
_cell_angle_beta   90.00000000
_cell_angle_gamma   120.00000214
_symmetry_Int_Tables_number   1
_chemical_formula_structural   Li2Mn2(SiO3)3
_chemical_formula_sum   'Li12 Mn12 Si18 O54'
_cell_volume   1123.73662472
_cell_formula_units_Z   6
loop_
 _symmetry_equiv_pos_site_id
 _symmetry_equiv_pos_as_xyz
  1  'x, y, z'
loop_
 _atom_site_type_symbol
 _atom_site_label
 _atom_site_symmetry_multiplicity
 _atom_site_fract_x
 _atom_site_fract_y
 _atom_site_fract_z
 _atom_site_occupancy
  Li  Li0  1  0.46973300  0.61970100  0.18589100  1
  Li  Li1  1  0.63418500  0.49505500  0.01765700  1
  Li  Li2  1  0.50494500  0.13913000  0.68432400  1
  Li  Li3  1  0.38029900  0.85003200  0.85255800  1
  Li  Li4  1  0.86087000  0.36581500  0.35099100  1
  Li  Li5  1  0.50651600  0.71243700  0.68173100  1
  Li  Li6  1  0.67589800  0.00893300  0.74959200  1
  Li  Li7  1  0.14996800  0.53026700  0.51922400  1
  Li  Li8  1  0.20592100  0.49348400  0.01506400  1
  Li  Li9  1  0.99106700  0.66696500  0.41625800  1
  Li  Li10  1  0.33303500  0.32410200  0.08292500  1
  Li  Li11  1  0.28756300  0.79407900  0.34839800  1
  Mn  Mn12  1  0.64603500  0.47836300  0.48922000  1
  Mn  Mn13  1  0.52163700  0.16767200  0.15588700  1
  Mn  Mn14  1  0.83232800  0.35396500  0.82255300  1
  Mn  Mn15  1  0.66811500  0.97429900  0.25471700  1
  Mn  Mn16  1  0.70094200  0.00511400  0.00145700  1
  Mn  Mn17  1  0.81927000  0.82953700  0.84051400  1
  Mn  Mn18  1  0.01026800  0.18073000  0.17384700  1
  Mn  Mn19  1  0.30618400  0.33188500  0.58805100  1
  Mn  Mn20  1  0.30417200  0.29905800  0.33479100  1
  Mn  Mn21  1  0.99488600  0.69582800  0.66812400  1
  Mn  Mn22  1  0.02570100  0.69381600  0.92138400  1
  Mn  Mn23  1  0.17046300  0.98973200  0.50718100  1
  Si  Si24  1  0.47252200  0.62332000  0.91721400  1
  Si  Si25  1  0.61767500  0.47483200  0.75830400  1
  Si  Si26  1  0.50191000  0.17455100  0.90143000  1
  Si  Si27  1  0.67264100  0.49809000  0.23476300  1
  Si  Si28  1  0.37668000  0.84920200  0.58388100  1
  Si  Si29  1  0.52516800  0.14284300  0.42497100  1
  Si  Si30  1  0.50175500  0.67260900  0.43918000  1
  Si  Si31  1  0.82544900  0.32735900  0.56809700  1
  Si  Si32  1  0.85715700  0.38232500  0.09163800  1
  Si  Si33  1  0.95525100  0.15818200  0.44806800  1
  Si  Si34  1  0.79958700  0.85251600  0.56872500  1
  Si  Si35  1  0.15079800  0.52747800  0.25054800  1
  Si  Si36  1  0.17085400  0.49824500  0.77251300  1
  Si  Si37  1  0.05293000  0.20041300  0.90205900  1
  Si  Si38  1  0.84181800  0.79707000  0.11473500  1
  Si  Si39  1  0.20293000  0.04474900  0.78140100  1
  Si  Si40  1  0.14748400  0.94707000  0.23539200  1
  Si  Si41  1  0.32739100  0.82914600  0.10584700  1
  O  O42  1  0.40939100  0.48792300  0.44340600  1
  O  O43  1  0.43394500  0.54539100  0.03388600  1
  O  O44  1  0.53641500  0.53757000  0.83976500  1
  O  O45  1  0.49211300  0.37688200  0.22798500  1
  O  O46  1  0.42144900  0.22046200  0.44211300  1
  O  O47  1  0.34334800  0.03781400  0.84661800  1
  O  O48  1  0.54518800  0.44578300  0.63955300  1
  O  O49  1  0.47999800  0.24512300  0.01098700  1
  O  O50  1  0.69446600  0.65665200  0.17995200  1
  O  O51  1  0.56971700  0.30454600  0.80498600  1
  O  O52  1  0.46243000  0.99884400  0.50643200  1
  O  O53  1  0.76512400  0.52000200  0.34432000  1
  O  O54  1  0.45460900  0.88855400  0.70055300  1
  O  O55  1  0.55421700  0.09940500  0.30621900  1
  O  O56  1  0.79901300  0.57855100  0.77544600  1
  O  O57  1  0.73483000  0.43028300  0.13832000  1
  O  O58  1  0.62311800  0.11523100  0.89465100  1
  O  O59  1  0.51207700  0.92146700  0.11007200  1
  O  O60  1  0.41599800  0.72437200  0.52864300  1
  O  O61  1  0.69545400  0.26517000  0.47165300  1
  O  O62  1  0.52329500  0.75837400  0.32683100  1
  O  O63  1  0.75487700  0.23487600  0.67765400  1
  O  O64  1  0.88476900  0.50788700  0.56131800  1
  O  O65  1  0.90059500  0.45481200  0.97288600  1
  O  O66  1  0.58879200  0.80305900  0.90344900  1
  O  O67  1  0.77953800  0.20098700  0.10877900  1
  O  O68  1  0.00115600  0.46358500  0.17309800  1
  O  O69  1  0.96218600  0.30553400  0.51328500  1
  O  O70  1  0.66720500  0.71128700  0.49425100  1
  O  O71  1  0.07853300  0.59060900  0.77673900  1
  O  O72  1  0.89357400  0.15728900  0.32653600  1
  O  O73  1  0.72988600  0.84231600  0.68762700  1
  O  O74  1  0.11144600  0.56605500  0.36722000  1
  O  O75  1  0.82396600  0.00703300  0.50934800  1
  O  O76  1  0.82099500  0.94548600  0.13110100  1
  O  O77  1  0.88562800  0.05264300  0.89315500  1
  O  O78  1  0.04408100  0.33279500  0.82758400  1
  O  O79  1  0.84271100  0.73628500  0.99320200  1
  O  O80  1  0.11243000  0.27011400  0.02096000  1
  O  O81  1  0.23507900  0.47670500  0.66016500  1
  O  O82  1  0.21426700  0.41120800  0.23678200  1
  O  O83  1  0.94735700  0.83298400  0.55982100  1
  O  O84  1  0.12449100  0.17900500  0.46443500  1
  O  O85  1  0.30837400  0.58400200  0.86197700  1
  O  O86  1  0.99296700  0.81693300  0.17601400  1
  O  O87  1  0.18306700  0.17603400  0.84268100  1
  O  O88  1  0.16701600  0.11437200  0.22648800  1
  O  O89  1  0.05451400  0.87550900  0.79776800  1
  O  O90  1  0.15768400  0.88757000  0.35429300  1
  O  O91  1  0.26371500  0.10642600  0.65986900  1
  O  O92  1  0.19694100  0.78573300  0.57011600  1
  O  O93  1  0.28871300  0.95591900  0.16091700  1
  O  O94  1  0.24162600  0.76492100  0.99349800  1
  O  O95  1  0.27562800  0.69162600  0.19531000  1
