# generated using pymatgen
data_LiCo2OF3
_symmetry_space_group_name_H-M   'P 1'
_cell_length_a   6.02703455
_cell_length_b   6.02703455
_cell_length_c   6.13753493
_cell_angle_alpha   60.59380276
_cell_angle_beta   90.00000000
_cell_angle_gamma   120.00000000
_symmetry_Int_Tables_number   1
_chemical_formula_structural   LiCo2OF3
_chemical_formula_sum   'Li2 Co4 O2 F6'
_cell_volume   159.04737905
_cell_formula_units_Z   2
loop_
 _symmetry_equiv_pos_site_id
 _symmetry_equiv_pos_as_xyz
  1  'x, y, z'
loop_
 _atom_site_type_symbol
 _atom_site_label
 _atom_site_symmetry_multiplicity
 _atom_site_fract_x
 _atom_site_fract_y
 _atom_site_fract_z
 _atom_site_occupancy
  Li  Li0  1  0.49905500  0.99811000  0.00283500  1
  Li  Li1  1  0.13945600  0.27891000  0.08163400  1
  Co  Co2  1  0.49645800  0.99291600  0.49683400  1
  Co  Co3  1  0.49645800  0.50670800  0.49683400  1
  Co  Co4  1  0.85358800  0.70717800  0.93923400  1
  Co  Co5  1  0.01025000  0.50670800  0.49683400  1
  O  O6  1  0.72855800  0.45711600  0.31432700  1
  O  O7  1  0.26858000  0.53715900  0.69426100  1
  F  F8  1  0.74129900  0.99836200  0.76033900  1
  F  F9  1  0.74129900  0.48259800  0.76033900  1
  F  F10  1  0.25706300  0.99836200  0.76033900  1
  F  F11  1  0.26357700  0.52715400  0.23206400  1
  F  F12  1  0.74078200  0.00435900  0.23206400  1
  F  F13  1  0.26357700  0.00435900  0.23206400  1
