# generated using pymatgen
data_LiMn2(PO4)2
_symmetry_space_group_name_H-M   'P 1'
_cell_length_a   12.34530500
_cell_length_b   6.71417000
_cell_length_c   10.91738894
_cell_angle_alpha   84.15542290
_cell_angle_beta   90.00000000
_cell_angle_gamma   90.00000000
_symmetry_Int_Tables_number   1
_chemical_formula_structural   LiMn2(PO4)2
_chemical_formula_sum   'Li6 Mn12 P12 O48'
_cell_volume   900.22173733
_cell_formula_units_Z   6
loop_
 _symmetry_equiv_pos_site_id
 _symmetry_equiv_pos_as_xyz
  1  'x, y, z'
loop_
 _atom_site_type_symbol
 _atom_site_label
 _atom_site_symmetry_multiplicity
 _atom_site_fract_x
 _atom_site_fract_y
 _atom_site_fract_z
 _atom_site_occupancy
  Li  Li0  1  0.25022000  0.25148100  0.25092800  1
  Li  Li1  1  0.74978000  0.25148100  0.75092800  1
  Li  Li2  1  0.76143100  0.00000000  0.25000000  1
  Li  Li3  1  0.23856900  0.00000000  0.75000000  1
  Li  Li4  1  0.25022000  0.74851900  0.24907200  1
  Li  Li5  1  0.74978000  0.74851900  0.74907200  1
  Mn  Mn6  1  0.40821800  0.66353700  0.97192800  1
  Mn  Mn7  1  0.59178200  0.66353700  0.47192800  1
  Mn  Mn8  1  0.01447000  0.50000000  0.25000000  1
  Mn  Mn9  1  0.98553000  0.50000000  0.75000000  1
  Mn  Mn10  1  0.59178200  0.33646300  0.02807200  1
  Mn  Mn11  1  0.40821800  0.33646300  0.52807200  1
  Mn  Mn12  1  0.09110500  0.17308100  0.97487800  1
  Mn  Mn13  1  0.90889500  0.17308100  0.47487800  1
  Mn  Mn14  1  0.48015300  0.00000000  0.25000000  1
  Mn  Mn15  1  0.51984700  0.00000000  0.75000000  1
  Mn  Mn16  1  0.90889500  0.82691900  0.02512200  1
  Mn  Mn17  1  0.09110500  0.82691900  0.52512200  1
  P  P18  1  0.14166000  0.64250100  0.98791700  1
  P  P19  1  0.85834000  0.64250100  0.48791700  1
  P  P20  1  0.45926000  0.50000000  0.25000000  1
  P  P21  1  0.54074000  0.50000000  0.75000000  1
  P  P22  1  0.85834000  0.35749900  0.01208300  1
  P  P23  1  0.14166000  0.35749900  0.51208300  1
  P  P24  1  0.35739500  0.14032700  0.98606000  1
  P  P25  1  0.64260500  0.14032700  0.48606000  1
  P  P26  1  0.04019300  0.00000000  0.25000000  1
  P  P27  1  0.95980700  0.00000000  0.75000000  1
  P  P28  1  0.64260500  0.85967300  0.01394000  1
  P  P29  1  0.35739500  0.85967300  0.51394000  1
  O  O30  1  0.24965300  0.70530500  0.92610800  1
  O  O31  1  0.75034700  0.70530500  0.42610800  1
  O  O32  1  0.46996500  0.66694500  0.79751400  1
  O  O33  1  0.53003500  0.66694500  0.29751400  1
  O  O34  1  0.57310700  0.66407500  0.02697700  1
  O  O35  1  0.42689300  0.66407500  0.52697700  1
  O  O36  1  0.37973100  0.60864000  0.15437200  1
  O  O37  1  0.62026900  0.60864000  0.65437200  1
  O  O38  1  0.15318100  0.56677100  0.12533500  1
  O  O39  1  0.84681900  0.56677100  0.62533500  1
  O  O40  1  0.91475500  0.51536100  0.08519300  1
  O  O41  1  0.08524500  0.51536100  0.58519300  1
  O  O42  1  0.08524500  0.48463900  0.91480700  1
  O  O43  1  0.91475500  0.48463900  0.41480700  1
  O  O44  1  0.84681900  0.43322900  0.87466500  1
  O  O45  1  0.15318100  0.43322900  0.37466500  1
  O  O46  1  0.62026900  0.39136000  0.84562800  1
  O  O47  1  0.37973100  0.39136000  0.34562800  1
  O  O48  1  0.42689300  0.33592500  0.97302300  1
  O  O49  1  0.57310700  0.33592500  0.47302300  1
  O  O50  1  0.53003500  0.33305500  0.20248600  1
  O  O51  1  0.46996500  0.33305500  0.70248600  1
  O  O52  1  0.75034700  0.29469500  0.07389200  1
  O  O53  1  0.24965300  0.29469500  0.57389200  1
  O  O54  1  0.24455200  0.17724300  0.92197100  1
  O  O55  1  0.75544800  0.17724300  0.42197100  1
  O  O56  1  0.03391600  0.16374600  0.79708700  1
  O  O57  1  0.96608400  0.16374600  0.29708700  1
  O  O58  1  0.93359500  0.16468900  0.02469300  1
  O  O59  1  0.06640500  0.16468900  0.52469300  1
  O  O60  1  0.11983100  0.10922000  0.15504700  1
  O  O61  1  0.88016900  0.10922000  0.65504700  1
  O  O62  1  0.34471600  0.06653300  0.12347700  1
  O  O63  1  0.65528400  0.06653300  0.62347700  1
  O  O64  1  0.58540500  0.01356300  0.08937600  1
  O  O65  1  0.41459500  0.01356300  0.58937600  1
  O  O66  1  0.41459500  0.98643700  0.91062400  1
  O  O67  1  0.58540500  0.98643700  0.41062400  1
  O  O68  1  0.65528400  0.93346700  0.87652300  1
  O  O69  1  0.34471600  0.93346700  0.37652300  1
  O  O70  1  0.88016900  0.89078000  0.84495300  1
  O  O71  1  0.11983100  0.89078000  0.34495300  1
  O  O72  1  0.06640500  0.83531100  0.97530700  1
  O  O73  1  0.93359500  0.83531100  0.47530700  1
  O  O74  1  0.96608400  0.83625400  0.20291300  1
  O  O75  1  0.03391600  0.83625400  0.70291300  1
  O  O76  1  0.75544800  0.82275700  0.07802900  1
  O  O77  1  0.24455200  0.82275700  0.57802900  1
