# generated using pymatgen
data_Li5FeNi3O8
_symmetry_space_group_name_H-M   'P 1'
_cell_length_a   5.91799085
_cell_length_b   5.91799085
_cell_length_c   9.74323368
_cell_angle_alpha   89.40567701
_cell_angle_beta   89.40567701
_cell_angle_gamma   119.17631820
_symmetry_Int_Tables_number   1
_chemical_formula_structural   Li5FeNi3O8
_chemical_formula_sum   'Li10 Fe2 Ni6 O16'
_cell_volume   297.87650834
_cell_formula_units_Z   2
loop_
 _symmetry_equiv_pos_site_id
 _symmetry_equiv_pos_as_xyz
  1  'x, y, z'
loop_
 _atom_site_type_symbol
 _atom_site_label
 _atom_site_symmetry_multiplicity
 _atom_site_fract_x
 _atom_site_fract_y
 _atom_site_fract_z
 _atom_site_occupancy
  Li  Li0  1  0.18630700  0.80240300  0.55683700  1
  Li  Li1  1  0.31643100  0.64019400  0.77535500  1
  Li  Li2  1  0.58566600  0.78380400  0.54993700  1
  Li  Li3  1  0.97751100  0.98421800  0.48470300  1
  Li  Li4  1  0.98421800  0.97751100  0.98470300  1
  Li  Li5  1  0.18568200  0.37665600  0.55114100  1
  Li  Li6  1  0.64019400  0.31643100  0.27535500  1
  Li  Li7  1  0.37665600  0.18568200  0.05114100  1
  Li  Li8  1  0.78380400  0.58566600  0.04993700  1
  Li  Li9  1  0.80240300  0.18630700  0.05683700  1
  Fe  Fe10  1  0.32243200  0.65373600  0.03278700  1
  Fe  Fe11  1  0.65373600  0.32243200  0.53278700  1
  Ni  Ni12  1  0.15162900  0.82054600  0.28660200  1
  Ni  Ni13  1  0.64521100  0.81824100  0.28565500  1
  Ni  Ni14  1  0.15182800  0.32569800  0.28741800  1
  Ni  Ni15  1  0.81824100  0.64521100  0.78565500  1
  Ni  Ni16  1  0.32569800  0.15182800  0.78741800  1
  Ni  Ni17  1  0.82054600  0.15162900  0.78660200  1
  O  O18  1  0.16236600  0.81576300  0.91260800  1
  O  O19  1  0.48174600  0.96991400  0.16012300  1
  O  O20  1  0.65378700  0.80498200  0.91035200  1
  O  O21  1  0.32003200  0.65666000  0.39852000  1
  O  O22  1  0.00817000  0.50012000  0.16007100  1
  O  O23  1  0.47403700  0.49396000  0.16022500  1
  O  O24  1  0.80498200  0.65378700  0.41035200  1
  O  O25  1  0.15661600  0.31381800  0.91357200  1
  O  O26  1  0.49396000  0.47403700  0.66022500  1
  O  O27  1  0.31381800  0.15661600  0.41357200  1
  O  O28  1  0.65666000  0.32003200  0.89852000  1
  O  O29  1  0.98940400  0.97690900  0.68090000  1
  O  O30  1  0.97690900  0.98940400  0.18090000  1
  O  O31  1  0.96991400  0.48174600  0.66012300  1
  O  O32  1  0.50012000  0.00817000  0.66007100  1
  O  O33  1  0.81576300  0.16236600  0.41260800  1
