# generated using pymatgen
data_LiMnPO4
_symmetry_space_group_name_H-M   'P 1'
_cell_length_a   15.41878208
_cell_length_b   15.41878208
_cell_length_c   7.85145400
_cell_angle_alpha   90.00000000
_cell_angle_beta   90.00000000
_cell_angle_gamma   120.00000034
_symmetry_Int_Tables_number   1
_chemical_formula_structural   LiMnPO4
_chemical_formula_sum   'Li18 Mn18 P18 O72'
_cell_volume   1616.51917907
_cell_formula_units_Z   18
loop_
 _symmetry_equiv_pos_site_id
 _symmetry_equiv_pos_as_xyz
  1  'x, y, z'
loop_
 _atom_site_type_symbol
 _atom_site_label
 _atom_site_symmetry_multiplicity
 _atom_site_fract_x
 _atom_site_fract_y
 _atom_site_fract_z
 _atom_site_occupancy
  Li  Li0  1  0.00464900  0.68704300  0.49305300  1
  Li  Li1  1  0.34118000  0.99317900  0.57739100  1
  Li  Li2  1  0.00682100  0.34800200  0.57739100  1
  Li  Li3  1  0.33333300  0.66666700  0.70307600  1
  Li  Li4  1  0.00000000  0.00000000  0.87236000  1
  Li  Li5  1  0.00000000  0.00000000  0.37236000  1
  Li  Li6  1  0.33333300  0.66666700  0.19730400  1
  Li  Li7  1  0.31295700  0.31760700  0.49305300  1
  Li  Li8  1  0.34800200  0.34118000  0.07739100  1
  Li  Li9  1  0.68239300  0.99535100  0.49305300  1
  Li  Li10  1  0.31760700  0.00464900  0.99305300  1
  Li  Li11  1  0.65199800  0.65882000  0.57739100  1
  Li  Li12  1  0.68704300  0.68239300  0.99305300  1
  Li  Li13  1  0.66666700  0.33333300  0.20307600  1
  Li  Li14  1  0.66666700  0.33333300  0.69730400  1
  Li  Li15  1  0.99317900  0.65199800  0.07739100  1
  Li  Li16  1  0.65882000  0.00682100  0.07739100  1
  Li  Li17  1  0.99535100  0.31295700  0.99305300  1
  Mn  Mn18  1  0.09393700  0.87087300  0.79577400  1
  Mn  Mn19  1  0.10633800  0.57633700  0.76391300  1
  Mn  Mn20  1  0.24793000  0.80176900  0.27519000  1
  Mn  Mn21  1  0.19823100  0.44616100  0.27519000  1
  Mn  Mn22  1  0.46999900  0.89366200  0.76391300  1
  Mn  Mn23  1  0.12912700  0.22306500  0.79577400  1
  Mn  Mn24  1  0.42366300  0.53000100  0.76391300  1
  Mn  Mn25  1  0.22306500  0.09393700  0.29577400  1
  Mn  Mn26  1  0.55383900  0.75207000  0.27519000  1
  Mn  Mn27  1  0.44616100  0.24793000  0.77519000  1
  Mn  Mn28  1  0.77693500  0.90606300  0.79577400  1
  Mn  Mn29  1  0.57633700  0.46999900  0.26391300  1
  Mn  Mn30  1  0.87087300  0.77693500  0.29577400  1
  Mn  Mn31  1  0.53000100  0.10633800  0.26391300  1
  Mn  Mn32  1  0.80176900  0.55383900  0.77519000  1
  Mn  Mn33  1  0.75207000  0.19823100  0.77519000  1
  Mn  Mn34  1  0.89366200  0.42366300  0.26391300  1
  Mn  Mn35  1  0.90606300  0.12912700  0.29577400  1
  P  P36  1  0.09468800  0.86932100  0.20514800  1
  P  P37  1  0.10647800  0.57936800  0.36015700  1
  P  P38  1  0.24601600  0.80195600  0.86175600  1
  P  P39  1  0.19804400  0.44406100  0.86175600  1
  P  P40  1  0.47289000  0.89352200  0.36015700  1
  P  P41  1  0.13067900  0.22536700  0.20514800  1
  P  P42  1  0.42063200  0.52711000  0.36015700  1
  P  P43  1  0.55593900  0.75398400  0.86175600  1
  P  P44  1  0.22536700  0.09468800  0.70514800  1
  P  P45  1  0.77463300  0.90531200  0.20514800  1
  P  P46  1  0.44406100  0.24601600  0.36175600  1
  P  P47  1  0.57936800  0.47289000  0.86015700  1
  P  P48  1  0.86932100  0.77463300  0.70514800  1
  P  P49  1  0.52711000  0.10647800  0.86015700  1
  P  P50  1  0.80195600  0.55593900  0.36175600  1
  P  P51  1  0.75398400  0.19804400  0.36175600  1
  P  P52  1  0.89352200  0.42063200  0.86015700  1
  P  P53  1  0.90531200  0.13067900  0.70514800  1
  O  O54  1  0.02132700  0.89602500  0.29733500  1
  O  O55  1  0.04425400  0.81057200  0.03943900  1
  O  O56  1  0.19407700  0.96735500  0.16054500  1
  O  O57  1  0.11585100  0.80141900  0.32530100  1
  O  O58  1  0.01941400  0.56413300  0.24046300  1
  O  O59  1  0.22745700  0.87529300  0.75003800  1
  O  O60  1  0.14624800  0.70394900  0.89978900  1
  O  O61  1  0.09999400  0.63127800  0.52599700  1
  O  O62  1  0.29632500  0.85747000  0.02980800  1
  O  O63  1  0.20904100  0.64882400  0.27296700  1
  O  O64  1  0.09652300  0.47574100  0.40158000  1
  O  O65  1  0.37921900  0.90347700  0.40158000  1
  O  O66  1  0.03264500  0.22672200  0.16054500  1
  O  O67  1  0.31937200  0.77680600  0.76407400  1
  O  O68  1  0.22319400  0.54256600  0.76407400  1
  O  O69  1  0.14253000  0.43885500  0.02980800  1
  O  O70  1  0.12470700  0.35216400  0.75003800  1
  O  O71  1  0.19858100  0.31443200  0.32530100  1
  O  O72  1  0.54471900  0.98058600  0.24046300  1
  O  O73  1  0.53128300  0.90000600  0.52599700  1
  O  O74  1  0.18942800  0.23368200  0.03943900  1
  O  O75  1  0.10397500  0.12530300  0.29733500  1
  O  O76  1  0.43978300  0.79095900  0.27296700  1
  O  O77  1  0.35117600  0.56021700  0.27296700  1
  O  O78  1  0.29605100  0.44229900  0.89978900  1
  O  O79  1  0.22672200  0.19407700  0.66054500  1
  O  O80  1  0.55770100  0.85375200  0.89978900  1
  O  O81  1  0.12530300  0.02132700  0.79733500  1
  O  O82  1  0.45743400  0.68062800  0.76407400  1
  O  O83  1  0.36872200  0.46871700  0.52599700  1
  O  O84  1  0.23368200  0.04425400  0.53943900  1
  O  O85  1  0.56114500  0.70367500  0.02980800  1
  O  O86  1  0.52425900  0.62078100  0.40158000  1
  O  O87  1  0.43586700  0.45528100  0.24046300  1
  O  O88  1  0.35216400  0.22745700  0.25003800  1
  O  O89  1  0.68556800  0.88414900  0.32530100  1
  O  O90  1  0.31443200  0.11585100  0.82530100  1
  O  O91  1  0.64783600  0.77254300  0.75003800  1
  O  O92  1  0.56413300  0.54471900  0.74046300  1
  O  O93  1  0.47574100  0.37921900  0.90158000  1
  O  O94  1  0.43885500  0.29632500  0.52980800  1
  O  O95  1  0.76631800  0.95574600  0.03943900  1
  O  O96  1  0.63127800  0.53128300  0.02599700  1
  O  O97  1  0.54256600  0.31937200  0.26407400  1
  O  O98  1  0.87469700  0.97867300  0.29733500  1
  O  O99  1  0.44229900  0.14624800  0.39978900  1
  O  O100  1  0.77327800  0.80592300  0.16054500  1
  O  O101  1  0.70394900  0.55770100  0.39978900  1
  O  O102  1  0.64882400  0.43978300  0.77296700  1
  O  O103  1  0.56021700  0.20904100  0.77296700  1
  O  O104  1  0.89602500  0.87469700  0.79733500  1
  O  O105  1  0.81057200  0.76631800  0.53943900  1
  O  O106  1  0.46871700  0.09999400  0.02599700  1
  O  O107  1  0.45528100  0.01941400  0.74046300  1
  O  O108  1  0.80141900  0.68556800  0.82530100  1
  O  O109  1  0.87529300  0.64783600  0.25003800  1
  O  O110  1  0.85747000  0.56114500  0.52980800  1
  O  O111  1  0.77680600  0.45743400  0.26407400  1
  O  O112  1  0.68062800  0.22319400  0.26407400  1
  O  O113  1  0.96735500  0.77327800  0.66054500  1
  O  O114  1  0.62078100  0.09652300  0.90158000  1
  O  O115  1  0.90347700  0.52425900  0.90158000  1
  O  O116  1  0.79095900  0.35117600  0.77296700  1
  O  O117  1  0.70367500  0.14253000  0.52980800  1
  O  O118  1  0.90000600  0.36872200  0.02599700  1
  O  O119  1  0.85375200  0.29605100  0.39978900  1
  O  O120  1  0.77254300  0.12470700  0.25003800  1
  O  O121  1  0.98058600  0.43586700  0.74046300  1
  O  O122  1  0.88414900  0.19858100  0.82530100  1
  O  O123  1  0.80592300  0.03264500  0.66054500  1
  O  O124  1  0.95574600  0.18942800  0.53943900  1
  O  O125  1  0.97867300  0.10397500  0.79733500  1
