# generated using pymatgen
data_Li2Bi(BO3)2
_symmetry_space_group_name_H-M   'P 1'
_cell_length_a   6.39880000
_cell_length_b   8.63821400
_cell_length_c   10.51484719
_cell_angle_alpha   63.50795054
_cell_angle_beta   90.00000000
_cell_angle_gamma   90.00000000
_symmetry_Int_Tables_number   1
_chemical_formula_structural   Li2Bi(BO3)2
_chemical_formula_sum   'Li8 Bi4 B8 O24'
_cell_volume   520.17165760
_cell_formula_units_Z   4
loop_
 _symmetry_equiv_pos_site_id
 _symmetry_equiv_pos_as_xyz
  1  'x, y, z'
loop_
 _atom_site_type_symbol
 _atom_site_label
 _atom_site_symmetry_multiplicity
 _atom_site_fract_x
 _atom_site_fract_y
 _atom_site_fract_z
 _atom_site_occupancy
  Li  Li0  1  0.22029100  0.40422200  0.98461500  1
  Li  Li1  1  0.72029100  0.59577800  0.51538500  1
  Li  Li2  1  0.73859000  0.17192700  0.04845300  1
  Li  Li3  1  0.23859000  0.82807300  0.45154700  1
  Li  Li4  1  0.76141000  0.17192700  0.54845300  1
  Li  Li5  1  0.26141000  0.82807300  0.95154700  1
  Li  Li6  1  0.27970900  0.40422200  0.48461500  1
  Li  Li7  1  0.77970900  0.59577800  0.01538500  1
  Bi  Bi8  1  0.47641800  0.19526100  0.29082900  1
  Bi  Bi9  1  0.02358200  0.19526100  0.79082900  1
  Bi  Bi10  1  0.97641800  0.80473900  0.20917100  1
  Bi  Bi11  1  0.52358200  0.80473900  0.70917100  1
  B  B12  1  0.34040900  0.53353000  0.68730600  1
  B  B13  1  0.84040900  0.46647000  0.81269400  1
  B  B14  1  0.82146700  0.94126700  0.38983800  1
  B  B15  1  0.32146700  0.05873300  0.11016200  1
  B  B16  1  0.67853300  0.94126700  0.88983800  1
  B  B17  1  0.17853300  0.05873300  0.61016200  1
  B  B18  1  0.15959100  0.53353000  0.18730600  1
  B  B19  1  0.65959100  0.46647000  0.31269400  1
  O  O20  1  0.77255500  0.61091900  0.82247500  1
  O  O21  1  0.30962500  0.57269600  0.80015100  1
  O  O22  1  0.44896200  0.65932600  0.57101600  1
  O  O23  1  0.94896200  0.34067400  0.92898400  1
  O  O24  1  0.80962500  0.42730400  0.69984900  1
  O  O25  1  0.71191100  0.99319300  0.47845900  1
  O  O26  1  0.43926400  0.20838100  0.05988800  1
  O  O27  1  0.27255500  0.38908100  0.67752500  1
  O  O28  1  0.79713600  0.03869600  0.24467100  1
  O  O29  1  0.29713600  0.96130400  0.25532900  1
  O  O30  1  0.93926400  0.79161900  0.44011200  1
  O  O31  1  0.21191100  0.00680700  0.02154100  1
  O  O32  1  0.78808900  0.99319300  0.97845900  1
  O  O33  1  0.06073600  0.20838100  0.55988800  1
  O  O34  1  0.70286400  0.03869600  0.74467100  1
  O  O35  1  0.20286400  0.96130400  0.75532900  1
  O  O36  1  0.72744500  0.61091900  0.32247500  1
  O  O37  1  0.56073600  0.79161900  0.94011200  1
  O  O38  1  0.28808900  0.00680700  0.52154100  1
  O  O39  1  0.19037500  0.57269600  0.30015100  1
  O  O40  1  0.05103800  0.65932600  0.07101600  1
  O  O41  1  0.55103800  0.34067400  0.42898400  1
  O  O42  1  0.69037500  0.42730400  0.19984900  1
  O  O43  1  0.22744500  0.38908100  0.17752500  1
