# generated using pymatgen
data_Li2Zr2O5
_symmetry_space_group_name_H-M   'P 1'
_cell_length_a   3.93065600
_cell_length_b   10.37499200
_cell_length_c   13.14277511
_cell_angle_alpha   56.42855539
_cell_angle_beta   90.00000000
_cell_angle_gamma   90.00000000
_symmetry_Int_Tables_number   1
_chemical_formula_structural   Li2Zr2O5
_chemical_formula_sum   'Li8 Zr8 O20'
_cell_volume   446.56794975
_cell_formula_units_Z   4
loop_
 _symmetry_equiv_pos_site_id
 _symmetry_equiv_pos_as_xyz
  1  'x, y, z'
loop_
 _atom_site_type_symbol
 _atom_site_label
 _atom_site_symmetry_multiplicity
 _atom_site_fract_x
 _atom_site_fract_y
 _atom_site_fract_z
 _atom_site_occupancy
  Li  Li0  1  0.25956500  0.04583300  0.04764800  1
  Li  Li1  1  0.29676200  0.92429900  0.32994300  1
  Li  Li2  1  0.79676200  0.07570100  0.17005700  1
  Li  Li3  1  0.75956500  0.95416700  0.45235200  1
  Li  Li4  1  0.24043500  0.04583300  0.54764800  1
  Li  Li5  1  0.20323800  0.92429900  0.82994300  1
  Li  Li6  1  0.70323800  0.07570100  0.67005700  1
  Li  Li7  1  0.74043500  0.95416700  0.95235200  1
  Zr  Zr8  1  0.68476600  0.33078000  0.85537600  1
  Zr  Zr9  1  0.86100400  0.66933500  0.36432100  1
  Zr  Zr10  1  0.18476600  0.66922000  0.64462400  1
  Zr  Zr11  1  0.63899600  0.66933500  0.86432100  1
  Zr  Zr12  1  0.36100400  0.33066500  0.13567900  1
  Zr  Zr13  1  0.81523400  0.33078000  0.35537600  1
  Zr  Zr14  1  0.13899600  0.33066500  0.63567900  1
  Zr  Zr15  1  0.31523400  0.66922000  0.14462400  1
  O  O16  1  0.74815500  0.11475600  0.98903600  1
  O  O17  1  0.17622500  0.38630200  0.78565200  1
  O  O18  1  0.33963100  0.70889000  0.29121300  1
  O  O19  1  0.13350700  0.58650000  0.53215900  1
  O  O20  1  0.63350700  0.41350000  0.96784100  1
  O  O21  1  0.79860100  0.87591700  0.33893100  1
  O  O22  1  0.67622500  0.61369800  0.71434800  1
  O  O23  1  0.24815500  0.88524400  0.51096400  1
  O  O24  1  0.29860100  0.12408300  0.16106900  1
  O  O25  1  0.16036900  0.70889000  0.79121300  1
  O  O26  1  0.83963100  0.29111000  0.20878700  1
  O  O27  1  0.70139900  0.87591700  0.83893100  1
  O  O28  1  0.75184500  0.11475600  0.48903600  1
  O  O29  1  0.32377500  0.38630200  0.28565200  1
  O  O30  1  0.20139900  0.12408300  0.66106900  1
  O  O31  1  0.36649300  0.58650000  0.03215900  1
  O  O32  1  0.86649300  0.41350000  0.46784100  1
  O  O33  1  0.66036900  0.29111000  0.70878700  1
  O  O34  1  0.82377500  0.61369800  0.21434800  1
  O  O35  1  0.25184500  0.88524400  0.01096400  1
