# generated using pymatgen
data_Li10Mn3Cr3(CoO8)2
_symmetry_space_group_name_H-M   'P 1'
_cell_length_a   5.93634000
_cell_length_b   6.01945510
_cell_length_c   9.87193624
_cell_angle_alpha   91.11073258
_cell_angle_beta   90.75953285
_cell_angle_gamma   118.94454736
_symmetry_Int_Tables_number   1
_chemical_formula_structural   Li10Mn3Cr3(CoO8)2
_chemical_formula_sum   'Li10 Mn3 Cr3 Co2 O16'
_cell_volume   308.53415019
_cell_formula_units_Z   1
loop_
 _symmetry_equiv_pos_site_id
 _symmetry_equiv_pos_as_xyz
  1  'x, y, z'
loop_
 _atom_site_type_symbol
 _atom_site_label
 _atom_site_symmetry_multiplicity
 _atom_site_fract_x
 _atom_site_fract_y
 _atom_site_fract_z
 _atom_site_occupancy
  Li  Li0  1  0.01684700  0.99332100  0.48256000  1
  Li  Li1  1  0.20260800  0.39775900  0.06283400  1
  Li  Li2  1  0.68891600  0.34173600  0.78218400  1
  Li  Li3  1  0.81702600  0.18674800  0.56353800  1
  Li  Li4  1  0.40218400  0.18488200  0.56576100  1
  Li  Li5  1  0.35624200  0.67615400  0.28296100  1
  Li  Li6  1  0.01662500  0.01366500  0.98270500  1
  Li  Li7  1  0.21081400  0.80914200  0.05562500  1
  Li  Li8  1  0.80006100  0.59771500  0.55426800  1
  Li  Li9  1  0.61695600  0.78984800  0.05828400  1
  Mn  Mn10  1  0.84834100  0.17153500  0.28554900  1
  Mn  Mn11  1  0.67875500  0.83347200  0.78386900  1
  Mn  Mn12  1  0.84666700  0.66222300  0.28490800  1
  Cr  Cr13  1  0.18542400  0.34031900  0.78639500  1
  Cr  Cr14  1  0.35208400  0.16803800  0.28549400  1
  Cr  Cr15  1  0.18365300  0.83432700  0.78526200  1
  Co  Co16  1  0.34228100  0.65532100  0.52916800  1
  Co  Co17  1  0.67884600  0.33042200  0.02846700  1
  O  O18  1  0.34085500  0.16529400  0.90377000  1
  O  O19  1  0.16648200  0.31491400  0.40207600  1
  O  O20  1  0.02975800  0.50953800  0.66647800  1
  O  O21  1  0.52936200  0.01685000  0.16921800  1
  O  O22  1  0.85342600  0.16758600  0.89538300  1
  O  O23  1  0.32974800  0.66047200  0.90748800  1
  O  O24  1  0.50647500  0.50556200  0.67282400  1
  O  O25  1  0.18008000  0.83920500  0.39380100  1
  O  O26  1  0.52103000  0.48978100  0.17242800  1
  O  O27  1  0.67319400  0.30165900  0.40807300  1
  O  O28  1  0.50555200  0.97416900  0.67064500  1
  O  O29  1  0.99798700  0.51539200  0.16125300  1
  O  O30  1  0.85390200  0.69320200  0.89789400  1
  O  O31  1  0.68632200  0.79937900  0.41121500  1
  O  O32  1  0.04144100  0.01629800  0.66885500  1
  O  O33  1  0.02181700  0.03130500  0.16964500  1
