# generated using pymatgen
data_LiFe8(BO3)8
_symmetry_space_group_name_H-M   'P 1'
_cell_length_a   5.32351600
_cell_length_b   9.01880031
_cell_length_c   11.35671265
_cell_angle_alpha   112.88470330
_cell_angle_beta   103.37831528
_cell_angle_gamma   90.37610233
_symmetry_Int_Tables_number   1
_chemical_formula_structural   LiFe8(BO3)8
_chemical_formula_sum   'Li1 Fe8 B8 O24'
_cell_volume   485.86293541
_cell_formula_units_Z   1
loop_
 _symmetry_equiv_pos_site_id
 _symmetry_equiv_pos_as_xyz
  1  'x, y, z'
loop_
 _atom_site_type_symbol
 _atom_site_label
 _atom_site_symmetry_multiplicity
 _atom_site_fract_x
 _atom_site_fract_y
 _atom_site_fract_z
 _atom_site_occupancy
  Li  Li0  1  0.22488600  0.58369000  0.15668600  1
  Fe  Fe1  1  0.71691400  0.39390500  0.12421500  1
  Fe  Fe2  1  0.77658900  0.10457200  0.87747500  1
  Fe  Fe3  1  0.54176500  0.51873500  0.37695600  1
  Fe  Fe4  1  0.97423100  0.97979600  0.62793400  1
  Fe  Fe5  1  0.02763300  0.02314100  0.37608700  1
  Fe  Fe6  1  0.47671000  0.47903400  0.62891300  1
  Fe  Fe7  1  0.22520900  0.90551100  0.12663300  1
  Fe  Fe8  1  0.28050900  0.60423300  0.87829700  1
  B  B9  1  0.98475800  0.64507200  0.62923200  1
  B  B10  1  0.22535500  0.23509400  0.12548200  1
  B  B11  1  0.48175000  0.14045100  0.62632400  1
  B  B12  1  0.73756200  0.73511700  0.12903100  1
  B  B13  1  0.52279500  0.85727200  0.37069900  1
  B  B14  1  0.27058400  0.26857200  0.87661700  1
  B  B15  1  0.02783000  0.36023200  0.37984100  1
  B  B16  1  0.77519600  0.76811900  0.87847700  1
  O  O17  1  0.96604300  0.22441400  0.06618900  1
  O  O18  1  0.86726400  0.45602700  0.33199700  1
  O  O19  1  0.67839400  0.90151700  0.87119700  1
  O  O20  1  0.08133300  0.78405100  0.63111900  1
  O  O21  1  0.71891500  0.59117200  0.57596100  1
  O  O22  1  0.36771200  0.38914700  0.17835900  1
  O  O23  1  0.85569100  0.60303300  0.12735800  1
  O  O24  1  0.63872600  0.04115700  0.67270600  1
  O  O25  1  0.10429700  0.12484500  0.82339100  1
  O  O26  1  0.78385000  0.91371600  0.43057300  1
  O  O27  1  0.42790400  0.70585000  0.34917300  1
  O  O28  1  0.53237200  0.26348000  0.92153900  1
  O  O29  1  0.46142300  0.72770500  0.08538300  1
  O  O30  1  0.21652500  0.08616600  0.57059700  1
  O  O31  1  0.88617300  0.88565500  0.17428600  1
  O  O32  1  0.35967600  0.95634700  0.32634100  1
  O  O33  1  0.17642400  0.41323400  0.88894100  1
  O  O34  1  0.61544900  0.62166400  0.83251500  1
  O  O35  1  0.29361500  0.41571800  0.43403500  1
  O  O36  1  0.93075900  0.21946500  0.37571400  1
  O  O37  1  0.57774100  0.28435400  0.63416700  1
  O  O38  1  0.33985700  0.10413800  0.13430100  1
  O  O39  1  0.14391900  0.54763200  0.67934700  1
  O  O40  1  0.04245900  0.76854400  0.93275900  1
