# generated using pymatgen
data_Li4Mn3Nb2Sn3O16
_symmetry_space_group_name_H-M   'P 1'
_cell_length_a   6.28107844
_cell_length_b   6.28107844
_cell_length_c   10.00688808
_cell_angle_alpha   89.56636794
_cell_angle_beta   89.56636794
_cell_angle_gamma   59.46384355
_symmetry_Int_Tables_number   1
_chemical_formula_structural   Li4Mn3Nb2Sn3O16
_chemical_formula_sum   'Li4 Mn3 Nb2 Sn3 O16'
_cell_volume   340.02419277
_cell_formula_units_Z   1
loop_
 _symmetry_equiv_pos_site_id
 _symmetry_equiv_pos_as_xyz
  1  'x, y, z'
loop_
 _atom_site_type_symbol
 _atom_site_label
 _atom_site_symmetry_multiplicity
 _atom_site_fract_x
 _atom_site_fract_y
 _atom_site_fract_z
 _atom_site_occupancy
  Li  Li0  1  0.66971400  0.66971400  0.09716400  1
  Li  Li1  1  0.99521800  0.99521800  0.01597900  1
  Li  Li2  1  0.99907800  0.99907800  0.50522300  1
  Li  Li3  1  0.32713500  0.32713500  0.59467300  1
  Mn  Mn4  1  0.82924700  0.82924700  0.78674100  1
  Mn  Mn5  1  0.17192600  0.66246400  0.29002000  1
  Mn  Mn6  1  0.66246400  0.17192600  0.29002000  1
  Nb  Nb7  1  0.67468000  0.67468000  0.50353500  1
  Nb  Nb8  1  0.34967100  0.34967100  0.01978400  1
  Sn  Sn9  1  0.33771200  0.83181700  0.78545800  1
  Sn  Sn10  1  0.83181700  0.33771200  0.78545800  1
  Sn  Sn11  1  0.17288400  0.17288400  0.28320700  1
  O  O12  1  0.34618200  0.83694500  0.41171200  1
  O  O13  1  0.51451900  0.51451900  0.66087600  1
  O  O14  1  0.65943700  0.65943700  0.89785600  1
  O  O15  1  0.00156800  0.00156800  0.68870500  1
  O  O16  1  0.00631400  0.00631400  0.19907600  1
  O  O17  1  0.83694500  0.34618200  0.41171200  1
  O  O18  1  0.50939600  0.95351800  0.65106000  1
  O  O19  1  0.95351800  0.50939600  0.65106000  1
  O  O20  1  0.15928300  0.15928300  0.90149200  1
  O  O21  1  0.82893700  0.82893700  0.41967800  1
  O  O22  1  0.04150300  0.47265400  0.14476200  1
  O  O23  1  0.47265400  0.04150300  0.14476200  1
  O  O24  1  0.32735100  0.32735100  0.39414100  1
  O  O25  1  0.17622700  0.66156400  0.90899100  1
  O  O26  1  0.48194400  0.48194400  0.14008100  1
  O  O27  1  0.66156400  0.17622700  0.90899100  1
