# generated using pymatgen
data_Li4Mn5V(PO4)6
_symmetry_space_group_name_H-M   'P 1'
_cell_length_a   8.57106600
_cell_length_b   8.64731626
_cell_length_c   8.71801386
_cell_angle_alpha   62.19515254
_cell_angle_beta   62.82200348
_cell_angle_gamma   62.94916419
_symmetry_Int_Tables_number   1
_chemical_formula_structural   Li4Mn5V(PO4)6
_chemical_formula_sum   'Li4 Mn5 V1 P6 O24'
_cell_volume   483.85946789
_cell_formula_units_Z   1
loop_
 _symmetry_equiv_pos_site_id
 _symmetry_equiv_pos_as_xyz
  1  'x, y, z'
loop_
 _atom_site_type_symbol
 _atom_site_label
 _atom_site_symmetry_multiplicity
 _atom_site_fract_x
 _atom_site_fract_y
 _atom_site_fract_z
 _atom_site_occupancy
  Li  Li0  1  0.74426400  0.14865300  0.35895600  1
  Li  Li1  1  0.26737200  0.85187800  0.64664500  1
  Li  Li2  1  0.64354000  0.26529800  0.85518100  1
  Li  Li3  1  0.85360200  0.64768000  0.26671800  1
  Mn  Mn4  1  0.01607700  0.00237700  0.99198400  1
  Mn  Mn5  1  0.34885700  0.35426200  0.35256600  1
  Mn  Mn6  1  0.49028700  0.50346500  0.49968700  1
  Mn  Mn7  1  0.14721700  0.14950500  0.14672900  1
  Mn  Mn8  1  0.65480400  0.65008500  0.65671700  1
  V  V9  1  0.85287800  0.84887500  0.85269600  1
  P  P10  1  0.05471100  0.75218200  0.44672600  1
  P  P11  1  0.44647300  0.05032300  0.74912400  1
  P  P12  1  0.75195500  0.44405500  0.05381800  1
  P  P13  1  0.24688200  0.54729000  0.95231600  1
  P  P14  1  0.55524600  0.95323200  0.24767000  1
  P  P15  1  0.94041200  0.24603800  0.55023100  1
  O  O16  1  0.46857900  0.90068700  0.68433900  1
  O  O17  1  0.68702500  0.46240900  0.90722600  1
  O  O18  1  0.90411400  0.68888300  0.46419800  1
  O  O19  1  0.05859200  0.92231200  0.26297500  1
  O  O20  1  0.00560600  0.81208700  0.60992000  1
  O  O21  1  0.24453700  0.60581400  0.43100000  1
  O  O22  1  0.25663800  0.07334100  0.89972000  1
  O  O23  1  0.45756800  0.23339100  0.58768300  1
  O  O24  1  0.18205700  0.38961200  0.99263000  1
  O  O25  1  0.60856300  0.42562500  0.24701500  1
  O  O26  1  0.09058100  0.74252800  0.92744800  1
  O  O27  1  0.38912400  0.00693400  0.18999000  1
  O  O28  1  0.60465300  0.99873800  0.82096200  1
  O  O29  1  0.90794500  0.25092800  0.07699100  1
  O  O30  1  0.39521400  0.57084200  0.75793200  1
  O  O31  1  0.81810300  0.60431300  0.00475400  1
  O  O32  1  0.57104700  0.75773200  0.39757500  1
  O  O33  1  0.74735900  0.92360700  0.08915000  1
  O  O34  1  0.74808000  0.39914700  0.58036400  1
  O  O35  1  0.95740100  0.18710600  0.40121300  1
  O  O36  1  0.92341400  0.08812900  0.74544200  1
  O  O37  1  0.10196000  0.30020600  0.51026600  1
  O  O38  1  0.30970300  0.51851300  0.10131000  1
  O  O39  1  0.54756300  0.09891900  0.30513200  1
