# generated using pymatgen
data_LiMnOF2
_symmetry_space_group_name_H-M   'P 1'
_cell_length_a   5.21870938
_cell_length_b   9.85364469
_cell_length_c   5.21111343
_cell_angle_alpha   105.03955857
_cell_angle_beta   120.51037536
_cell_angle_gamma   75.59145751
_symmetry_Int_Tables_number   1
_chemical_formula_structural   LiMnOF2
_chemical_formula_sum   'Li4 Mn4 O4 F8'
_cell_volume   220.74145418
_cell_formula_units_Z   4
loop_
 _symmetry_equiv_pos_site_id
 _symmetry_equiv_pos_as_xyz
  1  'x, y, z'
loop_
 _atom_site_type_symbol
 _atom_site_label
 _atom_site_symmetry_multiplicity
 _atom_site_fract_x
 _atom_site_fract_y
 _atom_site_fract_z
 _atom_site_occupancy
  Li  Li0  1  0.57090523  0.29877224  0.45170517  1
  Li  Li1  1  0.92909477  0.20122776  0.04829483  1
  Li  Li2  1  0.45585341  0.70115530  0.57841715  1
  Li  Li3  1  0.04414659  0.79884470  0.92158285  1
  Mn  Mn4  1  0.35920111  0.01379552  0.68313018  1
  Mn  Mn5  1  0.14079889  0.48620448  0.81686982  1
  Mn  Mn6  1  0.83656763  0.51368723  0.17842836  1
  Mn  Mn7  1  0.66343237  0.98631277  0.32157164  1
  O  O8  1  0.62400846  0.10177019  0.65577110  1
  O  O9  1  0.83420595  0.60562300  0.54669359  1
  O  O10  1  0.66579405  0.89437700  0.95330641  1
  O  O11  1  0.87599154  0.39822981  0.84422890  1
  F  F12  1  0.11807471  0.63428615  0.20525798  1
  F  F13  1  0.31864152  0.13075126  0.07007926  1
  F  F14  1  0.18135848  0.36924874  0.42992074  1
  F  F15  1  0.53169340  0.37965578  0.10282904  1
  F  F16  1  0.06869385  0.88556449  0.61778578  1
  F  F17  1  0.38192529  0.86571385  0.29474202  1
  F  F18  1  0.96830660  0.12034422  0.39717096  1
  F  F19  1  0.43130615  0.61443551  0.88221422  1
