# generated using pymatgen
data_Li32Mn13Cr3O48
_symmetry_space_group_name_H-M   'P 1'
_cell_length_a   5.01457600
_cell_length_b   8.68471876
_cell_length_c   19.47352702
_cell_angle_alpha   98.27872945
_cell_angle_beta   94.83223204
_cell_angle_gamma   89.85001659
_symmetry_Int_Tables_number   1
_chemical_formula_structural   Li32Mn13Cr3O48
_chemical_formula_sum   'Li32 Mn13 Cr3 O48'
_cell_volume   836.21624751
_cell_formula_units_Z   1
loop_
 _symmetry_equiv_pos_site_id
 _symmetry_equiv_pos_as_xyz
  1  'x, y, z'
loop_
 _atom_site_type_symbol
 _atom_site_label
 _atom_site_symmetry_multiplicity
 _atom_site_fract_x
 _atom_site_fract_y
 _atom_site_fract_z
 _atom_site_occupancy
  Li  Li0  1  0.99283900  0.16815800  0.24980600  1
  Li  Li1  1  0.87515700  0.37276000  0.37499000  1
  Li  Li2  1  0.75160900  0.24971700  0.99972500  1
  Li  Li3  1  0.74372500  0.92009800  0.00044300  1
  Li  Li4  1  0.98840800  0.16879300  0.75037200  1
  Li  Li5  1  0.75332500  0.58050200  0.50017900  1
  Li  Li6  1  0.87545500  0.37340900  0.87515600  1
  Li  Li7  1  0.74947200  0.24949900  0.49969500  1
  Li  Li8  1  0.74488100  0.92024800  0.50051100  1
  Li  Li9  1  0.62486100  0.12507000  0.12498200  1
  Li  Li10  1  0.75609800  0.58030500  0.99982400  1
  Li  Li11  1  0.50633100  0.33146500  0.25007400  1
  Li  Li12  1  0.62795200  0.12385500  0.62481400  1
  Li  Li13  1  0.50104700  0.99975200  0.25027200  1
  Li  Li14  1  0.48991500  0.66891400  0.24944700  1
  Li  Li15  1  0.51035800  0.33246900  0.75097300  1
  Li  Li16  1  0.37535100  0.87491200  0.37495000  1
  Li  Li17  1  0.50040400  0.00012300  0.75045200  1
  Li  Li18  1  0.24916700  0.74998300  0.99998300  1
  Li  Li19  1  0.49326700  0.66801200  0.74967700  1
  Li  Li20  1  0.24301000  0.41810900  0.99977100  1
  Li  Li21  1  0.37619600  0.87511600  0.87489900  1
  Li  Li22  1  0.25345400  0.07886900  0.49907300  1
  Li  Li23  1  0.25326400  0.75060900  0.50013000  1
  Li  Li24  1  0.12485500  0.62501700  0.12493700  1
  Li  Li25  1  0.24427000  0.42034500  0.49978300  1
  Li  Li26  1  0.00780800  0.83177400  0.25032100  1
  Li  Li27  1  0.25594200  0.08174700  0.99941700  1
  Li  Li28  1  0.12555200  0.62587500  0.62527100  1
  Li  Li29  1  0.00224000  0.50000400  0.24960200  1
  Li  Li30  1  0.00636500  0.83140100  0.75007200  1
  Li  Li31  1  0.00035800  0.50013800  0.75007800  1
  Mn  Mn32  1  0.87529200  0.04174300  0.37490700  1
  Mn  Mn33  1  0.87391600  0.70695500  0.87480600  1
  Mn  Mn34  1  0.62583400  0.79144300  0.12492700  1
  Mn  Mn35  1  0.62461000  0.45844300  0.12494700  1
  Mn  Mn36  1  0.62473800  0.79157000  0.62516000  1
  Mn  Mn37  1  0.62679300  0.45983600  0.62577800  1
  Mn  Mn38  1  0.37539500  0.54165100  0.37490200  1
  Mn  Mn39  1  0.37412200  0.20852700  0.37489100  1
  Mn  Mn40  1  0.37501600  0.54187500  0.87513900  1
  Mn  Mn41  1  0.37459800  0.21019400  0.87538900  1
  Mn  Mn42  1  0.12470200  0.95842300  0.12489700  1
  Mn  Mn43  1  0.12574900  0.29144600  0.12492400  1
  Mn  Mn44  1  0.12281700  0.95726900  0.62432400  1
  Cr  Cr45  1  0.87393700  0.70520300  0.37490900  1
  Cr  Cr46  1  0.87924300  0.03983200  0.87507100  1
  Cr  Cr47  1  0.13225600  0.29104900  0.62496200  1
  O  O48  1  0.96396900  0.10659500  0.06878700  1
  O  O49  1  0.92817100  0.78525100  0.06900500  1
  O  O50  1  0.92734900  0.42740700  0.06807300  1
  O  O51  1  0.96247100  0.10265400  0.56824400  1
  O  O52  1  0.82243400  0.96473200  0.18085300  1
  O  O53  1  0.82287700  0.32262300  0.18196800  1
  O  O54  1  0.92749900  0.78381200  0.56896500  1
  O  O55  1  0.92633500  0.42545900  0.56807300  1
  O  O56  1  0.78583500  0.64324800  0.18104400  1
  O  O57  1  0.71671000  0.85756400  0.31902200  1
  O  O58  1  0.82110700  0.96471500  0.68120400  1
  O  O59  1  0.82080400  0.32386900  0.68242800  1
  O  O60  1  0.67806800  0.53763100  0.31913400  1
  O  O61  1  0.67707900  0.17837100  0.31805800  1
  O  O62  1  0.78832200  0.64449200  0.68117000  1
  O  O63  1  0.71232100  0.85449700  0.81875300  1
  O  O64  1  0.46409300  0.60668500  0.06900800  1
  O  O65  1  0.56530200  0.71335900  0.43148700  1
  O  O66  1  0.57198100  0.07272800  0.43160400  1
  O  O67  1  0.67797700  0.53473800  0.81935200  1
  O  O68  1  0.67530800  0.17737800  0.81776400  1
  O  O69  1  0.42757700  0.92743200  0.06791000  1
  O  O70  1  0.42834200  0.28525300  0.06908600  1
  O  O71  1  0.53710600  0.39299700  0.43080800  1
  O  O72  1  0.46345700  0.60741300  0.56917700  1
  O  O73  1  0.57125500  0.71518400  0.93098300  1
  O  O74  1  0.57269900  0.07378800  0.93205100  1
  O  O75  1  0.32295600  0.82272800  0.18185300  1
  O  O76  1  0.32211800  0.46449700  0.18091100  1
  O  O77  1  0.42713100  0.92760900  0.56823300  1
  O  O78  1  0.42784100  0.28782200  0.56896900  1
  O  O79  1  0.53725600  0.39372200  0.93094900  1
  O  O80  1  0.28600500  0.14321800  0.18090900  1
  O  O81  1  0.21258300  0.35642100  0.31904400  1
  O  O82  1  0.32298200  0.82255100  0.68214700  1
  O  O83  1  0.32645700  0.46673900  0.68166600  1
  O  O84  1  0.18320900  0.67578700  0.31733300  1
  O  O85  1  0.17809200  0.03554600  0.31910000  1
  O  O86  1  0.27928100  0.14329000  0.68087800  1
  O  O87  1  0.21337700  0.35705600  0.81922600  1
  O  O88  1  0.07246700  0.57451100  0.43174000  1
  O  O89  1  0.07214600  0.21545000  0.43082500  1
  O  O90  1  0.17706400  0.67808000  0.81831000  1
  O  O91  1  0.17636000  0.03724600  0.81910100  1
  O  O92  1  0.03277200  0.89365300  0.43075800  1
  O  O93  1  0.07250300  0.57219700  0.93193800  1
  O  O94  1  0.07522000  0.21667100  0.93140600  1
  O  O95  1  0.03377500  0.89282700  0.93107800  1
