# generated using pymatgen
data_Li4V2Co3Sn3O16
_symmetry_space_group_name_H-M   'P 1'
_cell_length_a   6.16470352
_cell_length_b   6.16470352
_cell_length_c   9.67047670
_cell_angle_alpha   89.49503354
_cell_angle_beta   89.49503354
_cell_angle_gamma   59.18334352
_symmetry_Int_Tables_number   1
_chemical_formula_structural   Li4V2Co3Sn3O16
_chemical_formula_sum   'Li4 V2 Co3 Sn3 O16'
_cell_volume   315.60768213
_cell_formula_units_Z   1
loop_
 _symmetry_equiv_pos_site_id
 _symmetry_equiv_pos_as_xyz
  1  'x, y, z'
loop_
 _atom_site_type_symbol
 _atom_site_label
 _atom_site_symmetry_multiplicity
 _atom_site_fract_x
 _atom_site_fract_y
 _atom_site_fract_z
 _atom_site_occupancy
  Li  Li0  1  0.68397400  0.68397400  0.09851400  1
  Li  Li1  1  0.98092500  0.98092500  0.01832300  1
  Li  Li2  1  0.98998500  0.98998500  0.49846200  1
  Li  Li3  1  0.32965100  0.32965100  0.59780300  1
  V  V4  1  0.67559000  0.67559000  0.50123000  1
  V  V5  1  0.36158300  0.36158300  0.02697900  1
  Co  Co6  1  0.82249200  0.82249200  0.78352900  1
  Co  Co7  1  0.17819300  0.65963400  0.29067900  1
  Co  Co8  1  0.65963400  0.17819300  0.29067900  1
  Sn  Sn9  1  0.33376500  0.82622500  0.78465100  1
  Sn  Sn10  1  0.82622500  0.33376500  0.78465100  1
  Sn  Sn11  1  0.17630200  0.17630200  0.28501800  1
  O  O12  1  0.35821700  0.82478700  0.41101800  1
  O  O13  1  0.50966400  0.50966400  0.65797100  1
  O  O14  1  0.66277000  0.66277000  0.89830900  1
  O  O15  1  0.98863400  0.98863400  0.68637900  1
  O  O16  1  0.00189300  0.00189300  0.20789100  1
  O  O17  1  0.82478700  0.35821700  0.41101800  1
  O  O18  1  0.51515300  0.94569800  0.64549500  1
  O  O19  1  0.94569800  0.51515300  0.64549500  1
  O  O20  1  0.14566400  0.14566400  0.90676100  1
  O  O21  1  0.81812500  0.81812500  0.41288400  1
  O  O22  1  0.05561100  0.48225600  0.14573600  1
  O  O23  1  0.48225600  0.05561100  0.14573600  1
  O  O24  1  0.33780800  0.33780800  0.39411700  1
  O  O25  1  0.17814300  0.63983300  0.91272200  1
  O  O26  1  0.48994900  0.48994900  0.13878500  1
  O  O27  1  0.63983300  0.17814300  0.91272200  1
