# generated using pymatgen
data_Li4CoO4
_symmetry_space_group_name_H-M   'P 1'
_cell_length_a   9.35027300
_cell_length_b   9.14289300
_cell_length_c   9.19730447
_cell_angle_alpha   88.77458249
_cell_angle_beta   90.00000000
_cell_angle_gamma   90.00000000
_symmetry_Int_Tables_number   1
_chemical_formula_structural   Li4CoO4
_chemical_formula_sum   'Li32 Co8 O32'
_cell_volume   786.08435962
_cell_formula_units_Z   8
loop_
 _symmetry_equiv_pos_site_id
 _symmetry_equiv_pos_as_xyz
  1  'x, y, z'
loop_
 _atom_site_type_symbol
 _atom_site_label
 _atom_site_symmetry_multiplicity
 _atom_site_fract_x
 _atom_site_fract_y
 _atom_site_fract_z
 _atom_site_occupancy
  Li  Li0  1  0.61681800  0.87134200  0.11187700  1
  Li  Li1  1  0.38318200  0.37134200  0.11187700  1
  Li  Li2  1  0.13101400  0.59699200  0.15573500  1
  Li  Li3  1  0.86898600  0.09699200  0.15573500  1
  Li  Li4  1  0.37945100  0.08392300  0.31904600  1
  Li  Li5  1  0.62054900  0.58392300  0.31904600  1
  Li  Li6  1  0.89122600  0.65257300  0.35838400  1
  Li  Li7  1  0.10877400  0.15257300  0.35838400  1
  Li  Li8  1  0.64955600  0.17583300  0.35599800  1
  Li  Li9  1  0.35044400  0.67583300  0.35599800  1
  Li  Li10  1  0.12010800  0.87051800  0.39934500  1
  Li  Li11  1  0.87989200  0.37051800  0.39934500  1
  Li  Li12  1  0.63020800  0.63606000  0.60051200  1
  Li  Li13  1  0.36979200  0.13606000  0.60051200  1
  Li  Li14  1  0.13311200  0.34314700  0.60607000  1
  Li  Li15  1  0.86688800  0.84314700  0.60607000  1
  Li  Li16  1  0.60192600  0.36983800  0.61643500  1
  Li  Li17  1  0.39807400  0.86983800  0.61643500  1
  Li  Li18  1  0.63303600  0.10270900  0.63950300  1
  Li  Li19  1  0.36696400  0.60270900  0.63950300  1
  Li  Li20  1  0.13483000  0.89791500  0.67072200  1
  Li  Li21  1  0.86517000  0.39791500  0.67072200  1
  Li  Li22  1  0.63198300  0.89212400  0.83046300  1
  Li  Li23  1  0.36801700  0.39212400  0.83046300  1
  Li  Li24  1  0.86708200  0.59897900  0.87974300  1
  Li  Li25  1  0.13291800  0.09897900  0.87974300  1
  Li  Li26  1  0.10382500  0.36252300  0.88880400  1
  Li  Li27  1  0.89617500  0.86252300  0.88880400  1
  Li  Li28  1  0.63579000  0.33753200  0.90538200  1
  Li  Li29  1  0.36421000  0.83753200  0.90538200  1
  Li  Li30  1  0.12984100  0.63440500  0.89189800  1
  Li  Li31  1  0.87015900  0.13440500  0.89189800  1
  Co  Co32  1  0.11105000  0.88685600  0.12735300  1
  Co  Co33  1  0.88895000  0.38685600  0.12735300  1
  Co  Co34  1  0.62536900  0.88209100  0.38609700  1
  Co  Co35  1  0.37463100  0.38209100  0.38609700  1
  Co  Co36  1  0.09879000  0.62161300  0.62045400  1
  Co  Co37  1  0.90121000  0.12161300  0.62045400  1
  Co  Co38  1  0.59778900  0.61656400  0.87550800  1
  Co  Co39  1  0.40221100  0.11656400  0.87550800  1
  O  O40  1  0.00570100  0.49842200  0.00697200  1
  O  O41  1  0.99429900  0.99842200  0.00697200  1
  O  O42  1  0.21154800  0.76632200  0.01671600  1
  O  O43  1  0.78845200  0.26632200  0.01671600  1
  O  O44  1  0.20497200  0.99881200  0.25237800  1
  O  O45  1  0.79502800  0.49881200  0.25237800  1
  O  O46  1  0.03195200  0.75831500  0.25227300  1
  O  O47  1  0.96804800  0.25831500  0.25227300  1
  O  O48  1  0.51815000  0.76825000  0.27516200  1
  O  O49  1  0.48185000  0.26825000  0.27516200  1
  O  O50  1  0.71533800  0.99937600  0.26034900  1
  O  O51  1  0.28466200  0.49937600  0.26034900  1
  O  O52  1  0.74286600  0.75068500  0.47644400  1
  O  O53  1  0.25713400  0.25068500  0.47644400  1
  O  O54  1  0.48762800  0.50465900  0.49841100  1
  O  O55  1  0.51237200  0.00465900  0.49841100  1
  O  O56  1  0.98796300  0.50005700  0.52489000  1
  O  O57  1  0.01203700  0.00005700  0.52489000  1
  O  O58  1  0.23338400  0.74551100  0.53815000  1
  O  O59  1  0.76661600  0.24551100  0.53815000  1
  O  O60  1  0.20915100  0.49985000  0.73945500  1
  O  O61  1  0.79084900  0.99985000  0.73945500  1
  O  O62  1  0.99882300  0.73578600  0.74716500  1
  O  O63  1  0.00117700  0.23578600  0.74716500  1
  O  O64  1  0.49500800  0.73373100  0.74951900  1
  O  O65  1  0.50499200  0.23373100  0.74951900  1
  O  O66  1  0.71083800  0.50225100  0.75835200  1
  O  O67  1  0.28916200  0.00225100  0.75835200  1
  O  O68  1  0.72156100  0.74171400  0.95530300  1
  O  O69  1  0.27843900  0.24171400  0.95530300  1
  O  O70  1  0.49397000  0.48566600  0.96948100  1
  O  O71  1  0.50603000  0.98566600  0.96948100  1
