# generated using pymatgen
data_Li3FeSiO5
_symmetry_space_group_name_H-M   'P 1'
_cell_length_a   4.94562900
_cell_length_b   5.47328300
_cell_length_c   15.80406300
_cell_angle_alpha   90.00000000
_cell_angle_beta   90.00000000
_cell_angle_gamma   90.00000000
_symmetry_Int_Tables_number   1
_chemical_formula_structural   Li3FeSiO5
_chemical_formula_sum   'Li12 Fe4 Si4 O20'
_cell_volume   427.79744930
_cell_formula_units_Z   4
loop_
 _symmetry_equiv_pos_site_id
 _symmetry_equiv_pos_as_xyz
  1  'x, y, z'
loop_
 _atom_site_type_symbol
 _atom_site_label
 _atom_site_symmetry_multiplicity
 _atom_site_fract_x
 _atom_site_fract_y
 _atom_site_fract_z
 _atom_site_occupancy
  Li  Li0  1  0.00256000  0.66419000  0.59163000  1
  Li  Li1  1  0.00256000  0.16419000  0.90837000  1
  Li  Li2  1  0.00733500  0.66532300  0.00588500  1
  Li  Li3  1  0.00733500  0.16532300  0.49411500  1
  Li  Li4  1  0.50256000  0.83581000  0.09163000  1
  Li  Li5  1  0.50388300  0.32015500  0.80483400  1
  Li  Li6  1  0.50388300  0.82015500  0.69516600  1
  Li  Li7  1  0.50256000  0.33581000  0.40837000  1
  Li  Li8  1  0.50733500  0.83467700  0.50588500  1
  Li  Li9  1  0.50733500  0.33467700  0.99411500  1
  Li  Li10  1  0.00388300  0.17984500  0.30483400  1
  Li  Li11  1  0.00388300  0.67984500  0.19516600  1
  Fe  Fe12  1  0.00442800  0.66853200  0.80250900  1
  Fe  Fe13  1  0.50442800  0.83146800  0.30250900  1
  Fe  Fe14  1  0.50442800  0.33146800  0.19749100  1
  Fe  Fe15  1  0.00442800  0.16853200  0.69749100  1
  Si  Si16  1  0.00996900  0.66377200  0.40295900  1
  Si  Si17  1  0.50996900  0.33622800  0.59704100  1
  Si  Si18  1  0.50996900  0.83622800  0.90295900  1
  Si  Si19  1  0.00996900  0.16377200  0.09704100  1
  O  O20  1  0.11031000  0.31691600  0.01438600  1
  O  O21  1  0.10141300  0.83404800  0.70148100  1
  O  O22  1  0.10141300  0.33404800  0.79851900  1
  O  O23  1  0.10684600  0.88255000  0.10117200  1
  O  O24  1  0.10684600  0.38255000  0.39882800  1
  O  O25  1  0.11031000  0.81691600  0.48561400  1
  O  O26  1  0.11491500  0.31191100  0.18585400  1
  O  O27  1  0.11491500  0.81191100  0.31414600  1
  O  O28  1  0.16876900  0.32026500  0.60244700  1
  O  O29  1  0.16876900  0.82026500  0.89755300  1
  O  O30  1  0.61031000  0.18308400  0.51438600  1
  O  O31  1  0.60141300  0.66595200  0.20148100  1
  O  O32  1  0.60141300  0.16595200  0.29851900  1
  O  O33  1  0.60684600  0.61745000  0.60117200  1
  O  O34  1  0.60684600  0.11745000  0.89882800  1
  O  O35  1  0.61031000  0.68308400  0.98561400  1
  O  O36  1  0.61491500  0.18808900  0.68585400  1
  O  O37  1  0.61491500  0.68808900  0.81414600  1
  O  O38  1  0.66876900  0.17973500  0.10244700  1
  O  O39  1  0.66876900  0.67973500  0.39755300  1
