# generated using pymatgen
data_Li2CrSn(PO4)2
_symmetry_space_group_name_H-M   'P 1'
_cell_length_a   6.69137000
_cell_length_b   4.84100800
_cell_length_c   10.73206452
_cell_angle_alpha   86.48368018
_cell_angle_beta   90.00000000
_cell_angle_gamma   90.00000000
_symmetry_Int_Tables_number   1
_chemical_formula_structural   Li2CrSn(PO4)2
_chemical_formula_sum   'Li4 Cr2 Sn2 P4 O16'
_cell_volume   346.98902069
_cell_formula_units_Z   2
loop_
 _symmetry_equiv_pos_site_id
 _symmetry_equiv_pos_as_xyz
  1  'x, y, z'
loop_
 _atom_site_type_symbol
 _atom_site_label
 _atom_site_symmetry_multiplicity
 _atom_site_fract_x
 _atom_site_fract_y
 _atom_site_fract_z
 _atom_site_occupancy
  Li  Li0  1  0.00000000  0.00000000  0.00000000  1
  Li  Li1  1  0.50000000  0.00000000  0.00000000  1
  Li  Li2  1  0.00000000  0.50000000  0.50000000  1
  Li  Li3  1  0.50000000  0.50000000  0.50000000  1
  Cr  Cr4  1  0.25000000  0.55496700  0.78718400  1
  Cr  Cr5  1  0.75000000  0.44503300  0.21281600  1
  Sn  Sn6  1  0.75000000  0.04069000  0.71770500  1
  Sn  Sn7  1  0.25000000  0.95931000  0.28229500  1
  P  P8  1  0.75000000  0.57207900  0.92392000  1
  P  P9  1  0.25000000  0.11671200  0.59722000  1
  P  P10  1  0.75000000  0.88328800  0.40278000  1
  P  P11  1  0.25000000  0.42792100  0.07608000  1
  O  O12  1  0.25000000  0.29545800  0.94575400  1
  O  O13  1  0.75000000  0.25368500  0.93978700  1
  O  O14  1  0.93783000  0.69275200  0.85037800  1
  O  O15  1  0.56217000  0.69275200  0.85037800  1
  O  O16  1  0.43524200  0.24889600  0.65822500  1
  O  O17  1  0.06475800  0.24889600  0.65822500  1
  O  O18  1  0.25000000  0.79526600  0.61356800  1
  O  O19  1  0.75000000  0.77006100  0.54276200  1
  O  O20  1  0.25000000  0.22993900  0.45723800  1
  O  O21  1  0.75000000  0.20473400  0.38643200  1
  O  O22  1  0.93524200  0.75110400  0.34177500  1
  O  O23  1  0.56475800  0.75110400  0.34177500  1
  O  O24  1  0.43783000  0.30724800  0.14962200  1
  O  O25  1  0.06217000  0.30724800  0.14962200  1
  O  O26  1  0.25000000  0.74631500  0.06021300  1
  O  O27  1  0.75000000  0.70454200  0.05424600  1
