# generated using pymatgen
data_Li6Te2O9
_symmetry_space_group_name_H-M   'P 1'
_cell_length_a   6.02968100
_cell_length_b   8.73946891
_cell_length_c   16.25152921
_cell_angle_alpha   85.56676098
_cell_angle_beta   79.60081425
_cell_angle_gamma   70.33270815
_symmetry_Int_Tables_number   1
_chemical_formula_structural   Li6Te2O9
_chemical_formula_sum   'Li24 Te8 O36'
_cell_volume   793.06132897
_cell_formula_units_Z   4
loop_
 _symmetry_equiv_pos_site_id
 _symmetry_equiv_pos_as_xyz
  1  'x, y, z'
loop_
 _atom_site_type_symbol
 _atom_site_label
 _atom_site_symmetry_multiplicity
 _atom_site_fract_x
 _atom_site_fract_y
 _atom_site_fract_z
 _atom_site_occupancy
  Li  Li0  1  0.03533900  0.14520900  0.01213000  1
  Li  Li1  1  0.54538100  0.13188800  0.03002300  1
  Li  Li2  1  0.60196900  0.47564500  0.08518200  1
  Li  Li3  1  0.86028600  0.83920800  0.14792900  1
  Li  Li4  1  0.17978100  0.62900900  0.23133000  1
  Li  Li5  1  0.41159600  0.11893000  0.26826600  1
  Li  Li6  1  0.70538800  0.62506300  0.23009500  1
  Li  Li7  1  0.94954200  0.11436400  0.26945900  1
  Li  Li8  1  0.53378900  0.31872500  0.36315800  1
  Li  Li9  1  0.17216800  0.96898200  0.42075600  1
  Li  Li10  1  0.07153900  0.63596200  0.47093000  1
  Li  Li11  1  0.56455900  0.63177300  0.48400000  1
  Li  Li12  1  0.43544100  0.36822700  0.51600000  1
  Li  Li13  1  0.92846100  0.36403800  0.52907000  1
  Li  Li14  1  0.82783200  0.03101800  0.57924400  1
  Li  Li15  1  0.46621100  0.68127500  0.63684200  1
  Li  Li16  1  0.05045800  0.88563600  0.73054100  1
  Li  Li17  1  0.29461200  0.37493700  0.76990500  1
  Li  Li18  1  0.58840400  0.88107000  0.73173400  1
  Li  Li19  1  0.82021900  0.37099100  0.76867000  1
  Li  Li20  1  0.13971400  0.16079200  0.85207100  1
  Li  Li21  1  0.39803100  0.52435500  0.91481800  1
  Li  Li22  1  0.45461900  0.86811200  0.96997700  1
  Li  Li23  1  0.96466100  0.85479100  0.98787000  1
  Te  Te24  1  0.11712200  0.36984200  0.14710500  1
  Te  Te25  1  0.33248900  0.88715400  0.14660200  1
  Te  Te26  1  0.00359800  0.38549900  0.35216500  1
  Te  Te27  1  0.73528800  0.86748700  0.35182500  1
  Te  Te28  1  0.26471200  0.13251300  0.64817500  1
  Te  Te29  1  0.99640200  0.61450100  0.64783500  1
  Te  Te30  1  0.66751100  0.11284600  0.85339800  1
  Te  Te31  1  0.88287800  0.63015800  0.85289500  1
  O  O32  1  0.40564100  0.34342700  0.07358100  1
  O  O33  1  0.15760700  0.91441700  0.05717300  1
  O  O34  1  0.60925900  0.91019800  0.07420600  1
  O  O35  1  0.92160800  0.32782500  0.08124500  1
  O  O36  1  0.23685800  0.12026700  0.17861500  1
  O  O37  1  0.46261100  0.66001800  0.16048200  1
  O  O38  1  0.99957800  0.59645900  0.14726900  1
  O  O39  1  0.05944300  0.88496100  0.22862500  1
  O  O40  1  0.27272300  0.37586400  0.25302000  1
  O  O41  1  0.60243900  0.86691500  0.24955600  1
  O  O42  1  0.84074600  0.37432900  0.25583000  1
  O  O43  1  0.11568700  0.15780000  0.35629400  1
  O  O44  1  0.65631900  0.09477700  0.33561800  1
  O  O45  1  0.89997600  0.62672500  0.32347500  1
  O  O46  1  0.19520100  0.41389600  0.42826500  1
  O  O47  1  0.48792200  0.83452100  0.42877100  1
  O  O48  1  0.71724100  0.41214200  0.43360900  1
  O  O49  1  0.96877000  0.84342000  0.41855000  1
  O  O50  1  0.03123000  0.15658000  0.58145000  1
  O  O51  1  0.28275900  0.58785800  0.56639100  1
  O  O52  1  0.51207800  0.16547900  0.57122900  1
  O  O53  1  0.80479900  0.58610400  0.57173500  1
  O  O54  1  0.10002400  0.37327500  0.67652500  1
  O  O55  1  0.34368100  0.90522300  0.66438200  1
  O  O56  1  0.88431300  0.84220000  0.64370600  1
  O  O57  1  0.15925400  0.62567100  0.74417000  1
  O  O58  1  0.39756100  0.13308500  0.75044400  1
  O  O59  1  0.72727700  0.62413600  0.74698000  1
  O  O60  1  0.94055700  0.11503900  0.77137500  1
  O  O61  1  0.53738900  0.33998200  0.83951800  1
  O  O62  1  0.76314200  0.87973300  0.82138500  1
  O  O63  1  0.00042200  0.40354100  0.85273100  1
  O  O64  1  0.07839200  0.67217500  0.91875500  1
  O  O65  1  0.39074100  0.08980200  0.92579400  1
  O  O66  1  0.84239300  0.08558300  0.94282700  1
  O  O67  1  0.59435900  0.65657300  0.92641900  1
