# generated using pymatgen
data_Li4Ti3Mn2V3O16
_symmetry_space_group_name_H-M   'P 1'
_cell_length_a   5.94495700
_cell_length_b   5.95316686
_cell_length_c   9.93486100
_cell_angle_alpha   90.35649639
_cell_angle_beta   90.14773711
_cell_angle_gamma   119.93728035
_symmetry_Int_Tables_number   1
_chemical_formula_structural   Li4Ti3Mn2V3O16
_chemical_formula_sum   'Li4 Ti3 Mn2 V3 O16'
_cell_volume   304.68114626
_cell_formula_units_Z   1
loop_
 _symmetry_equiv_pos_site_id
 _symmetry_equiv_pos_as_xyz
  1  'x, y, z'
loop_
 _atom_site_type_symbol
 _atom_site_label
 _atom_site_symmetry_multiplicity
 _atom_site_fract_x
 _atom_site_fract_y
 _atom_site_fract_z
 _atom_site_occupancy
  Li  Li0  1  0.66778400  0.32855300  0.10683500  1
  Li  Li1  1  0.99721400  0.00286000  0.00265900  1
  Li  Li2  1  0.99575300  0.99803900  0.50131300  1
  Li  Li3  1  0.33186300  0.66443800  0.60681100  1
  Ti  Ti4  1  0.33837900  0.16562100  0.78117100  1
  Ti  Ti5  1  0.83263400  0.66246800  0.78335700  1
  Ti  Ti6  1  0.17260000  0.82972300  0.28135100  1
  Mn  Mn7  1  0.67180400  0.33668800  0.50319600  1
  Mn  Mn8  1  0.33810000  0.67320600  0.00346000  1
  V  V9  1  0.83469400  0.17086000  0.78873500  1
  V  V10  1  0.66306300  0.82240800  0.28537100  1
  V  V11  1  0.16709300  0.33156100  0.28804200  1
  O  O12  1  0.31021900  0.16731500  0.39164500  1
  O  O13  1  0.51136500  0.48176200  0.67575700  1
  O  O14  1  0.66191100  0.33695100  0.89459900  1
  O  O15  1  0.99970900  0.00086000  0.68482600  1
  O  O16  1  0.00170300  0.99645600  0.18568700  1
  O  O17  1  0.84998000  0.68805100  0.39248800  1
  O  O18  1  0.52213300  0.03575000  0.67686800  1
  O  O19  1  0.96653700  0.48835200  0.67297800  1
  O  O20  1  0.15550500  0.84870300  0.89231300  1
  O  O21  1  0.83480600  0.14344400  0.38908700  1
  O  O22  1  0.03706500  0.50371300  0.17634900  1
  O  O23  1  0.47665700  0.96723400  0.17294900  1
  O  O24  1  0.33226400  0.66902500  0.39522600  1
  O  O25  1  0.14275300  0.31214200  0.89136400  1
  O  O26  1  0.49771300  0.52702400  0.17535000  1
  O  O27  1  0.68840000  0.84649100  0.89236800  1
