# generated using pymatgen
data_Li4V5Sb3O16
_symmetry_space_group_name_H-M   'P 1'
_cell_length_a   6.13390000
_cell_length_b   6.21876815
_cell_length_c   9.77938851
_cell_angle_alpha   90.86116048
_cell_angle_beta   90.03342463
_cell_angle_gamma   118.93442864
_symmetry_Int_Tables_number   1
_chemical_formula_structural   Li4V5Sb3O16
_chemical_formula_sum   'Li4 V5 Sb3 O16'
_cell_volume   326.42288253
_cell_formula_units_Z   1
loop_
 _symmetry_equiv_pos_site_id
 _symmetry_equiv_pos_as_xyz
  1  'x, y, z'
loop_
 _atom_site_type_symbol
 _atom_site_label
 _atom_site_symmetry_multiplicity
 _atom_site_fract_x
 _atom_site_fract_y
 _atom_site_fract_z
 _atom_site_occupancy
  Li  Li0  1  0.65951700  0.33335600  0.88433100  1
  Li  Li1  1  0.99153600  0.01052000  0.99294800  1
  Li  Li2  1  0.99829000  0.01152700  0.50093500  1
  Li  Li3  1  0.32137200  0.65795800  0.40047600  1
  V  V4  1  0.67318900  0.31951200  0.48880700  1
  V  V5  1  0.35341400  0.67795200  0.98021100  1
  V  V6  1  0.83088800  0.16707600  0.21191200  1
  V  V7  1  0.66482700  0.83238600  0.71251100  1
  V  V8  1  0.16858600  0.33695900  0.71525600  1
  Sb  Sb9  1  0.83226200  0.66117900  0.21320100  1
  Sb  Sb10  1  0.34060900  0.16849100  0.21254600  1
  Sb  Sb11  1  0.17028500  0.83066700  0.71407200  1
  O  O12  1  0.84686100  0.68348800  0.60159100  1
  O  O13  1  0.49767600  0.45299600  0.35216900  1
  O  O14  1  0.64549200  0.30767600  0.09421500  1
  O  O15  1  0.02073200  0.02269800  0.31674500  1
  O  O16  1  0.00753000  0.99879800  0.81268500  1
  O  O17  1  0.32226100  0.15433600  0.60594100  1
  O  O18  1  0.95032700  0.44963100  0.35088200  1
  O  O19  1  0.51342900  0.02965200  0.33183900  1
  O  O20  1  0.18487700  0.85986400  0.08985200  1
  O  O21  1  0.83622200  0.15985600  0.60943300  1
  O  O22  1  0.47960100  0.96288000  0.83547400  1
  O  O23  1  0.04386200  0.53160200  0.84060100  1
  O  O24  1  0.32664400  0.66711900  0.60418000  1
  O  O25  1  0.67304500  0.85854400  0.09253000  1
  O  O26  1  0.48134000  0.53141900  0.83829800  1
  O  O27  1  0.16562600  0.32215800  0.10419800  1
