# generated using pymatgen
data_Li3VO3F
_symmetry_space_group_name_H-M   'P 1'
_cell_length_a   7.22962847
_cell_length_b   7.20149869
_cell_length_c   7.23562174
_cell_angle_alpha   109.81070662
_cell_angle_beta   109.72726587
_cell_angle_gamma   108.95361680
_symmetry_Int_Tables_number   1
_chemical_formula_structural   Li3VO3F
_chemical_formula_sum   'Li12 V4 O12 F4'
_cell_volume   289.70256889
_cell_formula_units_Z   4
loop_
 _symmetry_equiv_pos_site_id
 _symmetry_equiv_pos_as_xyz
  1  'x, y, z'
loop_
 _atom_site_type_symbol
 _atom_site_label
 _atom_site_symmetry_multiplicity
 _atom_site_fract_x
 _atom_site_fract_y
 _atom_site_fract_z
 _atom_site_occupancy
  Li  Li0  1  0.98428239  0.49932637  0.24417719  1
  Li  Li1  1  0.51616374  0.00693073  0.26418121  1
  Li  Li2  1  0.75326106  0.26481459  0.75792270  1
  Li  Li3  1  0.75159836  0.48567616  0.48200296  1
  Li  Li4  1  0.73630545  0.72948008  0.23997900  1
  Li  Li5  1  0.25612864  0.50120817  0.99667392  1
  Li  Li6  1  0.48857374  0.48144186  0.75866029  1
  Li  Li7  1  0.50870254  0.26112711  0.00269486  1
  Li  Li8  1  0.00075586  0.25224166  0.50400074  1
  Li  Li9  1  0.50690446  0.74228071  0.50437555  1
  Li  Li10  1  0.26203203  0.00445655  0.51377928  1
  Li  Li11  1  0.24655766  0.73630388  0.74045480  1
  V  V12  1  0.74128187  0.01936195  0.00017398  1
  V  V13  1  0.25680574  0.27623234  0.25696938  1
  V  V14  1  0.97691874  0.73289760  0.97654605  1
  V  V15  1  0.00002311  0.02094777  0.74055027  1
  O  O16  1  0.75556237  0.23139511  0.24175148  1
  O  O17  1  0.76228658  0.52078875  0.99969083  1
  O  O18  1  0.22244310  0.00693270  0.99824418  1
  O  O19  1  0.99884022  0.24433500  0.00040981  1
  O  O20  1  0.99675630  0.99528252  0.21863689  1
  O  O21  1  0.48507819  0.47923613  0.24858263  1
  O  O22  1  0.51832475  0.98778223  0.76507407  1
  O  O23  1  0.00570465  0.53057219  0.77416751  1
  O  O24  1  0.24688943  0.47055265  0.48108959  1
  O  O25  1  0.76597873  0.99157032  0.51983192  1
  O  O26  1  0.23784451  0.23129548  0.75109799  1
  O  O27  1  0.76721543  0.77067543  0.76512916  1
  F  F28  1  0.49393110  0.24381903  0.49100670  1
  F  F29  1  0.24667506  0.76251653  0.25035057  1
  F  F30  1  0.50230167  0.76024685  0.00615866  1
  F  F31  1  0.00787351  0.75827358  0.50563582  1
