# generated using pymatgen
data_LiCrPO4
_symmetry_space_group_name_H-M   'P 1'
_cell_length_a   4.98581700
_cell_length_b   7.94449600
_cell_length_c   9.18334200
_cell_angle_alpha   90.00000000
_cell_angle_beta   90.00000000
_cell_angle_gamma   90.00000000
_symmetry_Int_Tables_number   1
_chemical_formula_structural   LiCrPO4
_chemical_formula_sum   'Li4 Cr4 P4 O16'
_cell_volume   363.75036946
_cell_formula_units_Z   4
loop_
 _symmetry_equiv_pos_site_id
 _symmetry_equiv_pos_as_xyz
  1  'x, y, z'
loop_
 _atom_site_type_symbol
 _atom_site_label
 _atom_site_symmetry_multiplicity
 _atom_site_fract_x
 _atom_site_fract_y
 _atom_site_fract_z
 _atom_site_occupancy
  Li  Li0  1  0.94706800  0.04868800  0.61714300  1
  Li  Li1  1  0.44706800  0.45131200  0.11714300  1
  Li  Li2  1  0.94706800  0.54868800  0.88285700  1
  Li  Li3  1  0.44706800  0.95131200  0.38285700  1
  Cr  Cr4  1  0.96823900  0.16511400  0.03940700  1
  Cr  Cr5  1  0.46823900  0.33488600  0.53940700  1
  Cr  Cr6  1  0.96823900  0.66511400  0.46059300  1
  Cr  Cr7  1  0.46823900  0.83488600  0.96059300  1
  P  P8  1  0.56299700  0.23076000  0.85358100  1
  P  P9  1  0.06299700  0.26924000  0.35358100  1
  P  P10  1  0.56299700  0.73076000  0.64641900  1
  P  P11  1  0.06299700  0.76924000  0.14641900  1
  O  O12  1  0.65008800  0.05983900  0.92724200  1
  O  O13  1  0.21091500  0.13856700  0.45688000  1
  O  O14  1  0.26189800  0.26053000  0.85023700  1
  O  O15  1  0.69079500  0.22420200  0.69927300  1
  O  O16  1  0.19079500  0.27579800  0.19927300  1
  O  O17  1  0.76189800  0.23947000  0.35023700  1
  O  O18  1  0.71091500  0.36143300  0.95688000  1
  O  O19  1  0.15008800  0.44016100  0.42724200  1
  O  O20  1  0.65008800  0.55983900  0.57275800  1
  O  O21  1  0.21091500  0.63856700  0.04312000  1
  O  O22  1  0.26189800  0.76053000  0.64976300  1
  O  O23  1  0.69079500  0.72420200  0.80072700  1
  O  O24  1  0.19079500  0.77579800  0.30072700  1
  O  O25  1  0.76189800  0.73947000  0.14976300  1
  O  O26  1  0.71091500  0.86143300  0.54312000  1
  O  O27  1  0.15008800  0.94016100  0.07275800  1
