# generated using pymatgen
data_Li4V5O9F
_symmetry_space_group_name_H-M   'P 1'
_cell_length_a   5.23388761
_cell_length_b   5.18582326
_cell_length_c   8.02792497
_cell_angle_alpha   71.24087243
_cell_angle_beta   70.62723590
_cell_angle_gamma   79.25072745
_symmetry_Int_Tables_number   1
_chemical_formula_structural   Li4V5O9F
_chemical_formula_sum   'Li4 V5 O9 F1'
_cell_volume   193.85865696
_cell_formula_units_Z   1
loop_
 _symmetry_equiv_pos_site_id
 _symmetry_equiv_pos_as_xyz
  1  'x, y, z'
loop_
 _atom_site_type_symbol
 _atom_site_label
 _atom_site_symmetry_multiplicity
 _atom_site_fract_x
 _atom_site_fract_y
 _atom_site_fract_z
 _atom_site_occupancy
  Li  Li0  1  0.49650276  0.70651989  0.09735843  1
  Li  Li1  1  0.49394789  0.09385843  0.31444017  1
  Li  Li2  1  0.50541618  0.50747802  0.49166288  1
  Li  Li3  1  0.51679300  0.31590873  0.89888187  1
  V  V4  1  0.99965775  0.99622525  0.00594970  1
  V  V5  1  -0.00009970  0.39533478  0.19823657  1
  V  V6  1  0.99144110  0.19451860  0.59702365  1
  V  V7  1  0.98997171  0.79450244  0.40387105  1
  V  V8  1  0.99219351  0.61663603  0.79971481  1
  O  O9  1  0.22684721  0.04648895  0.15127081  1
  O  O10  1  0.22291695  0.44077401  0.36154680  1
  O  O11  1  0.21113352  0.84443490  0.55213177  1
  O  O12  1  0.21420412  0.64479266  0.96168350  1
  O  O13  1  0.77627970  0.35560274  0.03546107  1
  O  O14  1  0.77694419  0.15925088  0.43167494  1
  O  O15  1  0.76949668  0.74780914  0.24994117  1
  O  O16  1  0.78282188  0.53290014  0.65201335  1
  O  O17  1  0.78370956  0.96803101  0.84902860  1
  F  F18  1  0.24147097  0.26044639  0.75330587  1
