# generated using pymatgen
data_Li4CrO4
_symmetry_space_group_name_H-M   'P 1'
_cell_length_a   5.44383986
_cell_length_b   10.88763244
_cell_length_c   6.16964000
_cell_angle_alpha   90.00008273
_cell_angle_beta   89.99991727
_cell_angle_gamma   93.63035896
_symmetry_Int_Tables_number   1
_chemical_formula_structural   Li4CrO4
_chemical_formula_sum   'Li16 Cr4 O16'
_cell_volume   364.94401814
_cell_formula_units_Z   4
loop_
 _symmetry_equiv_pos_site_id
 _symmetry_equiv_pos_as_xyz
  1  'x, y, z'
loop_
 _atom_site_type_symbol
 _atom_site_label
 _atom_site_symmetry_multiplicity
 _atom_site_fract_x
 _atom_site_fract_y
 _atom_site_fract_z
 _atom_site_occupancy
  Li  Li0  1  0.16100600  0.41949200  0.49999900  1
  Li  Li1  1  0.16100800  0.91949100  0.49999700  1
  Li  Li2  1  0.16100600  0.41949200  0.00000100  1
  Li  Li3  1  0.16100700  0.91949100  0.00000300  1
  Li  Li4  1  0.83899300  0.08050800  0.99999600  1
  Li  Li5  1  0.83899500  0.58050700  0.00000000  1
  Li  Li6  1  0.83899300  0.08050800  0.50000400  1
  Li  Li7  1  0.83899400  0.58050700  0.50000100  1
  Li  Li8  1  0.12561000  0.21060400  0.75000100  1
  Li  Li9  1  0.12561200  0.71060200  0.75000000  1
  Li  Li10  1  0.57878900  0.43719100  0.25000100  1
  Li  Li11  1  0.57878500  0.93719000  0.25000000  1
  Li  Li12  1  0.87438900  0.28939700  0.25000000  1
  Li  Li13  1  0.87439000  0.78939600  0.25000000  1
  Li  Li14  1  0.42121500  0.06280900  0.75000000  1
  Li  Li15  1  0.42121000  0.56280900  0.75000100  1
  Cr  Cr16  1  0.33915900  0.66957500  0.25000400  1
  Cr  Cr17  1  0.66085200  0.33042900  0.74999900  1
  Cr  Cr18  1  0.33915800  0.16957800  0.24999600  1
  Cr  Cr19  1  0.66083200  0.83042600  0.75000200  1
  O  O20  1  0.26567900  0.32966400  0.25000100  1
  O  O21  1  0.26567800  0.82966700  0.25000200  1
  O  O22  1  0.34067600  0.36716200  0.75000000  1
  O  O23  1  0.34067800  0.86716000  0.74999800  1
  O  O24  1  0.73431800  0.17033400  0.74999900  1
  O  O25  1  0.73432100  0.67033600  0.75000000  1
  O  O26  1  0.65932000  0.13284000  0.24999700  1
  O  O27  1  0.65932600  0.63283800  0.25000100  1
  O  O28  1  0.20324200  0.10162000  0.49498700  1
  O  O29  1  0.20324000  0.60162100  0.49499100  1
  O  O30  1  0.79676100  0.39837900  0.50500900  1
  O  O31  1  0.79675700  0.89838000  0.50501200  1
  O  O32  1  0.79676000  0.39837800  0.99499000  1
  O  O33  1  0.79676000  0.89837900  0.99498900  1
  O  O34  1  0.20324000  0.10162000  0.00501100  1
  O  O35  1  0.20324000  0.60162000  0.00500700  1
