# generated using pymatgen
data_Li2Cr3NiO8
_symmetry_space_group_name_H-M   'P 1'
_cell_length_a   5.82798023
_cell_length_b   5.82798023
_cell_length_c   9.63609500
_cell_angle_alpha   90.00000000
_cell_angle_beta   90.00000000
_cell_angle_gamma   120.00000263
_symmetry_Int_Tables_number   1
_chemical_formula_structural   Li2Cr3NiO8
_chemical_formula_sum   'Li4 Cr6 Ni2 O16'
_cell_volume   283.44436869
_cell_formula_units_Z   2
loop_
 _symmetry_equiv_pos_site_id
 _symmetry_equiv_pos_as_xyz
  1  'x, y, z'
loop_
 _atom_site_type_symbol
 _atom_site_label
 _atom_site_symmetry_multiplicity
 _atom_site_fract_x
 _atom_site_fract_y
 _atom_site_fract_z
 _atom_site_occupancy
  Li  Li0  1  0.33333300  0.66666700  0.89358700  1
  Li  Li1  1  0.00000000  0.00000000  0.99788600  1
  Li  Li2  1  0.00000000  0.00000000  0.49788600  1
  Li  Li3  1  0.66666700  0.33333300  0.39358700  1
  Cr  Cr4  1  0.16861500  0.83138500  0.21381600  1
  Cr  Cr5  1  0.16861500  0.33722900  0.21381600  1
  Cr  Cr6  1  0.66277100  0.83138500  0.21381600  1
  Cr  Cr7  1  0.33722900  0.16861500  0.71381600  1
  Cr  Cr8  1  0.83138500  0.66277100  0.71381600  1
  Cr  Cr9  1  0.83138500  0.16861500  0.71381600  1
  Ni  Ni10  1  0.33333300  0.66666700  0.49000700  1
  Ni  Ni11  1  0.66666700  0.33333300  0.99000700  1
  O  O12  1  0.15967100  0.84032900  0.61027300  1
  O  O13  1  0.03825400  0.51912700  0.32743100  1
  O  O14  1  0.33333300  0.66666700  0.10264300  1
  O  O15  1  0.00000000  0.00000000  0.31533400  1
  O  O16  1  0.00000000  0.00000000  0.81533400  1
  O  O17  1  0.15967100  0.31934100  0.61027300  1
  O  O18  1  0.48087300  0.96174600  0.32743100  1
  O  O19  1  0.48087300  0.51912700  0.32743100  1
  O  O20  1  0.31934100  0.15967100  0.11027300  1
  O  O21  1  0.68065900  0.84032900  0.61027300  1
  O  O22  1  0.51912700  0.48087300  0.82743100  1
  O  O23  1  0.51912700  0.03825400  0.82743100  1
  O  O24  1  0.66666700  0.33333300  0.60264300  1
  O  O25  1  0.84032900  0.68065900  0.11027300  1
  O  O26  1  0.96174600  0.48087300  0.82743100  1
  O  O27  1  0.84032900  0.15967100  0.11027300  1
