# generated using pymatgen
data_Li3V(PO4)2
_symmetry_space_group_name_H-M   'P 1'
_cell_length_a   7.14174683
_cell_length_b   10.09891472
_cell_length_c   10.09804425
_cell_angle_alpha   115.89373816
_cell_angle_beta   83.66931686
_cell_angle_gamma   96.33158069
_symmetry_Int_Tables_number   1
_chemical_formula_structural   Li3V(PO4)2
_chemical_formula_sum   'Li12 V4 P8 O32'
_cell_volume   649.62262401
_cell_formula_units_Z   4
loop_
 _symmetry_equiv_pos_site_id
 _symmetry_equiv_pos_as_xyz
  1  'x, y, z'
loop_
 _atom_site_type_symbol
 _atom_site_label
 _atom_site_symmetry_multiplicity
 _atom_site_fract_x
 _atom_site_fract_y
 _atom_site_fract_z
 _atom_site_occupancy
  Li  Li0  1  0.36072700  0.85910300  0.89102500  1
  Li  Li1  1  0.36077600  0.35905100  0.39098600  1
  Li  Li2  1  0.63927300  0.14090100  0.10897700  1
  Li  Li3  1  0.63922000  0.64095100  0.60901300  1
  Li  Li4  1  0.39068600  0.28676800  0.96336100  1
  Li  Li5  1  0.39057100  0.78665500  0.46328900  1
  Li  Li6  1  0.60931700  0.71323300  0.03664000  1
  Li  Li7  1  0.60942700  0.21334500  0.53670800  1
  Li  Li8  1  0.68968600  0.54383800  0.20650300  1
  Li  Li9  1  0.68999600  0.04365500  0.70607800  1
  Li  Li10  1  0.31031900  0.45616500  0.79349700  1
  Li  Li11  1  0.31000500  0.95634600  0.29392200  1
  V  V12  1  0.97086600  0.74779000  0.50232200  1
  V  V13  1  0.02913200  0.25220800  0.49767600  1
  V  V14  1  0.97090100  0.24772900  0.00217300  1
  V  V15  1  0.02910100  0.75226900  0.99782600  1
  P  P16  1  0.78026100  0.39724200  0.35261300  1
  P  P17  1  0.78029800  0.89730100  0.85271200  1
  P  P18  1  0.21973900  0.60275900  0.64738700  1
  P  P19  1  0.21970100  0.10269800  0.14728900  1
  P  P20  1  0.24602800  0.57930500  0.17078500  1
  P  P21  1  0.24628500  0.07936700  0.67065300  1
  P  P22  1  0.75397400  0.42069200  0.82921400  1
  P  P23  1  0.75371500  0.92063300  0.32934700  1
  O  O24  1  0.96396900  0.86059700  0.88948700  1
  O  O25  1  0.96397600  0.36055300  0.38935500  1
  O  O26  1  0.03603100  0.13940200  0.11051500  1
  O  O27  1  0.03602200  0.63944700  0.61064600  1
  O  O28  1  0.39405500  0.16528300  0.08463600  1
  O  O29  1  0.39402900  0.66550500  0.58482400  1
  O  O30  1  0.60594400  0.83471700  0.91536600  1
  O  O31  1  0.60596900  0.33449500  0.41517300  1
  O  O32  1  0.46398300  0.59160800  0.15841300  1
  O  O33  1  0.46426600  0.09176300  0.65825800  1
  O  O34  1  0.53601800  0.40839200  0.84159300  1
  O  O35  1  0.53573400  0.90823700  0.34173800  1
  O  O36  1  0.83419500  0.34062900  0.90902300  1
  O  O37  1  0.83399900  0.84074000  0.40932000  1
  O  O38  1  0.16581100  0.65936700  0.09097200  1
  O  O39  1  0.16599600  0.15926300  0.59068500  1
  O  O40  1  0.76931500  0.33931700  0.18122800  1
  O  O41  1  0.76935700  0.83927200  0.68133900  1
  O  O42  1  0.76924300  0.56859900  0.41065500  1
  O  O43  1  0.76935900  0.06862100  0.91056700  1
  O  O44  1  0.23075600  0.43140200  0.58934500  1
  O  O45  1  0.23064100  0.93137900  0.08943500  1
  O  O46  1  0.23068800  0.66068600  0.81877200  1
  O  O47  1  0.23064100  0.16072800  0.31866200  1
  O  O48  1  0.17781700  0.41307000  0.09405500  1
  O  O49  1  0.17803500  0.91312300  0.59406800  1
  O  O50  1  0.17778500  0.65580500  0.33705100  1
  O  O51  1  0.17807600  0.15598600  0.83691100  1
  O  O52  1  0.82221100  0.34419600  0.66294700  1
  O  O53  1  0.82192800  0.84401100  0.16309000  1
  O  O54  1  0.82218500  0.58692700  0.90594700  1
  O  O55  1  0.82196300  0.08687600  0.40593000  1
