# generated using pymatgen
data_LiMn2(PO4)3
_symmetry_space_group_name_H-M   'P 1'
_cell_length_a   8.53562000
_cell_length_b   8.44919900
_cell_length_c   14.41524229
_cell_angle_alpha   54.56341321
_cell_angle_beta   90.00000000
_cell_angle_gamma   90.00000000
_symmetry_Int_Tables_number   1
_chemical_formula_structural   LiMn2(PO4)3
_chemical_formula_sum   'Li4 Mn8 P12 O48'
_cell_volume   847.03439153
_cell_formula_units_Z   4
loop_
 _symmetry_equiv_pos_site_id
 _symmetry_equiv_pos_as_xyz
  1  'x, y, z'
loop_
 _atom_site_type_symbol
 _atom_site_label
 _atom_site_symmetry_multiplicity
 _atom_site_fract_x
 _atom_site_fract_y
 _atom_site_fract_z
 _atom_site_occupancy
  Li  Li0  1  0.22098500  0.03052600  0.17828700  1
  Li  Li1  1  0.72098500  0.96947400  0.32171300  1
  Li  Li2  1  0.27901500  0.03052600  0.67828700  1
  Li  Li3  1  0.77901500  0.96947400  0.82171300  1
  Mn  Mn4  1  0.53748700  0.13887100  0.11396400  1
  Mn  Mn5  1  0.96128300  0.37106600  0.87855000  1
  Mn  Mn6  1  0.46128300  0.62893400  0.62145000  1
  Mn  Mn7  1  0.03748700  0.86112900  0.38603600  1
  Mn  Mn8  1  0.96251300  0.13887100  0.61396400  1
  Mn  Mn9  1  0.53871700  0.37106600  0.37855000  1
  Mn  Mn10  1  0.03871700  0.62893400  0.12145000  1
  Mn  Mn11  1  0.46251300  0.86112900  0.88603600  1
  P  P12  1  0.74930900  0.53164900  0.49949700  1
  P  P13  1  0.61179200  0.25388100  0.85194800  1
  P  P14  1  0.88997500  0.95693300  0.14343000  1
  P  P15  1  0.38997500  0.04306700  0.35657000  1
  P  P16  1  0.11179200  0.74611900  0.64805200  1
  P  P17  1  0.24930900  0.46835100  0.00050300  1
  P  P18  1  0.75069100  0.53164900  0.99949700  1
  P  P19  1  0.88820800  0.25388100  0.35194800  1
  P  P20  1  0.61002500  0.95693300  0.64343000  1
  P  P21  1  0.11002500  0.04306700  0.85657000  1
  P  P22  1  0.38820800  0.74611900  0.14805200  1
  P  P23  1  0.25069100  0.46835100  0.50050300  1
  O  O24  1  0.13768700  0.63492500  0.41881600  1
  O  O25  1  0.31924100  0.48341100  0.59378300  1
  O  O26  1  0.11163500  0.23213300  0.84878100  1
  O  O27  1  0.40502900  0.91578500  0.16122400  1
  O  O28  1  0.62775400  0.53767700  0.57491700  1
  O  O29  1  0.78535100  0.31287300  0.81909200  1
  O  O30  1  0.83655200  0.73123700  0.43172900  1
  O  O31  1  0.58000400  0.17672900  0.97593700  1
  O  O32  1  0.93665600  0.13436300  0.02651800  1
  O  O33  1  0.72587000  0.97932500  0.18139500  1
  O  O34  1  0.01189700  0.94464100  0.22801800  1
  O  O35  1  0.49040500  0.41263500  0.77742700  1
  O  O36  1  0.99040500  0.58736500  0.72257300  1
  O  O37  1  0.51189700  0.05535900  0.27198200  1
  O  O38  1  0.22587000  0.02067500  0.31860500  1
  O  O39  1  0.43665600  0.86563700  0.47348200  1
  O  O40  1  0.08000400  0.82327100  0.52406300  1
  O  O41  1  0.33655200  0.26876300  0.06827100  1
  O  O42  1  0.28535100  0.68712700  0.68090800  1
  O  O43  1  0.12775400  0.46232300  0.92508300  1
  O  O44  1  0.90502900  0.08421500  0.33877600  1
  O  O45  1  0.61163500  0.76786700  0.65121900  1
  O  O46  1  0.81924100  0.51658900  0.90621700  1
  O  O47  1  0.63768700  0.36507500  0.08118400  1
  O  O48  1  0.36231300  0.63492500  0.91881600  1
  O  O49  1  0.18075900  0.48341100  0.09378300  1
  O  O50  1  0.38836500  0.23213300  0.34878100  1
  O  O51  1  0.09497100  0.91578500  0.66122400  1
  O  O52  1  0.87224600  0.53767700  0.07491700  1
  O  O53  1  0.71464900  0.31287300  0.31909200  1
  O  O54  1  0.66344800  0.73123700  0.93172900  1
  O  O55  1  0.91999600  0.17672900  0.47593700  1
  O  O56  1  0.56334400  0.13436300  0.52651800  1
  O  O57  1  0.77413000  0.97932500  0.68139500  1
  O  O58  1  0.48810300  0.94464100  0.72801800  1
  O  O59  1  0.00959500  0.41263500  0.27742700  1
  O  O60  1  0.50959500  0.58736500  0.22257300  1
  O  O61  1  0.98810300  0.05535900  0.77198200  1
  O  O62  1  0.27413000  0.02067500  0.81860500  1
  O  O63  1  0.06334400  0.86563700  0.97348200  1
  O  O64  1  0.41999600  0.82327100  0.02406300  1
  O  O65  1  0.16344800  0.26876300  0.56827100  1
  O  O66  1  0.21464900  0.68712700  0.18090800  1
  O  O67  1  0.37224600  0.46232300  0.42508300  1
  O  O68  1  0.59497100  0.08421500  0.83877600  1
  O  O69  1  0.88836500  0.76786700  0.15121900  1
  O  O70  1  0.68075900  0.51658900  0.40621700  1
  O  O71  1  0.86231300  0.36507500  0.58118400  1
