# generated using pymatgen
data_Li3V3P8O29
_symmetry_space_group_name_H-M   'P 1'
_cell_length_a   9.76127775
_cell_length_b   9.76127775
_cell_length_c   13.94801193
_cell_angle_alpha   89.69279272
_cell_angle_beta   89.69279272
_cell_angle_gamma   60.22416005
_symmetry_Int_Tables_number   1
_chemical_formula_structural   Li3V3P8O29
_chemical_formula_sum   'Li6 V6 P16 O58'
_cell_volume   1153.51831217
_cell_formula_units_Z   2
loop_
 _symmetry_equiv_pos_site_id
 _symmetry_equiv_pos_as_xyz
  1  'x, y, z'
loop_
 _atom_site_type_symbol
 _atom_site_label
 _atom_site_symmetry_multiplicity
 _atom_site_fract_x
 _atom_site_fract_y
 _atom_site_fract_z
 _atom_site_occupancy
  Li  Li0  1  0.09533800  0.67815100  0.44270100  1
  Li  Li1  1  0.67815100  0.09533800  0.94270100  1
  Li  Li2  1  0.09242800  0.22579900  0.94102700  1
  Li  Li3  1  0.77225100  0.91213300  0.55949600  1
  Li  Li4  1  0.22579900  0.09242800  0.44102700  1
  Li  Li5  1  0.91213300  0.77225100  0.05949600  1
  V  V6  1  0.56228400  0.00265200  0.75029500  1
  V  V7  1  0.43542900  0.99343200  0.24580000  1
  V  V8  1  0.00265200  0.56228400  0.25029500  1
  V  V9  1  0.99343200  0.43542900  0.74580000  1
  V  V10  1  0.43399000  0.56426800  0.75100400  1
  V  V11  1  0.56426800  0.43399000  0.25100400  1
  P  P12  1  0.23058500  0.68778900  0.15374100  1
  P  P13  1  0.08946900  0.68294600  0.65996800  1
  P  P14  1  0.68778900  0.23058500  0.65374100  1
  P  P15  1  0.33050300  0.33326000  0.87219200  1
  P  P16  1  0.33326000  0.33050300  0.37219200  1
  P  P17  1  0.68294600  0.08946900  0.15996800  1
  P  P18  1  0.77020100  0.91099600  0.34292400  1
  P  P19  1  0.08688300  0.22763500  0.15739900  1
  P  P20  1  0.91099600  0.77020100  0.84292400  1
  P  P21  1  0.22763500  0.08688300  0.65739900  1
  P  P22  1  0.31375600  0.91129800  0.84202100  1
  P  P23  1  0.66383700  0.66952400  0.62720000  1
  P  P24  1  0.66952400  0.66383700  0.12720000  1
  P  P25  1  0.31347200  0.76976000  0.34215500  1
  P  P26  1  0.91129800  0.31375600  0.34202100  1
  P  P27  1  0.76976000  0.31347200  0.84215500  1
  O  O28  1  0.23143300  0.76138100  0.42958300  1
  O  O29  1  0.25702500  0.65830700  0.66381000  1
  O  O30  1  0.99125100  0.76135700  0.93450600  1
  O  O31  1  0.08543600  0.65940600  0.16285500  1
  O  O32  1  0.38305100  0.52645300  0.17653600  1
  O  O33  1  0.33325500  0.47963300  0.82596800  1
  O  O34  1  0.52645300  0.38305100  0.67653600  1
  O  O35  1  0.76138100  0.23143300  0.92958300  1
  O  O36  1  0.65830700  0.25702500  0.16381000  1
  O  O37  1  0.18254800  0.48573900  0.32979600  1
  O  O38  1  0.09599500  0.52159100  0.67783900  1
  O  O39  1  0.47963300  0.33325500  0.32596800  1
  O  O40  1  0.33877400  0.32593200  0.97848500  1
  O  O41  1  0.32593200  0.33877400  0.47848500  1
  O  O42  1  0.48573900  0.18254800  0.82979600  1
  O  O43  1  0.09610500  0.38110100  0.17822100  1
  O  O44  1  0.18234200  0.33014200  0.83169500  1
  O  O45  1  0.65940600  0.08543600  0.66285500  1
  O  O46  1  0.79384700  0.99876700  0.25055500  1
  O  O47  1  0.76135700  0.99125100  0.43450600  1
  O  O48  1  0.75631000  0.99981000  0.06965900  1
  O  O49  1  0.52159100  0.09599500  0.17783900  1
  O  O50  1  0.33014200  0.18234200  0.33169500  1
  O  O51  1  0.74226200  0.91678100  0.83828900  1
  O  O52  1  0.38110100  0.09610500  0.67822100  1
  O  O53  1  0.08597000  0.25647200  0.66719500  1
  O  O54  1  0.99876700  0.79384700  0.75055500  1
  O  O55  1  0.99981000  0.75631000  0.56965900  1
  O  O56  1  0.00537600  0.23498200  0.42793000  1
  O  O57  1  0.91678100  0.74226200  0.33828900  1
  O  O58  1  0.61772900  0.90397800  0.32148100  1
  O  O59  1  0.25647200  0.08597000  0.16719500  1
  O  O60  1  0.66946100  0.81842800  0.66932400  1
  O  O61  1  0.47554800  0.90561500  0.82179500  1
  O  O62  1  0.23498200  0.00537600  0.92793000  1
  O  O63  1  0.24093900  0.00802400  0.56505500  1
  O  O64  1  0.20786300  0.99441000  0.74664200  1
  O  O65  1  0.33967100  0.91511600  0.33963200  1
  O  O66  1  0.81842800  0.66946100  0.16932400  1
  O  O67  1  0.90397800  0.61772900  0.82148100  1
  O  O68  1  0.51979900  0.81478500  0.17338500  1
  O  O69  1  0.66901000  0.67247600  0.02131600  1
  O  O70  1  0.67247600  0.66901000  0.52131600  1
  O  O71  1  0.51997500  0.66601100  0.67331500  1
  O  O72  1  0.90561500  0.47554800  0.32179500  1
  O  O73  1  0.81478500  0.51979900  0.67338500  1
  O  O74  1  0.34304500  0.74150700  0.83601000  1
  O  O75  1  0.20829500  0.79342900  0.24825100  1
  O  O76  1  0.23526400  0.76535600  0.06403800  1
  O  O77  1  0.47531200  0.61772300  0.32413300  1
  O  O78  1  0.66601100  0.51997500  0.17331500  1
  O  O79  1  0.61772300  0.47531200  0.82413300  1
  O  O80  1  0.91511600  0.33967100  0.83963200  1
  O  O81  1  0.00802400  0.24093900  0.06505500  1
  O  O82  1  0.99441000  0.20786300  0.24664200  1
  O  O83  1  0.74150700  0.34304500  0.33601000  1
  O  O84  1  0.76535600  0.23526400  0.56403800  1
  O  O85  1  0.79342900  0.20829500  0.74825100  1
