# generated using pymatgen
data_Li3CrO3
_symmetry_space_group_name_H-M   'P 1'
_cell_length_a   5.45596946
_cell_length_b   5.45596946
_cell_length_c   9.81178800
_cell_angle_alpha   90.00000000
_cell_angle_beta   90.00000000
_cell_angle_gamma   119.99999347
_symmetry_Int_Tables_number   1
_chemical_formula_structural   Li3CrO3
_chemical_formula_sum   'Li12 Cr4 O12'
_cell_volume   252.94300737
_cell_formula_units_Z   4
loop_
 _symmetry_equiv_pos_site_id
 _symmetry_equiv_pos_as_xyz
  1  'x, y, z'
loop_
 _atom_site_type_symbol
 _atom_site_label
 _atom_site_symmetry_multiplicity
 _atom_site_fract_x
 _atom_site_fract_y
 _atom_site_fract_z
 _atom_site_occupancy
  Li  Li0  1  0.67971600  0.05681700  0.07777700  1
  Li  Li1  1  0.62289900  0.94318300  0.57777700  1
  Li  Li2  1  0.32028400  0.37710100  0.57777700  1
  Li  Li3  1  0.37710100  0.05681700  0.42222300  1
  Li  Li4  1  0.37710100  0.32028400  0.07777700  1
  Li  Li5  1  0.32028400  0.94318300  0.92222300  1
  Li  Li6  1  0.05681700  0.37710100  0.92222300  1
  Li  Li7  1  0.94318300  0.62289900  0.07777700  1
  Li  Li8  1  0.05681700  0.67971600  0.57777700  1
  Li  Li9  1  0.94318300  0.32028400  0.42222300  1
  Li  Li10  1  0.67971600  0.62289900  0.42222300  1
  Li  Li11  1  0.62289900  0.67971600  0.92222300  1
  Cr  Cr12  1  0.66666700  0.33333300  0.75000000  1
  Cr  Cr13  1  0.33333300  0.66666700  0.25000000  1
  Cr  Cr14  1  0.00000000  0.00000000  0.25000000  1
  Cr  Cr15  1  0.00000000  0.00000000  0.75000000  1
  O  O16  1  0.70574200  0.04371800  0.86816800  1
  O  O17  1  0.66202500  0.95628200  0.36816800  1
  O  O18  1  0.33797500  0.04371800  0.63183200  1
  O  O19  1  0.29425800  0.95628200  0.13183200  1
  O  O20  1  0.33797500  0.29425800  0.86816800  1
  O  O21  1  0.29425800  0.33797500  0.36816800  1
  O  O22  1  0.04371800  0.70574200  0.36816800  1
  O  O23  1  0.04371800  0.33797500  0.13183200  1
  O  O24  1  0.95628200  0.66202500  0.86816800  1
  O  O25  1  0.95628200  0.29425800  0.63183200  1
  O  O26  1  0.70574200  0.66202500  0.63183200  1
  O  O27  1  0.66202500  0.70574200  0.13183200  1
