# generated using pymatgen
data_LiCoPO4
_symmetry_space_group_name_H-M   'P 1'
_cell_length_a   5.49907325
_cell_length_b   6.25941608
_cell_length_c   9.21474296
_cell_angle_alpha   103.87493173
_cell_angle_beta   83.67965766
_cell_angle_gamma   103.55396832
_symmetry_Int_Tables_number   1
_chemical_formula_structural   LiCoPO4
_chemical_formula_sum   'Li4 Co4 P4 O16'
_cell_volume   298.86150628
_cell_formula_units_Z   4
loop_
 _symmetry_equiv_pos_site_id
 _symmetry_equiv_pos_as_xyz
  1  'x, y, z'
loop_
 _atom_site_type_symbol
 _atom_site_label
 _atom_site_symmetry_multiplicity
 _atom_site_fract_x
 _atom_site_fract_y
 _atom_site_fract_z
 _atom_site_occupancy
  Li  Li0  1  0.64896700  0.01186200  0.24205900  1
  Li  Li1  1  0.35107500  0.98811300  0.75793000  1
  Li  Li2  1  0.20471700  0.15277000  0.41619100  1
  Li  Li3  1  0.79529000  0.84721500  0.58379000  1
  Co  Co4  1  0.84873900  0.54604800  0.28723800  1
  Co  Co5  1  0.15126000  0.45395300  0.71276500  1
  Co  Co6  1  0.27698100  0.33456000  0.08598300  1
  Co  Co7  1  0.72301300  0.66545100  0.91400200  1
  P  P8  1  0.19518000  0.80234000  0.04908200  1
  P  P9  1  0.80478600  0.19767300  0.95092600  1
  P  P10  1  0.32100600  0.67783200  0.42352200  1
  P  P11  1  0.67901700  0.32216000  0.57648000  1
  O  O12  1  0.38690600  0.66288700  0.06467600  1
  O  O13  1  0.61307800  0.33712800  0.93531900  1
  O  O14  1  0.92692000  0.71149400  0.11480900  1
  O  O15  1  0.07304200  0.28850600  0.88519800  1
  O  O16  1  0.84826400  0.22329600  0.11959100  1
  O  O17  1  0.15170300  0.77672100  0.88041300  1
  O  O18  1  0.30330400  0.04516500  0.13216000  1
  O  O19  1  0.69663800  0.95485500  0.86785100  1
  O  O20  1  0.13005200  0.81930700  0.40726600  1
  O  O21  1  0.86995000  0.18067300  0.59274500  1
  O  O22  1  0.59363600  0.77273500  0.36747000  1
  O  O23  1  0.40638600  0.22727800  0.63253300  1
  O  O24  1  0.21585300  0.43640100  0.32811500  1
  O  O25  1  0.78418900  0.56359300  0.67188400  1
  O  O26  1  0.66642800  0.32047400  0.40875800  1
  O  O27  1  0.33362100  0.67950900  0.59124200  1
