# generated using pymatgen
data_Li2CoOF3
_symmetry_space_group_name_H-M   'P 1'
_cell_length_a   5.84049837
_cell_length_b   8.65447574
_cell_length_c   5.87025570
_cell_angle_alpha   90.94549148
_cell_angle_beta   89.99518310
_cell_angle_gamma   89.99884449
_symmetry_Int_Tables_number   1
_chemical_formula_structural   Li2CoOF3
_chemical_formula_sum   'Li8 Co4 O4 F12'
_cell_volume   296.68019377
_cell_formula_units_Z   4
loop_
 _symmetry_equiv_pos_site_id
 _symmetry_equiv_pos_as_xyz
  1  'x, y, z'
loop_
 _atom_site_type_symbol
 _atom_site_label
 _atom_site_symmetry_multiplicity
 _atom_site_fract_x
 _atom_site_fract_y
 _atom_site_fract_z
 _atom_site_occupancy
  Li  Li0  1  0.25000800  0.25000000  0.25000100  1
  Li  Li1  1  0.74999200  0.75000000  0.74999900  1
  Li  Li2  1  0.25000100  0.25000500  0.74999900  1
  Li  Li3  1  0.74999900  0.74999400  0.25000100  1
  Li  Li4  1  0.74999700  0.36824400  0.47605200  1
  Li  Li5  1  0.25000500  0.86823800  0.97605900  1
  Li  Li6  1  0.74999500  0.13176200  0.02394100  1
  Li  Li7  1  0.25000200  0.63175700  0.52394800  1
  Co  Co8  1  0.00000000  0.50000000  0.00000000  1
  Co  Co9  1  0.00000000  0.00000000  0.50000100  1
  Co  Co10  1  0.50000000  0.00000000  0.50000000  1
  Co  Co11  1  0.50000000  0.50000000  0.00000000  1
  O  O12  1  0.75000600  0.00003300  0.31169500  1
  O  O13  1  0.25002500  0.50003200  0.81169100  1
  O  O14  1  0.74997600  0.49996800  0.18830900  1
  O  O15  1  0.24999200  0.99996600  0.68830700  1
  F  F16  1  0.24999100  0.49120800  0.26033300  1
  F  F17  1  0.75000600  0.99121000  0.76033500  1
  F  F18  1  0.24999300  0.00879000  0.23966400  1
  F  F19  1  0.75001100  0.50879100  0.73966700  1
  F  F20  1  0.48702000  0.26402000  0.00080900  1
  F  F21  1  0.98704900  0.76403100  0.50083000  1
  F  F22  1  0.01295800  0.26404100  0.00083400  1
  F  F23  1  0.51298500  0.76401600  0.50081300  1
  F  F24  1  0.48701500  0.23598700  0.49918600  1
  F  F25  1  0.98704200  0.73596000  0.99916700  1
  F  F26  1  0.01295100  0.23596800  0.49916900  1
  F  F27  1  0.51298200  0.73598000  0.99919000  1
