# generated using pymatgen
data_Li2AlVO4
_symmetry_space_group_name_H-M   'P 1'
_cell_length_a   4.99265600
_cell_length_b   6.44350600
_cell_length_c   11.07945900
_cell_angle_alpha   90.00000000
_cell_angle_beta   90.00000000
_cell_angle_gamma   90.00000000
_symmetry_Int_Tables_number   1
_chemical_formula_structural   Li2AlVO4
_chemical_formula_sum   'Li8 Al4 V4 O16'
_cell_volume   356.42851044
_cell_formula_units_Z   4
loop_
 _symmetry_equiv_pos_site_id
 _symmetry_equiv_pos_as_xyz
  1  'x, y, z'
loop_
 _atom_site_type_symbol
 _atom_site_label
 _atom_site_symmetry_multiplicity
 _atom_site_fract_x
 _atom_site_fract_y
 _atom_site_fract_z
 _atom_site_occupancy
  Li  Li0  1  0.75320900  0.00341000  0.16900500  1
  Li  Li1  1  0.75450800  0.24858300  0.91208200  1
  Li  Li2  1  0.75450800  0.25141700  0.41208200  1
  Li  Li3  1  0.75320900  0.49659000  0.66900500  1
  Li  Li4  1  0.25320900  0.50341000  0.33099500  1
  Li  Li5  1  0.25450800  0.74858300  0.58791800  1
  Li  Li6  1  0.25450800  0.75141700  0.08791800  1
  Li  Li7  1  0.25320900  0.99659000  0.83099500  1
  Al  Al8  1  0.26070900  0.00523900  0.33201100  1
  Al  Al9  1  0.26070900  0.49476100  0.83201100  1
  Al  Al10  1  0.76070900  0.50523900  0.16798900  1
  Al  Al11  1  0.76070900  0.99476100  0.66798900  1
  V  V12  1  0.25369400  0.24555000  0.58260800  1
  V  V13  1  0.25369400  0.25445000  0.08260800  1
  V  V14  1  0.75369400  0.74555000  0.91739200  1
  V  V15  1  0.75369400  0.75445000  0.41739200  1
  O  O16  1  0.11885500  0.00403600  0.66453600  1
  O  O17  1  0.15703800  0.01261500  0.17765100  1
  O  O18  1  0.15883200  0.26631200  0.91292500  1
  O  O19  1  0.64627900  0.22453100  0.59258200  1
  O  O20  1  0.64627900  0.27546900  0.09258200  1
  O  O21  1  0.15883200  0.23368800  0.41292500  1
  O  O22  1  0.15703800  0.48738500  0.67765100  1
  O  O23  1  0.11885500  0.49596400  0.16453600  1
  O  O24  1  0.61885500  0.50403600  0.83546400  1
  O  O25  1  0.65703800  0.51261500  0.32234900  1
  O  O26  1  0.65883200  0.76631200  0.58707500  1
  O  O27  1  0.14627900  0.72453100  0.90741800  1
  O  O28  1  0.14627900  0.77546900  0.40741800  1
  O  O29  1  0.65883200  0.73368800  0.08707500  1
  O  O30  1  0.65703800  0.98738500  0.82234900  1
  O  O31  1  0.61885500  0.99596400  0.33546400  1
