# generated using pymatgen
data_Li5V3P8O29
_symmetry_space_group_name_H-M   'P 1'
_cell_length_a   9.79655100
_cell_length_b   9.80514938
_cell_length_c   13.90568281
_cell_angle_alpha   89.89517160
_cell_angle_beta   89.84710733
_cell_angle_gamma   60.07409069
_symmetry_Int_Tables_number   1
_chemical_formula_structural   Li5V3P8O29
_chemical_formula_sum   'Li10 V6 P16 O58'
_cell_volume   1157.63728329
_cell_formula_units_Z   2
loop_
 _symmetry_equiv_pos_site_id
 _symmetry_equiv_pos_as_xyz
  1  'x, y, z'
loop_
 _atom_site_type_symbol
 _atom_site_label
 _atom_site_symmetry_multiplicity
 _atom_site_fract_x
 _atom_site_fract_y
 _atom_site_fract_z
 _atom_site_occupancy
  Li  Li0  1  0.67483200  0.09624200  0.43764100  1
  Li  Li1  1  0.23113900  0.68039100  0.43706100  1
  Li  Li2  1  0.33716000  0.33274200  0.11796700  1
  Li  Li3  1  0.09078000  0.68417900  0.94229700  1
  Li  Li4  1  0.22596700  0.08611800  0.93996200  1
  Li  Li5  1  0.90807600  0.77224700  0.55881400  1
  Li  Li6  1  0.09515900  0.22701100  0.43920300  1
  Li  Li7  1  0.77291700  0.90825000  0.06174000  1
  Li  Li8  1  0.90526200  0.31889200  0.05988200  1
  Li  Li9  1  0.77198800  0.32209900  0.55914000  1
  V  V10  1  0.99969100  0.56831300  0.74973900  1
  V  V11  1  0.99840900  0.43345600  0.24997300  1
  V  V12  1  0.56579800  0.00045100  0.25199300  1
  V  V13  1  0.43604800  0.99296900  0.74514000  1
  V  V14  1  0.56260100  0.43284600  0.75675000  1
  V  V15  1  0.43460600  0.57109400  0.24625500  1
  P  P16  1  0.68324300  0.22908900  0.15804500  1
  P  P17  1  0.68214700  0.08865800  0.65950900  1
  P  P18  1  0.23288300  0.68163500  0.65485000  1
  P  P19  1  0.33040600  0.33149300  0.87330900  1
  P  P20  1  0.33212700  0.33672100  0.37362400  1
  P  P21  1  0.09076200  0.68035300  0.15824400  1
  P  P22  1  0.91224000  0.76810900  0.34217800  1
  P  P23  1  0.23000500  0.08867300  0.15447900  1
  P  P24  1  0.76835800  0.91267900  0.84393600  1
  P  P25  1  0.08876200  0.23154900  0.65909200  1
  P  P26  1  0.91040500  0.32050800  0.84148300  1
  P  P27  1  0.66939800  0.66242300  0.62735600  1
  P  P28  1  0.66890200  0.66746300  0.12532900  1
  P  P29  1  0.76664800  0.31837000  0.34405500  1
  P  P30  1  0.31360400  0.91638200  0.34139200  1
  P  P31  1  0.31369300  0.77151900  0.84120100  1
  O  O32  1  0.75527200  0.24144600  0.43505900  1
  O  O33  1  0.66110900  0.25563400  0.66054000  1
  O  O34  1  0.75833200  0.99396200  0.93529400  1
  O  O35  1  0.66371800  0.08045200  0.15952300  1
  O  O36  1  0.51574300  0.37323400  0.17374800  1
  O  O37  1  0.48124800  0.33195400  0.82884000  1
  O  O38  1  0.38338900  0.52178400  0.67949700  1
  O  O39  1  0.23147100  0.76112700  0.92778800  1
  O  O40  1  0.25620800  0.66186100  0.15983400  1
  O  O41  1  0.48580000  0.18727700  0.33390300  1
  O  O42  1  0.52108200  0.09687400  0.67694500  1
  O  O43  1  0.32826900  0.48750700  0.33189000  1
  O  O44  1  0.33418800  0.33205900  0.98099500  1
  O  O45  1  0.32937100  0.33504100  0.48094600  1
  O  O46  1  0.18540100  0.48533000  0.83503100  1
  O  O47  1  0.37270300  0.11354700  0.17503200  1
  O  O48  1  0.33071800  0.18216600  0.83349500  1
  O  O49  1  0.08490200  0.66233600  0.66072800  1
  O  O50  1  0.00013400  0.78944000  0.24965000  1
  O  O51  1  0.00219200  0.75765900  0.43203400  1
  O  O52  1  0.99827600  0.75661500  0.06910300  1
  O  O53  1  0.11141900  0.51374000  0.17390300  1
  O  O54  1  0.18314800  0.33160600  0.33137300  1
  O  O55  1  0.91560900  0.74555600  0.83868600  1
  O  O56  1  0.09735000  0.38204600  0.67631100  1
  O  O57  1  0.25660800  0.08639400  0.66560900  1
  O  O58  1  0.79074200  0.00123200  0.75109100  1
  O  O59  1  0.75794500  0.00049700  0.56857800  1
  O  O60  1  0.23160300  0.01008100  0.42746700  1
  O  O61  1  0.74819400  0.91838300  0.34179300  1
  O  O62  1  0.90029800  0.61995600  0.32589900  1
  O  O63  1  0.07964000  0.25400200  0.15830800  1
  O  O64  1  0.81408500  0.67303900  0.66693300  1
  O  O65  1  0.90031700  0.47953400  0.82367700  1
  O  O66  1  0.99753600  0.24100800  0.93131500  1
  O  O67  1  0.00167200  0.24012500  0.56895500  1
  O  O68  1  0.99991900  0.20829300  0.75027500  1
  O  O69  1  0.91496800  0.33427800  0.34269200  1
  O  O70  1  0.67231600  0.81513700  0.16556900  1
  O  O71  1  0.61709200  0.90449300  0.82082700  1
  O  O72  1  0.81981100  0.51442600  0.16868500  1
  O  O73  1  0.67538200  0.65955600  0.01858600  1
  O  O74  1  0.66548800  0.66669900  0.52061100  1
  O  O75  1  0.66955400  0.51336300  0.66973500  1
  O  O76  1  0.47526200  0.90777000  0.32261300  1
  O  O77  1  0.51838100  0.81350600  0.67357600  1
  O  O78  1  0.74290500  0.34101200  0.83491000  1
  O  O79  1  0.78540100  0.20644600  0.25460400  1
  O  O80  1  0.76852700  0.23859500  0.07295100  1
  O  O81  1  0.61621000  0.47746900  0.32560900  1
  O  O82  1  0.52402200  0.66557400  0.17126600  1
  O  O83  1  0.47709300  0.61836400  0.82450100  1
  O  O84  1  0.33890500  0.91586900  0.83920100  1
  O  O85  1  0.24228400  0.00467500  0.06352100  1
  O  O86  1  0.21269900  0.99593400  0.24496700  1
  O  O87  1  0.33656400  0.74869500  0.34037100  1
  O  O88  1  0.24438500  0.75077400  0.56272800  1
  O  O89  1  0.21240300  0.79408400  0.74505300  1
