# generated using pymatgen
data_Li2MnF5
_symmetry_space_group_name_H-M   'P 1'
_cell_length_a   6.35248300
_cell_length_b   6.91665500
_cell_length_c   9.87884400
_cell_angle_alpha   90.00000000
_cell_angle_beta   90.00000000
_cell_angle_gamma   90.00000000
_symmetry_Int_Tables_number   1
_chemical_formula_structural   Li2MnF5
_chemical_formula_sum   'Li8 Mn4 F20'
_cell_volume   434.05598880
_cell_formula_units_Z   4
loop_
 _symmetry_equiv_pos_site_id
 _symmetry_equiv_pos_as_xyz
  1  'x, y, z'
loop_
 _atom_site_type_symbol
 _atom_site_label
 _atom_site_symmetry_multiplicity
 _atom_site_fract_x
 _atom_site_fract_y
 _atom_site_fract_z
 _atom_site_occupancy
  Li  Li0  1  0.76201800  0.25390900  0.04623400  1
  Li  Li1  1  0.23920300  0.54864300  0.17526500  1
  Li  Li2  1  0.73920300  0.04864300  0.32473500  1
  Li  Li3  1  0.26201800  0.75390900  0.45376600  1
  Li  Li4  1  0.73798200  0.25390900  0.54623400  1
  Li  Li5  1  0.26079700  0.54864300  0.67526500  1
  Li  Li6  1  0.76079700  0.04864300  0.82473500  1
  Li  Li7  1  0.23798200  0.75390900  0.95376600  1
  Mn  Mn8  1  0.74056500  0.73727300  0.09208500  1
  Mn  Mn9  1  0.24056500  0.23727300  0.40791500  1
  Mn  Mn10  1  0.75943500  0.73727300  0.59208500  1
  Mn  Mn11  1  0.25943500  0.23727300  0.90791500  1
  F  F12  1  0.03597500  0.72911900  0.09857700  1
  F  F13  1  0.44547400  0.73099800  0.09714000  1
  F  F14  1  0.24619400  0.29954900  0.10645500  1
  F  F15  1  0.74006200  0.47711000  0.14188300  1
  F  F16  1  0.74182200  0.01401700  0.13788000  1
  F  F17  1  0.24006200  0.97711000  0.35811700  1
  F  F18  1  0.24182200  0.51401700  0.36212000  1
  F  F19  1  0.74619400  0.79954900  0.39354500  1
  F  F20  1  0.94547400  0.23099800  0.40286000  1
  F  F21  1  0.53597500  0.22911900  0.40142300  1
  F  F22  1  0.46402500  0.72911900  0.59857700  1
  F  F23  1  0.05452600  0.73099800  0.59714000  1
  F  F24  1  0.25380600  0.29954900  0.60645500  1
  F  F25  1  0.75993800  0.47711000  0.64188300  1
  F  F26  1  0.75817800  0.01401700  0.63788000  1
  F  F27  1  0.25993800  0.97711000  0.85811700  1
  F  F28  1  0.25817800  0.51401700  0.86212000  1
  F  F29  1  0.75380600  0.79954900  0.89354500  1
  F  F30  1  0.55452600  0.23099800  0.90286000  1
  F  F31  1  0.96402500  0.22911900  0.90142300  1
