# generated using pymatgen
data_Li5Mn3(SnO5)2
_symmetry_space_group_name_H-M   'P 1'
_cell_length_a   5.37185895
_cell_length_b   8.12885767
_cell_length_c   10.67590330
_cell_angle_alpha   101.20193929
_cell_angle_beta   101.56262216
_cell_angle_gamma   107.20831044
_symmetry_Int_Tables_number   1
_chemical_formula_structural   Li5Mn3(SnO5)2
_chemical_formula_sum   'Li10 Mn6 Sn4 O20'
_cell_volume   419.96026190
_cell_formula_units_Z   2
loop_
 _symmetry_equiv_pos_site_id
 _symmetry_equiv_pos_as_xyz
  1  'x, y, z'
loop_
 _atom_site_type_symbol
 _atom_site_label
 _atom_site_symmetry_multiplicity
 _atom_site_fract_x
 _atom_site_fract_y
 _atom_site_fract_z
 _atom_site_occupancy
  Li  Li0  1  0.49999100  0.50000300  0.24999800  1
  Li  Li1  1  0.50000000  0.50000400  0.75000500  1
  Li  Li2  1  0.90677200  0.40061300  0.11461600  1
  Li  Li3  1  0.90679900  0.40064900  0.61464800  1
  Li  Li4  1  0.09317000  0.59933800  0.38535200  1
  Li  Li5  1  0.09321900  0.59940800  0.88539100  1
  Li  Li6  1  0.28315300  0.77868800  0.19751100  1
  Li  Li7  1  0.28309600  0.77865200  0.69755100  1
  Li  Li8  1  0.71688500  0.22134200  0.30245800  1
  Li  Li9  1  0.71683100  0.22132300  0.80247200  1
  Mn  Mn10  1  0.50004300  0.00000300  0.49999700  1
  Mn  Mn11  1  0.89107700  0.89676800  0.84623600  1
  Mn  Mn12  1  0.10892600  0.10323300  0.15377500  1
  Mn  Mn13  1  0.50007700  0.00000000  0.99998500  1
  Mn  Mn14  1  0.89104700  0.89676100  0.34622300  1
  Mn  Mn15  1  0.10897500  0.10325200  0.65377400  1
  Sn  Sn16  1  0.70467100  0.69372300  0.05048000  1
  Sn  Sn17  1  0.70467200  0.69367200  0.55048600  1
  Sn  Sn18  1  0.29535000  0.30626600  0.44952600  1
  Sn  Sn19  1  0.29532800  0.30632700  0.94952300  1
  O  O20  1  0.07753700  0.84219700  0.02798100  1
  O  O21  1  0.07752500  0.84220500  0.52797900  1
  O  O22  1  0.92246000  0.15778800  0.47202600  1
  O  O23  1  0.92243700  0.15781400  0.97201500  1
  O  O24  1  0.68678800  0.93997800  0.16039900  1
  O  O25  1  0.68679700  0.93995800  0.66040300  1
  O  O26  1  0.31323100  0.06001000  0.33961800  1
  O  O27  1  0.31318900  0.06004800  0.83958100  1
  O  O28  1  0.32366100  0.54743000  0.07290400  1
  O  O29  1  0.32368200  0.54743200  0.57290400  1
  O  O30  1  0.67631200  0.45257800  0.42709100  1
  O  O31  1  0.67632100  0.45257200  0.92710400  1
  O  O32  1  0.49604100  0.22818100  0.10957000  1
  O  O33  1  0.49603400  0.22808000  0.60956000  1
  O  O34  1  0.50396300  0.77182800  0.39041500  1
  O  O35  1  0.50395300  0.77186200  0.89042800  1
  O  O36  1  0.89521400  0.65578500  0.22328500  1
  O  O37  1  0.89523900  0.65579400  0.72328700  1
  O  O38  1  0.10476400  0.34422000  0.27672200  1
  O  O39  1  0.10476900  0.34421200  0.77672100  1
