# generated using pymatgen
data_Li2VF4
_symmetry_space_group_name_H-M   'P 1'
_cell_length_a   8.87401821
_cell_length_b   8.87401821
_cell_length_c   8.87401830
_cell_angle_alpha   108.79467278
_cell_angle_beta   108.79467278
_cell_angle_gamma   108.79467711
_symmetry_Int_Tables_number   1
_chemical_formula_structural   Li2VF4
_chemical_formula_sum   'Li12 V6 F24'
_cell_volume   551.00924870
_cell_formula_units_Z   6
loop_
 _symmetry_equiv_pos_site_id
 _symmetry_equiv_pos_as_xyz
  1  'x, y, z'
loop_
 _atom_site_type_symbol
 _atom_site_label
 _atom_site_symmetry_multiplicity
 _atom_site_fract_x
 _atom_site_fract_y
 _atom_site_fract_z
 _atom_site_occupancy
  Li  Li0  1  0.92000400  0.03115500  0.28993100  1
  Li  Li1  1  0.71006900  0.07999600  0.96884500  1
  Li  Li2  1  0.63446100  0.21450800  0.34653700  1
  Li  Li3  1  0.96884500  0.71006900  0.07999600  1
  Li  Li4  1  0.65346300  0.36553900  0.78549200  1
  Li  Li5  1  0.78549200  0.65346300  0.36553900  1
  Li  Li6  1  0.21450800  0.34653700  0.63446100  1
  Li  Li7  1  0.34653700  0.63446100  0.21450800  1
  Li  Li8  1  0.03115500  0.28993100  0.92000400  1
  Li  Li9  1  0.36553900  0.78549200  0.65346300  1
  Li  Li10  1  0.28993100  0.92000400  0.03115500  1
  Li  Li11  1  0.07999600  0.96884500  0.71006900  1
  V  V12  1  0.70945800  0.02599000  0.54276100  1
  V  V13  1  0.97401000  0.45723900  0.29054200  1
  V  V14  1  0.45723900  0.29054200  0.97401000  1
  V  V15  1  0.54276100  0.70945800  0.02599000  1
  V  V16  1  0.02599000  0.54276100  0.70945800  1
  V  V17  1  0.29054200  0.97401000  0.45723900  1
  F  F18  1  0.79469500  0.11096300  0.81339200  1
  F  F19  1  0.63320100  0.96004500  0.26750400  1
  F  F20  1  0.88903700  0.18660800  0.20530500  1
  F  F21  1  0.03995500  0.73249600  0.36679900  1
  F  F22  1  0.81995900  0.46380600  0.43957200  1
  F  F23  1  0.46762000  0.15450900  0.12445600  1
  F  F24  1  0.87554400  0.53238000  0.84549100  1
  F  F25  1  0.73249600  0.36679900  0.03995500  1
  F  F26  1  0.56042800  0.18004100  0.53619400  1
  F  F27  1  0.53619400  0.56042800  0.18004100  1
  F  F28  1  0.18660800  0.20530500  0.88903700  1
  F  F29  1  0.84549100  0.87554400  0.53238000  1
  F  F30  1  0.15450900  0.12445600  0.46762000  1
  F  F31  1  0.81339200  0.79469500  0.11096300  1
  F  F32  1  0.46380600  0.43957200  0.81995900  1
  F  F33  1  0.43957200  0.81995900  0.46380600  1
  F  F34  1  0.26750400  0.63320100  0.96004500  1
  F  F35  1  0.12445600  0.46762000  0.15450900  1
  F  F36  1  0.53238000  0.84549100  0.87554400  1
  F  F37  1  0.18004100  0.53619400  0.56042800  1
  F  F38  1  0.96004500  0.26750400  0.63320100  1
  F  F39  1  0.11096300  0.81339200  0.79469500  1
  F  F40  1  0.36679900  0.03995500  0.73249600  1
  F  F41  1  0.20530500  0.88903700  0.18660800  1
