# generated using pymatgen
data_Li4Mn2OF7
_symmetry_space_group_name_H-M   'P 1'
_cell_length_a   6.08941082
_cell_length_b   8.53942171
_cell_length_c   6.14099874
_cell_angle_alpha   88.58972091
_cell_angle_beta   88.46435914
_cell_angle_gamma   88.01668063
_symmetry_Int_Tables_number   1
_chemical_formula_structural   Li4Mn2OF7
_chemical_formula_sum   'Li8 Mn4 O2 F14'
_cell_volume   318.93664448
_cell_formula_units_Z   2
loop_
 _symmetry_equiv_pos_site_id
 _symmetry_equiv_pos_as_xyz
  1  'x, y, z'
loop_
 _atom_site_type_symbol
 _atom_site_label
 _atom_site_symmetry_multiplicity
 _atom_site_fract_x
 _atom_site_fract_y
 _atom_site_fract_z
 _atom_site_occupancy
  Li  Li0  1  0.74848200  0.74915800  0.75106700  1
  Li  Li1  1  0.24857200  0.24918100  0.25100900  1
  Li  Li2  1  0.99409000  0.49881200  0.01369900  1
  Li  Li3  1  0.49418700  0.99882000  0.51370900  1
  Li  Li4  1  0.24880900  0.89386600  0.00182300  1
  Li  Li5  1  0.74871200  0.39392800  0.50181200  1
  Li  Li6  1  0.25467700  0.61219000  0.48736900  1
  Li  Li7  1  0.75452900  0.11221800  0.98735100  1
  Mn  Mn8  1  0.24960800  0.23884900  0.75014200  1
  Mn  Mn9  1  0.51061600  0.49884300  0.01069800  1
  Mn  Mn10  1  0.74985900  0.73907400  0.25017200  1
  Mn  Mn11  1  0.01064500  0.99879500  0.51056000  1
  O  O12  1  0.74776800  0.52873700  0.24002300  1
  O  O13  1  0.24772300  0.02850000  0.74007900  1
  F  F14  1  0.74031900  0.98743100  0.72958700  1
  F  F15  1  0.24023300  0.48742700  0.22963700  1
  F  F16  1  0.51927700  0.75351000  0.48802700  1
  F  F17  1  0.01910000  0.25347400  0.98810100  1
  F  F18  1  0.75386600  0.97399000  0.25889500  1
  F  F19  1  0.25372200  0.47386200  0.75885700  1
  F  F20  1  0.99063200  0.74777100  0.50091400  1
  F  F21  1  0.49047200  0.24775900  0.00081300  1
  F  F22  1  0.50845600  0.75507900  0.99471800  1
  F  F23  1  0.00836000  0.25506500  0.49464500  1
  F  F24  1  0.97747200  0.74873200  0.00950000  1
  F  F25  1  0.47728200  0.24868800  0.50954800  1
  F  F26  1  0.75624500  0.51311700  0.76365300  1
  F  F27  1  0.25628800  0.01312000  0.26359600  1
