# generated using pymatgen
data_Li2MnV(PO4)3
_symmetry_space_group_name_H-M   'P 1'
_cell_length_a   8.91915214
_cell_length_b   8.50260241
_cell_length_c   8.31364400
_cell_angle_alpha   59.47637180
_cell_angle_beta   63.61698314
_cell_angle_gamma   91.43449374
_symmetry_Int_Tables_number   1
_chemical_formula_structural   Li2MnV(PO4)3
_chemical_formula_sum   'Li4 Mn2 V2 P6 O24'
_cell_volume   460.13899550
_cell_formula_units_Z   2
loop_
 _symmetry_equiv_pos_site_id
 _symmetry_equiv_pos_as_xyz
  1  'x, y, z'
loop_
 _atom_site_type_symbol
 _atom_site_label
 _atom_site_symmetry_multiplicity
 _atom_site_fract_x
 _atom_site_fract_y
 _atom_site_fract_z
 _atom_site_occupancy
  Li  Li0  1  0.16059751  0.33100693  0.93884629  1
  Li  Li1  1  0.86402838  0.68493066  0.04878251  1
  Li  Li2  1  0.86783815  0.92280384  0.39938799  1
  Li  Li3  1  0.86187315  0.26534165  0.81249766  1
  Mn  Mn4  1  0.05307360  0.35347075  0.30349481  1
  Mn  Mn5  1  0.95605234  0.64953863  0.69380581  1
  V  V6  1  0.55943268  0.85454106  0.29357499  1
  V  V7  1  0.43341564  0.14093218  0.71215098  1
  P  P8  1  0.25041580  0.03785241  0.21422471  1
  P  P9  1  0.25240574  0.45311313  0.50256486  1
  P  P10  1  0.24762846  0.75340796  0.78548088  1
  P  P11  1  0.75559560  0.25115027  0.21074109  1
  P  P12  1  0.74966845  0.53800057  0.49548681  1
  P  P13  1  0.74563625  0.96837158  0.78422656  1
  O  O14  1  0.09221387  0.84296954  0.37750283  1
  O  O15  1  0.26822063  0.12211802  0.98828847  1
  O  O16  1  0.21178548  0.17626770  0.27773255  1
  O  O17  1  0.20244636  0.48499148  0.33721944  1
  O  O18  1  0.09943607  0.43406528  0.70680977  1
  O  O19  1  0.08973599  0.77938794  0.74943319  1
  O  O20  1  0.42661128  0.00048314  0.19119594  1
  O  O21  1  0.29817843  0.26332869  0.59792085  1
  O  O22  1  0.41724999  0.62130076  0.38321893  1
  O  O23  1  0.20486937  0.54082650  0.96703261  1
  O  O24  1  0.27308741  0.89031742  0.84532930  1
  O  O25  1  0.41753071  0.80697961  0.57213124  1
  O  O26  1  0.59039624  0.19410423  0.42108607  1
  O  O27  1  0.73266850  0.11557655  0.14305524  1
  O  O28  1  0.80412034  0.46339454  0.02227880  1
  O  O29  1  0.57255537  0.37853842  0.63137830  1
  O  O30  1  0.72161586  0.74126337  0.39646340  1
  O  O31  1  0.56745499  0.00087817  0.81239354  1
  O  O32  1  0.91607974  0.21695573  0.24490309  1
  O  O33  1  0.88889221  0.53945106  0.30076030  1
  O  O34  1  0.80877581  0.50679415  0.65719440  1
  O  O35  1  0.79098577  0.84290218  0.70076955  1
  O  O36  1  0.72438237  0.87155984  0.01533907  1
  O  O37  1  0.88934446  0.16964906  0.63303817  1
