# generated using pymatgen
data_Li14Cu9(P2O7)8
_symmetry_space_group_name_H-M   'P 1'
_cell_length_a   9.48872500
_cell_length_b   11.07044675
_cell_length_c   12.39608387
_cell_angle_alpha   64.11166259
_cell_angle_beta   67.91263816
_cell_angle_gamma   74.50651594
_symmetry_Int_Tables_number   1
_chemical_formula_structural   Li14Cu9(P2O7)8
_chemical_formula_sum   'Li14 Cu9 P16 O56'
_cell_volume   1077.18372402
_cell_formula_units_Z   1
loop_
 _symmetry_equiv_pos_site_id
 _symmetry_equiv_pos_as_xyz
  1  'x, y, z'
loop_
 _atom_site_type_symbol
 _atom_site_label
 _atom_site_symmetry_multiplicity
 _atom_site_fract_x
 _atom_site_fract_y
 _atom_site_fract_z
 _atom_site_occupancy
  Li  Li0  1  0.92973000  0.87396500  0.58626100  1
  Li  Li1  1  0.64326100  0.97128200  0.41107900  1
  Li  Li2  1  0.03911600  0.62720100  0.91830300  1
  Li  Li3  1  0.42549600  0.88245900  0.07925300  1
  Li  Li4  1  0.52959500  0.63178300  0.42896600  1
  Li  Li5  1  0.34675400  0.48562500  0.82637200  1
  Li  Li6  1  0.85122400  0.49321500  0.32016300  1
  Li  Li7  1  0.14877600  0.50678500  0.67983700  1
  Li  Li8  1  0.65324600  0.51437500  0.17362800  1
  Li  Li9  1  0.47040500  0.36821700  0.57103400  1
  Li  Li10  1  0.57450400  0.11754100  0.92074700  1
  Li  Li11  1  0.96088400  0.37279900  0.08169700  1
  Li  Li12  1  0.35673900  0.02871800  0.58892100  1
  Li  Li13  1  0.07027000  0.12603500  0.41373900  1
  Cu  Cu14  1  0.70091300  0.78478500  0.91664100  1
  Cu  Cu15  1  0.56916400  0.74377800  0.70115000  1
  Cu  Cu16  1  0.19818300  0.78219900  0.41808600  1
  Cu  Cu17  1  0.00000000  0.00000000  0.00000000  1
  Cu  Cu18  1  0.92374900  0.27075100  0.79423700  1
  Cu  Cu19  1  0.07625100  0.72924900  0.20576300  1
  Cu  Cu20  1  0.80181700  0.21780100  0.58191400  1
  Cu  Cu21  1  0.43083600  0.25622200  0.29885000  1
  Cu  Cu22  1  0.29908700  0.21521500  0.08335900  1
  P  P23  1  0.98042600  0.94095900  0.77569900  1
  P  P24  1  0.37254300  0.69024100  0.99314700  1
  P  P25  1  0.47531200  0.94214900  0.27670800  1
  P  P26  1  0.80584500  0.54147900  0.86932000  1
  P  P27  1  0.24044700  0.78677400  0.65754400  1
  P  P28  1  0.87000100  0.69190800  0.49137500  1
  P  P29  1  0.74274600  0.79854600  0.15168500  1
  P  P30  1  0.68806500  0.46001500  0.63005100  1
  P  P31  1  0.31193500  0.53998500  0.36994900  1
  P  P32  1  0.25725400  0.20145400  0.84831500  1
  P  P33  1  0.12999900  0.30809200  0.50862500  1
  P  P34  1  0.75955300  0.21322600  0.34245600  1
  P  P35  1  0.19415500  0.45852100  0.13068000  1
  P  P36  1  0.52468800  0.05785100  0.72329200  1
  P  P37  1  0.62745700  0.30975900  0.00685300  1
  P  P38  1  0.01957400  0.05904100  0.22430100  1
  O  O39  1  0.58235500  0.98998900  0.83777200  1
  O  O40  1  0.91924900  0.80353600  0.86101000  1
  O  O41  1  0.53685700  0.97125300  0.65283500  1
  O  O42  1  0.16562700  0.89726600  0.72759900  1
  O  O43  1  0.74499000  0.69108900  0.79397500  1
  O  O44  1  0.84030000  0.53496700  0.98392500  1
  O  O45  1  0.72600100  0.78971800  0.52692300  1
  O  O46  1  0.00142500  0.70905500  0.52539500  1
  O  O47  1  0.40478800  0.70394900  0.85895900  1
  O  O48  1  0.40940900  0.80729400  0.60621900  1
  O  O49  1  0.66097300  0.89512500  0.23217100  1
  O  O50  1  0.07760800  0.98823100  0.33858600  1
  O  O51  1  0.16188000  0.84622300  0.55349100  1
  O  O52  1  0.90676400  0.70032700  0.35827800  1
  O  O53  1  0.41407500  0.80361600  0.36130700  1
  O  O54  1  0.91323700  0.82241800  0.10054400  1
  O  O55  1  0.93885500  0.47570400  0.79007900  1
  O  O56  1  0.65723800  0.46578400  0.91950400  1
  O  O57  1  0.19982400  0.64513200  0.74898300  1
  O  O58  1  0.03966000  0.96735600  0.15485700  1
  O  O59  1  0.66479800  0.85861000  0.04694800  1
  O  O60  1  0.83262300  0.54030100  0.58317000  1
  O  O61  1  0.55225800  0.52005100  0.71100400  1
  O  O62  1  0.71663300  0.65189800  0.23520100  1
  O  O63  1  0.49479100  0.28923400  0.97607300  1
  O  O64  1  0.77357800  0.22063500  0.96168900  1
  O  O65  1  0.24500000  0.68814200  0.29793700  1
  O  O66  1  0.34056600  0.53129800  0.48796900  1
  O  O67  1  0.65943400  0.46870200  0.51203100  1
  O  O68  1  0.75500000  0.31185800  0.70206300  1
  O  O69  1  0.22642200  0.77936500  0.03831100  1
  O  O70  1  0.50520900  0.71076600  0.02392700  1
  O  O71  1  0.28336700  0.34810200  0.76479900  1
  O  O72  1  0.44774200  0.47994900  0.28899600  1
  O  O73  1  0.16737700  0.45969900  0.41683000  1
  O  O74  1  0.33520200  0.14139000  0.95305200  1
  O  O75  1  0.96034000  0.03264400  0.84514300  1
  O  O76  1  0.80017600  0.35486800  0.25101700  1
  O  O77  1  0.34276200  0.53421600  0.08049600  1
  O  O78  1  0.06114500  0.52429600  0.20992100  1
  O  O79  1  0.08676300  0.17758200  0.89945600  1
  O  O80  1  0.58592500  0.19638400  0.63869300  1
  O  O81  1  0.09323600  0.29967300  0.64172200  1
  O  O82  1  0.83812000  0.15377700  0.44650900  1
  O  O83  1  0.92239200  0.01176900  0.66141400  1
  O  O84  1  0.33902700  0.10487500  0.76782900  1
  O  O85  1  0.59059100  0.19270600  0.39378100  1
  O  O86  1  0.59521200  0.29605100  0.14104100  1
  O  O87  1  0.99857500  0.29094500  0.47460500  1
  O  O88  1  0.27399900  0.21028200  0.47307700  1
  O  O89  1  0.15970000  0.46503300  0.01607500  1
  O  O90  1  0.25501000  0.30891100  0.20602500  1
  O  O91  1  0.83437300  0.10273400  0.27240100  1
  O  O92  1  0.46314300  0.02874700  0.34716500  1
  O  O93  1  0.08075100  0.19646400  0.13899000  1
  O  O94  1  0.41764500  0.01001100  0.16222800  1
