# generated using pymatgen
data_Li4V3Co3(TeO8)2
_symmetry_space_group_name_H-M   'P 1'
_cell_length_a   5.89091000
_cell_length_b   6.04744769
_cell_length_c   10.28429231
_cell_angle_alpha   89.92804704
_cell_angle_beta   90.18986104
_cell_angle_gamma   119.06822630
_symmetry_Int_Tables_number   1
_chemical_formula_structural   Li4V3Co3(TeO8)2
_chemical_formula_sum   'Li4 V3 Co3 Te2 O16'
_cell_volume   320.22755361
_cell_formula_units_Z   1
loop_
 _symmetry_equiv_pos_site_id
 _symmetry_equiv_pos_as_xyz
  1  'x, y, z'
loop_
 _atom_site_type_symbol
 _atom_site_label
 _atom_site_symmetry_multiplicity
 _atom_site_fract_x
 _atom_site_fract_y
 _atom_site_fract_z
 _atom_site_occupancy
  Li  Li0  1  0.65905300  0.32736800  0.90237800  1
  Li  Li1  1  0.99958200  0.99633400  0.99573700  1
  Li  Li2  1  0.99446300  0.98590900  0.48502900  1
  Li  Li3  1  0.34176900  0.68495300  0.40565200  1
  V  V4  1  0.82059200  0.64072200  0.23491700  1
  V  V5  1  0.15713900  0.80162900  0.72059700  1
  V  V6  1  0.65857600  0.81451200  0.72186800  1
  Co  Co7  1  0.34297400  0.17103500  0.21572500  1
  Co  Co8  1  0.82783600  0.17131500  0.21537500  1
  Co  Co9  1  0.16898100  0.33245900  0.70549000  1
  Te  Te10  1  0.64603700  0.29267000  0.49751000  1
  Te  Te11  1  0.32923200  0.66138300  0.01431600  1
  O  O12  1  0.31698200  0.14303000  0.59084000  1
  O  O13  1  0.52304000  0.04387300  0.35515600  1
  O  O14  1  0.68992900  0.38042400  0.11056200  1
  O  O15  1  0.98476100  0.97044600  0.30007200  1
  O  O16  1  0.00612600  0.99211800  0.80783000  1
  O  O17  1  0.81951000  0.13311700  0.59515900  1
  O  O18  1  0.53282600  0.51646900  0.33202500  1
  O  O19  1  0.98519700  0.51728500  0.33106800  1
  O  O20  1  0.16307600  0.32636200  0.09553400  1
  O  O21  1  0.86870100  0.71332500  0.61096500  1
  O  O22  1  0.01273500  0.52829000  0.81780300  1
  O  O23  1  0.51639800  0.53081500  0.81334300  1
  O  O24  1  0.33195300  0.68936300  0.60805800  1
  O  O25  1  0.16407700  0.83123500  0.10387100  1
  O  O26  1  0.47159000  0.97245100  0.81879500  1
  O  O27  1  0.66656500  0.83110700  0.10216600  1
