# generated using pymatgen
data_Li2CrO3
_symmetry_space_group_name_H-M   'P 1'
_cell_length_a   5.60645400
_cell_length_b   5.56004205
_cell_length_c   4.99164800
_cell_angle_alpha   89.99984106
_cell_angle_beta   89.99968475
_cell_angle_gamma   59.72364885
_symmetry_Int_Tables_number   1
_chemical_formula_structural   Li2CrO3
_chemical_formula_sum   'Li4 Cr2 O6'
_cell_volume   134.37695515
_cell_formula_units_Z   2
loop_
 _symmetry_equiv_pos_site_id
 _symmetry_equiv_pos_as_xyz
  1  'x, y, z'
loop_
 _atom_site_type_symbol
 _atom_site_label
 _atom_site_symmetry_multiplicity
 _atom_site_fract_x
 _atom_site_fract_y
 _atom_site_fract_z
 _atom_site_occupancy
  Li  Li0  1  0.83468200  0.65887600  0.52216800  1
  Li  Li1  1  0.50643600  0.65886800  0.02217800  1
  Li  Li2  1  0.49355500  0.34113400  0.52216900  1
  Li  Li3  1  0.16531000  0.34112600  0.02217600  1
  Cr  Cr4  1  0.82269200  0.00001100  0.01783300  1
  Cr  Cr5  1  0.17735800  0.99998900  0.51783800  1
  O  O6  1  0.82884200  0.69422000  0.92134200  1
  O  O7  1  0.47690100  0.69425100  0.42134300  1
  O  O8  1  0.52306600  0.30577000  0.92133400  1
  O  O9  1  0.17115700  0.30576000  0.42134700  1
  O  O10  1  0.86268100  0.99999400  0.39213200  1
  O  O11  1  0.13732000  0.00000200  0.89213600  1
