# generated using pymatgen
data_Li7MnP4O14F
_symmetry_space_group_name_H-M   'P 1'
_cell_length_a   6.39248243
_cell_length_b   6.39248243
_cell_length_c   14.67585400
_cell_angle_alpha   83.81733500
_cell_angle_beta   83.81733500
_cell_angle_gamma   78.92428945
_symmetry_Int_Tables_number   1
_chemical_formula_structural   Li7MnP4O14F
_chemical_formula_sum   'Li14 Mn2 P8 O28 F2'
_cell_volume   582.78697543
_cell_formula_units_Z   2
loop_
 _symmetry_equiv_pos_site_id
 _symmetry_equiv_pos_as_xyz
  1  'x, y, z'
loop_
 _atom_site_type_symbol
 _atom_site_label
 _atom_site_symmetry_multiplicity
 _atom_site_fract_x
 _atom_site_fract_y
 _atom_site_fract_z
 _atom_site_occupancy
  Li  Li0  1  0.98810500  0.39439900  0.82400200  1
  Li  Li1  1  0.36665300  0.82547600  0.83499200  1
  Li  Li2  1  0.39439900  0.98810500  0.32400200  1
  Li  Li3  1  0.82547600  0.36665300  0.33499200  1
  Li  Li4  1  0.10421900  0.94914500  0.49366800  1
  Li  Li5  1  0.47670600  0.32616600  0.82097600  1
  Li  Li6  1  0.94914500  0.10421900  0.99366800  1
  Li  Li7  1  0.12217200  0.58144600  0.97398500  1
  Li  Li8  1  0.32616600  0.47670600  0.32097600  1
  Li  Li9  1  0.58144600  0.12217200  0.47398500  1
  Li  Li10  1  0.47416000  0.03637700  0.98621600  1
  Li  Li11  1  0.03637700  0.47416000  0.48621600  1
  Li  Li12  1  0.30247100  0.13307600  0.65938200  1
  Li  Li13  1  0.13307600  0.30247100  0.15938200  1
  Mn  Mn14  1  0.72075300  0.72083100  0.65704400  1
  Mn  Mn15  1  0.72083100  0.72075300  0.15704400  1
  P  P16  1  0.86213100  0.91347100  0.83139500  1
  P  P17  1  0.91347100  0.86213100  0.33139500  1
  P  P18  1  0.61983900  0.52930700  0.98174800  1
  P  P19  1  0.52930700  0.61983900  0.48174800  1
  P  P20  1  0.83965600  0.19109000  0.65625300  1
  P  P21  1  0.19109000  0.83965600  0.15625300  1
  P  P22  1  0.25090000  0.61940700  0.65464400  1
  P  P23  1  0.61940700  0.25090000  0.15464400  1
  O  O24  1  0.70496100  0.79174200  0.79787900  1
  O  O25  1  0.79174200  0.70496100  0.29787900  1
  O  O26  1  0.85489800  0.42035700  0.96062000  1
  O  O27  1  0.74391000  0.61324900  0.51887600  1
  O  O28  1  0.42035700  0.85489800  0.46062000  1
  O  O29  1  0.61324900  0.74391000  0.01887600  1
  O  O30  1  0.37259300  0.78438600  0.68368900  1
  O  O31  1  0.73814500  0.38817700  0.70815900  1
  O  O32  1  0.45803600  0.53743900  0.91102200  1
  O  O33  1  0.96403200  0.03747800  0.73797500  1
  O  O34  1  0.78438600  0.37259300  0.18368900  1
  O  O35  1  0.38817700  0.73814500  0.20815900  1
  O  O36  1  0.53743900  0.45803600  0.41102200  1
  O  O37  1  0.03747800  0.96403200  0.23797500  1
  O  O38  1  0.05997300  0.76993800  0.86795800  1
  O  O39  1  0.75248300  0.08559000  0.89388900  1
  O  O40  1  0.38645600  0.50769400  0.56649800  1
  O  O41  1  0.04414400  0.72712500  0.61296400  1
  O  O42  1  0.76993800  0.05997300  0.36795800  1
  O  O43  1  0.66798000  0.08534200  0.62106900  1
  O  O44  1  0.08559000  0.75248300  0.39388900  1
  O  O45  1  0.50769400  0.38645600  0.06649800  1
  O  O46  1  0.23522200  0.42797500  0.72608100  1
  O  O47  1  0.72712500  0.04414400  0.11296400  1
  O  O48  1  0.08534200  0.66798000  0.12106900  1
  O  O49  1  0.42797500  0.23522200  0.22608100  1
  O  O50  1  0.02856100  0.21106100  0.58372500  1
  O  O51  1  0.21106100  0.02856100  0.08372500  1
  F  F52  1  0.29174600  0.12642200  0.88272400  1
  F  F53  1  0.12642200  0.29174600  0.38272400  1
