# generated using pymatgen
data_LiV5F11
_symmetry_space_group_name_H-M   'P 1'
_cell_length_a   14.44447100
_cell_length_b   8.22760100
_cell_length_c   10.84862466
_cell_angle_alpha   50.93424460
_cell_angle_beta   90.00000000
_cell_angle_gamma   90.00000000
_symmetry_Int_Tables_number   1
_chemical_formula_structural   LiV5F11
_chemical_formula_sum   'Li4 V20 F44'
_cell_volume   1001.03222346
_cell_formula_units_Z   4
loop_
 _symmetry_equiv_pos_site_id
 _symmetry_equiv_pos_as_xyz
  1  'x, y, z'
loop_
 _atom_site_type_symbol
 _atom_site_label
 _atom_site_symmetry_multiplicity
 _atom_site_fract_x
 _atom_site_fract_y
 _atom_site_fract_z
 _atom_site_occupancy
  Li  Li0  1  0.93593000  0.25832200  0.61057000  1
  Li  Li1  1  0.43593000  0.74167800  0.88943000  1
  Li  Li2  1  0.56407000  0.25832200  0.11057000  1
  Li  Li3  1  0.06407000  0.74167800  0.38943000  1
  V  V4  1  0.82800600  0.72752000  0.54787900  1
  V  V5  1  0.32467200  0.50579400  0.57360900  1
  V  V6  1  0.17521400  0.76217900  0.69552300  1
  V  V7  1  0.50425500  0.53619100  0.72800900  1
  V  V8  1  0.66314800  0.98376200  0.66025700  1
  V  V9  1  0.00425500  0.46380900  0.77199100  1
  V  V10  1  0.67521400  0.23782100  0.80447700  1
  V  V11  1  0.82467200  0.49420600  0.92639100  1
  V  V12  1  0.16314800  0.01623800  0.83974300  1
  V  V13  1  0.32800600  0.27248000  0.95212100  1
  V  V14  1  0.67199400  0.72752000  0.04787900  1
  V  V15  1  0.83685200  0.98376200  0.16025700  1
  V  V16  1  0.17532800  0.50579400  0.07360900  1
  V  V17  1  0.32478600  0.76217900  0.19552300  1
  V  V18  1  0.99574500  0.53619100  0.22800900  1
  V  V19  1  0.33685200  0.01623800  0.33974300  1
  V  V20  1  0.49574500  0.46380900  0.27199100  1
  V  V21  1  0.82478600  0.23782100  0.30447700  1
  V  V22  1  0.67532800  0.49420600  0.42639100  1
  V  V23  1  0.17199400  0.27248000  0.45212100  1
  F  F24  1  0.40963000  0.74420600  0.53398400  1
  F  F25  1  0.08333500  0.71102300  0.57276400  1
  F  F26  1  0.25263300  0.01928600  0.50042200  1
  F  F27  1  0.59870500  0.48135300  0.60177000  1
  F  F28  1  0.91720000  0.48792200  0.60303400  1
  F  F29  1  0.55881200  0.78152600  0.70992600  1
  F  F30  1  0.24119100  0.25699800  0.63178600  1
  F  F31  1  0.90868700  0.70033900  0.72553700  1
  F  F32  1  0.74706500  0.22898300  0.63260000  1
  F  F33  1  0.25346700  0.51051000  0.74315000  1
  F  F34  1  0.75346700  0.48949000  0.75685000  1
  F  F35  1  0.10116900  0.01579900  0.65924400  1
  F  F36  1  0.40868700  0.29966100  0.77446300  1
  F  F37  1  0.05881200  0.21847400  0.79007400  1
  F  F38  1  0.41720000  0.51207800  0.89696600  1
  F  F39  1  0.09870500  0.51864700  0.89823000  1
  F  F40  1  0.60116900  0.98420100  0.84075600  1
  F  F41  1  0.58333500  0.28897700  0.92723600  1
  F  F42  1  0.90963000  0.25579400  0.96601600  1
  F  F43  1  0.24706500  0.77101700  0.86740000  1
  F  F44  1  0.74119100  0.74300200  0.86821400  1
  F  F45  1  0.75263300  0.98071400  0.99957800  1
  F  F46  1  0.24736700  0.01928600  0.00042200  1
  F  F47  1  0.25880900  0.25699800  0.13178600  1
  F  F48  1  0.75293500  0.22898300  0.13260000  1
  F  F49  1  0.09037000  0.74420600  0.03398400  1
  F  F50  1  0.41666500  0.71102300  0.07276400  1
  F  F51  1  0.39883100  0.01579900  0.15924400  1
  F  F52  1  0.90129500  0.48135300  0.10177000  1
  F  F53  1  0.58280000  0.48792200  0.10303400  1
  F  F54  1  0.94118800  0.78152600  0.20992600  1
  F  F55  1  0.59131300  0.70033900  0.22553700  1
  F  F56  1  0.89883100  0.98420100  0.34075600  1
  F  F57  1  0.24653300  0.51051000  0.24315000  1
  F  F58  1  0.74653300  0.48949000  0.25685000  1
  F  F59  1  0.25293500  0.77101700  0.36740000  1
  F  F60  1  0.09131300  0.29966100  0.27446300  1
  F  F61  1  0.75880900  0.74300200  0.36821400  1
  F  F62  1  0.44118800  0.21847400  0.29007400  1
  F  F63  1  0.08280000  0.51207800  0.39696600  1
  F  F64  1  0.40129500  0.51864700  0.39823000  1
  F  F65  1  0.74736700  0.98071400  0.49957800  1
  F  F66  1  0.91666500  0.28897700  0.42723600  1
  F  F67  1  0.59037000  0.25579400  0.46601600  1
