# generated using pymatgen
data_Li3MgNi3O8
_symmetry_space_group_name_H-M   'P 1'
_cell_length_a   4.90359415
_cell_length_b   7.67149114
_cell_length_c   7.75900577
_cell_angle_alpha   97.07387167
_cell_angle_beta   101.16374078
_cell_angle_gamma   102.08244306
_symmetry_Int_Tables_number   1
_chemical_formula_structural   Li3MgNi3O8
_chemical_formula_sum   'Li6 Mg2 Ni6 O16'
_cell_volume   275.90546391
_cell_formula_units_Z   2
loop_
 _symmetry_equiv_pos_site_id
 _symmetry_equiv_pos_as_xyz
  1  'x, y, z'
loop_
 _atom_site_type_symbol
 _atom_site_label
 _atom_site_symmetry_multiplicity
 _atom_site_fract_x
 _atom_site_fract_y
 _atom_site_fract_z
 _atom_site_occupancy
  Li  Li0  1  0.99437700  0.88577000  0.61598600  1
  Li  Li1  1  0.99432900  0.38567300  0.11604800  1
  Li  Li2  1  0.50170200  0.50623700  0.99859700  1
  Li  Li3  1  0.50163500  0.00616100  0.49864400  1
  Li  Li4  1  0.50426200  0.73976700  0.76768500  1
  Li  Li5  1  0.50422800  0.23977800  0.26766200  1
  Mg  Mg6  1  0.49873000  0.12601800  0.87552900  1
  Mg  Mg7  1  0.49894800  0.62612500  0.37553600  1
  Ni  Ni8  1  0.99802300  0.25320700  0.74905500  1
  Ni  Ni9  1  0.50004700  0.87672900  0.12973000  1
  Ni  Ni10  1  0.99808100  0.00177300  0.00340000  1
  Ni  Ni11  1  0.99829600  0.75344900  0.24927800  1
  Ni  Ni12  1  0.49973300  0.37638100  0.62955800  1
  Ni  Ni13  1  0.99805600  0.50158700  0.50339400  1
  O  O14  1  0.20876200  0.24444600  0.97958400  1
  O  O15  1  0.20905200  0.74448700  0.47982000  1
  O  O16  1  0.77268400  0.51976900  0.24776900  1
  O  O17  1  0.77234700  0.01964400  0.74780600  1
  O  O18  1  0.25656200  0.15305500  0.64302100  1
  O  O19  1  0.25720600  0.65376600  0.14334800  1
  O  O20  1  0.74270000  0.86411100  0.34812700  1
  O  O21  1  0.74229000  0.36374900  0.84797800  1
  O  O22  1  0.75760800  0.77069000  0.02750500  1
  O  O23  1  0.75732000  0.27046000  0.52742000  1
  O  O24  1  0.25366700  0.47761200  0.74231600  1
  O  O25  1  0.25381200  0.97776700  0.24240400  1
  O  O26  1  0.26244700  0.38957800  0.40835700  1
  O  O27  1  0.26245000  0.88960300  0.90845500  1
  O  O28  1  0.73595900  0.10193500  0.11162000  1
  O  O29  1  0.73560800  0.60152300  0.61140200  1
