# generated using pymatgen
data_Li2MnV3O8
_symmetry_space_group_name_H-M   'P 1'
_cell_length_a   5.93104196
_cell_length_b   5.93104196
_cell_length_c   9.92888200
_cell_angle_alpha   90.00000000
_cell_angle_beta   90.00000000
_cell_angle_gamma   119.99999959
_symmetry_Int_Tables_number   1
_chemical_formula_structural   Li2MnV3O8
_chemical_formula_sum   'Li4 Mn2 V6 O16'
_cell_volume   302.47743134
_cell_formula_units_Z   2
loop_
 _symmetry_equiv_pos_site_id
 _symmetry_equiv_pos_as_xyz
  1  'x, y, z'
loop_
 _atom_site_type_symbol
 _atom_site_label
 _atom_site_symmetry_multiplicity
 _atom_site_fract_x
 _atom_site_fract_y
 _atom_site_fract_z
 _atom_site_occupancy
  Li  Li0  1  0.33333300  0.66666700  0.89413000  1
  Li  Li1  1  0.00000000  0.00000000  0.99689000  1
  Li  Li2  1  0.00000000  0.00000000  0.49689000  1
  Li  Li3  1  0.66666700  0.33333300  0.39413000  1
  Mn  Mn4  1  0.33333300  0.66666700  0.49741200  1
  Mn  Mn5  1  0.66666700  0.33333300  0.99741200  1
  V  V6  1  0.15816800  0.82022500  0.21445000  1
  V  V7  1  0.17977500  0.33794400  0.21445000  1
  V  V8  1  0.66205600  0.84183200  0.21445000  1
  V  V9  1  0.33794400  0.17977500  0.71445000  1
  V  V10  1  0.84183200  0.66205600  0.71445000  1
  V  V11  1  0.82022500  0.15816800  0.71445000  1
  O  O12  1  0.16919200  0.85832600  0.60925900  1
  O  O13  1  0.03360900  0.53266800  0.32579200  1
  O  O14  1  0.33333300  0.66666700  0.10310700  1
  O  O15  1  0.00000000  0.00000000  0.31383900  1
  O  O16  1  0.00000000  0.00000000  0.81383900  1
  O  O17  1  0.14167400  0.31086600  0.60925900  1
  O  O18  1  0.49905900  0.96639100  0.32579200  1
  O  O19  1  0.46733200  0.50094100  0.32579200  1
  O  O20  1  0.31086600  0.14167400  0.10925900  1
  O  O21  1  0.68913400  0.83080800  0.60925900  1
  O  O22  1  0.50094100  0.46733200  0.82579200  1
  O  O23  1  0.53266800  0.03360900  0.82579200  1
  O  O24  1  0.66666700  0.33333300  0.60310700  1
  O  O25  1  0.83080800  0.68913400  0.10925900  1
  O  O26  1  0.96639100  0.49905900  0.82579200  1
  O  O27  1  0.85832600  0.16919200  0.10925900  1
