# generated using pymatgen
data_Li4Cr2Si3O10
_symmetry_space_group_name_H-M   'P 1'
_cell_length_a   5.42090568
_cell_length_b   5.42090568
_cell_length_c   16.71014148
_cell_angle_alpha   81.91731694
_cell_angle_beta   81.91731694
_cell_angle_gamma   61.95968741
_symmetry_Int_Tables_number   1
_chemical_formula_structural   Li4Cr2Si3O10
_chemical_formula_sum   'Li8 Cr4 Si6 O20'
_cell_volume   427.53930149
_cell_formula_units_Z   2
loop_
 _symmetry_equiv_pos_site_id
 _symmetry_equiv_pos_as_xyz
  1  'x, y, z'
loop_
 _atom_site_type_symbol
 _atom_site_label
 _atom_site_symmetry_multiplicity
 _atom_site_fract_x
 _atom_site_fract_y
 _atom_site_fract_z
 _atom_site_occupancy
  Li  Li0  1  0.83461900  0.67022900  0.94765100  1
  Li  Li1  1  0.58404300  0.79844600  0.77046100  1
  Li  Li2  1  0.67023000  0.83461900  0.44765100  1
  Li  Li3  1  0.79844600  0.58404300  0.27046100  1
  Li  Li4  1  0.20155400  0.41595700  0.72953900  1
  Li  Li5  1  0.32977100  0.16538100  0.55234900  1
  Li  Li6  1  0.41595700  0.20155400  0.22953900  1
  Li  Li7  1  0.16538100  0.32977100  0.05234900  1
  Cr  Cr8  1  0.20065200  0.97849400  0.91681600  1
  Cr  Cr9  1  0.97849400  0.20065200  0.41681600  1
  Cr  Cr10  1  0.02150700  0.79934800  0.58318400  1
  Cr  Cr11  1  0.79934800  0.02150700  0.08318400  1
  Si  Si12  1  0.65582300  0.46613500  0.59867400  1
  Si  Si13  1  0.88898200  0.11101800  0.75000000  1
  Si  Si14  1  0.53386500  0.34417700  0.90132600  1
  Si  Si15  1  0.46613500  0.65582300  0.09867400  1
  Si  Si16  1  0.11101800  0.88898200  0.25000000  1
  Si  Si17  1  0.34417700  0.53386500  0.40132600  1
  O  O18  1  0.92745000  0.84036000  0.70845000  1
  O  O19  1  0.84036000  0.92745000  0.20845000  1
  O  O20  1  0.59753300  0.78126400  0.56525100  1
  O  O21  1  0.58023500  0.62714100  0.88401700  1
  O  O22  1  0.80095700  0.40038000  0.68716400  1
  O  O23  1  0.77202700  0.09574900  0.95792800  1
  O  O24  1  0.90425100  0.22797300  0.54207200  1
  O  O25  1  0.78126400  0.59753300  0.06525100  1
  O  O26  1  0.62714100  0.58023500  0.38401700  1
  O  O27  1  0.59962000  0.19904300  0.81283600  1
  O  O28  1  0.40038000  0.80095700  0.18716400  1
  O  O29  1  0.37285900  0.41976500  0.61598300  1
  O  O30  1  0.21873600  0.40246700  0.93474900  1
  O  O31  1  0.09574900  0.77202700  0.45792800  1
  O  O32  1  0.22797300  0.90425100  0.04207200  1
  O  O33  1  0.19904300  0.59962000  0.31283600  1
  O  O34  1  0.41976500  0.37285900  0.11598300  1
  O  O35  1  0.40246700  0.21873600  0.43474900  1
  O  O36  1  0.15964000  0.07255000  0.79155000  1
  O  O37  1  0.07255000  0.15964000  0.29155000  1
