# generated using pymatgen
data_LiVCrP2(HO5)2
_symmetry_space_group_name_H-M   'P 1'
_cell_length_a   5.20093800
_cell_length_b   7.36253623
_cell_length_c   19.33157622
_cell_angle_alpha   94.06953164
_cell_angle_beta   89.36158661
_cell_angle_gamma   105.51563349
_symmetry_Int_Tables_number   1
_chemical_formula_structural   LiVCrP2(HO5)2
_chemical_formula_sum   'Li4 V4 Cr4 P8 H8 O40'
_cell_volume   711.44803297
_cell_formula_units_Z   4
loop_
 _symmetry_equiv_pos_site_id
 _symmetry_equiv_pos_as_xyz
  1  'x, y, z'
loop_
 _atom_site_type_symbol
 _atom_site_label
 _atom_site_symmetry_multiplicity
 _atom_site_fract_x
 _atom_site_fract_y
 _atom_site_fract_z
 _atom_site_occupancy
  Li  Li0  1  0.78752500  0.01171000  0.13947600  1
  Li  Li1  1  0.71331000  0.48829500  0.35982200  1
  Li  Li2  1  0.46307200  0.23912500  0.60974200  1
  Li  Li3  1  0.21243700  0.98888900  0.85997800  1
  V  V4  1  0.38040000  0.38168400  0.12396900  1
  V  V5  1  0.12053400  0.11900300  0.37498100  1
  V  V6  1  0.87090400  0.86940000  0.62492400  1
  V  V7  1  0.62082300  0.61912000  0.87496500  1
  Cr  Cr8  1  0.00035400  0.99991100  0.99981800  1
  Cr  Cr9  1  0.75035700  0.74988900  0.24977400  1
  Cr  Cr10  1  0.50227600  0.50208500  0.49935800  1
  Cr  Cr11  1  0.25217500  0.25214500  0.74937900  1
  P  P12  1  0.41794200  0.74573100  0.03107200  1
  P  P13  1  0.33042300  0.01106700  0.21845000  1
  P  P14  1  0.17012100  0.48924200  0.28104000  1
  P  P15  1  0.08307700  0.75600600  0.46862000  1
  P  P16  1  0.92061200  0.24033200  0.53115800  1
  P  P17  1  0.83292500  0.50623500  0.71861400  1
  P  P18  1  0.67064700  0.99032000  0.78117600  1
  P  P19  1  0.58270300  0.25491200  0.96834400  1
  H  H20  1  0.92218700  0.27613700  0.07092900  1
  H  H21  1  0.84353000  0.49019200  0.17285200  1
  H  H22  1  0.65718900  0.00948500  0.32708700  1
  H  H23  1  0.57986100  0.22544600  0.42842800  1
  H  H24  1  0.40844800  0.76101500  0.57656100  1
  H  H25  1  0.33042100  0.97568000  0.67840600  1
  H  H26  1  0.15798200  0.51114200  0.82651500  1
  H  H27  1  0.07888200  0.72400000  0.92891500  1
  O  O28  1  0.25309400  0.88660100  0.04400300  1
  O  O29  1  0.70945700  0.83543800  0.05398100  1
  O  O30  1  0.60846600  0.33154100  0.04669500  1
  O  O31  1  0.29966400  0.57438700  0.07633700  1
  O  O32  1  0.04711900  0.20040400  0.08105500  1
  O  O33  1  0.03504300  0.92868200  0.19835700  1
  O  O34  1  0.69134100  0.54672800  0.17195000  1
  O  O35  1  0.49391700  0.86575900  0.20592100  1
  O  O36  1  0.46244000  0.17165800  0.17084800  1
  O  O37  1  0.13958800  0.41364200  0.20299200  1
  O  O38  1  0.80969600  0.95322700  0.32776000  1
  O  O39  1  0.00605100  0.63411600  0.29407200  1
  O  O40  1  0.46510400  0.57165800  0.30154600  1
  O  O41  1  0.36086000  0.08687900  0.29679000  1
  O  O42  1  0.03814200  0.32833700  0.32891900  1
  O  O43  1  0.20279000  0.92658000  0.42339000  1
  O  O44  1  0.79204800  0.66538700  0.44528500  1
  O  O45  1  0.45455200  0.30113000  0.41837600  1
  O  O46  1  0.24480900  0.61265300  0.45688300  1
  O  O47  1  0.88652400  0.16635700  0.45276700  1
  O  O48  1  0.10654700  0.83436800  0.54655900  1
  O  O49  1  0.75525700  0.38402400  0.54480800  1
  O  O50  1  0.56100100  0.70491500  0.57716000  1
  O  O51  1  0.21669200  0.32119000  0.55054000  1
  O  O52  1  0.79014200  0.07894200  0.57885200  1
  O  O53  1  0.95240000  0.67684200  0.67344600  1
  O  O54  1  0.63690400  0.91658200  0.70274500  1
  O  O55  1  0.54180100  0.41564700  0.69534400  1
  O  O56  1  0.99491800  0.36301100  0.70689700  1
  O  O57  1  0.20524700  0.05133800  0.66818100  1
  O  O58  1  0.85627000  0.58436700  0.79659900  1
  O  O59  1  0.54040000  0.82897900  0.82887600  1
  O  O60  1  0.50499900  0.13387100  0.79480800  1
  O  O61  1  0.31035900  0.45487800  0.82728700  1
  O  O62  1  0.96682300  0.07116700  0.80054500  1
  O  O63  1  0.95424300  0.79985700  0.91867700  1
  O  O64  1  0.70072900  0.42593000  0.92336400  1
  O  O65  1  0.39222100  0.66928300  0.95301700  1
  O  O66  1  0.29075900  0.16494100  0.94594000  1
  O  O67  1  0.74718800  0.11362600  0.95606000  1
