# generated using pymatgen
data_Li3V(BO3)2
_symmetry_space_group_name_H-M   'P 1'
_cell_length_a   7.75278500
_cell_length_b   6.04765800
_cell_length_c   10.93582636
_cell_angle_alpha   62.08408832
_cell_angle_beta   90.00000000
_cell_angle_gamma   90.00000000
_symmetry_Int_Tables_number   1
_chemical_formula_structural   Li3V(BO3)2
_chemical_formula_sum   'Li12 V4 B8 O24'
_cell_volume   453.07468495
_cell_formula_units_Z   4
loop_
 _symmetry_equiv_pos_site_id
 _symmetry_equiv_pos_as_xyz
  1  'x, y, z'
loop_
 _atom_site_type_symbol
 _atom_site_label
 _atom_site_symmetry_multiplicity
 _atom_site_fract_x
 _atom_site_fract_y
 _atom_site_fract_z
 _atom_site_occupancy
  Li  Li0  1  0.70647600  0.60517900  0.87356700  1
  Li  Li1  1  0.80310900  0.04601400  0.43330700  1
  Li  Li2  1  0.55294800  0.71944600  0.61560000  1
  Li  Li3  1  0.05294800  0.28055400  0.88440000  1
  Li  Li4  1  0.20647600  0.39482100  0.62643300  1
  Li  Li5  1  0.69689100  0.04601400  0.93330700  1
  Li  Li6  1  0.30310900  0.95398600  0.06669300  1
  Li  Li7  1  0.79352400  0.60517900  0.37356700  1
  Li  Li8  1  0.94705200  0.71944600  0.11560000  1
  Li  Li9  1  0.44705200  0.28055400  0.38440000  1
  Li  Li10  1  0.19689100  0.95398600  0.56669300  1
  Li  Li11  1  0.29352400  0.39482100  0.12643300  1
  V  V12  1  0.62742800  0.08999000  0.17359800  1
  V  V13  1  0.12742800  0.91001000  0.32640200  1
  V  V14  1  0.87257200  0.08999000  0.67359800  1
  V  V15  1  0.37257200  0.91001000  0.82640200  1
  B  B16  1  0.90990100  0.63439400  0.62528200  1
  B  B17  1  0.94279300  0.19364300  0.11176900  1
  B  B18  1  0.40990100  0.36560600  0.87471800  1
  B  B19  1  0.44279300  0.80635700  0.38823100  1
  B  B20  1  0.55720700  0.19364300  0.61176900  1
  B  B21  1  0.59009900  0.63439400  0.12528200  1
  B  B22  1  0.05720700  0.80635700  0.88823100  1
  B  B23  1  0.09009900  0.36560600  0.37471800  1
  O  O24  1  0.79337100  0.75867500  0.66930000  1
  O  O25  1  0.45224000  0.61368800  0.79355500  1
  O  O26  1  0.98195300  0.77035500  0.49575100  1
  O  O27  1  0.82314300  0.27602800  0.00708700  1
  O  O28  1  0.88060000  0.11988700  0.24399500  1
  O  O29  1  0.48195300  0.22964500  0.00424900  1
  O  O30  1  0.11306800  0.14781900  0.09964300  1
  O  O31  1  0.61306800  0.85218100  0.40035700  1
  O  O32  1  0.38060000  0.88011300  0.25600500  1
  O  O33  1  0.32314300  0.72397200  0.49291300  1
  O  O34  1  0.95224000  0.38631200  0.70644500  1
  O  O35  1  0.29337100  0.24132500  0.83070000  1
  O  O36  1  0.70662900  0.75867500  0.16930000  1
  O  O37  1  0.04776000  0.61368800  0.29355500  1
  O  O38  1  0.67685700  0.27602800  0.50708700  1
  O  O39  1  0.61940000  0.11988700  0.74399500  1
  O  O40  1  0.38693200  0.14781900  0.59964300  1
  O  O41  1  0.88693200  0.85218100  0.90035700  1
  O  O42  1  0.51804700  0.77035500  0.99575100  1
  O  O43  1  0.11940000  0.88011300  0.75600500  1
  O  O44  1  0.17685700  0.72397200  0.99291300  1
  O  O45  1  0.01804700  0.22964500  0.50424900  1
  O  O46  1  0.54776000  0.38631200  0.20644500  1
  O  O47  1  0.20662900  0.24132500  0.33070000  1
