# generated using pymatgen
data_Li3VB4O9
_symmetry_space_group_name_H-M   'P 1'
_cell_length_a   8.76149900
_cell_length_b   5.78345200
_cell_length_c   6.74984778
_cell_angle_alpha   77.58904686
_cell_angle_beta   90.00000000
_cell_angle_gamma   90.00000000
_symmetry_Int_Tables_number   1
_chemical_formula_structural   Li3VB4O9
_chemical_formula_sum   'Li6 V2 B8 O18'
_cell_volume   334.03358040
_cell_formula_units_Z   2
loop_
 _symmetry_equiv_pos_site_id
 _symmetry_equiv_pos_as_xyz
  1  'x, y, z'
loop_
 _atom_site_type_symbol
 _atom_site_label
 _atom_site_symmetry_multiplicity
 _atom_site_fract_x
 _atom_site_fract_y
 _atom_site_fract_z
 _atom_site_occupancy
  Li  Li0  1  0.43418000  0.76366500  0.16452700  1
  Li  Li1  1  0.06582000  0.76366500  0.16452700  1
  Li  Li2  1  0.75000000  0.58177900  0.47585300  1
  Li  Li3  1  0.25000000  0.41822100  0.52414700  1
  Li  Li4  1  0.93418000  0.23633500  0.83547300  1
  Li  Li5  1  0.56582000  0.23633500  0.83547300  1
  V  V6  1  0.75000000  0.74414300  0.88469900  1
  V  V7  1  0.25000000  0.25585700  0.11530100  1
  B  B8  1  0.75000000  0.98094300  0.23241900  1
  B  B9  1  0.25000000  0.86720600  0.46276200  1
  B  B10  1  0.45225800  0.72468400  0.72023100  1
  B  B11  1  0.04774200  0.72468400  0.72023100  1
  B  B12  1  0.95225800  0.27531600  0.27976900  1
  B  B13  1  0.54774200  0.27531600  0.27976900  1
  B  B14  1  0.75000000  0.13279400  0.53723800  1
  B  B15  1  0.25000000  0.01905700  0.76758100  1
  O  O16  1  0.39238500  0.87015300  0.84270800  1
  O  O17  1  0.10761500  0.87015300  0.84270800  1
  O  O18  1  0.75000000  0.92374700  0.45295300  1
  O  O19  1  0.25000000  0.92022900  0.24327600  1
  O  O20  1  0.38667100  0.71219500  0.53705800  1
  O  O21  1  0.11332900  0.71219500  0.53705800  1
  O  O22  1  0.75000000  0.76179000  0.16249900  1
  O  O23  1  0.92121500  0.58823400  0.78652500  1
  O  O24  1  0.57878500  0.58823400  0.78652500  1
  O  O25  1  0.07878500  0.41176600  0.21347500  1
  O  O26  1  0.42121500  0.41176600  0.21347500  1
  O  O27  1  0.25000000  0.23821000  0.83750100  1
  O  O28  1  0.88667100  0.28780500  0.46294200  1
  O  O29  1  0.61332900  0.28780500  0.46294200  1
  O  O30  1  0.75000000  0.07977100  0.75672400  1
  O  O31  1  0.25000000  0.07625300  0.54704700  1
  O  O32  1  0.89238500  0.12984700  0.15729200  1
  O  O33  1  0.60761500  0.12984700  0.15729200  1
