# generated using pymatgen
data_LiSn(PO3)4
_symmetry_space_group_name_H-M   'P 1'
_cell_length_a   7.42608666
_cell_length_b   7.44706270
_cell_length_c   10.03665159
_cell_angle_alpha   80.83826872
_cell_angle_beta   70.17718065
_cell_angle_gamma   109.02137790
_symmetry_Int_Tables_number   1
_chemical_formula_structural   LiSn(PO3)4
_chemical_formula_sum   'Li2 Sn2 P8 O24'
_cell_volume   470.39850498
_cell_formula_units_Z   2
loop_
 _symmetry_equiv_pos_site_id
 _symmetry_equiv_pos_as_xyz
  1  'x, y, z'
loop_
 _atom_site_type_symbol
 _atom_site_label
 _atom_site_symmetry_multiplicity
 _atom_site_fract_x
 _atom_site_fract_y
 _atom_site_fract_z
 _atom_site_occupancy
  Li  Li0  1  0.99531900  0.49595800  0.00206100  1
  Li  Li1  1  0.00635100  0.00243100  0.49826800  1
  Sn  Sn2  1  0.20002900  0.94862900  0.74991700  1
  Sn  Sn3  1  0.79914900  0.04924400  0.25171100  1
  P  P4  1  0.99808700  0.68850000  0.30084600  1
  P  P5  1  0.25642900  0.71735000  0.47807400  1
  P  P6  1  0.69727200  0.73450900  0.02210600  1
  P  P7  1  0.51130600  0.70252100  0.80212600  1
  P  P8  1  0.48877500  0.29748300  0.19859600  1
  P  P9  1  0.30451100  0.26666000  0.97786300  1
  P  P10  1  0.74370200  0.28353200  0.51960200  1
  P  P11  1  0.00238900  0.31228200  0.69849100  1
  O  O12  1  0.03707400  0.65271900  0.15566800  1
  O  O13  1  0.12187000  0.80247000  0.57595100  1
  O  O14  1  0.18998500  0.68617900  0.34427500  1
  O  O15  1  0.49039900  0.82638200  0.41625500  1
  O  O16  1  0.29996400  0.71006400  0.82604700  1
  O  O17  1  0.20625300  0.49583100  0.56536300  1
  O  O18  1  0.12046000  0.29979300  0.07822600  1
  O  O19  1  0.74859700  0.90552400  0.08397000  1
  O  O20  1  0.56080800  0.77318300  0.93607000  1
  O  O21  1  0.69264500  0.80867400  0.65654800  1
  O  O22  1  0.53373600  0.53338100  0.15519500  1
  O  O23  1  0.04096700  0.12883700  0.67192700  1
  O  O24  1  0.96480900  0.87477300  0.32518200  1
  O  O25  1  0.46755400  0.46806800  0.84591700  1
  O  O26  1  0.30841100  0.18943900  0.34345200  1
  O  O27  1  0.44227700  0.22988300  0.06345900  1
  O  O28  1  0.25998600  0.09854600  0.91228500  1
  O  O29  1  0.88071000  0.69893100  0.92327300  1
  O  O30  1  0.79324800  0.50658500  0.43496900  1
  O  O31  1  0.69903100  0.28705300  0.17568200  1
  O  O32  1  0.51029700  0.17068800  0.58099500  1
  O  O33  1  0.81087900  0.31066400  0.65343400  1
  O  O34  1  0.87911900  0.20096000  0.41942400  1
  O  O35  1  0.95893700  0.34630000  0.84431000  1
