# generated using pymatgen
data_Li2Si2NiO6
_symmetry_space_group_name_H-M   'P 1'
_cell_length_a   7.13199200
_cell_length_b   9.82224800
_cell_length_c   10.04092200
_cell_angle_alpha   90.00000000
_cell_angle_beta   90.00000000
_cell_angle_gamma   90.00000000
_symmetry_Int_Tables_number   1
_chemical_formula_structural   Li2Si2NiO6
_chemical_formula_sum   'Li12 Si12 Ni6 O36'
_cell_volume   703.38861747
_cell_formula_units_Z   6
loop_
 _symmetry_equiv_pos_site_id
 _symmetry_equiv_pos_as_xyz
  1  'x, y, z'
loop_
 _atom_site_type_symbol
 _atom_site_label
 _atom_site_symmetry_multiplicity
 _atom_site_fract_x
 _atom_site_fract_y
 _atom_site_fract_z
 _atom_site_occupancy
  Li  Li0  1  0.78821800  0.24362000  0.00000000  1
  Li  Li1  1  0.77040700  0.76849100  0.00000000  1
  Li  Li2  1  0.28884800  0.45682300  0.22535000  1
  Li  Li3  1  0.22075200  0.03556700  0.22918700  1
  Li  Li4  1  0.77924800  0.53556700  0.27081300  1
  Li  Li5  1  0.71115200  0.95682300  0.27465000  1
  Li  Li6  1  0.22959300  0.26849100  0.50000000  1
  Li  Li7  1  0.21178200  0.74362000  0.50000000  1
  Li  Li8  1  0.71115200  0.95682300  0.72535000  1
  Li  Li9  1  0.77924800  0.53556700  0.72918700  1
  Li  Li10  1  0.22075200  0.03556700  0.77081300  1
  Li  Li11  1  0.28884800  0.45682300  0.77465000  1
  Si  Si12  1  0.98039500  0.52575600  0.00000000  1
  Si  Si13  1  0.51709900  0.96963900  0.00000000  1
  Si  Si14  1  0.02320100  0.75315600  0.22633300  1
  Si  Si15  1  0.47596300  0.74308100  0.22671800  1
  Si  Si16  1  0.52403700  0.24308100  0.27328200  1
  Si  Si17  1  0.97679900  0.25315600  0.27366700  1
  Si  Si18  1  0.48290100  0.46963900  0.50000000  1
  Si  Si19  1  0.01960500  0.02575600  0.50000000  1
  Si  Si20  1  0.97679900  0.25315600  0.72633300  1
  Si  Si21  1  0.52403700  0.24308100  0.72671800  1
  Si  Si22  1  0.47596300  0.74308100  0.77328200  1
  Si  Si23  1  0.02320100  0.75315600  0.77366700  1
  Ni  Ni24  1  0.24899700  0.24653700  0.00000000  1
  Ni  Ni25  1  0.98009400  0.02333200  0.00000000  1
  Ni  Ni26  1  0.51803700  0.46571100  0.00000000  1
  Ni  Ni27  1  0.01990600  0.52333200  0.50000000  1
  Ni  Ni28  1  0.48196300  0.96571100  0.50000000  1
  Ni  Ni29  1  0.75100300  0.74653700  0.50000000  1
  O  O30  1  0.30615300  0.03129100  0.00000000  1
  O  O31  1  0.69710000  0.06849400  0.00000000  1
  O  O32  1  0.18950800  0.46208500  0.00000000  1
  O  O33  1  0.79899800  0.42883400  0.00000000  1
  O  O34  1  0.04548100  0.19393500  0.13097500  1
  O  O35  1  0.55697400  0.86050400  0.12323400  1
  O  O36  1  0.94484500  0.63323700  0.12505400  1
  O  O37  1  0.44447200  0.30174400  0.13341400  1
  O  O38  1  0.94659100  0.89863700  0.17265900  1
  O  O39  1  0.53664300  0.59187600  0.17888300  1
  O  O40  1  0.75048100  0.25795700  0.27647600  1
  O  O41  1  0.24951900  0.75795700  0.22352400  1
  O  O42  1  0.46335700  0.09187600  0.32111700  1
  O  O43  1  0.05340900  0.39863700  0.32734100  1
  O  O44  1  0.55552800  0.80174400  0.36658600  1
  O  O45  1  0.05515500  0.13323700  0.37494600  1
  O  O46  1  0.44302600  0.36050400  0.37676600  1
  O  O47  1  0.95451900  0.69393500  0.36902500  1
  O  O48  1  0.69384700  0.53129100  0.50000000  1
  O  O49  1  0.30290000  0.56849400  0.50000000  1
  O  O50  1  0.20100200  0.92883400  0.50000000  1
  O  O51  1  0.81049200  0.96208500  0.50000000  1
  O  O52  1  0.95451900  0.69393500  0.63097500  1
  O  O53  1  0.44302600  0.36050400  0.62323400  1
  O  O54  1  0.05515500  0.13323700  0.62505400  1
  O  O55  1  0.55552800  0.80174400  0.63341400  1
  O  O56  1  0.05340900  0.39863700  0.67265900  1
  O  O57  1  0.46335700  0.09187600  0.67888300  1
  O  O58  1  0.24951900  0.75795700  0.77647600  1
  O  O59  1  0.75048100  0.25795700  0.72352400  1
  O  O60  1  0.53664300  0.59187600  0.82111700  1
  O  O61  1  0.94659100  0.89863700  0.82734100  1
  O  O62  1  0.44447200  0.30174400  0.86658600  1
  O  O63  1  0.94484500  0.63323700  0.87494600  1
  O  O64  1  0.55697400  0.86050400  0.87676600  1
  O  O65  1  0.04548100  0.19393500  0.86902500  1
