# generated using pymatgen
data_Li3V(PO4)2
_symmetry_space_group_name_H-M   'P 1'
_cell_length_a   4.69551138
_cell_length_b   5.15682356
_cell_length_c   13.60431544
_cell_angle_alpha   82.26941717
_cell_angle_beta   89.97292877
_cell_angle_gamma   62.87988025
_symmetry_Int_Tables_number   1
_chemical_formula_structural   Li3V(PO4)2
_chemical_formula_sum   'Li6 V2 P4 O16'
_cell_volume   289.83877557
_cell_formula_units_Z   2
loop_
 _symmetry_equiv_pos_site_id
 _symmetry_equiv_pos_as_xyz
  1  'x, y, z'
loop_
 _atom_site_type_symbol
 _atom_site_label
 _atom_site_symmetry_multiplicity
 _atom_site_fract_x
 _atom_site_fract_y
 _atom_site_fract_z
 _atom_site_occupancy
  Li  Li0  1  0.63632900  0.66556200  0.65793100  1
  Li  Li1  1  0.69977800  0.66528100  0.15817900  1
  Li  Li2  1  0.30034800  0.33824200  0.84021500  1
  Li  Li3  1  0.36367200  0.33706500  0.34026800  1
  Li  Li4  1  0.95423700  0.00230400  0.74916600  1
  Li  Li5  1  0.04564200  0.00084000  0.24924400  1
  V  V6  1  0.99929400  0.00149900  0.49927900  1
  V  V7  1  0.00021100  0.00180400  0.99912500  1
  P  P8  1  0.63891400  0.68708000  0.88342900  1
  P  P9  1  0.67483700  0.68659800  0.38392400  1
  P  P10  1  0.32401600  0.31646300  0.61441900  1
  P  P11  1  0.36130900  0.31640600  0.11453600  1
  O  O12  1  0.27416200  0.92174300  0.86676700  1
  O  O13  1  0.80272200  0.92223700  0.36676700  1
  O  O14  1  0.78335000  0.77539300  0.96712000  1
  O  O15  1  0.44269800  0.77477300  0.46794500  1
  O  O16  1  0.82340900  0.68180800  0.78903800  1
  O  O17  1  0.03228700  0.62629700  0.58533100  1
  O  O18  1  0.49540800  0.68078600  0.28967000  1
  O  O19  1  0.34246300  0.62649700  0.08517300  1
  O  O20  1  0.65868200  0.37662900  0.91286200  1
  O  O21  1  0.50474100  0.32338200  0.70813100  1
  O  O22  1  0.96650600  0.37657100  0.41331100  1
  O  O23  1  0.17436600  0.32322200  0.20841500  1
  O  O24  1  0.55532700  0.22878000  0.53016400  1
  O  O25  1  0.21741000  0.22982600  0.03010600  1
  O  O26  1  0.19475800  0.08158000  0.63171300  1
  O  O27  1  0.72548400  0.07995700  0.13209800  1
