# generated using pymatgen
data_Li4V3P8O29
_symmetry_space_group_name_H-M   'P 1'
_cell_length_a   9.73271900
_cell_length_b   9.78235132
_cell_length_c   14.18488150
_cell_angle_alpha   90.39400181
_cell_angle_beta   90.03502807
_cell_angle_gamma   119.63779106
_symmetry_Int_Tables_number   1
_chemical_formula_structural   Li4V3P8O29
_chemical_formula_sum   'Li8 V6 P16 O58'
_cell_volume   1173.79555179
_cell_formula_units_Z   2
loop_
 _symmetry_equiv_pos_site_id
 _symmetry_equiv_pos_as_xyz
  1  'x, y, z'
loop_
 _atom_site_type_symbol
 _atom_site_label
 _atom_site_symmetry_multiplicity
 _atom_site_fract_x
 _atom_site_fract_y
 _atom_site_fract_z
 _atom_site_occupancy
  Li  Li0  1  0.22654100  0.91444600  0.06159700  1
  Li  Li1  1  0.67429200  0.90553300  0.55261300  1
  Li  Li2  1  0.09026400  0.32272500  0.06062900  1
  Li  Li3  1  0.76638700  0.66330900  0.44002800  1
  Li  Li4  1  0.23355200  0.33060800  0.55926000  1
  Li  Li5  1  0.91016100  0.68370100  0.93981900  1
  Li  Li6  1  0.78001500  0.08074700  0.94490100  1
  Li  Li7  1  0.04560700  0.01374600  0.49097500  1
  V  V8  1  0.56657400  0.56802400  0.24387400  1
  V  V9  1  0.43231500  0.43331900  0.75608400  1
  V  V10  1  0.00281700  0.56909700  0.74320700  1
  V  V11  1  0.99289900  0.43068600  0.25828500  1
  V  V12  1  0.43267400  0.00197600  0.25336900  1
  V  V13  1  0.56081900  0.99884600  0.74515300  1
  P  P14  1  0.22888200  0.91188900  0.84291500  1
  P  P15  1  0.08435300  0.77936700  0.33896700  1
  P  P16  1  0.68882300  0.91142400  0.34089000  1
  P  P17  1  0.32322100  0.66191000  0.13152600  1
  P  P18  1  0.33789800  0.66550600  0.63096100  1
  P  P19  1  0.68566300  0.77500900  0.83978400  1
  P  P20  1  0.76612000  0.68190100  0.65770700  1
  P  P21  1  0.08464500  0.32066900  0.84268900  1
  P  P22  1  0.91184600  0.67912200  0.15658100  1
  P  P23  1  0.23139300  0.31640600  0.34343300  1
  P  P24  1  0.31311700  0.22765400  0.16068500  1
  P  P25  1  0.66280400  0.33893100  0.37015800  1
  P  P26  1  0.66971200  0.33302600  0.86687700  1
  P  P27  1  0.30210000  0.08615200  0.66102200  1
  P  P28  1  0.91513600  0.22106300  0.65974500  1
  P  P29  1  0.77062500  0.08834800  0.16093700  1
  O  O30  1  0.20237800  0.00556300  0.57769300  1
  O  O31  1  0.25712700  0.91291600  0.33500000  1
  O  O32  1  0.99548500  0.75138900  0.06630000  1
  O  O33  1  0.08073800  0.74722100  0.83533100  1
  O  O34  1  0.37988900  0.90088000  0.81578300  1
  O  O35  1  0.32760300  0.81450100  0.16804600  1
  O  O36  1  0.53243500  0.91098100  0.33004800  1
  O  O37  1  0.76864100  0.01264300  0.06995900  1
  O  O38  1  0.66054100  0.91995200  0.83985000  1
  O  O39  1  0.19610400  0.67570100  0.67138100  1
  O  O40  1  0.07898400  0.61811200  0.33168000  1
  O  O41  1  0.49494800  0.81416400  0.67302400  1
  O  O42  1  0.32539800  0.64794400  0.02736100  1
  O  O43  1  0.35626400  0.66643000  0.52694400  1
  O  O44  1  0.47117000  0.65771100  0.17938300  1
  O  O45  1  0.09372000  0.47912100  0.82099600  1
  O  O46  1  0.17594600  0.51602800  0.17542900  1
  O  O47  1  0.66168900  0.73979200  0.33118400  1
  O  O48  1  0.78534300  0.79777100  0.74394800  1
  O  O49  1  0.76483800  0.75996800  0.56731800  1
  O  O50  1  0.77351300  0.76724500  0.92279100  1
  O  O51  1  0.52390800  0.62082100  0.82373100  1
  O  O52  1  0.32907800  0.51225400  0.67410100  1
  O  O53  1  0.74266100  0.65608400  0.16212300  1
  O  O54  1  0.38781600  0.47023300  0.32940400  1
  O  O55  1  0.09015900  0.34858600  0.33151600  1
  O  O56  1  0.00847100  0.79771000  0.24114700  1
  O  O57  1  0.99410700  0.79631500  0.41896300  1
  O  O58  1  0.00771800  0.20251800  0.58202100  1
  O  O59  1  0.90896400  0.65471700  0.66544100  1
  O  O60  1  0.61253200  0.52588700  0.67554800  1
  O  O61  1  0.25397100  0.34326500  0.83468100  1
  O  O62  1  0.67507500  0.49282200  0.32591400  1
  O  O63  1  0.47631900  0.37937000  0.17784400  1
  O  O64  1  0.22642800  0.24012200  0.07882400  1
  O  O65  1  0.21436800  0.23396800  0.43462700  1
  O  O66  1  0.21274900  0.20254400  0.25711900  1
  O  O67  1  0.34130900  0.26106400  0.66553900  1
  O  O68  1  0.81601400  0.48243400  0.82904200  1
  O  O69  1  0.90393400  0.52131100  0.17830400  1
  O  O70  1  0.52022400  0.33638900  0.82285800  1
  O  O71  1  0.66280300  0.32008600  0.97085800  1
  O  O72  1  0.68049700  0.35816200  0.47405700  1
  O  O73  1  0.51674200  0.19481800  0.32855100  1
  O  O74  1  0.91532300  0.37711900  0.66700500  1
  O  O75  1  0.81285400  0.33333500  0.32578800  1
  O  O76  1  0.33617300  0.08250200  0.15971800  1
  O  O77  1  0.21107000  0.01199800  0.75864100  1
  O  O78  1  0.24765300  0.98916300  0.93562900  1
  O  O79  1  0.46044900  0.08037100  0.67008000  1
  O  O80  1  0.66500700  0.18252000  0.81919600  1
  O  O81  1  0.61691100  0.09347300  0.18096900  1
  O  O82  1  0.91634300  0.25827700  0.16711900  1
  O  O83  1  0.00434900  0.25053100  0.93371500  1
  O  O84  1  0.98517000  0.19940400  0.75981200  1
  O  O85  1  0.74115300  0.07888200  0.65981700  1
  O  O86  1  0.77829100  0.98044400  0.43034400  1
  O  O87  1  0.79557200  0.99997000  0.24973100  1
