# generated using pymatgen
data_LiMnF3
_symmetry_space_group_name_H-M   'P 1'
_cell_length_a   7.16530100
_cell_length_b   7.24248800
_cell_length_c   15.56412025
_cell_angle_alpha   84.10873549
_cell_angle_beta   90.00000000
_cell_angle_gamma   90.00000000
_symmetry_Int_Tables_number   1
_chemical_formula_structural   LiMnF3
_chemical_formula_sum   'Li12 Mn12 F36'
_cell_volume   803.42804261
_cell_formula_units_Z   12
loop_
 _symmetry_equiv_pos_site_id
 _symmetry_equiv_pos_as_xyz
  1  'x, y, z'
loop_
 _atom_site_type_symbol
 _atom_site_label
 _atom_site_symmetry_multiplicity
 _atom_site_fract_x
 _atom_site_fract_y
 _atom_site_fract_z
 _atom_site_occupancy
  Li  Li0  1  0.61433800  0.24539000  0.08393000  1
  Li  Li1  1  0.13512800  0.24063900  0.08617500  1
  Li  Li2  1  0.87338200  0.45020000  0.20487200  1
  Li  Li3  1  0.37338200  0.54980000  0.29512800  1
  Li  Li4  1  0.63512800  0.75936100  0.41382500  1
  Li  Li5  1  0.11433800  0.75461000  0.41607000  1
  Li  Li6  1  0.88566200  0.24539000  0.58393000  1
  Li  Li7  1  0.36487200  0.24063900  0.58617500  1
  Li  Li8  1  0.62661800  0.45020000  0.70487200  1
  Li  Li9  1  0.12661800  0.54980000  0.79512800  1
  Li  Li10  1  0.86487200  0.75936100  0.91382500  1
  Li  Li11  1  0.38566200  0.75461000  0.91607000  1
  Mn  Mn12  1  0.12384700  0.74487400  0.11432000  1
  Mn  Mn13  1  0.63165700  0.75172000  0.10676100  1
  Mn  Mn14  1  0.37418200  0.04096200  0.23082200  1
  Mn  Mn15  1  0.87418200  0.95903800  0.26917800  1
  Mn  Mn16  1  0.13165700  0.24828000  0.39323900  1
  Mn  Mn17  1  0.62384700  0.25512600  0.38568000  1
  Mn  Mn18  1  0.37615300  0.74487400  0.61432000  1
  Mn  Mn19  1  0.86834300  0.75172000  0.60676100  1
  Mn  Mn20  1  0.12581800  0.04096200  0.73082200  1
  Mn  Mn21  1  0.62581800  0.95903800  0.76917800  1
  Mn  Mn22  1  0.36834300  0.24828000  0.89323900  1
  Mn  Mn23  1  0.87615300  0.25512600  0.88568000  1
  F  F24  1  0.88743400  0.78739700  0.03221600  1
  F  F25  1  0.36961400  0.76737500  0.03633900  1
  F  F26  1  0.37593900  0.18400400  0.10816800  1
  F  F27  1  0.67511500  0.01178800  0.15958500  1
  F  F28  1  0.66660200  0.46792700  0.12842400  1
  F  F29  1  0.08166700  0.01106300  0.16593000  1
  F  F30  1  0.08445000  0.46063000  0.13255400  1
  F  F31  1  0.87538600  0.70730700  0.21089300  1
  F  F32  1  0.37608300  0.74984400  0.20657600  1
  F  F33  1  0.87608300  0.25015600  0.29342400  1
  F  F34  1  0.37538600  0.29269300  0.28910700  1
  F  F35  1  0.58445000  0.53937000  0.36744600  1
  F  F36  1  0.58166700  0.98893700  0.33407000  1
  F  F37  1  0.16660200  0.53207300  0.37157600  1
  F  F38  1  0.17511500  0.98821200  0.34041500  1
  F  F39  1  0.87593900  0.81599600  0.39183200  1
  F  F40  1  0.86961400  0.23262500  0.46366100  1
  F  F41  1  0.38743400  0.21260300  0.46778400  1
  F  F42  1  0.61256600  0.78739700  0.53221600  1
  F  F43  1  0.13038600  0.76737500  0.53633900  1
  F  F44  1  0.12406100  0.18400400  0.60816800  1
  F  F45  1  0.82488500  0.01178800  0.65958500  1
  F  F46  1  0.83339800  0.46792700  0.62842400  1
  F  F47  1  0.41833300  0.01106300  0.66593000  1
  F  F48  1  0.41555000  0.46063000  0.63255400  1
  F  F49  1  0.62461400  0.70730700  0.71089300  1
  F  F50  1  0.12391700  0.74984400  0.70657600  1
  F  F51  1  0.62391700  0.25015600  0.79342400  1
  F  F52  1  0.12461400  0.29269300  0.78910700  1
  F  F53  1  0.91555000  0.53937000  0.86744600  1
  F  F54  1  0.91833300  0.98893700  0.83407000  1
  F  F55  1  0.33339800  0.53207300  0.87157600  1
  F  F56  1  0.32488500  0.98821200  0.84041500  1
  F  F57  1  0.62406100  0.81599600  0.89183200  1
  F  F58  1  0.63038600  0.23262500  0.96366100  1
  F  F59  1  0.11256600  0.21260300  0.96778400  1
