# generated using pymatgen
data_Li6Fe3Sb3O16
_symmetry_space_group_name_H-M   'P 1'
_cell_length_a   6.08322942
_cell_length_b   6.08322942
_cell_length_c   10.04007075
_cell_angle_alpha   89.57385225
_cell_angle_beta   89.57385225
_cell_angle_gamma   60.39329279
_symmetry_Int_Tables_number   1
_chemical_formula_structural   Li6Fe3Sb3O16
_chemical_formula_sum   'Li6 Fe3 Sb3 O16'
_cell_volume   323.01839326
_cell_formula_units_Z   1
loop_
 _symmetry_equiv_pos_site_id
 _symmetry_equiv_pos_as_xyz
  1  'x, y, z'
loop_
 _atom_site_type_symbol
 _atom_site_label
 _atom_site_symmetry_multiplicity
 _atom_site_fract_x
 _atom_site_fract_y
 _atom_site_fract_z
 _atom_site_occupancy
  Li  Li0  1  0.33507200  0.33507200  0.49877400  1
  Li  Li1  1  0.33225000  0.33225000  0.12482100  1
  Li  Li2  1  0.00903400  0.00903400  0.00087900  1
  Li  Li3  1  0.00707700  0.00707700  0.49541500  1
  Li  Li4  1  0.65797300  0.65797300  0.99981000  1
  Li  Li5  1  0.67330500  0.67330500  0.61077800  1
  Fe  Fe6  1  0.16764200  0.16764200  0.78210400  1
  Fe  Fe7  1  0.83041500  0.33496300  0.28365400  1
  Fe  Fe8  1  0.33496300  0.83041500  0.28365400  1
  Sb  Sb9  1  0.66165900  0.16813900  0.78462100  1
  Sb  Sb10  1  0.16813900  0.66165900  0.78462100  1
  Sb  Sb11  1  0.82938000  0.82938000  0.28535100  1
  O  O12  1  0.69617700  0.15732200  0.39049600  1
  O  O13  1  0.48826700  0.48826700  0.67308800  1
  O  O14  1  0.33482300  0.33482300  0.89978600  1
  O  O15  1  0.99697300  0.99697300  0.67676500  1
  O  O16  1  0.99132800  0.99132800  0.17795500  1
  O  O17  1  0.15732200  0.69617700  0.39049600  1
  O  O18  1  0.49158000  0.03105100  0.67512200  1
  O  O19  1  0.03105100  0.49158000  0.67512200  1
  O  O20  1  0.84459400  0.84459400  0.89571800  1
  O  O21  1  0.15086500  0.15086500  0.37824200  1
  O  O22  1  0.96660900  0.50895800  0.17759500  1
  O  O23  1  0.50895800  0.96660900  0.17759500  1
  O  O24  1  0.67266000  0.67266000  0.40172900  1
  O  O25  1  0.83859400  0.30599300  0.89055900  1
  O  O26  1  0.51807300  0.51807300  0.18683700  1
  O  O27  1  0.30599300  0.83859400  0.89055900  1
