# generated using pymatgen
data_LiBH2OF4
_symmetry_space_group_name_H-M   'P 1'
_cell_length_a   5.18254100
_cell_length_b   10.32920500
_cell_length_c   13.46477600
_cell_angle_alpha   90.00000000
_cell_angle_beta   90.00000000
_cell_angle_gamma   90.00000000
_symmetry_Int_Tables_number   1
_chemical_formula_structural   LiBH2OF4
_chemical_formula_sum   'Li8 B8 H16 O8 F32'
_cell_volume   720.79003898
_cell_formula_units_Z   8
loop_
 _symmetry_equiv_pos_site_id
 _symmetry_equiv_pos_as_xyz
  1  'x, y, z'
loop_
 _atom_site_type_symbol
 _atom_site_label
 _atom_site_symmetry_multiplicity
 _atom_site_fract_x
 _atom_site_fract_y
 _atom_site_fract_z
 _atom_site_occupancy
  Li  Li0  1  0.03072300  0.75000000  0.00000000  1
  Li  Li1  1  0.46927700  0.75000000  0.50000000  1
  Li  Li2  1  0.96927700  0.25000000  0.00000000  1
  Li  Li3  1  0.53072300  0.25000000  0.50000000  1
  Li  Li4  1  0.25000000  0.86760600  0.25000000  1
  Li  Li5  1  0.25000000  0.63239400  0.75000000  1
  Li  Li6  1  0.75000000  0.13239400  0.75000000  1
  Li  Li7  1  0.75000000  0.36760600  0.25000000  1
  B  B8  1  0.51035700  0.62890200  0.12555000  1
  B  B9  1  0.51035700  0.87109800  0.87445000  1
  B  B10  1  0.98964300  0.62890200  0.37445000  1
  B  B11  1  0.98964300  0.87109800  0.62555000  1
  B  B12  1  0.48964300  0.37109800  0.87445000  1
  B  B13  1  0.48964300  0.12890200  0.12555000  1
  B  B14  1  0.01035700  0.37109800  0.62555000  1
  B  B15  1  0.01035700  0.12890200  0.37445000  1
  H  H16  1  0.83083500  0.63248400  0.85607200  1
  H  H17  1  0.83083500  0.86751600  0.14392800  1
  H  H18  1  0.66916500  0.63248400  0.64392800  1
  H  H19  1  0.66916500  0.86751600  0.35607200  1
  H  H20  1  0.16916500  0.36751600  0.14392800  1
  H  H21  1  0.16916500  0.13248400  0.85607200  1
  H  H22  1  0.33083500  0.36751600  0.35607200  1
  H  H23  1  0.33083500  0.13248400  0.64392800  1
  H  H24  1  0.04007600  0.53914400  0.89865600  1
  H  H25  1  0.04007600  0.96085600  0.10134400  1
  H  H26  1  0.45992400  0.53914400  0.60134400  1
  H  H27  1  0.45992400  0.96085600  0.39865600  1
  H  H28  1  0.95992400  0.46085600  0.10134400  1
  H  H29  1  0.95992400  0.03914400  0.89865600  1
  H  H30  1  0.54007600  0.46085600  0.39865600  1
  H  H31  1  0.54007600  0.03914400  0.60134400  1
  O  O32  1  0.01265300  0.62799300  0.87605200  1
  O  O33  1  0.01265300  0.87200700  0.12394800  1
  O  O34  1  0.48734700  0.62799300  0.62394800  1
  O  O35  1  0.48734700  0.87200700  0.37605200  1
  O  O36  1  0.98734700  0.37200700  0.12394800  1
  O  O37  1  0.98734700  0.12799300  0.87605200  1
  O  O38  1  0.51265300  0.37200700  0.37605200  1
  O  O39  1  0.51265300  0.12799300  0.62394800  1
  F  F40  1  0.29430200  0.62761600  0.06138700  1
  F  F41  1  0.29430200  0.87238400  0.93861300  1
  F  F42  1  0.20569800  0.62761600  0.43861300  1
  F  F43  1  0.20569800  0.87238400  0.56138700  1
  F  F44  1  0.70569800  0.37238400  0.93861300  1
  F  F45  1  0.70569800  0.12761600  0.06138700  1
  F  F46  1  0.79430200  0.37238400  0.56138700  1
  F  F47  1  0.79430200  0.12761600  0.43861300  1
  F  F48  1  0.50974700  0.51510000  0.18408500  1
  F  F49  1  0.50974700  0.98490000  0.81591500  1
  F  F50  1  0.99025300  0.51510000  0.31591500  1
  F  F51  1  0.99025300  0.98490000  0.68408500  1
  F  F52  1  0.49025300  0.48490000  0.81591500  1
  F  F53  1  0.49025300  0.01510000  0.18408500  1
  F  F54  1  0.00974700  0.48490000  0.68408500  1
  F  F55  1  0.00974700  0.01510000  0.31591500  1
  F  F56  1  0.74176200  0.63273900  0.06863600  1
  F  F57  1  0.74176200  0.86726100  0.93136400  1
  F  F58  1  0.75823800  0.63273900  0.43136400  1
  F  F59  1  0.75823800  0.86726100  0.56863600  1
  F  F60  1  0.25823800  0.36726100  0.93136400  1
  F  F61  1  0.25823800  0.13273900  0.06863600  1
  F  F62  1  0.24176200  0.36726100  0.56863600  1
  F  F63  1  0.24176200  0.13273900  0.43136400  1
  F  F64  1  0.50129000  0.73999400  0.18743700  1
  F  F65  1  0.50129000  0.76000600  0.81256300  1
  F  F66  1  0.99871000  0.73999400  0.31256300  1
  F  F67  1  0.99871000  0.76000600  0.68743700  1
  F  F68  1  0.49871000  0.26000600  0.81256300  1
  F  F69  1  0.49871000  0.23999400  0.18743700  1
  F  F70  1  0.00129000  0.26000600  0.68743700  1
  F  F71  1  0.00129000  0.23999400  0.31256300  1
