# generated using pymatgen
data_LiMn2(PO4)3
_symmetry_space_group_name_H-M   'P 1'
_cell_length_a   8.48962600
_cell_length_b   8.50129185
_cell_length_c   11.82747724
_cell_angle_alpha   89.90903450
_cell_angle_beta   89.98634393
_cell_angle_gamma   89.96219053
_symmetry_Int_Tables_number   1
_chemical_formula_structural   LiMn2(PO4)3
_chemical_formula_sum   'Li4 Mn8 P12 O48'
_cell_volume   853.62072557
_cell_formula_units_Z   4
loop_
 _symmetry_equiv_pos_site_id
 _symmetry_equiv_pos_as_xyz
  1  'x, y, z'
loop_
 _atom_site_type_symbol
 _atom_site_label
 _atom_site_symmetry_multiplicity
 _atom_site_fract_x
 _atom_site_fract_y
 _atom_site_fract_z
 _atom_site_occupancy
  Li  Li0  1  0.28707700  0.72419400  0.31862400  1
  Li  Li1  1  0.78770700  0.77427500  0.81852000  1
  Li  Li2  1  0.93680700  0.08291600  0.28907800  1
  Li  Li3  1  0.93855200  0.41604400  0.71099100  1
  Mn  Mn4  1  0.25001000  0.53157500  0.11652200  1
  Mn  Mn5  1  0.25185800  0.96527200  0.87923700  1
  Mn  Mn6  1  0.25513800  0.04033900  0.38388500  1
  Mn  Mn7  1  0.25786900  0.46545000  0.61841400  1
  Mn  Mn8  1  0.75060600  0.53602600  0.37920400  1
  Mn  Mn9  1  0.74892800  0.96718600  0.61661600  1
  Mn  Mn10  1  0.74461100  0.03498800  0.11424900  1
  Mn  Mn11  1  0.74190400  0.45899500  0.88788600  1
  P  P12  1  0.03799600  0.74920800  0.50169300  1
  P  P13  1  0.10936600  0.60796400  0.85428500  1
  P  P14  1  0.10676000  0.89587900  0.14403100  1
  P  P15  1  0.39896000  0.39115800  0.35455200  1
  P  P16  1  0.39589900  0.10782200  0.64684900  1
  P  P17  1  0.45779000  0.24779600  0.00040000  1
  P  P18  1  0.53484100  0.75044200  0.00149600  1
  P  P19  1  0.60973300  0.89311800  0.35372800  1
  P  P20  1  0.60802000  0.60356800  0.64466300  1
  P  P21  1  0.89451100  0.39534800  0.14710100  1
  P  P22  1  0.89768100  0.10637100  0.85442700  1
  P  P23  1  0.95934400  0.25162200  0.50015100  1
  O  O24  1  0.05893200  0.35555700  0.57925600  1
  O  O25  1  0.05712400  0.14381600  0.42119300  1
  O  O26  1  0.07506700  0.40390700  0.15966600  1
  O  O27  1  0.07665700  0.09882300  0.83970300  1
  O  O28  1  0.15731000  0.93440800  0.02454700  1
  O  O29  1  0.15784200  0.56569100  0.97411200  1
  O  O30  1  0.14978100  0.84243300  0.42020300  1
  O  O31  1  0.14569000  0.65413500  0.58100200  1
  O  O32  1  0.15925600  0.72814300  0.17983000  1
  O  O33  1  0.15063600  0.77709200  0.82163100  1
  O  O34  1  0.17223500  0.01812500  0.23039900  1
  O  O35  1  0.17207800  0.48210600  0.77055700  1
  O  O36  1  0.31994500  0.51364100  0.27414800  1
  O  O37  1  0.31867700  0.98525000  0.72565800  1
  O  O38  1  0.34966100  0.27733400  0.67857500  1
  O  O39  1  0.34967500  0.22359200  0.32136400  1
  O  O40  1  0.35158300  0.34112900  0.08168400  1
  O  O41  1  0.35073900  0.15599500  0.91989800  1
  O  O42  1  0.34470700  0.43581200  0.47364700  1
  O  O43  1  0.34587500  0.06799500  0.52558700  1
  O  O44  1  0.42725600  0.90285700  0.33821700  1
  O  O45  1  0.42818400  0.59747700  0.66263800  1
  O  O46  1  0.44058300  0.64144400  0.07851900  1
  O  O47  1  0.44090800  0.85637200  0.92154300  1
  O  O48  1  0.55453500  0.35529000  0.92087600  1
  O  O49  1  0.55832500  0.14402400  0.07862700  1
  O  O50  1  0.57848700  0.39938200  0.34035300  1
  O  O51  1  0.57688000  0.09859600  0.65922800  1
  O  O52  1  0.65636900  0.93335700  0.47458800  1
  O  O53  1  0.65576200  0.56635500  0.52395300  1
  O  O54  1  0.64661800  0.84233400  0.08034100  1
  O  O55  1  0.64807600  0.65806700  0.92036000  1
  O  O56  1  0.64858300  0.72270600  0.32156200  1
  O  O57  1  0.65903400  0.77251000  0.67989500  1
  O  O58  1  0.69214300  0.01526500  0.27630700  1
  O  O59  1  0.69369200  0.48457200  0.72394300  1
  O  O60  1  0.81720100  0.51701700  0.22576400  1
  O  O61  1  0.81832600  0.98518000  0.77422200  1
  O  O62  1  0.85053300  0.22330200  0.17745000  1
  O  O63  1  0.85042800  0.27661500  0.82305600  1
  O  O64  1  0.85346000  0.34321500  0.41838900  1
  O  O65  1  0.85310700  0.15914300  0.58189000  1
  O  O66  1  0.84362400  0.43246500  0.02597900  1
  O  O67  1  0.84293700  0.06406200  0.97337400  1
  O  O68  1  0.92559500  0.90768200  0.16126300  1
  O  O69  1  0.92539600  0.59517900  0.83935600  1
  O  O70  1  0.94058800  0.64492900  0.42205500  1
  O  O71  1  0.94128800  0.85806500  0.57797000  1
