# generated using pymatgen
data_Li4Mn3F10
_symmetry_space_group_name_H-M   'P 1'
_cell_length_a   5.41154500
_cell_length_b   5.41589000
_cell_length_c   27.09654300
_cell_angle_alpha   90.00000000
_cell_angle_beta   90.00000000
_cell_angle_gamma   90.00000000
_symmetry_Int_Tables_number   1
_chemical_formula_structural   Li4Mn3F10
_chemical_formula_sum   'Li16 Mn12 F40'
_cell_volume   794.15449049
_cell_formula_units_Z   4
loop_
 _symmetry_equiv_pos_site_id
 _symmetry_equiv_pos_as_xyz
  1  'x, y, z'
loop_
 _atom_site_type_symbol
 _atom_site_label
 _atom_site_symmetry_multiplicity
 _atom_site_fract_x
 _atom_site_fract_y
 _atom_site_fract_z
 _atom_site_occupancy
  Li  Li0  1  0.01439500  0.51038300  0.57450700  1
  Li  Li1  1  0.01439500  0.98961700  0.07450700  1
  Li  Li2  1  0.96321000  0.46595700  0.72019400  1
  Li  Li3  1  0.96321000  0.03404300  0.22019400  1
  Li  Li4  1  0.53679000  0.96595700  0.72019400  1
  Li  Li5  1  0.53679000  0.53404300  0.22019400  1
  Li  Li6  1  0.48560500  0.48961700  0.07450700  1
  Li  Li7  1  0.48560500  0.01038300  0.57450700  1
  Li  Li8  1  0.51439500  0.98961700  0.42549300  1
  Li  Li9  1  0.51439500  0.51038300  0.92549300  1
  Li  Li10  1  0.46321000  0.46595700  0.77980600  1
  Li  Li11  1  0.46321000  0.03404300  0.27980600  1
  Li  Li12  1  0.03679000  0.96595700  0.77980600  1
  Li  Li13  1  0.03679000  0.53404300  0.27980600  1
  Li  Li14  1  0.98560500  0.01038300  0.92549300  1
  Li  Li15  1  0.98560500  0.48961700  0.42549300  1
  Mn  Mn16  1  0.00000000  0.50000000  0.00000000  1
  Mn  Mn17  1  0.00000000  0.00000000  0.50000000  1
  Mn  Mn18  1  0.99637900  0.49578200  0.85146400  1
  Mn  Mn19  1  0.99637900  0.00421800  0.35146400  1
  Mn  Mn20  1  0.50362100  0.50421800  0.35146400  1
  Mn  Mn21  1  0.50362100  0.99578200  0.85146400  1
  Mn  Mn22  1  0.50000000  0.50000000  0.50000000  1
  Mn  Mn23  1  0.50000000  0.00000000  0.00000000  1
  Mn  Mn24  1  0.49637900  0.49578200  0.64853600  1
  Mn  Mn25  1  0.49637900  0.00421800  0.14853600  1
  Mn  Mn26  1  0.00362100  0.99578200  0.64853600  1
  Mn  Mn27  1  0.00362100  0.50421800  0.14853600  1
  F  F28  1  0.87375000  0.09827600  0.72136900  1
  F  F29  1  0.87375000  0.40172400  0.22136900  1
  F  F30  1  0.86021200  0.39301400  0.92566100  1
  F  F31  1  0.86021200  0.10698600  0.42566100  1
  F  F32  1  0.83880400  0.33458900  0.52279600  1
  F  F33  1  0.83880400  0.16541100  0.02279600  1
  F  F34  1  0.84338400  0.15946700  0.82708900  1
  F  F35  1  0.84338400  0.34053300  0.32708900  1
  F  F36  1  0.84019300  0.33262900  0.62610600  1
  F  F37  1  0.84019300  0.16737100  0.12610600  1
  F  F38  1  0.65980700  0.66737100  0.12610600  1
  F  F39  1  0.65980700  0.83262900  0.62610600  1
  F  F40  1  0.65661600  0.65946700  0.82708900  1
  F  F41  1  0.65661600  0.84053300  0.32708900  1
  F  F42  1  0.66119600  0.83458900  0.52279600  1
  F  F43  1  0.66119600  0.66541100  0.02279600  1
  F  F44  1  0.63978800  0.60698600  0.42566100  1
  F  F45  1  0.63978800  0.89301400  0.92566100  1
  F  F46  1  0.62625000  0.59827600  0.72136900  1
  F  F47  1  0.62625000  0.90172400  0.22136900  1
  F  F48  1  0.37375000  0.09827600  0.77863100  1
  F  F49  1  0.37375000  0.40172400  0.27863100  1
  F  F50  1  0.36021200  0.10698600  0.07433900  1
  F  F51  1  0.36021200  0.39301400  0.57433900  1
  F  F52  1  0.33880400  0.33458900  0.97720400  1
  F  F53  1  0.33880400  0.16541100  0.47720400  1
  F  F54  1  0.34338400  0.15946700  0.67291100  1
  F  F55  1  0.34338400  0.34053300  0.17291100  1
  F  F56  1  0.34019300  0.16737100  0.37389400  1
  F  F57  1  0.34019300  0.33262900  0.87389400  1
  F  F58  1  0.15980700  0.66737100  0.37389400  1
  F  F59  1  0.15980700  0.83262900  0.87389400  1
  F  F60  1  0.15661600  0.65946700  0.67291100  1
  F  F61  1  0.15661600  0.84053300  0.17291100  1
  F  F62  1  0.16119600  0.83458900  0.97720400  1
  F  F63  1  0.16119600  0.66541100  0.47720400  1
  F  F64  1  0.13978800  0.89301400  0.57433900  1
  F  F65  1  0.13978800  0.60698600  0.07433900  1
  F  F66  1  0.12625000  0.59827600  0.77863100  1
  F  F67  1  0.12625000  0.90172400  0.27863100  1
