# generated using pymatgen
data_Li4Nb2Cr3Fe3O16
_symmetry_space_group_name_H-M   'P 1'
_cell_length_a   5.99735046
_cell_length_b   5.99735046
_cell_length_c   9.70454648
_cell_angle_alpha   89.50973178
_cell_angle_beta   89.50973178
_cell_angle_gamma   59.95247716
_symmetry_Int_Tables_number   1
_chemical_formula_structural   Li4Nb2Cr3Fe3O16
_chemical_formula_sum   'Li4 Nb2 Cr3 Fe3 O16'
_cell_volume   302.13105798
_cell_formula_units_Z   1
loop_
 _symmetry_equiv_pos_site_id
 _symmetry_equiv_pos_as_xyz
  1  'x, y, z'
loop_
 _atom_site_type_symbol
 _atom_site_label
 _atom_site_symmetry_multiplicity
 _atom_site_fract_x
 _atom_site_fract_y
 _atom_site_fract_z
 _atom_site_occupancy
  Li  Li0  1  0.66617500  0.66617500  0.09699900  1
  Li  Li1  1  0.00007600  0.00007600  0.00863900  1
  Li  Li2  1  0.00033900  0.00033900  0.50871400  1
  Li  Li3  1  0.33281700  0.33281700  0.59950200  1
  Nb  Nb4  1  0.66550700  0.66550700  0.50765400  1
  Nb  Nb5  1  0.33171700  0.33171700  0.00539800  1
  Cr  Cr6  1  0.34062400  0.83003400  0.78562700  1
  Cr  Cr7  1  0.83003400  0.34062400  0.78562700  1
  Cr  Cr8  1  0.17080800  0.17080800  0.28638400  1
  Fe  Fe9  1  0.82903500  0.82903500  0.78094900  1
  Fe  Fe10  1  0.17160000  0.65795200  0.28220400  1
  Fe  Fe11  1  0.65795200  0.17160000  0.28220400  1
  O  O12  1  0.33508400  0.83501600  0.40710900  1
  O  O13  1  0.51989100  0.51989100  0.66105100  1
  O  O14  1  0.66893300  0.66893300  0.89140200  1
  O  O15  1  0.99922700  0.99922700  0.69419000  1
  O  O16  1  0.99990700  0.99990700  0.19502100  1
  O  O17  1  0.83501600  0.33508400  0.40710900  1
  O  O18  1  0.51562500  0.96197900  0.65702700  1
  O  O19  1  0.96197900  0.51562500  0.65702700  1
  O  O20  1  0.16680700  0.16680700  0.90472000  1
  O  O21  1  0.83234300  0.83234300  0.41049300  1
  O  O22  1  0.03836800  0.47799900  0.15743900  1
  O  O23  1  0.47799900  0.03836800  0.15743900  1
  O  O24  1  0.33545200  0.33545200  0.39220300  1
  O  O25  1  0.17002100  0.66489700  0.90806800  1
  O  O26  1  0.48108500  0.48108500  0.15392000  1
  O  O27  1  0.66489700  0.17002100  0.90806800  1
