# generated using pymatgen
data_Li2MnF4
_symmetry_space_group_name_H-M   'P 1'
_cell_length_a   5.07119100
_cell_length_b   5.81001000
_cell_length_c   10.49041700
_cell_angle_alpha   90.00000000
_cell_angle_beta   90.00000000
_cell_angle_gamma   90.00000000
_symmetry_Int_Tables_number   1
_chemical_formula_structural   Li2MnF4
_chemical_formula_sum   'Li8 Mn4 F16'
_cell_volume   309.08618908
_cell_formula_units_Z   4
loop_
 _symmetry_equiv_pos_site_id
 _symmetry_equiv_pos_as_xyz
  1  'x, y, z'
loop_
 _atom_site_type_symbol
 _atom_site_label
 _atom_site_symmetry_multiplicity
 _atom_site_fract_x
 _atom_site_fract_y
 _atom_site_fract_z
 _atom_site_occupancy
  Li  Li0  1  0.48691400  0.50000000  0.22683100  1
  Li  Li1  1  0.00000000  0.25000000  0.25000000  1
  Li  Li2  1  0.00000000  0.75000000  0.25000000  1
  Li  Li3  1  0.51308600  0.00000000  0.27316900  1
  Li  Li4  1  0.51308600  0.00000000  0.72683100  1
  Li  Li5  1  0.00000000  0.25000000  0.75000000  1
  Li  Li6  1  0.00000000  0.75000000  0.75000000  1
  Li  Li7  1  0.48691400  0.50000000  0.77316900  1
  Mn  Mn8  1  0.46754700  0.00000000  0.00000000  1
  Mn  Mn9  1  0.86092100  0.50000000  0.00000000  1
  Mn  Mn10  1  0.13907900  0.00000000  0.50000000  1
  Mn  Mn11  1  0.53245300  0.50000000  0.50000000  1
  F  F12  1  0.66656700  0.74905800  0.12849400  1
  F  F13  1  0.66656700  0.25094200  0.12849400  1
  F  F14  1  0.14615200  0.50000000  0.14390700  1
  F  F15  1  0.20023700  0.00000000  0.15062200  1
  F  F16  1  0.79976300  0.50000000  0.34937800  1
  F  F17  1  0.85384800  0.00000000  0.35609300  1
  F  F18  1  0.33343300  0.24905800  0.37150600  1
  F  F19  1  0.33343300  0.75094200  0.37150600  1
  F  F20  1  0.33343300  0.24905800  0.62849400  1
  F  F21  1  0.33343300  0.75094200  0.62849400  1
  F  F22  1  0.85384800  0.00000000  0.64390700  1
  F  F23  1  0.79976300  0.50000000  0.65062200  1
  F  F24  1  0.20023700  0.00000000  0.84937800  1
  F  F25  1  0.14615200  0.50000000  0.85609300  1
  F  F26  1  0.66656700  0.25094200  0.87150600  1
  F  F27  1  0.66656700  0.74905800  0.87150600  1
