# generated using pymatgen
data_Li3SbS4
_symmetry_space_group_name_H-M   'P 1'
_cell_length_a   7.20251700
_cell_length_b   9.24964800
_cell_length_c   10.06611200
_cell_angle_alpha   90.00000000
_cell_angle_beta   90.00000000
_cell_angle_gamma   90.00000000
_symmetry_Int_Tables_number   1
_chemical_formula_structural   Li3SbS4
_chemical_formula_sum   'Li12 Sb4 S16'
_cell_volume   670.61190046
_cell_formula_units_Z   4
loop_
 _symmetry_equiv_pos_site_id
 _symmetry_equiv_pos_as_xyz
  1  'x, y, z'
loop_
 _atom_site_type_symbol
 _atom_site_label
 _atom_site_symmetry_multiplicity
 _atom_site_fract_x
 _atom_site_fract_y
 _atom_site_fract_z
 _atom_site_occupancy
  Li  Li0  1  0.26394500  0.04830200  0.24521500  1
  Li  Li1  1  0.26394500  0.45169800  0.24521500  1
  Li  Li2  1  0.01213300  0.75000000  0.09578500  1
  Li  Li3  1  0.48786700  0.25000000  0.59578500  1
  Li  Li4  1  0.23605500  0.54830200  0.74521500  1
  Li  Li5  1  0.23605500  0.95169800  0.74521500  1
  Li  Li6  1  0.76394500  0.04830200  0.25478500  1
  Li  Li7  1  0.76394500  0.45169800  0.25478500  1
  Li  Li8  1  0.51213300  0.75000000  0.40421500  1
  Li  Li9  1  0.98786700  0.25000000  0.90421500  1
  Li  Li10  1  0.73605500  0.54830200  0.75478500  1
  Li  Li11  1  0.73605500  0.95169800  0.75478500  1
  Sb  Sb12  1  0.07456600  0.75000000  0.49354400  1
  Sb  Sb13  1  0.42543400  0.25000000  0.99354400  1
  Sb  Sb14  1  0.57456600  0.75000000  0.00645600  1
  Sb  Sb15  1  0.92543400  0.25000000  0.50645600  1
  S  S16  1  0.85225800  0.75000000  0.31934300  1
  S  S17  1  0.21530900  0.05292200  0.98022300  1
  S  S18  1  0.21530900  0.44707800  0.98022300  1
  S  S19  1  0.98169600  0.75000000  0.72020800  1
  S  S20  1  0.51830400  0.25000000  0.22020800  1
  S  S21  1  0.28469100  0.55292200  0.48022300  1
  S  S22  1  0.28469100  0.94707800  0.48022300  1
  S  S23  1  0.64774200  0.25000000  0.81934300  1
  S  S24  1  0.35225800  0.75000000  0.18065700  1
  S  S25  1  0.71530900  0.05292200  0.51977700  1
  S  S26  1  0.71530900  0.44707800  0.51977700  1
  S  S27  1  0.48169600  0.75000000  0.77979200  1
  S  S28  1  0.01830400  0.25000000  0.27979200  1
  S  S29  1  0.78469100  0.94707800  0.01977700  1
  S  S30  1  0.78469100  0.55292200  0.01977700  1
  S  S31  1  0.14774200  0.25000000  0.68065700  1
