# generated using pymatgen
data_Li6V3P8O29
_symmetry_space_group_name_H-M   'P 1'
_cell_length_a   9.80944977
_cell_length_b   9.79129576
_cell_length_c   13.94363227
_cell_angle_alpha   89.82256243
_cell_angle_beta   89.63558654
_cell_angle_gamma   60.37604161
_symmetry_Int_Tables_number   1
_chemical_formula_structural   Li6V3P8O29
_chemical_formula_sum   'Li12 V6 P16 O58'
_cell_volume   1164.16836215
_cell_formula_units_Z   2
loop_
 _symmetry_equiv_pos_site_id
 _symmetry_equiv_pos_as_xyz
  1  'x, y, z'
loop_
 _atom_site_type_symbol
 _atom_site_label
 _atom_site_symmetry_multiplicity
 _atom_site_fract_x
 _atom_site_fract_y
 _atom_site_fract_z
 _atom_site_occupancy
  Li  Li0  1  0.91235000  0.77315600  0.06160100  1
  Li  Li1  1  0.76583400  0.90308900  0.55790900  1
  Li  Li2  1  0.89860600  0.33814500  0.55808200  1
  Li  Li3  1  0.77281800  0.32178100  0.06221400  1
  Li  Li4  1  0.31887600  0.90475600  0.05942600  1
  Li  Li5  1  0.33323100  0.76947000  0.55812800  1
  Li  Li6  1  0.69058000  0.08367100  0.94020200  1
  Li  Li7  1  0.34003600  0.32938200  0.61126300  1
  Li  Li8  1  0.33546300  0.33551600  0.11443500  1
  Li  Li9  1  0.09255600  0.67604200  0.43685900  1
  Li  Li10  1  0.08798700  0.22250100  0.94007000  1
  Li  Li11  1  0.98777300  0.03841800  0.49109300  1
  V  V12  1  0.56272900  0.43653400  0.25278800  1
  V  V13  1  0.43388600  0.56688200  0.75217800  1
  V  V14  1  0.56698100  0.99625000  0.74895800  1
  V  V15  1  0.43338700  0.00078900  0.25475500  1
  V  V16  1  0.00020100  0.56619300  0.25132300  1
  V  V17  1  0.99787500  0.43193000  0.75191800  1
  P  P18  1  0.91282600  0.76833400  0.84237000  1
  P  P19  1  0.77205400  0.91364800  0.34327300  1
  P  P20  1  0.91213900  0.31283400  0.34153600  1
  P  P21  1  0.66502300  0.67025500  0.12856800  1
  P  P22  1  0.66787900  0.66459100  0.62655600  1
  P  P23  1  0.76399400  0.32049200  0.84371100  1
  P  P24  1  0.69034900  0.22358100  0.65778400  1
  P  P25  1  0.31677200  0.91238800  0.84441900  1
  P  P26  1  0.68103200  0.09020400  0.15826200  1
  P  P27  1  0.31258700  0.77212900  0.34437200  1
  P  P28  1  0.22921200  0.68181600  0.15886300  1
  P  P29  1  0.33272700  0.33479400  0.37183400  1
  P  P30  1  0.33531200  0.32937600  0.87182900  1
  P  P31  1  0.09097000  0.68297100  0.65771700  1
  P  P32  1  0.22260400  0.08801300  0.65929300  1
  P  P33  1  0.09332200  0.22774000  0.15789500  1
  O  O34  1  0.99791500  0.76832500  0.56988100  1
  O  O35  1  0.91923100  0.74676100  0.33706600  1
  O  O36  1  0.75920100  0.99513600  0.06972300  1
  O  O37  1  0.74760800  0.91599700  0.83714800  1
  O  O38  1  0.90320600  0.61720000  0.81906200  1
  O  O39  1  0.81495500  0.66830300  0.16859700  1
  O  O40  1  0.91664500  0.46845700  0.32657300  1
  O  O41  1  0.99673200  0.24754600  0.06985800  1
  O  O42  1  0.91746800  0.32995500  0.84131300  1
  O  O43  1  0.67382300  0.81136200  0.66737500  1
  O  O44  1  0.62022000  0.90614800  0.33174900  1
  O  O45  1  0.81277700  0.51200300  0.66637900  1
  O  O46  1  0.66058900  0.67133300  0.02191800  1
  O  O47  1  0.66551500  0.66752800  0.51966600  1
  O  O48  1  0.65974500  0.52249900  0.17069000  1
  O  O49  1  0.47591900  0.90657500  0.82272300  1
  O  O50  1  0.51802600  0.82125100  0.17236700  1
  O  O51  1  0.74526000  0.34362300  0.33364500  1
  O  O52  1  0.78198800  0.20341700  0.75764900  1
  O  O53  1  0.79674300  0.21383200  0.57751900  1
  O  O54  1  0.74890000  0.24833300  0.93564100  1
  O  O55  1  0.62303400  0.48259100  0.82336300  1
  O  O56  1  0.51428400  0.66921500  0.66849900  1
  O  O57  1  0.66790200  0.25358900  0.15611900  1
  O  O58  1  0.46953500  0.61839600  0.33291400  1
  O  O59  1  0.33487500  0.91491900  0.33818000  1
  O  O60  1  0.78838700  0.00313800  0.24996600  1
  O  O61  1  0.78265900  0.99131600  0.43322400  1
  O  O62  1  0.21441600  0.99513400  0.57704400  1
  O  O63  1  0.66215000  0.07985400  0.65658800  1
  O  O64  1  0.52812800  0.37423400  0.66503300  1
  O  O65  1  0.33903900  0.74791500  0.83895500  1
  O  O66  1  0.48027700  0.33362300  0.32699300  1
  O  O67  1  0.37254900  0.51467800  0.17220600  1
  O  O68  1  0.23788400  0.76992300  0.07497500  1
  O  O69  1  0.22445600  0.77478800  0.43483400  1
  O  O70  1  0.20332700  0.78205700  0.25567400  1
  O  O71  1  0.25498400  0.66729900  0.65641900  1
  O  O72  1  0.48595800  0.18208300  0.83144000  1
  O  O73  1  0.51444600  0.11303600  0.17395000  1
  O  O74  1  0.33842000  0.47457800  0.82437500  1
  O  O75  1  0.33956400  0.32983500  0.97912000  1
  O  O76  1  0.33432300  0.33565500  0.47894500  1
  O  O77  1  0.18495100  0.48951000  0.33597900  1
  O  O78  1  0.37204000  0.10361000  0.66816500  1
  O  O79  1  0.33116200  0.18778900  0.32875000  1
  O  O80  1  0.08113800  0.66060900  0.15858600  1
  O  O81  1  0.00502900  0.78716200  0.75158600  1
  O  O82  1  0.99281500  0.75613500  0.93414500  1
  O  O83  1  0.10989200  0.51730200  0.67157200  1
  O  O84  1  0.18481900  0.32677200  0.83616100  1
  O  O85  1  0.11911500  0.37001700  0.17502800  1
  O  O86  1  0.25481300  0.07803900  0.15538000  1
  O  O87  1  0.24497200  0.00100700  0.93523700  1
  O  O88  1  0.20228600  0.01331900  0.75792200  1
  O  O89  1  0.07929100  0.25862900  0.66010100  1
  O  O90  1  0.98934500  0.22925600  0.43248000  1
  O  O91  1  0.00623600  0.20634900  0.25007200  1
