# generated using pymatgen
data_Li2SiNiO4
_symmetry_space_group_name_H-M   'P 1'
_cell_length_a   4.98187600
_cell_length_b   10.20668400
_cell_length_c   13.31373400
_cell_angle_alpha   90.00000000
_cell_angle_beta   90.00000000
_cell_angle_gamma   90.00000000
_symmetry_Int_Tables_number   1
_chemical_formula_structural   Li2SiNiO4
_chemical_formula_sum   'Li16 Si8 Ni8 O32'
_cell_volume   676.98252538
_cell_formula_units_Z   8
loop_
 _symmetry_equiv_pos_site_id
 _symmetry_equiv_pos_as_xyz
  1  'x, y, z'
loop_
 _atom_site_type_symbol
 _atom_site_label
 _atom_site_symmetry_multiplicity
 _atom_site_fract_x
 _atom_site_fract_y
 _atom_site_fract_z
 _atom_site_occupancy
  Li  Li0  1  0.02139400  0.97813200  0.55241700  1
  Li  Li1  1  0.51553800  0.00487400  0.94403900  1
  Li  Li2  1  0.01038600  0.21343200  0.19186400  1
  Li  Li3  1  0.54007000  0.17940200  0.29231100  1
  Li  Li4  1  0.01038600  0.28656800  0.69186400  1
  Li  Li5  1  0.54007000  0.32059800  0.79231100  1
  Li  Li6  1  0.51553800  0.49512600  0.44403900  1
  Li  Li7  1  0.02139400  0.52186800  0.05241700  1
  Li  Li8  1  0.48446200  0.50487400  0.94403900  1
  Li  Li9  1  0.97860600  0.47813100  0.55241700  1
  Li  Li10  1  0.45993000  0.67940200  0.29231100  1
  Li  Li11  1  0.98961400  0.71343200  0.19186400  1
  Li  Li12  1  0.45993000  0.82059800  0.79231100  1
  Li  Li13  1  0.98961400  0.78656800  0.69186400  1
  Li  Li14  1  0.97860600  0.02186800  0.05241700  1
  Li  Li15  1  0.48446200  0.99512600  0.44403900  1
  Si  Si16  1  0.01500200  0.02194000  0.81078100  1
  Si  Si17  1  0.51167800  0.22903000  0.06866000  1
  Si  Si18  1  0.51167800  0.27097000  0.56866000  1
  Si  Si19  1  0.01500200  0.47806000  0.31078100  1
  Si  Si20  1  0.98499800  0.52194000  0.81078100  1
  Si  Si21  1  0.48832200  0.72903000  0.06866000  1
  Si  Si22  1  0.48832200  0.77097000  0.56866000  1
  Si  Si23  1  0.98499800  0.97806000  0.31078100  1
  Ni  Ni24  1  0.51211200  0.03437300  0.68029800  1
  Ni  Ni25  1  0.03103400  0.22143400  0.43617300  1
  Ni  Ni26  1  0.03103400  0.27856600  0.93617300  1
  Ni  Ni27  1  0.51211200  0.46562700  0.18029800  1
  Ni  Ni28  1  0.48788800  0.53437300  0.68029800  1
  Ni  Ni29  1  0.96896600  0.72143400  0.43617300  1
  Ni  Ni30  1  0.96896600  0.77856600  0.93617300  1
  Ni  Ni31  1  0.48788800  0.96562700  0.18029800  1
  O  O32  1  0.30620400  0.01870900  0.30876300  1
  O  O33  1  0.84483000  0.03973500  0.20871900  1
  O  O34  1  0.31049500  0.10719800  0.09624700  1
  O  O35  1  0.85584200  0.05058700  0.41126500  1
  O  O36  1  0.09342500  0.17911700  0.81250800  1
  O  O37  1  0.65317700  0.21243700  0.67085300  1
  O  O38  1  0.32593200  0.14802600  0.52469700  1
  O  O39  1  0.73643200  0.17008100  0.99086800  1
  O  O40  1  0.32593200  0.35197400  0.02469700  1
  O  O41  1  0.73643200  0.32991900  0.49086800  1
  O  O42  1  0.65317700  0.28756300  0.17085300  1
  O  O43  1  0.09342500  0.32088300  0.31250800  1
  O  O44  1  0.31049500  0.39280200  0.59624700  1
  O  O45  1  0.85584200  0.44941300  0.91126500  1
  O  O46  1  0.30620400  0.48129100  0.80876300  1
  O  O47  1  0.84483000  0.46026500  0.70871900  1
  O  O48  1  0.15517000  0.53973500  0.20871900  1
  O  O49  1  0.69379600  0.51870900  0.30876300  1
  O  O50  1  0.14415800  0.55058700  0.41126500  1
  O  O51  1  0.68950500  0.60719800  0.09624700  1
  O  O52  1  0.34682300  0.71243700  0.67085300  1
  O  O53  1  0.90657500  0.67911700  0.81250800  1
  O  O54  1  0.26356800  0.67008100  0.99086800  1
  O  O55  1  0.67406800  0.64802600  0.52469700  1
  O  O56  1  0.67406800  0.85197400  0.02469700  1
  O  O57  1  0.26356800  0.82991900  0.49086800  1
  O  O58  1  0.34682300  0.78756300  0.17085300  1
  O  O59  1  0.90657500  0.82088300  0.31250800  1
  O  O60  1  0.14415800  0.94941300  0.91126500  1
  O  O61  1  0.68950500  0.89280200  0.59624700  1
  O  O62  1  0.15517000  0.96026500  0.70871900  1
  O  O63  1  0.69379600  0.98129100  0.80876300  1
