# generated using pymatgen
data_Li3Cr(PO4)2
_symmetry_space_group_name_H-M   'P 1'
_cell_length_a   8.68657600
_cell_length_b   8.72926270
_cell_length_c   9.11892085
_cell_angle_alpha   87.43755632
_cell_angle_beta   87.73372746
_cell_angle_gamma   67.06530421
_symmetry_Int_Tables_number   1
_chemical_formula_structural   Li3Cr(PO4)2
_chemical_formula_sum   'Li12 Cr4 P8 O32'
_cell_volume   635.98291205
_cell_formula_units_Z   4
loop_
 _symmetry_equiv_pos_site_id
 _symmetry_equiv_pos_as_xyz
  1  'x, y, z'
loop_
 _atom_site_type_symbol
 _atom_site_label
 _atom_site_symmetry_multiplicity
 _atom_site_fract_x
 _atom_site_fract_y
 _atom_site_fract_z
 _atom_site_occupancy
  Li  Li0  1  0.13442200  0.35905800  0.20666300  1
  Li  Li1  1  0.37532400  0.13000400  0.70088600  1
  Li  Li2  1  0.84494200  0.04067700  0.55033500  1
  Li  Li3  1  0.41637700  0.56734200  0.24164600  1
  Li  Li4  1  0.89459100  0.08459500  0.23646400  1
  Li  Li5  1  0.56461100  0.43582600  0.74932800  1
  Li  Li6  1  0.10981000  0.89410600  0.77022700  1
  Li  Li7  1  0.15705900  0.96677800  0.45670800  1
  Li  Li8  1  0.96307400  0.14715200  0.96359800  1
  Li  Li9  1  0.60346900  0.87121500  0.32593800  1
  Li  Li10  1  0.86317900  0.62247200  0.77626800  1
  Li  Li11  1  0.89724200  0.73371800  0.10090300  1
  Cr  Cr12  1  0.51365700  0.23070800  0.08795200  1
  Cr  Cr13  1  0.23302700  0.50985600  0.58850800  1
  Cr  Cr14  1  0.76909600  0.49184600  0.40766600  1
  Cr  Cr15  1  0.48934200  0.76921300  0.91183400  1
  P  P16  1  0.28741500  0.01356400  0.07491300  1
  P  P17  1  0.01456400  0.28973900  0.57149100  1
  P  P18  1  0.57146600  0.24098800  0.43006500  1
  P  P19  1  0.23789300  0.57254700  0.92865500  1
  P  P20  1  0.75961600  0.43246600  0.07108700  1
  P  P21  1  0.43118500  0.76312100  0.57044800  1
  P  P22  1  0.99077300  0.71494600  0.42222500  1
  P  P23  1  0.71573300  0.98986400  0.91800100  1
  O  O24  1  0.11248300  0.03086200  0.12647500  1
  O  O25  1  0.02189300  0.11500000  0.61495100  1
  O  O26  1  0.32423600  0.15908700  0.13573900  1
  O  O27  1  0.16480600  0.31508000  0.63484600  1
  O  O28  1  0.62816800  0.05294800  0.44835000  1
  O  O29  1  0.04888900  0.62576500  0.94081500  1
  O  O30  1  0.70768100  0.98319200  0.09280100  1
  O  O31  1  0.98556700  0.68132600  0.59257000  1
  O  O32  1  0.16072200  0.57561900  0.37308800  1
  O  O33  1  0.56253200  0.15352900  0.87792400  1
  O  O34  1  0.33474400  0.46544500  0.06279200  1
  O  O35  1  0.46555400  0.33627500  0.56324500  1
  O  O36  1  0.47295300  0.31669400  0.28995200  1
  O  O37  1  0.31604300  0.46947800  0.79119400  1
  O  O38  1  0.73635400  0.27364800  0.42408300  1
  O  O39  1  0.27474300  0.73321800  0.91672300  1
  O  O40  1  0.73513800  0.26365600  0.07537400  1
  O  O41  1  0.26825800  0.72706300  0.57773800  1
  O  O42  1  0.67482000  0.53087600  0.20856900  1
  O  O43  1  0.53327000  0.68687100  0.70849100  1
  O  O44  1  0.54062400  0.67373600  0.43635100  1
  O  O45  1  0.66294400  0.53495000  0.93614000  1
  O  O46  1  0.43003300  0.84434100  0.12364600  1
  O  O47  1  0.84606500  0.43242100  0.62134100  1
  O  O48  1  0.01175000  0.32020800  0.39933100  1
  O  O49  1  0.30942000  0.01066900  0.90171400  1
  O  O50  1  0.94665300  0.38763800  0.06087400  1
  O  O51  1  0.37235400  0.95114500  0.55071500  1
  O  O52  1  0.84589100  0.68899000  0.34371900  1
  O  O53  1  0.69059100  0.83417600  0.86701900  1
  O  O54  1  0.98136300  0.89212200  0.38644100  1
  O  O55  1  0.87977000  0.99479500  0.85640900  1
