# generated using pymatgen
data_LiMn(PO3)3
_symmetry_space_group_name_H-M   'P 1'
_cell_length_a   6.66417900
_cell_length_b   6.85388719
_cell_length_c   7.38929998
_cell_angle_alpha   84.61944154
_cell_angle_beta   82.16310582
_cell_angle_gamma   82.89965106
_symmetry_Int_Tables_number   1
_chemical_formula_structural   LiMn(PO3)3
_chemical_formula_sum   'Li2 Mn2 P6 O18'
_cell_volume   330.77667756
_cell_formula_units_Z   2
loop_
 _symmetry_equiv_pos_site_id
 _symmetry_equiv_pos_as_xyz
  1  'x, y, z'
loop_
 _atom_site_type_symbol
 _atom_site_label
 _atom_site_symmetry_multiplicity
 _atom_site_fract_x
 _atom_site_fract_y
 _atom_site_fract_z
 _atom_site_occupancy
  Li  Li0  1  0.46012900  0.83911500  0.82249400  1
  Li  Li1  1  0.53987100  0.16088500  0.17750600  1
  Mn  Mn2  1  0.95891700  0.78050000  0.87009900  1
  Mn  Mn3  1  0.04108300  0.21950000  0.12990100  1
  P  P4  1  0.79199800  0.84630000  0.45292100  1
  P  P5  1  0.14738900  0.70141500  0.22249200  1
  P  P6  1  0.60514000  0.61473000  0.21005300  1
  P  P7  1  0.39486000  0.38527000  0.78994700  1
  P  P8  1  0.85261100  0.29858500  0.77750800  1
  P  P9  1  0.20800200  0.15370000  0.54707900  1
  O  O10  1  0.24392300  0.97115600  0.67130600  1
  O  O11  1  0.74556700  0.85000200  0.65853800  1
  O  O12  1  0.14105300  0.87972100  0.08369300  1
  O  O13  1  0.64993600  0.76566300  0.05135900  1
  O  O14  1  0.03077600  0.75995400  0.41911900  1
  O  O15  1  0.67956400  0.67080200  0.39585700  1
  O  O16  1  0.36503500  0.64168700  0.28324400  1
  O  O17  1  0.33251400  0.59950800  0.81257000  1
  O  O18  1  0.94226500  0.46982100  0.83504200  1
  O  O19  1  0.05773500  0.53017900  0.16495800  1
  O  O20  1  0.66748600  0.40049200  0.18743000  1
  O  O21  1  0.63496500  0.35831300  0.71675600  1
  O  O22  1  0.32043600  0.32919800  0.60414300  1
  O  O23  1  0.96922400  0.24004600  0.58088100  1
  O  O24  1  0.35006400  0.23433700  0.94864100  1
  O  O25  1  0.85894700  0.12027900  0.91630700  1
  O  O26  1  0.25443300  0.14999800  0.34146200  1
  O  O27  1  0.75607700  0.02884400  0.32869400  1
