# generated using pymatgen
data_Li4VCr3O8
_symmetry_space_group_name_H-M   'P 1'
_cell_length_a   5.13936800
_cell_length_b   5.96145761
_cell_length_c   10.70666425
_cell_angle_alpha   98.10976177
_cell_angle_beta   103.68721318
_cell_angle_gamma   106.91485886
_symmetry_Int_Tables_number   1
_chemical_formula_structural   Li4VCr3O8
_chemical_formula_sum   'Li8 V2 Cr6 O16'
_cell_volume   297.05179989
_cell_formula_units_Z   2
loop_
 _symmetry_equiv_pos_site_id
 _symmetry_equiv_pos_as_xyz
  1  'x, y, z'
loop_
 _atom_site_type_symbol
 _atom_site_label
 _atom_site_symmetry_multiplicity
 _atom_site_fract_x
 _atom_site_fract_y
 _atom_site_fract_z
 _atom_site_occupancy
  Li  Li0  1  0.87199500  0.31108100  0.87512500  1
  Li  Li1  1  0.62785300  0.93896900  0.62500300  1
  Li  Li2  1  0.12800500  0.68891900  0.12487500  1
  Li  Li3  1  0.37214700  0.06103100  0.37499700  1
  Li  Li4  1  0.87456800  0.81303900  0.87530400  1
  Li  Li5  1  0.62561300  0.43688400  0.62460000  1
  Li  Li6  1  0.12543200  0.18696100  0.12469600  1
  Li  Li7  1  0.37438700  0.56311600  0.37540000  1
  V  V8  1  0.24989600  0.62492700  0.74986100  1
  V  V9  1  0.75010400  0.37507300  0.25013900  1
  Cr  Cr10  1  0.25003800  0.12497400  0.75010300  1
  Cr  Cr11  1  0.50000000  0.50000000  0.00000000  1
  Cr  Cr12  1  0.74996200  0.87502600  0.24989700  1
  Cr  Cr13  1  0.00043400  0.24943200  0.50010200  1
  Cr  Cr14  1  0.50000000  0.00000000  0.00000000  1
  Cr  Cr15  1  0.99956600  0.75056800  0.49989800  1
  O  O16  1  0.04138600  0.71596600  0.31436000  1
  O  O17  1  0.45634700  0.53837700  0.18491300  1
  O  O18  1  0.54365300  0.46162300  0.81508700  1
  O  O19  1  0.95861400  0.28403400  0.68564000  1
  O  O20  1  0.71088000  0.91147800  0.43550600  1
  O  O21  1  0.28912000  0.08852200  0.56449400  1
  O  O22  1  0.78883900  0.83885200  0.06391500  1
  O  O23  1  0.20986700  0.66113300  0.93619400  1
  O  O24  1  0.04377900  0.21151800  0.31530500  1
  O  O25  1  0.45867200  0.03426400  0.18541600  1
  O  O26  1  0.54132800  0.96573600  0.81458400  1
  O  O27  1  0.95622100  0.78848200  0.68469500  1
  O  O28  1  0.28982400  0.58924400  0.56319300  1
  O  O29  1  0.79013300  0.33886700  0.06380600  1
  O  O30  1  0.71017600  0.41075600  0.43680700  1
  O  O31  1  0.21116100  0.16114800  0.93608500  1
