# generated using pymatgen
data_Li12Mn2Fe3O16
_symmetry_space_group_name_H-M   'P 1'
_cell_length_a   5.81716500
_cell_length_b   5.85858233
_cell_length_c   9.73529637
_cell_angle_alpha   91.61792386
_cell_angle_beta   89.71965537
_cell_angle_gamma   118.89135814
_symmetry_Int_Tables_number   1
_chemical_formula_structural   Li12Mn2Fe3O16
_chemical_formula_sum   'Li12 Mn2 Fe3 O16'
_cell_volume   290.35742153
_cell_formula_units_Z   1
loop_
 _symmetry_equiv_pos_site_id
 _symmetry_equiv_pos_as_xyz
  1  'x, y, z'
loop_
 _atom_site_type_symbol
 _atom_site_label
 _atom_site_symmetry_multiplicity
 _atom_site_fract_x
 _atom_site_fract_y
 _atom_site_fract_z
 _atom_site_occupancy
  Li  Li0  1  0.84979900  0.69569900  0.04087800  1
  Li  Li1  1  0.98836600  0.01669000  0.48721000  1
  Li  Li2  1  0.79321300  0.13951400  0.76848900  1
  Li  Li3  1  0.18118000  0.36171700  0.26372400  1
  Li  Li4  1  0.19364700  0.41858900  0.51750400  1
  Li  Li5  1  0.84606100  0.18457600  0.02302500  1
  Li  Li6  1  0.31504300  0.14666000  0.77094100  1
  Li  Li7  1  0.29200000  0.61238400  0.76708200  1
  Li  Li8  1  0.36164500  0.19099400  0.02201500  1
  Li  Li9  1  0.61139800  0.79493900  0.55887900  1
  Li  Li10  1  0.68548100  0.36267500  0.25465800  1
  Li  Li11  1  0.16005100  0.80384000  0.55964600  1
  Mn  Mn12  1  0.63590500  0.30335500  0.53014000  1
  Mn  Mn13  1  0.33759900  0.67557100  0.01867300  1
  Fe  Fe14  1  0.66153200  0.84750100  0.27823100  1
  Fe  Fe15  1  0.81711300  0.65393000  0.78449600  1
  Fe  Fe16  1  0.17060000  0.85079700  0.28034900  1
  O  O17  1  0.81247600  0.17266800  0.40422600  1
  O  O18  1  0.18716300  0.36386500  0.92128800  1
  O  O19  1  0.49469000  0.01652200  0.63860300  1
  O  O20  1  0.51048800  0.55012600  0.14876700  1
  O  O21  1  0.32467900  0.16910600  0.40789300  1
  O  O22  1  0.65103200  0.82184800  0.90397800  1
  O  O23  1  0.68574200  0.36799700  0.89450800  1
  O  O24  1  0.95160700  0.47356300  0.64539300  1
  O  O25  1  0.33222900  0.69679400  0.38757300  1
  O  O26  1  0.03911600  0.55355400  0.14984900  1
  O  O27  1  0.48722100  0.47311300  0.64615500  1
  O  O28  1  0.17044200  0.81854900  0.90247600  1
  O  O29  1  0.82343300  0.67634100  0.39951700  1
  O  O30  1  0.49673000  0.00129800  0.14835700  1
  O  O31  1  0.95825700  0.94316000  0.67502300  1
  O  O32  1  0.99890500  0.00290700  0.18070000  1
