# generated using pymatgen
data_Li3V3P8O29
_symmetry_space_group_name_H-M   'P 1'
_cell_length_a   9.75880400
_cell_length_b   9.76783988
_cell_length_c   14.19072194
_cell_angle_alpha   89.73675695
_cell_angle_beta   89.71816157
_cell_angle_gamma   60.06083133
_symmetry_Int_Tables_number   1
_chemical_formula_structural   Li3V3P8O29
_chemical_formula_sum   'Li6 V6 P16 O58'
_cell_volume   1172.16718081
_cell_formula_units_Z   2
loop_
 _symmetry_equiv_pos_site_id
 _symmetry_equiv_pos_as_xyz
  1  'x, y, z'
loop_
 _atom_site_type_symbol
 _atom_site_label
 _atom_site_symmetry_multiplicity
 _atom_site_fract_x
 _atom_site_fract_y
 _atom_site_fract_z
 _atom_site_occupancy
  Li  Li0  1  0.09405300  0.67367200  0.94974800  1
  Li  Li1  1  0.23373200  0.09407800  0.94579000  1
  Li  Li2  1  0.91624400  0.77920500  0.55069200  1
  Li  Li3  1  0.09580800  0.22571000  0.43617000  1
  Li  Li4  1  0.77239900  0.31229300  0.55709600  1
  Li  Li5  1  0.95566300  0.02804800  0.01407600  1
  V  V6  1  0.00135100  0.56573500  0.75065600  1
  V  V7  1  0.99367200  0.43713400  0.24373000  1
  V  V8  1  0.56739500  0.00042000  0.24996200  1
  V  V9  1  0.43951000  0.99551000  0.74780400  1
  V  V10  1  0.55856000  0.43502300  0.75554200  1
  V  V11  1  0.43559200  0.56675900  0.25128900  1
  P  P12  1  0.69268200  0.22380300  0.16079400  1
  P  P13  1  0.68742200  0.08624400  0.65963500  1
  P  P14  1  0.23009300  0.68719000  0.65363200  1
  P  P15  1  0.32896300  0.33293700  0.87005100  1
  P  P16  1  0.33010000  0.33256000  0.36819500  1
  P  P17  1  0.09072700  0.68716600  0.16032000  1
  P  P18  1  0.91062500  0.77062500  0.33958900  1
  P  P19  1  0.22714800  0.08502700  0.15730500  1
  P  P20  1  0.77611000  0.91645500  0.84472200  1
  P  P21  1  0.09018700  0.22950200  0.65811800  1
  P  P22  1  0.91296400  0.31031000  0.83891300  1
  P  P23  1  0.67077100  0.66192400  0.63154400  1
  P  P24  1  0.66280800  0.67099200  0.12996600  1
  P  P25  1  0.77201300  0.31548000  0.34303200  1
  P  P26  1  0.31370400  0.91230900  0.33933200  1
  P  P27  1  0.30613200  0.77700100  0.83948300  1
  O  O28  1  0.76595300  0.24515400  0.43483800  1
  O  O29  1  0.65981700  0.25677500  0.66233800  1
  O  O30  1  0.79230800  0.99134500  0.93042800  1
  O  O31  1  0.65343200  0.08783500  0.16884400  1
  O  O32  1  0.53809000  0.38417300  0.17113900  1
  O  O33  1  0.48041200  0.32950100  0.82506300  1
  O  O34  1  0.38247900  0.52620200  0.67980000  1
  O  O35  1  0.21416700  0.77811900  0.92320300  1
  O  O36  1  0.26227400  0.65370300  0.16838400  1
  O  O37  1  0.47401800  0.18201600  0.32204000  1
  O  O38  1  0.52443500  0.09428600  0.67926300  1
  O  O39  1  0.34184400  0.47371000  0.32224300  1
  O  O40  1  0.32120600  0.34381100  0.97414200  1
  O  O41  1  0.33193200  0.32937900  0.47295800  1
  O  O42  1  0.18423700  0.48862100  0.82667700  1
  O  O43  1  0.38385700  0.08497900  0.16960700  1
  O  O44  1  0.32562900  0.18506800  0.83078600  1
  O  O45  1  0.08429900  0.66014500  0.66370400  1
  O  O46  1  0.00132600  0.79361500  0.25047500  1
  O  O47  1  0.99220000  0.76049000  0.42912700  1
  O  O48  1  0.01499400  0.77094900  0.07084100  1
  O  O49  1  0.09005400  0.52877400  0.17275300  1
  O  O50  1  0.17783400  0.33732600  0.32850100  1
  O  O51  1  0.91542600  0.74099500  0.83567500  1
  O  O52  1  0.09856800  0.38155400  0.67953900  1
  O  O53  1  0.25860100  0.08562800  0.66824700  1
  O  O54  1  0.79363300  0.00197500  0.75129800  1
  O  O55  1  0.76586400  0.99490600  0.57391600  1
  O  O56  1  0.22628000  0.00492900  0.42312600  1
  O  O57  1  0.74129600  0.91427500  0.33240300  1
  O  O58  1  0.90359400  0.61841900  0.31838800  1
  O  O59  1  0.08742300  0.25784300  0.17016400  1
  O  O60  1  0.81961400  0.66350800  0.67643400  1
  O  O61  1  0.91496100  0.46797100  0.82604700  1
  O  O62  1  0.00304400  0.21323200  0.92109100  1
  O  O63  1  0.00722400  0.24405000  0.56750300  1
  O  O64  1  0.99090900  0.21110000  0.74272500  1
  O  O65  1  0.91806600  0.34012800  0.33669100  1
  O  O66  1  0.66644000  0.81508100  0.17494700  1
  O  O67  1  0.61661100  0.91791500  0.82804000  1
  O  O68  1  0.81417100  0.51842900  0.17362500  1
  O  O69  1  0.66864300  0.66634600  0.02572600  1
  O  O70  1  0.67764800  0.66787800  0.52768500  1
  O  O71  1  0.66765500  0.51469300  0.67186800  1
  O  O72  1  0.47293500  0.90792900  0.32229400  1
  O  O73  1  0.52525400  0.81303900  0.67905300  1
  O  O74  1  0.73954800  0.34713900  0.83276600  1
  O  O75  1  0.79320000  0.20240100  0.25643900  1
  O  O76  1  0.79216600  0.20470600  0.07764300  1
  O  O77  1  0.62034800  0.47554500  0.32286800  1
  O  O78  1  0.51791500  0.66786500  0.17558400  1
  O  O79  1  0.46714900  0.61797900  0.82650400  1
  O  O80  1  0.34141000  0.91561400  0.83813500  1
  O  O81  1  0.21009100  0.01915200  0.06634200  1
  O  O82  1  0.20874200  0.99109800  0.24456300  1
  O  O83  1  0.34495600  0.74037400  0.33488800  1
  O  O84  1  0.23782200  0.75906900  0.56486700  1
  O  O85  1  0.20848800  0.79728800  0.74468100  1
