# generated using pymatgen
data_Li3VOF5
_symmetry_space_group_name_H-M   'P 1'
_cell_length_a   7.30089531
_cell_length_b   7.29908452
_cell_length_c   9.23092750
_cell_angle_alpha   112.21146568
_cell_angle_beta   112.14266991
_cell_angle_gamma   92.07450336
_symmetry_Int_Tables_number   1
_chemical_formula_structural   Li3VOF5
_chemical_formula_sum   'Li12 V4 O4 F20'
_cell_volume   412.56551710
_cell_formula_units_Z   4
loop_
 _symmetry_equiv_pos_site_id
 _symmetry_equiv_pos_as_xyz
  1  'x, y, z'
loop_
 _atom_site_type_symbol
 _atom_site_label
 _atom_site_symmetry_multiplicity
 _atom_site_fract_x
 _atom_site_fract_y
 _atom_site_fract_z
 _atom_site_occupancy
  Li  Li0  1  0.76301700  0.75835900  0.51325600  1
  Li  Li1  1  0.26291500  0.25825600  0.51318500  1
  Li  Li2  1  0.50809100  0.01366000  0.01399100  1
  Li  Li3  1  0.00810700  0.51362300  0.01390900  1
  Li  Li4  1  0.14643800  0.60667500  0.76053800  1
  Li  Li5  1  0.64635400  0.10691900  0.76062500  1
  Li  Li6  1  0.85611300  0.89666100  0.26047700  1
  Li  Li7  1  0.35607900  0.39649400  0.26043100  1
  Li  Li8  1  0.66418200  0.62514200  0.77970000  1
  Li  Li9  1  0.16421300  0.12526600  0.77979900  1
  Li  Li10  1  0.37517100  0.91521800  0.27948300  1
  Li  Li11  1  0.87516200  0.41506700  0.27942300  1
  V  V12  1  0.01257700  0.01345000  0.00283200  1
  V  V13  1  0.76405300  0.26340100  0.50202800  1
  V  V14  1  0.51236900  0.51337300  0.00276800  1
  V  V15  1  0.26413000  0.76324500  0.50194500  1
  O  O16  1  0.85392600  0.50221100  0.54568000  1
  O  O17  1  0.35429700  0.00207800  0.54570100  1
  O  O18  1  0.25130500  0.10315000  0.04655400  1
  O  O19  1  0.75113300  0.60305600  0.04651200  1
  F  F20  1  0.57920900  0.50012200  0.22516300  1
  F  F21  1  0.07930700  0.00036800  0.22533900  1
  F  F22  1  0.75263200  0.32942300  0.72533800  1
  F  F23  1  0.25255000  0.82936100  0.72524000  1
  F  F24  1  0.00107300  0.72082300  0.90683600  1
  F  F25  1  0.50091100  0.22073000  0.90672700  1
  F  F26  1  0.47210100  0.25123100  0.40595000  1
  F  F27  1  0.97223500  0.75142100  0.40580200  1
  F  F28  1  0.21356500  0.41739100  0.93098100  1
  F  F29  1  0.71395700  0.91750300  0.93166800  1
  F  F30  1  0.66823400  0.96378100  0.42895300  1
  F  F31  1  0.16815800  0.46370600  0.42896100  1
  F  F32  1  0.03107400  0.19340300  0.57417600  1
  F  F33  1  0.53117300  0.69335000  0.57416800  1
  F  F34  1  0.44234000  0.78095900  0.07426400  1
  F  F35  1  0.94224900  0.28081700  0.07418500  1
  F  F36  1  0.74363100  0.15236400  0.26134800  1
  F  F37  1  0.24364800  0.65225300  0.26127300  1
  F  F38  1  0.90103900  0.99285200  0.76235200  1
  F  F39  1  0.40127800  0.49283500  0.76243100  1
