# generated using pymatgen
data_LiVCr(P2O7)2
_symmetry_space_group_name_H-M   'P 1'
_cell_length_a   7.16559800
_cell_length_b   8.07027693
_cell_length_c   9.68936902
_cell_angle_alpha   89.97050136
_cell_angle_beta   68.62185143
_cell_angle_gamma   89.93669281
_symmetry_Int_Tables_number   1
_chemical_formula_structural   LiVCr(P2O7)2
_chemical_formula_sum   'Li2 V2 Cr2 P8 O28'
_cell_volume   521.76710664
_cell_formula_units_Z   2
loop_
 _symmetry_equiv_pos_site_id
 _symmetry_equiv_pos_as_xyz
  1  'x, y, z'
loop_
 _atom_site_type_symbol
 _atom_site_label
 _atom_site_symmetry_multiplicity
 _atom_site_fract_x
 _atom_site_fract_y
 _atom_site_fract_z
 _atom_site_occupancy
  Li  Li0  1  0.07471700  0.86418600  0.25040200  1
  Li  Li1  1  0.92230200  0.36203900  0.74957600  1
  V  V2  1  0.03363700  0.49573100  0.24356400  1
  V  V3  1  0.52832300  0.50704500  0.74356300  1
  Cr  Cr4  1  0.47202400  0.00616600  0.25633500  1
  Cr  Cr5  1  0.96761000  0.99731900  0.75649300  1
  P  P6  1  0.84634900  0.78192800  0.06467700  1
  P  P7  1  0.45854500  0.67784500  0.06319600  1
  P  P8  1  0.03668100  0.18044100  0.44031000  1
  P  P9  1  0.35012000  0.78368800  0.56452900  1
  P  P10  1  0.65018700  0.28278700  0.43452100  1
  P  P11  1  0.96356600  0.68261200  0.56141200  1
  P  P12  1  0.54158900  0.17651500  0.93969500  1
  P  P13  1  0.15577600  0.28155100  0.93289200  1
  O  O14  1  0.67009200  0.64741500  0.08022400  1
  O  O15  1  0.75938100  0.93468000  0.15937300  1
  O  O16  1  0.50335900  0.18012900  0.10366900  1
  O  O17  1  0.38022800  0.84785900  0.12854800  1
  O  O18  1  0.32039000  0.53847000  0.14874000  1
  O  O19  1  0.05177800  0.33073500  0.09706900  1
  O  O20  1  0.98501400  0.68794800  0.12863400  1
  O  O21  1  0.50541100  0.19093800  0.38352800  1
  O  O22  1  0.45545000  0.82459700  0.40173600  1
  O  O23  1  0.16755800  0.04102600  0.34908100  1
  O  O24  1  0.10814200  0.35240500  0.37313000  1
  O  O25  1  0.99777000  0.67499400  0.39402300  1
  O  O26  1  0.75413000  0.43488200  0.34089800  1
  O  O27  1  0.82235700  0.14794500  0.42527100  1
  O  O28  1  0.17394600  0.64589100  0.57822900  1
  O  O29  1  0.25413500  0.93289200  0.65945400  1
  O  O30  1  0.00638400  0.18230300  0.60417200  1
  O  O31  1  0.88978700  0.85253200  0.62172200  1
  O  O32  1  0.82919600  0.54023100  0.64971800  1
  O  O33  1  0.55250500  0.33823400  0.59776900  1
  O  O34  1  0.48918800  0.68284900  0.62185300  1
  O  O35  1  0.00853500  0.19718600  0.87605400  1
  O  O36  1  0.95522800  0.81873700  0.90194200  1
  O  O37  1  0.67386600  0.03905400  0.85062800  1
  O  O38  1  0.61631600  0.34811900  0.86624500  1
  O  O39  1  0.49621900  0.66742000  0.89618200  1
  O  O40  1  0.24722300  0.43682400  0.83946000  1
  O  O41  1  0.32523900  0.14850800  0.92160900  1
