# generated using pymatgen
data_Li4Fe2Co3Sb3O16
_symmetry_space_group_name_H-M   'P 1'
_cell_length_a   6.04325200
_cell_length_b   6.06801460
_cell_length_c   9.67403595
_cell_angle_alpha   90.49286219
_cell_angle_beta   90.58240045
_cell_angle_gamma   119.39507807
_symmetry_Int_Tables_number   1
_chemical_formula_structural   Li4Fe2Co3Sb3O16
_chemical_formula_sum   'Li4 Fe2 Co3 Sb3 O16'
_cell_volume   309.02634147
_cell_formula_units_Z   1
loop_
 _symmetry_equiv_pos_site_id
 _symmetry_equiv_pos_as_xyz
  1  'x, y, z'
loop_
 _atom_site_type_symbol
 _atom_site_label
 _atom_site_symmetry_multiplicity
 _atom_site_fract_x
 _atom_site_fract_y
 _atom_site_fract_z
 _atom_site_occupancy
  Li  Li0  1  0.33716100  0.66155500  0.88296700  1
  Li  Li1  1  0.95910500  0.98219200  0.98673500  1
  Li  Li2  1  0.98037600  0.99360100  0.50612500  1
  Li  Li3  1  0.65320900  0.32413300  0.40090700  1
  Fe  Fe4  1  0.35520300  0.68540800  0.50732500  1
  Fe  Fe5  1  0.70839600  0.35149700  0.97368600  1
  Co  Co6  1  0.65747500  0.82817600  0.21582400  1
  Co  Co7  1  0.83945500  0.66352800  0.71246600  1
  Co  Co8  1  0.83567800  0.17357600  0.71360900  1
  Sb  Sb9  1  0.16505700  0.82966300  0.21477700  1
  Sb  Sb10  1  0.16552800  0.33556000  0.21553200  1
  Sb  Sb11  1  0.34546500  0.17578800  0.71487200  1
  O  O12  1  0.17957000  0.85434200  0.59560000  1
  O  O13  1  0.02145400  0.51423700  0.33550100  1
  O  O14  1  0.31331900  0.65365200  0.09914100  1
  O  O15  1  0.00810400  0.00637600  0.31932900  1
  O  O16  1  0.00916300  0.01818900  0.80610700  1
  O  O17  1  0.16444400  0.32986000  0.60126700  1
  O  O18  1  0.46651900  0.96085400  0.33794200  1
  O  O19  1  0.46637900  0.50661700  0.34015000  1
  O  O20  1  0.30878500  0.15123400  0.09979700  1
  O  O21  1  0.67500800  0.85326600  0.60091400  1
  O  O22  1  0.51682500  0.47130200  0.84817400  1
  O  O23  1  0.53504700  0.04067800  0.83573300  1
  O  O24  1  0.66545500  0.32041100  0.60646900  1
  O  O25  1  0.84885600  0.67757500  0.09816900  1
  O  O26  1  0.97359900  0.46702600  0.83684500  1
  O  O27  1  0.84537000  0.17000300  0.10187600  1
