# generated using pymatgen
data_Li3Mn(Si2O5)3
_symmetry_space_group_name_H-M   'P 1'
_cell_length_a   8.01827100
_cell_length_b   9.72602100
_cell_length_c   14.94268600
_cell_angle_alpha   90.00000000
_cell_angle_beta   90.00000000
_cell_angle_gamma   90.00000000
_symmetry_Int_Tables_number   1
_chemical_formula_structural   Li3Mn(Si2O5)3
_chemical_formula_sum   'Li12 Mn4 Si24 O60'
_cell_volume   1165.31839967
_cell_formula_units_Z   4
loop_
 _symmetry_equiv_pos_site_id
 _symmetry_equiv_pos_as_xyz
  1  'x, y, z'
loop_
 _atom_site_type_symbol
 _atom_site_label
 _atom_site_symmetry_multiplicity
 _atom_site_fract_x
 _atom_site_fract_y
 _atom_site_fract_z
 _atom_site_occupancy
  Li  Li0  1  0.75000000  0.08367900  0.93375600  1
  Li  Li1  1  0.75000000  0.41632100  0.43375600  1
  Li  Li2  1  0.00116000  0.50209500  0.75811700  1
  Li  Li3  1  0.49884000  0.50209500  0.75811700  1
  Li  Li4  1  0.50116000  0.49790500  0.24188300  1
  Li  Li5  1  0.99884000  0.49790500  0.24188300  1
  Li  Li6  1  0.25000000  0.58367900  0.56624400  1
  Li  Li7  1  0.25000000  0.91632100  0.06624400  1
  Li  Li8  1  0.50116000  0.00209500  0.74188300  1
  Li  Li9  1  0.99884000  0.00209500  0.74188300  1
  Li  Li10  1  0.49884000  0.99790500  0.25811700  1
  Li  Li11  1  0.00116000  0.99790500  0.25811700  1
  Mn  Mn12  1  0.75000000  0.25335700  0.74869000  1
  Mn  Mn13  1  0.75000000  0.24664300  0.24869000  1
  Mn  Mn14  1  0.25000000  0.74664300  0.25131000  1
  Mn  Mn15  1  0.25000000  0.75335700  0.75131000  1
  Si  Si16  1  0.25000000  0.02349400  0.59857900  1
  Si  Si17  1  0.25000000  0.02202300  0.40063100  1
  Si  Si18  1  0.43796800  0.20674900  0.89977900  1
  Si  Si19  1  0.06203200  0.20674900  0.89977900  1
  Si  Si20  1  0.05991200  0.20522600  0.10070500  1
  Si  Si21  1  0.44008800  0.20522600  0.10070500  1
  Si  Si22  1  0.05991200  0.29477400  0.60070500  1
  Si  Si23  1  0.43796800  0.29325100  0.39977900  1
  Si  Si24  1  0.44008800  0.29477400  0.60070500  1
  Si  Si25  1  0.06203200  0.29325100  0.39977900  1
  Si  Si26  1  0.25000000  0.47797700  0.90063100  1
  Si  Si27  1  0.25000000  0.47650600  0.09857900  1
  Si  Si28  1  0.75000000  0.52202300  0.09936900  1
  Si  Si29  1  0.75000000  0.52349400  0.90142100  1
  Si  Si30  1  0.56203200  0.70674900  0.60022100  1
  Si  Si31  1  0.93796800  0.70674900  0.60022100  1
  Si  Si32  1  0.94008800  0.70522600  0.39929500  1
  Si  Si33  1  0.55991200  0.70522600  0.39929500  1
  Si  Si34  1  0.94008800  0.79477400  0.89929500  1
  Si  Si35  1  0.56203200  0.79325100  0.10022100  1
  Si  Si36  1  0.93796800  0.79325100  0.10022100  1
  Si  Si37  1  0.55991200  0.79477400  0.89929500  1
  Si  Si38  1  0.75000000  0.97650600  0.40142100  1
  Si  Si39  1  0.75000000  0.97797700  0.59936900  1
  O  O40  1  0.75000000  0.04917500  0.50017200  1
  O  O41  1  0.75000000  0.08201700  0.68222700  1
  O  O42  1  0.75000000  0.07848300  0.31765900  1
  O  O43  1  0.41192400  0.12748200  0.60735500  1
  O  O44  1  0.08807600  0.12748200  0.60735500  1
  O  O45  1  0.41281600  0.12567000  0.39093500  1
  O  O46  1  0.08718400  0.12567000  0.39093500  1
  O  O47  1  0.25000000  0.13861600  0.89185000  1
  O  O48  1  0.25000000  0.13265700  0.10180600  1
  O  O49  1  0.92785900  0.14768200  0.83052200  1
  O  O50  1  0.57214100  0.14768200  0.83052200  1
  O  O51  1  0.94385000  0.15286300  0.17985400  1
  O  O52  1  0.55615000  0.15286300  0.17985400  1
  O  O53  1  0.51686600  0.16871500  0.00013100  1
  O  O54  1  0.98313400  0.16871500  0.00013100  1
  O  O55  1  0.51686600  0.33128500  0.50013100  1
  O  O56  1  0.98313400  0.33128500  0.50013100  1
  O  O57  1  0.92785900  0.35231800  0.33052200  1
  O  O58  1  0.94385000  0.34713700  0.67985400  1
  O  O59  1  0.55615000  0.34713700  0.67985400  1
  O  O60  1  0.57214100  0.35231800  0.33052200  1
  O  O61  1  0.25000000  0.36734300  0.60180600  1
  O  O62  1  0.25000000  0.36138400  0.39185000  1
  O  O63  1  0.08718400  0.37433000  0.89093500  1
  O  O64  1  0.41281600  0.37433000  0.89093500  1
  O  O65  1  0.41192400  0.37251800  0.10735500  1
  O  O66  1  0.08807600  0.37251800  0.10735500  1
  O  O67  1  0.75000000  0.42151700  0.81765900  1
  O  O68  1  0.75000000  0.41798300  0.18222700  1
  O  O69  1  0.75000000  0.45082500  0.00017200  1
  O  O70  1  0.25000000  0.54917500  0.99982800  1
  O  O71  1  0.25000000  0.58201700  0.81777300  1
  O  O72  1  0.25000000  0.57848300  0.18234100  1
  O  O73  1  0.91281600  0.62567000  0.10906500  1
  O  O74  1  0.58718400  0.62567000  0.10906500  1
  O  O75  1  0.91192400  0.62748200  0.89264500  1
  O  O76  1  0.58807600  0.62748200  0.89264500  1
  O  O77  1  0.75000000  0.63265700  0.39819400  1
  O  O78  1  0.75000000  0.63861600  0.60815000  1
  O  O79  1  0.44385000  0.65286300  0.32014600  1
  O  O80  1  0.05615000  0.65286300  0.32014600  1
  O  O81  1  0.42785900  0.64768200  0.66947800  1
  O  O82  1  0.07214100  0.64768200  0.66947800  1
  O  O83  1  0.01686600  0.66871500  0.49986900  1
  O  O84  1  0.48313400  0.66871500  0.49986900  1
  O  O85  1  0.01686600  0.83128500  0.99986900  1
  O  O86  1  0.48313400  0.83128500  0.99986900  1
  O  O87  1  0.44385000  0.84713700  0.82014600  1
  O  O88  1  0.42785900  0.85231800  0.16947800  1
  O  O89  1  0.05615000  0.84713700  0.82014600  1
  O  O90  1  0.07214100  0.85231800  0.16947800  1
  O  O91  1  0.75000000  0.86734300  0.89819400  1
  O  O92  1  0.75000000  0.86138400  0.10815000  1
  O  O93  1  0.58807600  0.87251800  0.39264500  1
  O  O94  1  0.58718400  0.87433000  0.60906500  1
  O  O95  1  0.91281600  0.87433000  0.60906500  1
  O  O96  1  0.91192400  0.87251800  0.39264500  1
  O  O97  1  0.25000000  0.92151700  0.68234100  1
  O  O98  1  0.25000000  0.91798300  0.31777300  1
  O  O99  1  0.25000000  0.95082500  0.49982800  1
