# generated using pymatgen
data_Li3P2WO8
_symmetry_space_group_name_H-M   'P 1'
_cell_length_a   18.53454500
_cell_length_b   5.06252000
_cell_length_c   7.98795583
_cell_angle_alpha   52.75189803
_cell_angle_beta   90.00000000
_cell_angle_gamma   90.00000000
_symmetry_Int_Tables_number   1
_chemical_formula_structural   Li3P2WO8
_chemical_formula_sum   'Li12 P8 W4 O32'
_cell_volume   596.63597398
_cell_formula_units_Z   4
loop_
 _symmetry_equiv_pos_site_id
 _symmetry_equiv_pos_as_xyz
  1  'x, y, z'
loop_
 _atom_site_type_symbol
 _atom_site_label
 _atom_site_symmetry_multiplicity
 _atom_site_fract_x
 _atom_site_fract_y
 _atom_site_fract_z
 _atom_site_occupancy
  Li  Li0  1  0.70114700  0.38372000  0.81141200  1
  Li  Li1  1  0.88027900  0.72005000  0.50270400  1
  Li  Li2  1  0.04975600  0.97794800  0.28929000  1
  Li  Li3  1  0.38027900  0.27995000  0.99729600  1
  Li  Li4  1  0.54975600  0.02205200  0.21071000  1
  Li  Li5  1  0.20114700  0.61628000  0.68858800  1
  Li  Li6  1  0.79885300  0.38372000  0.31141200  1
  Li  Li7  1  0.45024400  0.97794800  0.78929000  1
  Li  Li8  1  0.61972100  0.72005000  0.00270400  1
  Li  Li9  1  0.95024400  0.02205200  0.71071000  1
  Li  Li10  1  0.11972100  0.27995000  0.49729600  1
  Li  Li11  1  0.29885300  0.61628000  0.18858800  1
  P  P12  1  0.71487100  0.88911300  0.29123800  1
  P  P13  1  0.53498500  0.48809700  0.73140100  1
  P  P14  1  0.03498500  0.51190300  0.76859900  1
  P  P15  1  0.21487100  0.11088700  0.20876200  1
  P  P16  1  0.78512900  0.88911300  0.79123800  1
  P  P17  1  0.96501500  0.48809700  0.23140100  1
  P  P18  1  0.46501500  0.51190300  0.26859900  1
  P  P19  1  0.28512900  0.11088700  0.70876200  1
  W  W20  1  0.87369900  0.18175900  0.01682400  1
  W  W21  1  0.37369900  0.81824100  0.48317600  1
  W  W22  1  0.62630100  0.18175900  0.51682400  1
  W  W23  1  0.12630100  0.81824100  0.98317600  1
  O  O24  1  0.20146800  0.82560300  0.18873200  1
  O  O25  1  0.69048500  0.55324300  0.49892400  1
  O  O26  1  0.44392500  0.81955900  0.26271100  1
  O  O27  1  0.67463800  0.96062300  0.10074000  1
  O  O28  1  0.06242100  0.18595400  0.97571200  1
  O  O29  1  0.06642500  0.55431300  0.57721600  1
  O  O30  1  0.79854900  0.84634300  0.27484800  1
  O  O31  1  0.45000800  0.48284000  0.73705200  1
  O  O32  1  0.95000800  0.51716000  0.76294800  1
  O  O33  1  0.29854900  0.15365700  0.22515200  1
  O  O34  1  0.56642500  0.44568700  0.92278400  1
  O  O35  1  0.56242100  0.81404600  0.52428800  1
  O  O36  1  0.17463800  0.03937700  0.39926000  1
  O  O37  1  0.94392500  0.18044100  0.23728900  1
  O  O38  1  0.19048500  0.44675700  0.00107600  1
  O  O39  1  0.70146800  0.17439700  0.31126800  1
  O  O40  1  0.29853200  0.82560300  0.68873200  1
  O  O41  1  0.80951500  0.55324300  0.99892400  1
  O  O42  1  0.05607500  0.81955900  0.76271100  1
  O  O43  1  0.82536200  0.96062300  0.60074000  1
  O  O44  1  0.43757900  0.18595400  0.47571200  1
  O  O45  1  0.43357500  0.55431300  0.07721600  1
  O  O46  1  0.70145100  0.84634300  0.77484800  1
  O  O47  1  0.04999200  0.48284000  0.23705200  1
  O  O48  1  0.54999200  0.51716000  0.26294800  1
  O  O49  1  0.20145100  0.15365700  0.72515200  1
  O  O50  1  0.93357500  0.44568700  0.42278400  1
  O  O51  1  0.93757900  0.81404600  0.02428800  1
  O  O52  1  0.32536200  0.03937700  0.89926000  1
  O  O53  1  0.55607500  0.18044100  0.73728900  1
  O  O54  1  0.30951500  0.44675700  0.50107600  1
  O  O55  1  0.79853200  0.17439700  0.81126800  1
