# generated using pymatgen
data_Li5V3P8O29
_symmetry_space_group_name_H-M   'P 1'
_cell_length_a   9.79589300
_cell_length_b   9.79916388
_cell_length_c   14.01313396
_cell_angle_alpha   90.29499134
_cell_angle_beta   90.21185341
_cell_angle_gamma   119.98467559
_symmetry_Int_Tables_number   1
_chemical_formula_structural   Li5V3P8O29
_chemical_formula_sum   'Li10 V6 P16 O58'
_cell_volume   1165.06153418
_cell_formula_units_Z   2
loop_
 _symmetry_equiv_pos_site_id
 _symmetry_equiv_pos_as_xyz
  1  'x, y, z'
loop_
 _atom_site_type_symbol
 _atom_site_label
 _atom_site_symmetry_multiplicity
 _atom_site_fract_x
 _atom_site_fract_y
 _atom_site_fract_z
 _atom_site_occupancy
  Li  Li0  1  0.09437800  0.32159700  0.44416800  1
  Li  Li1  1  0.67458600  0.76776900  0.44050800  1
  Li  Li2  1  0.32753500  0.65579400  0.11059700  1
  Li  Li3  1  0.67240700  0.90936600  0.93754400  1
  Li  Li4  1  0.08800100  0.76882200  0.93743100  1
  Li  Li5  1  0.77633200  0.09321400  0.56223600  1
  Li  Li6  1  0.22661400  0.91542500  0.44178500  1
  Li  Li7  1  0.33650900  0.10456400  0.05536000  1
  Li  Li8  1  0.90932000  0.68114400  0.56095700  1
  Li  Li9  1  0.99417200  0.03678700  0.00023800  1
  V  V10  1  0.56673100  0.00028100  0.74782700  1
  V  V11  1  0.43170600  0.00154000  0.25416500  1
  V  V12  1  0.99797700  0.43116100  0.24463200  1
  V  V13  1  0.99928500  0.56216300  0.75490400  1
  V  V14  1  0.43063600  0.43152100  0.75289400  1
  V  V15  1  0.56874200  0.56173100  0.24693000  1
  P  P16  1  0.22254300  0.30623600  0.15656200  1
  P  P17  1  0.08965000  0.31883900  0.66047800  1
  P  P18  1  0.67913200  0.76437100  0.65597800  1
  P  P19  1  0.33689200  0.66837600  0.87243600  1
  P  P20  1  0.33336700  0.66547900  0.37041200  1
  P  P21  1  0.68063800  0.90609000  0.15767200  1
  P  P22  1  0.77119700  0.08726500  0.34113500  1
  P  P23  1  0.09141100  0.77484800  0.15648500  1
  P  P24  1  0.91516400  0.22203200  0.84322800  1
  P  P25  1  0.22771700  0.90793000  0.65831100  1
  P  P26  1  0.31523400  0.08828900  0.83980200  1
  P  P27  1  0.66712800  0.33626900  0.63025000  1
  P  P28  1  0.66385200  0.33047200  0.12700500  1
  P  P29  1  0.31386400  0.23245600  0.34454500  1
  P  P30  1  0.91347300  0.68072100  0.34003600  1
  P  P31  1  0.77387000  0.69244900  0.84172000  1
  O  O32  1  0.23624300  0.24697400  0.43117300  1
  O  O33  1  0.25601400  0.33903800  0.66667100  1
  O  O34  1  0.99395200  0.19966200  0.92672100  1
  O  O35  1  0.08714300  0.34138500  0.15783400  1
  O  O36  1  0.37909200  0.47041300  0.16822200  1
  O  O37  1  0.33086200  0.51824000  0.82664200  1
  O  O38  1  0.52008700  0.61648000  0.67668000  1
  O  O39  1  0.78451300  0.79726100  0.92259800  1
  O  O40  1  0.65580500  0.73663300  0.16770500  1
  O  O41  1  0.18332700  0.51619600  0.32735900  1
  O  O42  1  0.10179200  0.47983000  0.68041400  1
  O  O43  1  0.48274900  0.66722400  0.32553000  1
  O  O44  1  0.33967800  0.66553000  0.97965400  1
  O  O45  1  0.33987400  0.66533900  0.47651300  1
  O  O46  1  0.48999000  0.81451900  0.83570800  1
  O  O47  1  0.11124000  0.62783900  0.16962400  1
  O  O48  1  0.18911900  0.67640200  0.83699000  1
  O  O49  1  0.66340200  0.91407400  0.65655300  1
  O  O50  1  0.78992000  0.99822800  0.24915400  1
  O  O51  1  0.75257900  0.99606300  0.43053300  1
  O  O52  1  0.76604000  0.98101400  0.06796600  1
  O  O53  1  0.51754700  0.89240700  0.17022100  1
  O  O54  1  0.32754000  0.81479900  0.33296100  1
  O  O55  1  0.74056500  0.08405800  0.83519000  1
  O  O56  1  0.37908900  0.89895500  0.68038600  1
  O  O57  1  0.08120800  0.74068200  0.66317800  1
  O  O58  1  0.99233600  0.20182600  0.74528800  1
  O  O59  1  0.00333600  0.24552700  0.56864200  1
  O  O60  1  0.99996300  0.76255900  0.43000100  1
  O  O61  1  0.91792300  0.25159900  0.34179100  1
  O  O62  1  0.62045800  0.09741800  0.32014300  1
  O  O63  1  0.26015200  0.92337300  0.16397700  1
  O  O64  1  0.67073200  0.18527100  0.66548600  1
  O  O65  1  0.47209500  0.09227100  0.82832500  1
  O  O66  1  0.22677400  0.00514800  0.92888700  1
  O  O67  1  0.23936400  0.98943800  0.56752500  1
  O  O68  1  0.20587200  0.99901800  0.74835300  1
  O  O69  1  0.33667700  0.08642800  0.34365100  1
  O  O70  1  0.81458400  0.33459100  0.17075900  1
  O  O71  1  0.91841900  0.38027900  0.83483300  1
  O  O72  1  0.51374200  0.18449100  0.16617500  1
  O  O73  1  0.66111200  0.34092800  0.02198900  1
  O  O74  1  0.66367300  0.34374700  0.52440700  1
  O  O75  1  0.52402600  0.33904900  0.68092300  1
  O  O76  1  0.90315100  0.52153600  0.32395400  1
  O  O77  1  0.81737800  0.48528600  0.67265400  1
  O  O78  1  0.34109400  0.25747800  0.83516400  1
  O  O79  1  0.20567500  0.20713700  0.25169900  1
  O  O80  1  0.21834700  0.20909000  0.07315800  1
  O  O81  1  0.47398500  0.38243000  0.32159100  1
  O  O82  1  0.66616800  0.47986400  0.17695500  1
  O  O83  1  0.61628500  0.53637600  0.83079400  1
  O  O84  1  0.91436700  0.66098600  0.84255800  1
  O  O85  1  0.01472300  0.77915600  0.06592300  1
  O  O86  1  0.00132100  0.79038800  0.24855800  1
  O  O87  1  0.74600800  0.66323700  0.33820900  1
  O  O88  1  0.75298500  0.75050700  0.56501000  1
  O  O89  1  0.79647100  0.78689200  0.74258200  1
