# generated using pymatgen
data_Li4Cr3P4O15
_symmetry_space_group_name_H-M   'P 1'
_cell_length_a   6.42295700
_cell_length_b   10.57326400
_cell_length_c   18.16280600
_cell_angle_alpha   90.00000000
_cell_angle_beta   90.00000000
_cell_angle_gamma   90.00000000
_symmetry_Int_Tables_number   1
_chemical_formula_structural   Li4Cr3P4O15
_chemical_formula_sum   'Li16 Cr12 P16 O60'
_cell_volume   1233.46557960
_cell_formula_units_Z   4
loop_
 _symmetry_equiv_pos_site_id
 _symmetry_equiv_pos_as_xyz
  1  'x, y, z'
loop_
 _atom_site_type_symbol
 _atom_site_label
 _atom_site_symmetry_multiplicity
 _atom_site_fract_x
 _atom_site_fract_y
 _atom_site_fract_z
 _atom_site_occupancy
  Li  Li0  1  0.81720500  0.51963700  0.50885900  1
  Li  Li1  1  0.69701100  0.94950000  0.53173300  1
  Li  Li2  1  0.45123900  0.19096600  0.59208300  1
  Li  Li3  1  0.85014700  0.75638000  0.70255500  1
  Li  Li4  1  0.35014700  0.25638000  0.79744500  1
  Li  Li5  1  0.95123900  0.69096600  0.90791700  1
  Li  Li6  1  0.19701100  0.44950000  0.96826700  1
  Li  Li7  1  0.31720500  0.01963700  0.99114100  1
  Li  Li8  1  0.81720500  0.98036300  0.00885900  1
  Li  Li9  1  0.69701100  0.55050000  0.03173300  1
  Li  Li10  1  0.45123900  0.30903400  0.09208300  1
  Li  Li11  1  0.85014700  0.74362000  0.20255500  1
  Li  Li12  1  0.35014700  0.24362000  0.29744500  1
  Li  Li13  1  0.95123900  0.80903400  0.40791700  1
  Li  Li14  1  0.19701100  0.05050000  0.46826700  1
  Li  Li15  1  0.31720500  0.48036300  0.49114100  1
  Cr  Cr16  1  0.09766800  0.50846100  0.63514000  1
  Cr  Cr17  1  0.10253100  0.00431800  0.65900100  1
  Cr  Cr18  1  0.83527500  0.25813400  0.74847100  1
  Cr  Cr19  1  0.33527500  0.75813400  0.75152900  1
  Cr  Cr20  1  0.60253100  0.50431800  0.84099900  1
  Cr  Cr21  1  0.59766800  0.00846100  0.86486000  1
  Cr  Cr22  1  0.09766800  0.99153900  0.13514000  1
  Cr  Cr23  1  0.10253100  0.49568200  0.15900100  1
  Cr  Cr24  1  0.83527500  0.24186600  0.24847100  1
  Cr  Cr25  1  0.33527500  0.74186600  0.25152900  1
  Cr  Cr26  1  0.60253100  0.99568200  0.34099900  1
  Cr  Cr27  1  0.59766800  0.49153900  0.36486000  1
  P  P28  1  0.12758700  0.76936800  0.54782600  1
  P  P29  1  0.95267200  0.24383300  0.55909900  1
  P  P30  1  0.59440400  0.51522500  0.67414000  1
  P  P31  1  0.60060200  0.99881400  0.70086200  1
  P  P32  1  0.10060200  0.49881400  0.79913800  1
  P  P33  1  0.09440400  0.01522500  0.82586000  1
  P  P34  1  0.45267200  0.74383300  0.94090100  1
  P  P35  1  0.62758700  0.26936800  0.95217400  1
  P  P36  1  0.12758700  0.73063200  0.04782600  1
  P  P37  1  0.95267200  0.25616700  0.05909900  1
  P  P38  1  0.59440400  0.98477500  0.17414000  1
  P  P39  1  0.60060200  0.50118600  0.20086200  1
  P  P40  1  0.10060200  0.00118600  0.29913800  1
  P  P41  1  0.09440400  0.48477500  0.32586000  1
  P  P42  1  0.45267200  0.75616700  0.44090100  1
  P  P43  1  0.62758700  0.23063200  0.45217400  1
  O  O44  1  0.99443300  0.86981900  0.50832600  1
  O  O45  1  0.36961600  0.80349200  0.52247600  1
  O  O46  1  0.08952500  0.63263000  0.52320100  1
  O  O47  1  0.05654600  0.37293200  0.54624100  1
  O  O48  1  0.11972700  0.14244800  0.57599900  1
  O  O49  1  0.76966100  0.24224400  0.61229400  1
  O  O50  1  0.40733200  0.48665900  0.62436400  1
  O  O51  1  0.11975900  0.78491600  0.63135900  1
  O  O52  1  0.78755600  0.53331700  0.62508000  1
  O  O53  1  0.41614500  0.02616900  0.64946600  1
  O  O54  1  0.78882700  0.97069100  0.65024600  1
  O  O55  1  0.61807600  0.40775100  0.73422300  1
  O  O56  1  0.57521400  0.63983400  0.72016900  1
  O  O57  1  0.07372100  0.38384800  0.74691300  1
  O  O58  1  0.12322100  0.61282300  0.74440500  1
  O  O59  1  0.62322100  0.11282300  0.75559500  1
  O  O60  1  0.57372100  0.88384800  0.75308700  1
  O  O61  1  0.07521400  0.13983400  0.77983100  1
  O  O62  1  0.11807600  0.90775100  0.76577700  1
  O  O63  1  0.28882700  0.47069100  0.84975400  1
  O  O64  1  0.91614500  0.52616900  0.85053400  1
  O  O65  1  0.28755600  0.03331700  0.87492000  1
  O  O66  1  0.61975900  0.28491600  0.86864100  1
  O  O67  1  0.90733200  0.98665900  0.87563600  1
  O  O68  1  0.26966100  0.74224400  0.88770600  1
  O  O69  1  0.61972700  0.64244800  0.92400100  1
  O  O70  1  0.55654600  0.87293200  0.95375900  1
  O  O71  1  0.58952500  0.13263000  0.97679900  1
  O  O72  1  0.86961600  0.30349200  0.97752400  1
  O  O73  1  0.49443300  0.36981900  0.99167400  1
  O  O74  1  0.99443300  0.63018100  0.00832600  1
  O  O75  1  0.36961600  0.69650800  0.02247600  1
  O  O76  1  0.08952500  0.86737000  0.02320100  1
  O  O77  1  0.05654600  0.12706800  0.04624100  1
  O  O78  1  0.11972700  0.35755200  0.07599900  1
  O  O79  1  0.76966100  0.25775600  0.11229400  1
  O  O80  1  0.40733200  0.01334100  0.12436400  1
  O  O81  1  0.11975900  0.71508400  0.13135900  1
  O  O82  1  0.78755600  0.96668300  0.12508000  1
  O  O83  1  0.41614500  0.47383100  0.14946600  1
  O  O84  1  0.78882700  0.52930900  0.15024600  1
  O  O85  1  0.61807600  0.09224900  0.23422300  1
  O  O86  1  0.57521400  0.86016600  0.22016900  1
  O  O87  1  0.07372100  0.11615200  0.24691300  1
  O  O88  1  0.12322100  0.88717700  0.24440500  1
  O  O89  1  0.62322100  0.38717700  0.25559500  1
  O  O90  1  0.57372100  0.61615200  0.25308700  1
  O  O91  1  0.07521400  0.36016600  0.27983100  1
  O  O92  1  0.11807600  0.59224900  0.26577700  1
  O  O93  1  0.28882700  0.02930900  0.34975400  1
  O  O94  1  0.91614500  0.97383100  0.35053400  1
  O  O95  1  0.28755600  0.46668300  0.37492000  1
  O  O96  1  0.61975900  0.21508400  0.36864100  1
  O  O97  1  0.90733200  0.51334100  0.37563600  1
  O  O98  1  0.26966100  0.75775600  0.38770600  1
  O  O99  1  0.61972700  0.85755200  0.42400100  1
  O  O100  1  0.55654600  0.62706800  0.45375900  1
  O  O101  1  0.58952500  0.36737000  0.47679900  1
  O  O102  1  0.86961600  0.19650800  0.47752400  1
  O  O103  1  0.49443300  0.13018100  0.49167400  1
