# generated using pymatgen
data_Li2MnSi4O11
_symmetry_space_group_name_H-M   'P 1'
_cell_length_a   7.16446872
_cell_length_b   7.16446872
_cell_length_c   8.27566876
_cell_angle_alpha   81.34355484
_cell_angle_beta   81.34355484
_cell_angle_gamma   83.71623254
_symmetry_Int_Tables_number   1
_chemical_formula_structural   Li2MnSi4O11
_chemical_formula_sum   'Li4 Mn2 Si8 O22'
_cell_volume   413.52360189
_cell_formula_units_Z   2
loop_
 _symmetry_equiv_pos_site_id
 _symmetry_equiv_pos_as_xyz
  1  'x, y, z'
loop_
 _atom_site_type_symbol
 _atom_site_label
 _atom_site_symmetry_multiplicity
 _atom_site_fract_x
 _atom_site_fract_y
 _atom_site_fract_z
 _atom_site_occupancy
  Li  Li0  1  0.91978200  0.08021800  0.75000000  1
  Li  Li1  1  0.64335100  0.35664900  0.75000000  1
  Li  Li2  1  0.35664900  0.64335100  0.25000000  1
  Li  Li3  1  0.08021800  0.91978200  0.25000000  1
  Mn  Mn4  1  0.00000000  0.50000000  0.50000000  1
  Mn  Mn5  1  0.50000000  0.00000000  0.00000000  1
  Si  Si6  1  0.66263000  0.78253400  0.66196800  1
  Si  Si7  1  0.78253400  0.66263000  0.16196800  1
  Si  Si8  1  0.25334400  0.83659700  0.56625000  1
  Si  Si9  1  0.16340300  0.74665600  0.93375000  1
  Si  Si10  1  0.83659700  0.25334400  0.06625000  1
  Si  Si11  1  0.74665600  0.16340300  0.43375000  1
  Si  Si12  1  0.21746600  0.33737000  0.83803200  1
  Si  Si13  1  0.33737000  0.21746600  0.33803200  1
  O  O14  1  0.76330200  0.95090300  0.53289900  1
  O  O15  1  0.62092800  0.85123900  0.84104200  1
  O  O16  1  0.95090300  0.76330200  0.03289900  1
  O  O17  1  0.85123900  0.62092800  0.34104200  1
  O  O18  1  0.80567600  0.58949100  0.67352500  1
  O  O19  1  0.58949100  0.80567600  0.17352500  1
  O  O20  1  0.46657900  0.74489400  0.59212100  1
  O  O21  1  0.84588200  0.27982000  0.54737500  1
  O  O22  1  0.74489400  0.46657900  0.09212100  1
  O  O23  1  0.13403900  0.86596100  0.75000000  1
  O  O24  1  0.72018000  0.15411800  0.95262500  1
  O  O25  1  0.27982000  0.84588200  0.04737500  1
  O  O26  1  0.86596100  0.13403900  0.25000000  1
  O  O27  1  0.25510600  0.53342100  0.90787900  1
  O  O28  1  0.15411800  0.72018000  0.45262500  1
  O  O29  1  0.53342100  0.25510600  0.40787900  1
  O  O30  1  0.41050900  0.19432400  0.82647500  1
  O  O31  1  0.19432400  0.41050900  0.32647500  1
  O  O32  1  0.14876100  0.37907200  0.65895800  1
  O  O33  1  0.04909700  0.23669800  0.96710100  1
  O  O34  1  0.37907200  0.14876100  0.15895800  1
  O  O35  1  0.23669800  0.04909700  0.46710100  1
