# generated using pymatgen
data_Li4Mn2Co3Te3O16
_symmetry_space_group_name_H-M   'P 1'
_cell_length_a   6.13420300
_cell_length_b   6.20318139
_cell_length_c   9.96986661
_cell_angle_alpha   92.14455280
_cell_angle_beta   89.76938796
_cell_angle_gamma   118.70553417
_symmetry_Int_Tables_number   1
_chemical_formula_structural   Li4Mn2Co3Te3O16
_chemical_formula_sum   'Li4 Mn2 Co3 Te3 O16'
_cell_volume   332.46940212
_cell_formula_units_Z   1
loop_
 _symmetry_equiv_pos_site_id
 _symmetry_equiv_pos_as_xyz
  1  'x, y, z'
loop_
 _atom_site_type_symbol
 _atom_site_label
 _atom_site_symmetry_multiplicity
 _atom_site_fract_x
 _atom_site_fract_y
 _atom_site_fract_z
 _atom_site_occupancy
  Li  Li0  1  0.32948200  0.64022700  0.12626400  1
  Li  Li1  1  0.02693900  0.02023400  0.00669700  1
  Li  Li2  1  0.00056900  0.99258400  0.49287000  1
  Li  Li3  1  0.69068500  0.33526500  0.60044000  1
  Mn  Mn4  1  0.32652200  0.68936100  0.48832000  1
  Mn  Mn5  1  0.62897900  0.29740600  0.02686700  1
  Co  Co6  1  0.18277500  0.85964600  0.78657200  1
  Co  Co7  1  0.82287900  0.65551200  0.28172500  1
  Co  Co8  1  0.32476500  0.15336800  0.28416100  1
  Te  Te9  1  0.67651900  0.85203800  0.78820400  1
  Te  Te10  1  0.18297200  0.36924700  0.78030800  1
  Te  Te11  1  0.82050900  0.15589200  0.28497500  1
  O  O12  1  0.68738100  0.86124400  0.39380600  1
  O  O13  1  0.50588900  0.53200900  0.67234900  1
  O  O14  1  0.36628100  0.69174500  0.89729000  1
  O  O15  1  0.97080600  0.98319200  0.67602700  1
  O  O16  1  0.98364200  0.99867100  0.18559700  1
  O  O17  1  0.13346700  0.31309900  0.39222600  1
  O  O18  1  0.50957100  0.97511300  0.67561700  1
  O  O19  1  0.05200800  0.53305300  0.66255200  1
  O  O20  1  0.80460000  0.14237500  0.91117200  1
  O  O21  1  0.16975500  0.86499900  0.38449100  1
  O  O22  1  0.93919000  0.43687900  0.15950600  1
  O  O23  1  0.51748900  0.00464100  0.17292900  1
  O  O24  1  0.66897100  0.31786400  0.39368400  1
  O  O25  1  0.84595600  0.71986300  0.89154600  1
  O  O26  1  0.49201100  0.43199500  0.16559100  1
  O  O27  1  0.33969000  0.17278100  0.91037600  1
