# generated using pymatgen
data_Li2MnP2O7
_symmetry_space_group_name_H-M   'P 1'
_cell_length_a   7.10441618
_cell_length_b   8.65984536
_cell_length_c   10.23112182
_cell_angle_alpha   92.84221015
_cell_angle_beta   108.92950650
_cell_angle_gamma   94.86558336
_symmetry_Int_Tables_number   1
_chemical_formula_structural   Li2MnP2O7
_chemical_formula_sum   'Li8 Mn4 P8 O28'
_cell_volume   591.27514132
_cell_formula_units_Z   4
loop_
 _symmetry_equiv_pos_site_id
 _symmetry_equiv_pos_as_xyz
  1  'x, y, z'
loop_
 _atom_site_type_symbol
 _atom_site_label
 _atom_site_symmetry_multiplicity
 _atom_site_fract_x
 _atom_site_fract_y
 _atom_site_fract_z
 _atom_site_occupancy
  Li  Li0  1  0.62529300  0.85181500  0.29194000  1
  Li  Li1  1  0.62548500  0.85179600  0.79198200  1
  Li  Li2  1  0.33553400  0.67593400  0.00712700  1
  Li  Li3  1  0.33553300  0.67598300  0.50722800  1
  Li  Li4  1  0.92978000  0.40117900  0.02837500  1
  Li  Li5  1  0.92984600  0.40117400  0.52843900  1
  Li  Li6  1  0.37731700  0.15535700  0.20990200  1
  Li  Li7  1  0.37709300  0.15520200  0.70993400  1
  Mn  Mn8  1  0.50754300  0.49497600  0.75476700  1
  Mn  Mn9  1  0.00432300  0.00475000  0.00090700  1
  Mn  Mn10  1  0.50743500  0.49511600  0.25460500  1
  Mn  Mn11  1  0.00412100  0.00490500  0.50070000  1
  P  P12  1  0.18271400  0.79767400  0.27384500  1
  P  P13  1  0.18271100  0.79770400  0.77383400  1
  P  P14  1  0.76896700  0.69157100  0.06281600  1
  P  P15  1  0.76896700  0.69156600  0.56280900  1
  P  P16  1  0.22819700  0.31644400  0.43600500  1
  P  P17  1  0.22809000  0.31646300  0.93592200  1
  P  P18  1  0.81719400  0.20445200  0.23135000  1
  P  P19  1  0.81705900  0.20428200  0.73136800  1
  O  O20  1  0.21210600  0.94489900  0.20300500  1
  O  O21  1  0.21202700  0.94492600  0.70296800  1
  O  O22  1  0.76131400  0.84215800  0.49117600  1
  O  O23  1  0.76133500  0.84216000  0.99119200  1
  O  O24  1  0.13812300  0.82009200  0.40923500  1
  O  O25  1  0.13818100  0.82004500  0.90927900  1
  O  O26  1  0.62671700  0.68711500  0.14978500  1
  O  O27  1  0.62672000  0.68709800  0.64979500  1
  O  O28  1  0.36257500  0.70155700  0.29898700  1
  O  O29  1  0.36256500  0.70157200  0.79897600  1
  O  O30  1  0.99573600  0.68171200  0.16559000  1
  O  O31  1  0.99572800  0.68173700  0.66558900  1
  O  O32  1  0.73128300  0.54525400  0.46369600  1
  O  O33  1  0.73128000  0.54525200  0.96369100  1
  O  O34  1  0.26860600  0.46112600  0.03901400  1
  O  O35  1  0.26869600  0.46113400  0.53905500  1
  O  O36  1  0.98635400  0.31990800  0.35633100  1
  O  O37  1  0.98623300  0.31993200  0.85628700  1
  O  O38  1  0.63058600  0.28858000  0.20969800  1
  O  O39  1  0.62999500  0.28784900  0.70971000  1
  O  O40  1  0.33195500  0.32639200  0.32781700  1
  O  O41  1  0.33191200  0.32641400  0.82779000  1
  O  O42  1  0.89420600  0.20113800  0.10816800  1
  O  O43  1  0.89410400  0.20110700  0.60816600  1
  O  O44  1  0.24922900  0.16562400  0.00779900  1
  O  O45  1  0.24915000  0.16558000  0.50786900  1
  O  O46  1  0.79764100  0.04697300  0.29105800  1
  O  O47  1  0.79778000  0.04682200  0.79113200  1
