# generated using pymatgen
data_Li3Ti3Fe(PO4)6
_symmetry_space_group_name_H-M   'P 1'
_cell_length_a   8.66970262
_cell_length_b   8.73841000
_cell_length_c   8.71480733
_cell_angle_alpha   60.02468121
_cell_angle_beta   60.07109345
_cell_angle_gamma   60.44016017
_symmetry_Int_Tables_number   1
_chemical_formula_structural   Li3Ti3Fe(PO4)6
_chemical_formula_sum   'Li3 Ti3 Fe1 P6 O24'
_cell_volume   468.72620512
_cell_formula_units_Z   1
loop_
 _symmetry_equiv_pos_site_id
 _symmetry_equiv_pos_as_xyz
  1  'x, y, z'
loop_
 _atom_site_type_symbol
 _atom_site_label
 _atom_site_symmetry_multiplicity
 _atom_site_fract_x
 _atom_site_fract_y
 _atom_site_fract_z
 _atom_site_occupancy
  Li  Li0  1  0.26926981  0.87358841  0.66357815  1
  Li  Li1  1  0.78705498  0.20055672  0.93496634  1
  Li  Li2  1  0.94352298  0.78011165  0.19901089  1
  Ti  Ti3  1  0.13968967  0.14551529  0.13925871  1
  Ti  Ti4  1  0.36289381  0.36748115  0.36851370  1
  Ti  Ti5  1  0.85215838  0.85629496  0.85612113  1
  Fe  Fe6  1  0.64118334  0.63544653  0.64143676  1
  P  P7  1  0.04170204  0.75163648  0.46335374  1
  P  P8  1  0.45495512  0.03833690  0.75122389  1
  P  P9  1  0.74587849  0.46190356  0.04389839  1
  P  P10  1  0.24306818  0.54157203  0.97285538  1
  P  P11  1  0.53334290  0.97831129  0.24857696  1
  P  P12  1  0.96689107  0.25025541  0.53561192  1
  O  O13  1  0.14128039  0.28333953  0.50364493  1
  O  O14  1  0.28140882  0.51321448  0.14075226  1
  O  O15  1  0.07041104  0.91372322  0.27474557  1
  O  O16  1  0.50989826  0.15045700  0.27587254  1
  O  O17  1  0.00854548  0.79923676  0.62943455  1
  O  O18  1  0.21976471  0.57999438  0.45095819  1
  O  O19  1  0.27490559  0.07504046  0.91784988  1
  O  O20  1  0.44707060  0.21987569  0.58092504  1
  O  O21  1  0.18996213  0.37900317  0.01115642  1
  O  O22  1  0.57769564  0.45215165  0.22701454  1
  O  O23  1  0.07204236  0.72961540  0.95146147  1
  O  O24  1  0.37399969  0.01690577  0.19036682  1
  O  O25  1  0.63194450  0.98700926  0.79615815  1
  O  O26  1  0.90908653  0.27469192  0.07002658  1
  O  O27  1  0.40041434  0.57582303  0.78210144  1
  O  O28  1  0.80016294  0.62917679  0.99563747  1
  O  O29  1  0.53920082  0.80196154  0.42321325  1
  O  O30  1  0.72918063  0.94667559  0.08468554  1
  O  O31  1  0.78568412  0.41572365  0.56003838  1
  O  O32  1  0.00241327  0.19429252  0.37688118  1
  O  O33  1  0.46990818  0.87808763  0.71295870  1
  O  O34  1  0.94333882  0.08144130  0.72740094  1
  O  O35  1  0.70238790  0.48121531  0.88234413  1
  O  O36  1  0.87268245  0.71533358  0.48696607  1
