# generated using pymatgen
data_LiMnPO4
_symmetry_space_group_name_H-M   'P 1'
_cell_length_a   5.78497709
_cell_length_b   7.82114189
_cell_length_c   8.75931703
_cell_angle_alpha   105.79974529
_cell_angle_beta   98.40801401
_cell_angle_gamma   97.88569069
_symmetry_Int_Tables_number   1
_chemical_formula_structural   LiMnPO4
_chemical_formula_sum   'Li4 Mn4 P4 O16'
_cell_volume   370.66448267
_cell_formula_units_Z   4
loop_
 _symmetry_equiv_pos_site_id
 _symmetry_equiv_pos_as_xyz
  1  'x, y, z'
loop_
 _atom_site_type_symbol
 _atom_site_label
 _atom_site_symmetry_multiplicity
 _atom_site_fract_x
 _atom_site_fract_y
 _atom_site_fract_z
 _atom_site_occupancy
  Li  Li0  1  0.02432100  0.83283400  0.75651200  1
  Li  Li1  1  0.97561700  0.16710900  0.24348800  1
  Li  Li2  1  0.79294200  0.39845500  0.95753500  1
  Li  Li3  1  0.20703700  0.60152400  0.04246700  1
  Mn  Mn4  1  0.49811000  0.01287900  0.73599800  1
  Mn  Mn5  1  0.50205300  0.98734700  0.26410200  1
  Mn  Mn6  1  0.61353000  0.45676700  0.33056200  1
  Mn  Mn7  1  0.38653000  0.54332100  0.66949400  1
  P  P8  1  0.17979200  0.67292400  0.40233900  1
  P  P9  1  0.82027500  0.32708200  0.59764600  1
  P  P10  1  0.28434400  0.21887800  0.03669100  1
  P  P11  1  0.71560100  0.78110900  0.96331100  1
  O  O12  1  0.54196300  0.33327300  0.07422500  1
  O  O13  1  0.45800200  0.66666000  0.92581600  1
  O  O14  1  0.28379100  0.49861400  0.40448100  1
  O  O15  1  0.71624600  0.50136000  0.59550200  1
  O  O16  1  0.91361500  0.63302300  0.33648300  1
  O  O17  1  0.08647100  0.36697000  0.66346500  1
  O  O18  1  0.72800700  0.86507400  0.81949100  1
  O  O19  1  0.27181500  0.13485500  0.18047100  1
  O  O20  1  0.09640000  0.33913600  0.03576800  1
  O  O21  1  0.90356900  0.66085100  0.96417900  1
  O  O22  1  0.23657900  0.78944300  0.58728300  1
  O  O23  1  0.76341500  0.21053300  0.41270700  1
  O  O24  1  0.24861900  0.06260200  0.87694700  1
  O  O25  1  0.75129600  0.93737900  0.12304300  1
  O  O26  1  0.68142500  0.23269700  0.70032000  1
  O  O27  1  0.31863300  0.76729900  0.29967500  1
