# generated using pymatgen
data_Li4Mn2Co3Cu3O16
_symmetry_space_group_name_H-M   'P 1'
_cell_length_a   5.78825857
_cell_length_b   5.73890189
_cell_length_c   9.29604369
_cell_angle_alpha   90.00068165
_cell_angle_beta   88.54051194
_cell_angle_gamma   119.71839234
_symmetry_Int_Tables_number   1
_chemical_formula_structural   Li4Mn2Co3Cu3O16
_chemical_formula_sum   'Li4 Mn2 Co3 Cu3 O16'
_cell_volume   268.06749132
_cell_formula_units_Z   1
loop_
 _symmetry_equiv_pos_site_id
 _symmetry_equiv_pos_as_xyz
  1  'x, y, z'
loop_
 _atom_site_type_symbol
 _atom_site_label
 _atom_site_symmetry_multiplicity
 _atom_site_fract_x
 _atom_site_fract_y
 _atom_site_fract_z
 _atom_site_occupancy
  Li  Li0  1  0.32626000  0.66281100  0.89641900  1
  Li  Li1  1  0.99927500  0.99949800  0.99427300  1
  Li  Li2  1  0.99743100  0.99893600  0.49437300  1
  Li  Li3  1  0.67593000  0.33820100  0.40188500  1
  Mn  Mn4  1  0.34250600  0.67151100  0.49241600  1
  Mn  Mn5  1  0.65773100  0.32859700  0.97976600  1
  Co  Co6  1  0.65996900  0.82991900  0.21098400  1
  Co  Co7  1  0.83024000  0.65971800  0.71333400  1
  Co  Co8  1  0.83027400  0.17056200  0.71335200  1
  Cu  Cu9  1  0.17066100  0.83138200  0.21386200  1
  Cu  Cu10  1  0.17045800  0.33933500  0.21399100  1
  Cu  Cu11  1  0.33635500  0.16807000  0.71186600  1
  O  O12  1  0.15970300  0.82922200  0.59300400  1
  O  O13  1  0.05188400  0.52648000  0.35107100  1
  O  O14  1  0.34272800  0.67147500  0.11005400  1
  O  O15  1  0.98705200  0.99334200  0.30284500  1
  O  O16  1  0.99060300  0.99555200  0.80400300  1
  O  O17  1  0.15933200  0.33118500  0.59285700  1
  O  O18  1  0.50059800  0.96470000  0.34469400  1
  O  O19  1  0.49911600  0.53496300  0.34434500  1
  O  O20  1  0.32811100  0.16381300  0.09352100  1
  O  O21  1  0.66896100  0.83442900  0.60137100  1
  O  O22  1  0.52517600  0.48773700  0.84290800  1
  O  O23  1  0.52587400  0.03685400  0.84302400  1
  O  O24  1  0.67482300  0.33727700  0.61315900  1
  O  O25  1  0.81449200  0.66323800  0.09841000  1
  O  O26  1  0.95893000  0.47964300  0.83722600  1
  O  O27  1  0.81552600  0.15184900  0.09882200  1
