# generated using pymatgen
data_Li2Mn3(SiO3)4
_symmetry_space_group_name_H-M   'P 1'
_cell_length_a   7.67262800
_cell_length_b   10.38862000
_cell_length_c   14.09274200
_cell_angle_alpha   90.00000000
_cell_angle_beta   90.00000000
_cell_angle_gamma   90.00000000
_symmetry_Int_Tables_number   1
_chemical_formula_structural   Li2Mn3(SiO3)4
_chemical_formula_sum   'Li8 Mn12 Si16 O48'
_cell_volume   1123.30451459
_cell_formula_units_Z   4
loop_
 _symmetry_equiv_pos_site_id
 _symmetry_equiv_pos_as_xyz
  1  'x, y, z'
loop_
 _atom_site_type_symbol
 _atom_site_label
 _atom_site_symmetry_multiplicity
 _atom_site_fract_x
 _atom_site_fract_y
 _atom_site_fract_z
 _atom_site_occupancy
  Li  Li0  1  0.03227600  0.75000000  0.14037700  1
  Li  Li1  1  0.23638300  0.75000000  0.49515000  1
  Li  Li2  1  0.26361700  0.25000000  0.99515000  1
  Li  Li3  1  0.46772400  0.25000000  0.64037700  1
  Li  Li4  1  0.53227600  0.75000000  0.35962300  1
  Li  Li5  1  0.73638300  0.75000000  0.00485000  1
  Li  Li6  1  0.76361700  0.25000000  0.50485000  1
  Li  Li7  1  0.96772400  0.25000000  0.85962300  1
  Mn  Mn8  1  0.00000000  0.00000000  0.00000000  1
  Mn  Mn9  1  0.00000000  0.50000000  0.00000000  1
  Mn  Mn10  1  0.22977400  0.75000000  0.71531700  1
  Mn  Mn11  1  0.29210600  0.75000000  0.93945500  1
  Mn  Mn12  1  0.20789400  0.25000000  0.43945500  1
  Mn  Mn13  1  0.27022600  0.25000000  0.21531700  1
  Mn  Mn14  1  0.50000000  0.00000000  0.50000000  1
  Mn  Mn15  1  0.50000000  0.50000000  0.50000000  1
  Mn  Mn16  1  0.72977400  0.75000000  0.78468300  1
  Mn  Mn17  1  0.70789400  0.25000000  0.06054500  1
  Mn  Mn18  1  0.79210600  0.75000000  0.56054500  1
  Mn  Mn19  1  0.77022600  0.25000000  0.28468300  1
  Si  Si20  1  0.18022000  0.03730200  0.62292400  1
  Si  Si21  1  0.18022000  0.46269800  0.62292400  1
  Si  Si22  1  0.22044900  0.53870100  0.33353900  1
  Si  Si23  1  0.22044900  0.96129900  0.33353900  1
  Si  Si24  1  0.27955100  0.03870100  0.83353900  1
  Si  Si25  1  0.27955100  0.46129900  0.83353900  1
  Si  Si26  1  0.31978000  0.53730200  0.12292400  1
  Si  Si27  1  0.31978000  0.96269800  0.12292400  1
  Si  Si28  1  0.68022000  0.03730200  0.87707600  1
  Si  Si29  1  0.68022000  0.46269800  0.87707600  1
  Si  Si30  1  0.72044900  0.53870100  0.16646100  1
  Si  Si31  1  0.72044900  0.96129900  0.16646100  1
  Si  Si32  1  0.77955100  0.03870100  0.66646100  1
  Si  Si33  1  0.77955100  0.46129900  0.66646100  1
  Si  Si34  1  0.81978000  0.53730200  0.37707600  1
  Si  Si35  1  0.81978000  0.96269800  0.37707600  1
  O  O36  1  0.02719900  0.57849300  0.37651900  1
  O  O37  1  0.02719900  0.92150700  0.37651900  1
  O  O38  1  0.13685400  0.39006800  0.90048400  1
  O  O39  1  0.13685400  0.10993200  0.90048400  1
  O  O40  1  0.21116500  0.88373700  0.60812500  1
  O  O41  1  0.21116500  0.61626300  0.60812500  1
  O  O42  1  0.22013500  0.61409400  0.03803600  1
  O  O43  1  0.22013500  0.88590600  0.03803600  1
  O  O44  1  0.24226000  0.11829200  0.32820900  1
  O  O45  1  0.24226000  0.38170800  0.32820900  1
  O  O46  1  0.22987300  0.59242000  0.22270000  1
  O  O47  1  0.22987300  0.90758000  0.22270000  1
  O  O48  1  0.27012700  0.40758000  0.72270000  1
  O  O49  1  0.27012700  0.09242000  0.72270000  1
  O  O50  1  0.25774000  0.61829200  0.82820900  1
  O  O51  1  0.25774000  0.88170800  0.82820900  1
  O  O52  1  0.27986500  0.11409400  0.53803600  1
  O  O53  1  0.27986500  0.38590600  0.53803600  1
  O  O54  1  0.28883500  0.11626300  0.10812500  1
  O  O55  1  0.28883500  0.38373700  0.10812500  1
  O  O56  1  0.36314600  0.60993200  0.40048400  1
  O  O57  1  0.36314600  0.89006800  0.40048400  1
  O  O58  1  0.47280100  0.07849300  0.87651900  1
  O  O59  1  0.47280100  0.42150700  0.87651900  1
  O  O60  1  0.52719900  0.92150700  0.12348100  1
  O  O61  1  0.52719900  0.57849300  0.12348100  1
  O  O62  1  0.63685400  0.10993200  0.59951600  1
  O  O63  1  0.63685400  0.39006800  0.59951600  1
  O  O64  1  0.71116500  0.61626300  0.89187500  1
  O  O65  1  0.71116500  0.88373700  0.89187500  1
  O  O66  1  0.72013500  0.61409400  0.46196400  1
  O  O67  1  0.72013500  0.88590600  0.46196400  1
  O  O68  1  0.74226000  0.11829200  0.17179100  1
  O  O69  1  0.74226000  0.38170800  0.17179100  1
  O  O70  1  0.72987300  0.59242000  0.27730000  1
  O  O71  1  0.72987300  0.90758000  0.27730000  1
  O  O72  1  0.77012700  0.09242000  0.77730000  1
  O  O73  1  0.77012700  0.40758000  0.77730000  1
  O  O74  1  0.75774000  0.61829200  0.67179100  1
  O  O75  1  0.75774000  0.88170800  0.67179100  1
  O  O76  1  0.77986500  0.11409400  0.96196400  1
  O  O77  1  0.77986500  0.38590600  0.96196400  1
  O  O78  1  0.78883500  0.11626300  0.39187500  1
  O  O79  1  0.78883500  0.38373700  0.39187500  1
  O  O80  1  0.86314600  0.60993200  0.09951600  1
  O  O81  1  0.86314600  0.89006800  0.09951600  1
  O  O82  1  0.97280100  0.07849300  0.62348100  1
  O  O83  1  0.97280100  0.42150700  0.62348100  1
