# generated using pymatgen
data_Li6Ti8Ni(PO5)8
_symmetry_space_group_name_H-M   'P 1'
_cell_length_a   6.45341100
_cell_length_b   10.43518007
_cell_length_c   10.45237609
_cell_angle_alpha   90.95944913
_cell_angle_beta   90.17637087
_cell_angle_gamma   90.32518469
_symmetry_Int_Tables_number   1
_chemical_formula_structural   Li6Ti8Ni(PO5)8
_chemical_formula_sum   'Li6 Ti8 Ni1 P8 O40'
_cell_volume   703.77563075
_cell_formula_units_Z   1
loop_
 _symmetry_equiv_pos_site_id
 _symmetry_equiv_pos_as_xyz
  1  'x, y, z'
loop_
 _atom_site_type_symbol
 _atom_site_label
 _atom_site_symmetry_multiplicity
 _atom_site_fract_x
 _atom_site_fract_y
 _atom_site_fract_z
 _atom_site_occupancy
  Li  Li0  1  0.00000000  0.00000000  0.00000000  1
  Li  Li1  1  0.00000000  0.50000000  0.50000000  1
  Li  Li2  1  0.50000000  0.00000000  0.50000000  1
  Li  Li3  1  0.50000000  0.00000000  0.00000000  1
  Li  Li4  1  0.50000000  0.50000000  0.50000000  1
  Li  Li5  1  0.00000000  0.00000000  0.50000000  1
  Ti  Ti6  1  0.76364400  0.28186100  0.94363100  1
  Ti  Ti7  1  0.74936900  0.77901100  0.44065800  1
  Ti  Ti8  1  0.74893400  0.55946200  0.72076400  1
  Ti  Ti9  1  0.74959800  0.05902800  0.22117400  1
  Ti  Ti10  1  0.25063100  0.22098900  0.55934200  1
  Ti  Ti11  1  0.23635600  0.71813900  0.05636900  1
  Ti  Ti12  1  0.25040200  0.94097200  0.77882600  1
  Ti  Ti13  1  0.25106600  0.44053800  0.27923600  1
  Ni  Ni14  1  0.50000000  0.50000000  0.00000000  1
  P  P15  1  0.75112800  0.25032900  0.62388000  1
  P  P16  1  0.74887400  0.75012100  0.12220500  1
  P  P17  1  0.75003100  0.87847600  0.74981500  1
  P  P18  1  0.74629400  0.37859700  0.25184800  1
  P  P19  1  0.25112600  0.24987900  0.87779500  1
  P  P20  1  0.24887200  0.74967100  0.37612000  1
  P  P21  1  0.25370600  0.62140300  0.74815200  1
  P  P22  1  0.24996900  0.12152400  0.25018500  1
  O  O23  1  0.94343500  0.18801000  0.56105200  1
  O  O24  1  0.94250600  0.69054500  0.06058200  1
  O  O25  1  0.94347400  0.94163000  0.81215500  1
  O  O26  1  0.94445800  0.44283300  0.30696300  1
  O  O27  1  0.75247800  0.39746400  0.60115700  1
  O  O28  1  0.74621400  0.89740300  0.10131200  1
  O  O29  1  0.75132600  0.63617900  0.52299300  1
  O  O30  1  0.75291700  0.13731000  0.02333800  1
  O  O31  1  0.74910900  0.73374700  0.77940500  1
  O  O32  1  0.75099700  0.22215400  0.76830000  1
  O  O33  1  0.75283200  0.23380500  0.28077200  1
  O  O34  1  0.74660500  0.71906700  0.26617200  1
  O  O35  1  0.72172400  0.47919400  0.86407700  1
  O  O36  1  0.75036900  0.97762400  0.36439800  1
  O  O37  1  0.75032900  0.89956100  0.60285400  1
  O  O38  1  0.72858500  0.39927500  0.10519300  1
  O  O39  1  0.55716000  0.18824400  0.56057000  1
  O  O40  1  0.55763500  0.68842900  0.05575500  1
  O  O41  1  0.55719800  0.94087400  0.81152300  1
  O  O42  1  0.55821000  0.43960200  0.31934900  1
  O  O43  1  0.44179000  0.56039800  0.68065100  1
  O  O44  1  0.44280200  0.05912600  0.18847700  1
  O  O45  1  0.44236500  0.31157100  0.94424500  1
  O  O46  1  0.44284000  0.81175600  0.43943000  1
  O  O47  1  0.24708300  0.86269000  0.97666200  1
  O  O48  1  0.25378600  0.10259700  0.89868800  1
  O  O49  1  0.24867400  0.36382100  0.47700700  1
  O  O50  1  0.24716800  0.76619500  0.71922800  1
  O  O51  1  0.24752200  0.60253600  0.39884300  1
  O  O52  1  0.25089100  0.26625300  0.22059500  1
  O  O53  1  0.27141500  0.60072500  0.89480700  1
  O  O54  1  0.24967100  0.10043900  0.39714600  1
  O  O55  1  0.25339500  0.28093300  0.73382800  1
  O  O56  1  0.24963100  0.02237600  0.63560200  1
  O  O57  1  0.24900300  0.77784600  0.23170000  1
  O  O58  1  0.27827600  0.52080600  0.13592300  1
  O  O59  1  0.05554200  0.55716700  0.69303700  1
  O  O60  1  0.05652600  0.05837000  0.18784500  1
  O  O61  1  0.05749400  0.30945500  0.93941800  1
  O  O62  1  0.05656500  0.81199000  0.43894800  1
