# generated using pymatgen
data_NaLi7Fe8(SiO3)16
_symmetry_space_group_name_H-M   'P 1'
_cell_length_a   5.35966500
_cell_length_b   12.89298419
_cell_length_c   12.89965298
_cell_angle_alpha   86.11598644
_cell_angle_beta   81.16839379
_cell_angle_gamma   81.14888022
_symmetry_Int_Tables_number   1
_chemical_formula_structural   NaLi7Fe8(SiO3)16
_chemical_formula_sum   'Na1 Li7 Fe8 Si16 O48'
_cell_volume   869.44623931
_cell_formula_units_Z   1
loop_
 _symmetry_equiv_pos_site_id
 _symmetry_equiv_pos_as_xyz
  1  'x, y, z'
loop_
 _atom_site_type_symbol
 _atom_site_label
 _atom_site_symmetry_multiplicity
 _atom_site_fract_x
 _atom_site_fract_y
 _atom_site_fract_z
 _atom_site_occupancy
  Na  Na0  1  0.49495900  0.89688900  0.35609700  1
  Li  Li1  1  0.99869100  0.12357600  0.12593000  1
  Li  Li2  1  0.00270600  0.37766200  0.37412300  1
  Li  Li3  1  0.50054400  0.62328200  0.12725100  1
  Li  Li4  1  0.50335100  0.12278900  0.62702900  1
  Li  Li5  1  0.49817000  0.37672600  0.87304300  1
  Li  Li6  1  0.99808300  0.62365400  0.62605800  1
  Li  Li7  1  0.00138800  0.87604100  0.87258400  1
  Fe  Fe8  1  0.49730000  0.19955000  0.05026200  1
  Fe  Fe9  1  0.50597100  0.30202400  0.44935800  1
  Fe  Fe10  1  0.00581600  0.19912100  0.55226100  1
  Fe  Fe11  1  0.00086300  0.69778600  0.05092200  1
  Fe  Fe12  1  0.99708100  0.30104300  0.94880200  1
  Fe  Fe13  1  0.99713900  0.79981800  0.44991300  1
  Fe  Fe14  1  0.49683800  0.69897000  0.55110800  1
  Fe  Fe15  1  0.50103400  0.80038800  0.94800400  1
  Si  Si16  1  0.79307200  0.05928200  0.39869900  1
  Si  Si17  1  0.71732000  0.35291000  0.19261700  1
  Si  Si18  1  0.28999600  0.14864500  0.30752500  1
  Si  Si19  1  0.21706400  0.44242200  0.10314500  1
  Si  Si20  1  0.77931400  0.64540900  0.30809800  1
  Si  Si21  1  0.77622300  0.14670900  0.80764800  1
  Si  Si22  1  0.72436700  0.44259700  0.60413700  1
  Si  Si23  1  0.71615500  0.94248200  0.10074500  1
  Si  Si24  1  0.27817800  0.55685600  0.39633500  1
  Si  Si25  1  0.27616100  0.05739800  0.89694200  1
  Si  Si26  1  0.21279300  0.85191000  0.19020400  1
  Si  Si27  1  0.22445600  0.35287600  0.69317700  1
  Si  Si28  1  0.78262300  0.55663200  0.89726400  1
  Si  Si29  1  0.71493700  0.85337400  0.69343500  1
  Si  Si30  1  0.28264600  0.64592100  0.80725800  1
  Si  Si31  1  0.21341600  0.94185100  0.60494100  1
  O  O32  1  0.70341300  0.06226200  0.05400900  1
  O  O33  1  0.78199800  0.26433700  0.10107300  1
  O  O34  1  0.56657700  0.07699800  0.32243600  1
  O  O35  1  0.28102600  0.35089600  0.01465000  1
  O  O36  1  0.29010600  0.19374700  0.18758600  1
  O  O37  1  0.06812900  0.07127100  0.32622900  1
  O  O38  1  0.93974300  0.42956000  0.17283800  1
  O  O39  1  0.71761300  0.30675800  0.31252400  1
  O  O40  1  0.72272100  0.15156400  0.48554000  1
  O  O41  1  0.44006300  0.42280800  0.17960600  1
  O  O42  1  0.21546100  0.06135300  0.55652600  1
  O  O43  1  0.21632200  0.56232900  0.05703000  1
  O  O44  1  0.22276900  0.23611700  0.39939400  1
  O  O45  1  0.78475400  0.84998700  0.01400200  1
  O  O46  1  0.78919600  0.35101400  0.51575000  1
  O  O47  1  0.79393000  0.19432100  0.68795100  1
  O  O48  1  0.79389100  0.69473600  0.18866300  1
  O  O49  1  0.54382600  0.57493800  0.31956900  1
  O  O50  1  0.54131300  0.07623600  0.82028900  1
  O  O51  1  0.28867100  0.26474200  0.60133600  1
  O  O52  1  0.28374100  0.76469200  0.09830500  1
  O  O53  1  0.29542100  0.43755600  0.44538100  1
  O  O54  1  0.04443200  0.56725800  0.32518400  1
  O  O55  1  0.04172100  0.07032200  0.82628100  1
  O  O56  1  0.95876700  0.42928500  0.67496300  1
  O  O57  1  0.94685800  0.92941900  0.17367200  1
  O  O58  1  0.70738400  0.56217500  0.55688500  1
  O  O59  1  0.71252300  0.23491000  0.89936200  1
  O  O60  1  0.71740400  0.73078500  0.40199900  1
  O  O61  1  0.45917300  0.42337000  0.68071700  1
  O  O62  1  0.44684600  0.92423300  0.17599800  1
  O  O63  1  0.20736000  0.30497300  0.81276300  1
  O  O64  1  0.18989800  0.80236200  0.30885800  1
  O  O65  1  0.21218500  0.14934000  0.98505300  1
  O  O66  1  0.21363100  0.64880500  0.48404900  1
  O  O67  1  0.77945100  0.76520500  0.60183100  1
  O  O68  1  0.80321200  0.94081200  0.44836400  1
  O  O69  1  0.78274300  0.43675700  0.94358000  1
  O  O70  1  0.55991200  0.57608500  0.82077100  1
  O  O71  1  0.27593600  0.84792000  0.51952600  1
  O  O72  1  0.28256200  0.69130400  0.68742400  1
  O  O73  1  0.06034100  0.56910600  0.82783000  1
  O  O74  1  0.93698800  0.93047100  0.67653000  1
  O  O75  1  0.71475100  0.80582500  0.81288100  1
  O  O76  1  0.71810000  0.64818000  0.98576700  1
  O  O77  1  0.43774100  0.92382400  0.68108100  1
  O  O78  1  0.21789800  0.73478500  0.89843000  1
  O  O79  1  0.29284100  0.93766800  0.94459400  1
