# generated using pymatgen
data_Li2Fe(Si2O5)3
_symmetry_space_group_name_H-M   'P 1'
_cell_length_a   7.30277029
_cell_length_b   7.97215027
_cell_length_c   11.95027730
_cell_angle_alpha   95.43740591
_cell_angle_beta   98.62820644
_cell_angle_gamma   116.91656470
_symmetry_Int_Tables_number   1
_chemical_formula_structural   Li2Fe(Si2O5)3
_chemical_formula_sum   'Li4 Fe2 Si12 O30'
_cell_volume   602.80666824
_cell_formula_units_Z   2
loop_
 _symmetry_equiv_pos_site_id
 _symmetry_equiv_pos_as_xyz
  1  'x, y, z'
loop_
 _atom_site_type_symbol
 _atom_site_label
 _atom_site_symmetry_multiplicity
 _atom_site_fract_x
 _atom_site_fract_y
 _atom_site_fract_z
 _atom_site_occupancy
  Li  Li0  1  0.17278500  0.42791300  0.28470700  1
  Li  Li1  1  0.17284300  0.92791300  0.78481700  1
  Li  Li2  1  0.82724600  0.57209600  0.71528900  1
  Li  Li3  1  0.82718700  0.07210800  0.21520900  1
  Fe  Fe4  1  0.00001600  0.49997500  0.50000100  1
  Fe  Fe5  1  0.99979200  0.99998700  0.00003100  1
  Si  Si6  1  0.17279300  0.74129000  0.13023800  1
  Si  Si7  1  0.17290900  0.24134800  0.63040800  1
  Si  Si8  1  0.82717800  0.25874000  0.86972800  1
  Si  Si9  1  0.82713100  0.75864600  0.36959700  1
  Si  Si10  1  0.19762500  0.56870200  0.78518600  1
  Si  Si11  1  0.19761400  0.06863200  0.28509700  1
  Si  Si12  1  0.80240900  0.43130300  0.21480700  1
  Si  Si13  1  0.80241200  0.93136900  0.71489600  1
  Si  Si14  1  0.50929700  0.70808900  0.01011300  1
  Si  Si15  1  0.50930200  0.20810600  0.51012000  1
  Si  Si16  1  0.49060300  0.29182900  0.98987500  1
  Si  Si17  1  0.49073100  0.79189700  0.48987600  1
  O  O18  1  0.50003000  0.50000000  0.00000000  1
  O  O19  1  0.50001800  0.99999900  0.49999800  1
  O  O20  1  0.04779200  0.79401400  0.02738000  1
  O  O21  1  0.04798500  0.29407500  0.52750100  1
  O  O22  1  0.95216100  0.20608500  0.97262100  1
  O  O23  1  0.95205200  0.70590100  0.47250000  1
  O  O24  1  0.98221200  0.46680200  0.83870400  1
  O  O25  1  0.98212300  0.96670900  0.33856400  1
  O  O26  1  0.01783700  0.53321100  0.16129600  1
  O  O27  1  0.01790100  0.03328900  0.66143000  1
  O  O28  1  0.13272200  0.66646500  0.68490800  1
  O  O29  1  0.13280200  0.16651100  0.18486700  1
  O  O30  1  0.86731300  0.33353400  0.31509100  1
  O  O31  1  0.86717000  0.83348400  0.81513500  1
  O  O32  1  0.37534700  0.72125500  0.10534300  1
  O  O33  1  0.37536600  0.22130500  0.60537100  1
  O  O34  1  0.62463400  0.27875000  0.89466000  1
  O  O35  1  0.62466900  0.77869800  0.39462200  1
  O  O36  1  0.39443100  0.72834600  0.88642200  1
  O  O37  1  0.39434000  0.22819100  0.38640300  1
  O  O38  1  0.60560800  0.27166400  0.11356900  1
  O  O39  1  0.60568800  0.77181200  0.61359300  1
  O  O40  1  0.26298400  0.40517800  0.74616100  1
  O  O41  1  0.26293500  0.90510200  0.24601700  1
  O  O42  1  0.73705100  0.59482900  0.25383700  1
  O  O43  1  0.73709500  0.09489300  0.75397800  1
  O  O44  1  0.25707000  0.11006600  0.94261000  1
  O  O45  1  0.25721400  0.61013500  0.44261000  1
  O  O46  1  0.74276300  0.88989400  0.05742700  1
  O  O47  1  0.74281600  0.38986100  0.55738900  1
