# generated using pymatgen
data_Li2VO3F
_symmetry_space_group_name_H-M   'P 1'
_cell_length_a   5.77485667
_cell_length_b   5.77485667
_cell_length_c   9.29788523
_cell_angle_alpha   73.34355047
_cell_angle_beta   73.34355047
_cell_angle_gamma   91.85896985
_symmetry_Int_Tables_number   1
_chemical_formula_structural   Li2VO3F
_chemical_formula_sum   'Li8 V4 O12 F4'
_cell_volume   282.37270790
_cell_formula_units_Z   4
loop_
 _symmetry_equiv_pos_site_id
 _symmetry_equiv_pos_as_xyz
  1  'x, y, z'
loop_
 _atom_site_type_symbol
 _atom_site_label
 _atom_site_symmetry_multiplicity
 _atom_site_fract_x
 _atom_site_fract_y
 _atom_site_fract_z
 _atom_site_occupancy
  Li  Li0  1  0.31320600  0.54452800  0.63427700  1
  Li  Li1  1  0.57265700  0.80173200  0.13393200  1
  Li  Li2  1  0.30915900  0.05097100  0.64015900  1
  Li  Li3  1  0.54452800  0.31320600  0.13427700  1
  Li  Li4  1  0.80173200  0.57265700  0.63393200  1
  Li  Li5  1  0.05097100  0.30915900  0.14015900  1
  Li  Li6  1  0.44616500  0.66490300  0.87503000  1
  Li  Li7  1  0.66490300  0.44616500  0.37503000  1
  V  V8  1  0.19295900  0.88114700  0.38668300  1
  V  V9  1  0.88114700  0.19295900  0.88668300  1
  V  V10  1  0.11467100  0.82788500  0.09867400  1
  V  V11  1  0.82788500  0.11467100  0.59867400  1
  O  O12  1  0.83656800  0.06561000  0.09622900  1
  O  O13  1  0.41482400  0.69658200  0.38297700  1
  O  O14  1  0.06561000  0.83656800  0.59622900  1
  O  O15  1  0.04385400  0.28997700  0.64791500  1
  O  O16  1  0.29911300  0.59605500  0.10775900  1
  O  O17  1  0.28997700  0.04385400  0.14791500  1
  O  O18  1  0.71914700  0.96337700  0.85217700  1
  O  O19  1  0.69658200  0.41482400  0.88297700  1
  O  O20  1  0.96337700  0.71914700  0.35217700  1
  O  O21  1  0.93987200  0.17571200  0.39790700  1
  O  O22  1  0.59605500  0.29911300  0.60775900  1
  O  O23  1  0.17571200  0.93987200  0.89790700  1
  F  F24  1  0.81574000  0.56900800  0.14487900  1
  F  F25  1  0.42267700  0.17710400  0.36421300  1
  F  F26  1  0.56900800  0.81574000  0.64487900  1
  F  F27  1  0.17710400  0.42267700  0.86421300  1
