# generated using pymatgen
data_Li8Mn7Fe(BO3)8
_symmetry_space_group_name_H-M   'P 1'
_cell_length_a   5.25215200
_cell_length_b   9.12466497
_cell_length_c   10.52645123
_cell_angle_alpha   88.25090699
_cell_angle_beta   89.05553726
_cell_angle_gamma   89.85813971
_symmetry_Int_Tables_number   1
_chemical_formula_structural   Li8Mn7Fe(BO3)8
_chemical_formula_sum   'Li8 Mn7 Fe1 B8 O24'
_cell_volume   504.16645673
_cell_formula_units_Z   1
loop_
 _symmetry_equiv_pos_site_id
 _symmetry_equiv_pos_as_xyz
  1  'x, y, z'
loop_
 _atom_site_type_symbol
 _atom_site_label
 _atom_site_symmetry_multiplicity
 _atom_site_fract_x
 _atom_site_fract_y
 _atom_site_fract_z
 _atom_site_occupancy
  Li  Li0  1  0.14651100  0.17448600  0.66794600  1
  Li  Li1  1  0.18730900  0.16135300  0.16827000  1
  Li  Li2  1  0.32035300  0.33128800  0.41730100  1
  Li  Li3  1  0.33525200  0.32664200  0.91692600  1
  Li  Li4  1  0.64660300  0.67422200  0.66812300  1
  Li  Li5  1  0.68838700  0.65986000  0.16805600  1
  Li  Li6  1  0.82021800  0.83056400  0.41788300  1
  Li  Li7  1  0.83597800  0.82568600  0.91760300  1
  Mn  Mn8  1  0.15911800  0.83795000  0.63272500  1
  Mn  Mn9  1  0.33022500  0.66298900  0.38129500  1
  Mn  Mn10  1  0.33106000  0.99785700  0.88290100  1
  Mn  Mn11  1  0.65870900  0.33884500  0.63317300  1
  Mn  Mn12  1  0.67798400  0.99829900  0.13345400  1
  Mn  Mn13  1  0.83154400  0.16450100  0.38371800  1
  Mn  Mn14  1  0.83256700  0.49814300  0.88532800  1
  Fe  Fe15  1  0.18530900  0.49818800  0.13221300  1
  B  B16  1  0.17147700  0.82829400  0.12491600  1
  B  B17  1  0.15705100  0.50137500  0.62582500  1
  B  B18  1  0.33667200  0.99739500  0.37547500  1
  B  B19  1  0.32918900  0.66725200  0.87651500  1
  B  B20  1  0.67463400  0.33170000  0.12717900  1
  B  B21  1  0.65719700  0.00142600  0.62585600  1
  B  B22  1  0.83683200  0.49740200  0.37463500  1
  B  B23  1  0.82796600  0.16736100  0.87609600  1
  O  O24  1  0.09590300  0.48097500  0.34344600  1
  O  O25  1  0.08968600  0.17925100  0.86142600  1
  O  O26  1  0.17474100  0.78867900  0.84554300  1
  O  O27  1  0.19477700  0.87560600  0.41729900  1
  O  O28  1  0.22399500  0.13405500  0.36076800  1
  O  O29  1  0.21859500  0.53563100  0.91930300  1
  O  O30  1  0.26503600  0.36406700  0.61111100  1
  O  O31  1  0.28850500  0.96368100  0.09654700  1
  O  O32  1  0.30295600  0.62655700  0.59562500  1
  O  O33  1  0.31740200  0.70759400  0.16453300  1
  O  O34  1  0.41181500  0.32004600  0.11301700  1
  O  O35  1  0.40439200  0.01631300  0.66688600  1
  O  O36  1  0.59658600  0.98151500  0.34520500  1
  O  O37  1  0.59065800  0.67906200  0.86142100  1
  O  O38  1  0.67404800  0.28923800  0.84605300  1
  O  O39  1  0.69423400  0.37630900  0.41761500  1
  O  O40  1  0.72402500  0.63427700  0.36078500  1
  O  O41  1  0.71727200  0.03529100  0.91789200  1
  O  O42  1  0.79469900  0.46554800  0.09805800  1
  O  O43  1  0.76540200  0.86420800  0.61134500  1
  O  O44  1  0.80269700  0.12688100  0.59589200  1
  O  O45  1  0.81819600  0.21036000  0.16637500  1
  O  O46  1  0.91102200  0.81488500  0.11080000  1
  O  O47  1  0.90461000  0.51629400  0.66724200  1
