# generated using pymatgen
data_LiNb(PO3)4
_symmetry_space_group_name_H-M   'P 1'
_cell_length_a   8.71895315
_cell_length_b   8.71895315
_cell_length_c   9.49065361
_cell_angle_alpha   59.34664636
_cell_angle_beta   59.34664636
_cell_angle_gamma   48.45993835
_symmetry_Int_Tables_number   1
_chemical_formula_structural   LiNb(PO3)4
_chemical_formula_sum   'Li2 Nb2 P8 O24'
_cell_volume   447.73451232
_cell_formula_units_Z   2
loop_
 _symmetry_equiv_pos_site_id
 _symmetry_equiv_pos_as_xyz
  1  'x, y, z'
loop_
 _atom_site_type_symbol
 _atom_site_label
 _atom_site_symmetry_multiplicity
 _atom_site_fract_x
 _atom_site_fract_y
 _atom_site_fract_z
 _atom_site_occupancy
  Li  Li0  1  0.69675400  0.30324600  0.75000000  1
  Li  Li1  1  0.30324600  0.69675400  0.25000000  1
  Nb  Nb2  1  0.17055400  0.82944600  0.75000000  1
  Nb  Nb3  1  0.82944600  0.17055400  0.25000000  1
  P  P4  1  0.00634400  0.70302900  0.18814800  1
  P  P5  1  0.42144100  0.31070800  0.11918600  1
  P  P6  1  0.68929200  0.57855900  0.38081400  1
  P  P7  1  0.29697100  0.99365600  0.31185200  1
  P  P8  1  0.70302900  0.00634400  0.68814800  1
  P  P9  1  0.31070800  0.42144100  0.61918600  1
  P  P10  1  0.57855900  0.68929200  0.88081400  1
  P  P11  1  0.99365600  0.29697100  0.81185200  1
  O  O12  1  0.60273200  0.17773800  0.19666200  1
  O  O13  1  0.22066700  0.47762500  0.23057500  1
  O  O14  1  0.99111900  0.75090100  0.01928800  1
  O  O15  1  0.82775800  0.66501400  0.34132500  1
  O  O16  1  0.98794100  0.14824100  0.77929300  1
  O  O17  1  0.33498600  0.17224200  0.15867500  1
  O  O18  1  0.24909900  0.00888100  0.48071200  1
  O  O19  1  0.58415200  0.54900000  0.56714800  1
  O  O20  1  0.45100000  0.41584800  0.93285200  1
  O  O21  1  0.52237500  0.77933300  0.26942500  1
  O  O22  1  0.82226200  0.39726800  0.30333800  1
  O  O23  1  0.85175900  0.01205900  0.72070700  1
  O  O24  1  0.14824100  0.98794100  0.27929300  1
  O  O25  1  0.17773800  0.60273200  0.69666200  1
  O  O26  1  0.47762500  0.22066700  0.73057500  1
  O  O27  1  0.54900000  0.58415200  0.06714800  1
  O  O28  1  0.41584800  0.45100000  0.43285200  1
  O  O29  1  0.75090100  0.99111900  0.51928800  1
  O  O30  1  0.66501400  0.82775800  0.84132500  1
  O  O31  1  0.01205900  0.85175900  0.22070700  1
  O  O32  1  0.17224200  0.33498600  0.65867500  1
  O  O33  1  0.00888100  0.24909900  0.98071200  1
  O  O34  1  0.77933300  0.52237500  0.76942500  1
  O  O35  1  0.39726800  0.82226200  0.80333800  1
