# generated using pymatgen
data_Li2V(OF)2
_symmetry_space_group_name_H-M   'P 1'
_cell_length_a   11.23899700
_cell_length_b   5.04606300
_cell_length_c   5.16359612
_cell_angle_alpha   88.76518587
_cell_angle_beta   90.00000000
_cell_angle_gamma   90.00000000
_symmetry_Int_Tables_number   1
_chemical_formula_structural   Li2V(OF)2
_chemical_formula_sum   'Li8 V4 O8 F8'
_cell_volume   292.77340481
_cell_formula_units_Z   4
loop_
 _symmetry_equiv_pos_site_id
 _symmetry_equiv_pos_as_xyz
  1  'x, y, z'
loop_
 _atom_site_type_symbol
 _atom_site_label
 _atom_site_symmetry_multiplicity
 _atom_site_fract_x
 _atom_site_fract_y
 _atom_site_fract_z
 _atom_site_occupancy
  Li  Li0  1  0.36057900  0.00172300  0.24847800  1
  Li  Li1  1  0.63942100  0.00172300  0.74847800  1
  Li  Li2  1  0.21578000  0.99848500  0.74491600  1
  Li  Li3  1  0.78422000  0.99848500  0.24491600  1
  Li  Li4  1  0.85933600  0.49656400  0.22569900  1
  Li  Li5  1  0.28651500  0.50923700  0.24848900  1
  Li  Li6  1  0.71348500  0.50923700  0.74848900  1
  Li  Li7  1  0.14066400  0.49656400  0.72569900  1
  V  V8  1  0.07341400  0.00570200  0.28632100  1
  V  V9  1  0.92658600  0.00570200  0.78632100  1
  V  V10  1  0.55191800  0.50136600  0.24796500  1
  V  V11  1  0.44808200  0.50136600  0.74796500  1
  O  O12  1  0.05205400  0.19044900  0.59176800  1
  O  O13  1  0.94794600  0.19044900  0.09176800  1
  O  O14  1  0.55246100  0.29059000  0.57473600  1
  O  O15  1  0.44753900  0.29059000  0.07473600  1
  O  O16  1  0.44606300  0.70985100  0.41914200  1
  O  O17  1  0.55393700  0.70985100  0.91914200  1
  O  O18  1  0.18103000  0.78065300  0.40052800  1
  O  O19  1  0.81897000  0.78065300  0.90052800  1
  F  F20  1  0.19318400  0.22468100  0.08968000  1
  F  F21  1  0.80681600  0.22468100  0.58968000  1
  F  F22  1  0.30629500  0.28917500  0.59018000  1
  F  F23  1  0.69370500  0.28917500  0.09018000  1
  F  F24  1  0.30921000  0.71800600  0.90650300  1
  F  F25  1  0.69079000  0.71800600  0.40650300  1
  F  F26  1  0.06534900  0.78351900  0.92559400  1
  F  F27  1  0.93465100  0.78351900  0.42559400  1
