# generated using pymatgen
data_Li2VFeP2(HO5)2
_symmetry_space_group_name_H-M   'P 1'
_cell_length_a   5.44240100
_cell_length_b   7.50872780
_cell_length_c   14.48130248
_cell_angle_alpha   95.21347966
_cell_angle_beta   92.59184452
_cell_angle_gamma   110.72363811
_symmetry_Int_Tables_number   1
_chemical_formula_structural   Li2VFeP2(HO5)2
_chemical_formula_sum   'Li6 V3 Fe3 P6 H6 O30'
_cell_volume   549.30115238
_cell_formula_units_Z   3
loop_
 _symmetry_equiv_pos_site_id
 _symmetry_equiv_pos_as_xyz
  1  'x, y, z'
loop_
 _atom_site_type_symbol
 _atom_site_label
 _atom_site_symmetry_multiplicity
 _atom_site_fract_x
 _atom_site_fract_y
 _atom_site_fract_z
 _atom_site_occupancy
  Li  Li0  1  0.26583500  0.86834100  0.69271300  1
  Li  Li1  1  0.06593900  0.46431900  0.64127100  1
  Li  Li2  1  0.40044400  0.79736000  0.97463900  1
  Li  Li3  1  0.59987800  0.20269200  0.02566500  1
  Li  Li4  1  0.93333100  0.53636900  0.35857000  1
  Li  Li5  1  0.73396700  0.13114000  0.30710800  1
  V  V6  1  0.33377400  0.33437000  0.33360100  1
  V  V7  1  0.99963100  0.99999700  0.49945500  1
  V  V8  1  0.00020700  0.99958900  0.00020200  1
  Fe  Fe9  1  0.33370000  0.33358400  0.83383800  1
  Fe  Fe10  1  0.66652700  0.66600700  0.66623200  1
  Fe  Fe11  1  0.66658400  0.66663800  0.16675900  1
  P  P12  1  0.01941800  0.38056400  0.14792700  1
  P  P13  1  0.31336800  0.95310800  0.18572900  1
  P  P14  1  0.35181200  0.71429600  0.48133700  1
  P  P15  1  0.64661600  0.28697400  0.51855700  1
  P  P16  1  0.68685900  0.04621700  0.81449000  1
  P  P17  1  0.98193100  0.61936000  0.85224000  1
  H  H18  1  0.04484000  0.98625100  0.32568800  1
  H  H19  1  0.28621100  0.34538400  0.00755600  1
  H  H20  1  0.37943800  0.32031300  0.65972700  1
  H  H21  1  0.62082200  0.67907200  0.34087300  1
  H  H22  1  0.71351700  0.65454100  0.99233200  1
  H  H23  1  0.95555400  0.01313600  0.67316200  1
  O  O24  1  0.08283600  0.82754700  0.90073900  1
  O  O25  1  0.04157300  0.83825900  0.21869100  1
  O  O26  1  0.13727000  0.79203300  0.45008100  1
  O  O27  1  0.19716200  0.54039500  0.88293100  1
  O  O28  1  0.29545300  0.95737700  0.07782200  1
  O  O29  1  0.03637100  0.37464300  0.25576400  1
  O  O30  1  0.36798700  0.70911700  0.58901800  1
  O  O31  1  0.25212200  0.50643400  0.43229600  1
  O  O32  1  0.04870200  0.09388400  0.37190000  1
  O  O33  1  0.29140800  0.49562000  0.11509400  1
  O  O34  1  0.28616600  0.23826800  0.96168300  1
  O  O35  1  0.58954300  0.83725500  0.76585800  1
  O  O36  1  0.52975500  0.87468600  0.21502400  1
  O  O37  1  0.37858400  0.42812200  0.70468200  1
  O  O38  1  0.62424300  0.82869000  0.44889000  1
  O  O39  1  0.37438100  0.17222100  0.55058600  1
  O  O40  1  0.62008200  0.57259600  0.29472700  1
  O  O41  1  0.47021200  0.12439600  0.78527000  1
  O  O42  1  0.41374400  0.16158400  0.23388300  1
  O  O43  1  0.71426200  0.76124700  0.03855300  1
  O  O44  1  0.70927500  0.50427000  0.88486800  1
  O  O45  1  0.95220000  0.90416500  0.62791900  1
  O  O46  1  0.74408200  0.49544800  0.56776400  1
  O  O47  1  0.63077000  0.29237100  0.41066800  1
  O  O48  1  0.96523800  0.62451100  0.74461900  1
  O  O49  1  0.70443800  0.04209900  0.92247600  1
  O  O50  1  0.80377500  0.45965500  0.11850000  1
  O  O51  1  0.86145700  0.20906400  0.54845100  1
  O  O52  1  0.95860900  0.16210300  0.78185100  1
  O  O53  1  0.91809200  0.17232000  0.09972500  1
