# generated using pymatgen
data_Li9Fe3(OF7)2
_symmetry_space_group_name_H-M   'P 1'
_cell_length_a   5.93126600
_cell_length_b   5.99153582
_cell_length_c   10.30861574
_cell_angle_alpha   90.79282769
_cell_angle_beta   106.13012908
_cell_angle_gamma   119.53694136
_symmetry_Int_Tables_number   1
_chemical_formula_structural   Li9Fe3(OF7)2
_chemical_formula_sum   'Li9 Fe3 O2 F14'
_cell_volume   301.15854685
_cell_formula_units_Z   1
loop_
 _symmetry_equiv_pos_site_id
 _symmetry_equiv_pos_as_xyz
  1  'x, y, z'
loop_
 _atom_site_type_symbol
 _atom_site_label
 _atom_site_symmetry_multiplicity
 _atom_site_fract_x
 _atom_site_fract_y
 _atom_site_fract_z
 _atom_site_occupancy
  Li  Li0  1  0.97136100  0.23092000  0.74135600  1
  Li  Li1  1  0.00000000  0.50000000  0.00000000  1
  Li  Li2  1  0.63659200  0.58855000  0.69289500  1
  Li  Li3  1  0.36340800  0.41145000  0.30710500  1
  Li  Li4  1  0.37891000  0.92171900  0.80821200  1
  Li  Li5  1  0.62109000  0.07828100  0.19178800  1
  Li  Li6  1  0.50000000  0.00000000  0.50000000  1
  Li  Li7  1  0.02863900  0.76908000  0.25864400  1
  Li  Li8  1  0.00000000  0.00000000  0.50000000  1
  Fe  Fe9  1  0.50000000  0.50000000  0.00000000  1
  Fe  Fe10  1  0.00000000  0.00000000  0.00000000  1
  Fe  Fe11  1  0.00000000  0.50000000  0.50000000  1
  O  O12  1  0.24711600  0.35023400  0.10088900  1
  O  O13  1  0.75288400  0.64976600  0.89911100  1
  F  F14  1  0.24503800  0.12887600  0.87277600  1
  F  F15  1  0.75599400  0.39880100  0.12181500  1
  F  F16  1  0.22972500  0.86930300  0.12079100  1
  F  F17  1  0.77027500  0.13069700  0.87920900  1
  F  F18  1  0.24400600  0.60119900  0.87818500  1
  F  F19  1  0.75496200  0.87112400  0.12722400  1
  F  F20  1  0.76732300  0.38012100  0.61744200  1
  F  F21  1  0.76853500  0.14760700  0.38876800  1
  F  F22  1  0.22294600  0.37780400  0.61700000  1
  F  F23  1  0.75561800  0.90103200  0.61653700  1
  F  F24  1  0.24438200  0.09896800  0.38346300  1
  F  F25  1  0.77705400  0.62219600  0.38300000  1
  F  F26  1  0.23146500  0.85239300  0.61123200  1
  F  F27  1  0.23267700  0.61987900  0.38255800  1
