# generated using pymatgen
data_Li2V(PO4)2
_symmetry_space_group_name_H-M   'P 1'
_cell_length_a   4.88271767
_cell_length_b   8.79858149
_cell_length_c   14.77988255
_cell_angle_alpha   92.55759858
_cell_angle_beta   80.73534803
_cell_angle_gamma   105.89905281
_symmetry_Int_Tables_number   1
_chemical_formula_structural   Li2V(PO4)2
_chemical_formula_sum   'Li8 V4 P8 O32'
_cell_volume   602.70245382
_cell_formula_units_Z   4
loop_
 _symmetry_equiv_pos_site_id
 _symmetry_equiv_pos_as_xyz
  1  'x, y, z'
loop_
 _atom_site_type_symbol
 _atom_site_label
 _atom_site_symmetry_multiplicity
 _atom_site_fract_x
 _atom_site_fract_y
 _atom_site_fract_z
 _atom_site_occupancy
  Li  Li0  1  0.08642600  0.93458300  0.75444600  1
  Li  Li1  1  0.83638000  0.18368400  0.50490200  1
  Li  Li2  1  0.33626600  0.68190700  0.00547900  1
  Li  Li3  1  0.58699100  0.43381900  0.25569200  1
  Li  Li4  1  0.41352600  0.56601900  0.74403300  1
  Li  Li5  1  0.16454000  0.81678200  0.49482900  1
  Li  Li6  1  0.66288600  0.31780300  0.99501900  1
  Li  Li7  1  0.91320600  0.06553000  0.24555700  1
  V  V8  1  0.74928600  0.25003600  0.74965800  1
  V  V9  1  0.50054200  0.50023300  0.50000600  1
  V  V10  1  0.99942500  0.99968800  0.99996500  1
  V  V11  1  0.25038500  0.75008000  0.25040700  1
  P  P12  1  0.97624300  0.59059800  0.64097200  1
  P  P13  1  0.72548000  0.83989900  0.39135600  1
  P  P14  1  0.22481500  0.33896500  0.89061100  1
  P  P15  1  0.47457000  0.09030200  0.14200700  1
  P  P16  1  0.52429100  0.90933100  0.85788700  1
  P  P17  1  0.27464400  0.16032600  0.60864300  1
  P  P18  1  0.77471100  0.66096000  0.10958100  1
  P  P19  1  0.02483500  0.40962500  0.35902500  1
  O  O20  1  0.02760000  0.74333800  0.69169200  1
  O  O21  1  0.77633600  0.99247500  0.44220900  1
  O  O22  1  0.27370700  0.49054400  0.94256000  1
  O  O23  1  0.52390100  0.24352600  0.19217200  1
  O  O24  1  0.47594500  0.75622300  0.80758500  1
  O  O25  1  0.22515800  0.00775200  0.55775700  1
  O  O26  1  0.72491500  0.50925400  0.05776500  1
  O  O27  1  0.97289500  0.25686200  0.30829900  1
  O  O28  1  0.66360300  0.54370200  0.61398800  1
  O  O29  1  0.41258200  0.79260800  0.36467200  1
  O  O30  1  0.91231400  0.29256800  0.86345300  1
  O  O31  1  0.16431800  0.04071700  0.11429900  1
  O  O32  1  0.00363400  0.45451200  0.70126300  1
  O  O33  1  0.75411500  0.70403800  0.45158100  1
  O  O34  1  0.25625300  0.20279200  0.94995200  1
  O  O35  1  0.50354200  0.95537300  0.20302000  1
  O  O36  1  0.19895800  0.60531900  0.55002100  1
  O  O37  1  0.94791100  0.85466400  0.30042900  1
  O  O38  1  0.44808800  0.35533900  0.79973700  1
  O  O39  1  0.70424300  0.10546600  0.05220700  1
  O  O40  1  0.29460000  0.89376100  0.94772900  1
  O  O41  1  0.05148900  0.14518100  0.69940700  1
  O  O42  1  0.55234300  0.64507000  0.20055900  1
  O  O43  1  0.80224800  0.39515800  0.44990800  1
  O  O44  1  0.49505100  0.04455600  0.79721500  1
  O  O45  1  0.24664500  0.29612700  0.54832000  1
  O  O46  1  0.74256300  0.79687000  0.05015300  1
  O  O47  1  0.99757200  0.54548400  0.29850200  1
  O  O48  1  0.83450200  0.95894200  0.88566600  1
  O  O49  1  0.58726000  0.20770900  0.63561700  1
  O  O50  1  0.08765400  0.70743400  0.13630500  1
  O  O51  1  0.33740500  0.45646400  0.38587600  1
