# generated using pymatgen
data_LiMnP3HO10
_symmetry_space_group_name_H-M   'P 1'
_cell_length_a   4.90900800
_cell_length_b   8.70299500
_cell_length_c   11.56032219
_cell_angle_alpha   53.89234266
_cell_angle_beta   90.00000000
_cell_angle_gamma   90.00000000
_symmetry_Int_Tables_number   1
_chemical_formula_structural   LiMnP3HO10
_chemical_formula_sum   'Li2 Mn2 P6 H2 O20'
_cell_volume   399.02123170
_cell_formula_units_Z   2
loop_
 _symmetry_equiv_pos_site_id
 _symmetry_equiv_pos_as_xyz
  1  'x, y, z'
loop_
 _atom_site_type_symbol
 _atom_site_label
 _atom_site_symmetry_multiplicity
 _atom_site_fract_x
 _atom_site_fract_y
 _atom_site_fract_z
 _atom_site_occupancy
  Li  Li0  1  0.56003500  0.50000000  0.75000000  1
  Li  Li1  1  0.43996500  0.50000000  0.25000000  1
  Mn  Mn2  1  0.50000000  0.00000000  0.00000000  1
  Mn  Mn3  1  0.50000000  0.00000000  0.50000000  1
  P  P4  1  0.99905000  0.72475100  0.53772600  1
  P  P5  1  0.76820700  0.00000000  0.25000000  1
  P  P6  1  0.99905000  0.27524900  0.96227400  1
  P  P7  1  0.00095000  0.72475100  0.03772600  1
  P  P8  1  0.23179300  0.00000000  0.75000000  1
  P  P9  1  0.00095000  0.27524900  0.46227400  1
  H  H10  1  0.00000000  0.50000000  0.50000000  1
  H  H11  1  0.00000000  0.50000000  0.00000000  1
  O  O12  1  0.80928600  0.18297800  0.91336900  1
  O  O13  1  0.29602000  0.27310600  0.92786300  1
  O  O14  1  0.90127600  0.52758100  0.58550500  1
  O  O15  1  0.90127600  0.47241900  0.91449500  1
  O  O16  1  0.59475800  0.91832900  0.18997500  1
  O  O17  1  0.97731100  0.84928800  0.36365000  1
  O  O18  1  0.29602000  0.72689400  0.57213700  1
  O  O19  1  0.80928600  0.81702200  0.58663100  1
  O  O20  1  0.97731100  0.15071200  0.13635000  1
  O  O21  1  0.59475800  0.08167100  0.31002500  1
  O  O22  1  0.40524200  0.91832900  0.68997500  1
  O  O23  1  0.02268900  0.84928800  0.86365000  1
  O  O24  1  0.19071400  0.18297800  0.41336900  1
  O  O25  1  0.70398000  0.27310600  0.42786300  1
  O  O26  1  0.02268900  0.15071200  0.63635000  1
  O  O27  1  0.40524200  0.08167100  0.81002500  1
  O  O28  1  0.09872400  0.52758100  0.08550500  1
  O  O29  1  0.09872400  0.47241900  0.41449500  1
  O  O30  1  0.70398000  0.72689400  0.07213700  1
  O  O31  1  0.19071400  0.81702200  0.08663100  1
