# generated using pymatgen
data_Li10V3Cr5O16
_symmetry_space_group_name_H-M   'P 1'
_cell_length_a   5.93901000
_cell_length_b   6.01278477
_cell_length_c   9.85111294
_cell_angle_alpha   89.82590342
_cell_angle_beta   89.82370569
_cell_angle_gamma   60.84032882
_symmetry_Int_Tables_number   1
_chemical_formula_structural   Li10V3Cr5O16
_chemical_formula_sum   'Li10 V3 Cr5 O16'
_cell_volume   307.19805475
_cell_formula_units_Z   1
loop_
 _symmetry_equiv_pos_site_id
 _symmetry_equiv_pos_as_xyz
  1  'x, y, z'
loop_
 _atom_site_type_symbol
 _atom_site_label
 _atom_site_symmetry_multiplicity
 _atom_site_fract_x
 _atom_site_fract_y
 _atom_site_fract_z
 _atom_site_occupancy
  Li  Li0  1  0.02102600  0.98795200  0.01234300  1
  Li  Li1  1  0.35537900  0.32354300  0.22576900  1
  Li  Li2  1  0.62547700  0.19758800  0.44132000  1
  Li  Li3  1  0.21532200  0.59400800  0.44561500  1
  Li  Li4  1  0.19661100  0.19184700  0.43949800  1
  Li  Li5  1  0.81601500  0.79739300  0.94194500  1
  Li  Li6  1  0.68011400  0.63681200  0.72480300  1
  Li  Li7  1  0.41305100  0.78137800  0.94765100  1
  Li  Li8  1  0.80999600  0.37549500  0.94212000  1
  Li  Li9  1  0.01558500  0.97475600  0.51405400  1
  V  V10  1  0.66388500  0.14861900  0.71096000  1
  V  V11  1  0.18807700  0.14807200  0.71164700  1
  V  V12  1  0.84948500  0.32641400  0.21105800  1
  Cr  Cr13  1  0.17770100  0.64589800  0.71385900  1
  Cr  Cr14  1  0.34828300  0.31452900  0.97286600  1
  Cr  Cr15  1  0.84960300  0.82088900  0.21335600  1
  Cr  Cr16  1  0.68290900  0.64987300  0.47125700  1
  Cr  Cr17  1  0.35601000  0.82108900  0.21422800  1
  O  O18  1  0.18393300  0.66019200  0.09442000  1
  O  O19  1  0.49365800  0.47947400  0.83777400  1
  O  O20  1  0.68694300  0.14523200  0.08679800  1
  O  O21  1  0.33771200  0.32926500  0.59222000  1
  O  O22  1  0.03170500  0.47694700  0.84015900  1
  O  O23  1  0.49643100  0.00736900  0.84489200  1
  O  O24  1  0.85084500  0.80584400  0.59382600  1
  O  O25  1  0.19522600  0.14342200  0.09212200  1
  O  O26  1  0.53008600  0.96645900  0.33813600  1
  O  O27  1  0.34753800  0.80538200  0.59127000  1
  O  O28  1  0.99181500  0.51303600  0.33892100  1
  O  O29  1  0.67809700  0.66814600  0.09713800  1
  O  O30  1  0.51746900  0.51030400  0.33754700  1
  O  O31  1  0.84658800  0.30874900  0.58361600  1
  O  O32  1  0.02361800  0.97861000  0.32424200  1
  O  O33  1  0.00965000  0.97563100  0.82225900  1
