# generated using pymatgen
data_Li2MnP2O7
_symmetry_space_group_name_H-M   'P 1'
_cell_length_a   6.90942800
_cell_length_b   5.13502100
_cell_length_c   16.30491357
_cell_angle_alpha   89.42202892
_cell_angle_beta   90.00000000
_cell_angle_gamma   90.00000000
_symmetry_Int_Tables_number   1
_chemical_formula_structural   Li2MnP2O7
_chemical_formula_sum   'Li8 Mn4 P8 O28'
_cell_volume   578.46984397
_cell_formula_units_Z   4
loop_
 _symmetry_equiv_pos_site_id
 _symmetry_equiv_pos_as_xyz
  1  'x, y, z'
loop_
 _atom_site_type_symbol
 _atom_site_label
 _atom_site_symmetry_multiplicity
 _atom_site_fract_x
 _atom_site_fract_y
 _atom_site_fract_z
 _atom_site_occupancy
  Li  Li0  1  0.46955000  0.25689300  0.25818400  1
  Li  Li1  1  0.03045000  0.25689300  0.75818400  1
  Li  Li2  1  0.70459400  0.23305400  0.99277500  1
  Li  Li3  1  0.79540600  0.23305400  0.49277500  1
  Li  Li4  1  0.20459400  0.76694600  0.50722500  1
  Li  Li5  1  0.29540600  0.76694600  0.00722500  1
  Li  Li6  1  0.96955000  0.74310700  0.24181600  1
  Li  Li7  1  0.53045000  0.74310700  0.74181600  1
  Mn  Mn8  1  0.07910700  0.24383000  0.13107900  1
  Mn  Mn9  1  0.42089300  0.24383000  0.63107900  1
  Mn  Mn10  1  0.57910700  0.75617000  0.36892100  1
  Mn  Mn11  1  0.92089300  0.75617000  0.86892100  1
  P  P12  1  0.28688600  0.24922700  0.42718900  1
  P  P13  1  0.21311400  0.24922700  0.92718900  1
  P  P14  1  0.90490100  0.24358600  0.33440500  1
  P  P15  1  0.59509900  0.24358600  0.83440500  1
  P  P16  1  0.40490100  0.75641400  0.16559500  1
  P  P17  1  0.09509900  0.75641400  0.66559500  1
  P  P18  1  0.78688600  0.75077300  0.07281100  1
  P  P19  1  0.71311400  0.75077300  0.57281100  1
  O  O20  1  0.81752500  0.45509700  0.07590200  1
  O  O21  1  0.68247500  0.45509700  0.57590200  1
  O  O22  1  0.75108600  0.40770300  0.37703500  1
  O  O23  1  0.74891400  0.40770300  0.87703500  1
  O  O24  1  0.01071500  0.37813400  0.26297100  1
  O  O25  1  0.48928500  0.37813400  0.76297100  1
  O  O26  1  0.05467900  0.19421800  0.41184100  1
  O  O27  1  0.44532100  0.19421800  0.91184100  1
  O  O28  1  0.19071100  0.12402200  0.01239500  1
  O  O29  1  0.30928900  0.12402200  0.51239500  1
  O  O30  1  0.39656100  0.10415600  0.36057600  1
  O  O31  1  0.10343900  0.10415600  0.86057600  1
  O  O32  1  0.32993300  0.02762500  0.18722900  1
  O  O33  1  0.17006700  0.02762500  0.68722900  1
  O  O34  1  0.82993300  0.97237500  0.31277100  1
  O  O35  1  0.67006700  0.97237500  0.81277100  1
  O  O36  1  0.89656100  0.89584400  0.13942400  1
  O  O37  1  0.60343900  0.89584400  0.63942400  1
  O  O38  1  0.69071100  0.87597800  0.48760500  1
  O  O39  1  0.80928900  0.87597800  0.98760500  1
  O  O40  1  0.55467900  0.80578200  0.08815900  1
  O  O41  1  0.94532100  0.80578200  0.58815900  1
  O  O42  1  0.51071500  0.62186600  0.23702900  1
  O  O43  1  0.98928500  0.62186600  0.73702900  1
  O  O44  1  0.25108600  0.59229700  0.12296500  1
  O  O45  1  0.24891400  0.59229700  0.62296500  1
  O  O46  1  0.31752500  0.54490300  0.42409800  1
  O  O47  1  0.18247500  0.54490300  0.92409800  1
