# generated using pymatgen
data_LiNdO2
_symmetry_space_group_name_H-M   'P 1'
_cell_length_a   6.21057900
_cell_length_b   6.62000200
_cell_length_c   6.78514111
_cell_angle_alpha   58.79099969
_cell_angle_beta   90.00000000
_cell_angle_gamma   90.00000000
_symmetry_Int_Tables_number   1
_chemical_formula_structural   LiNdO2
_chemical_formula_sum   'Li4 Nd4 O8'
_cell_volume   238.59364498
_cell_formula_units_Z   4
loop_
 _symmetry_equiv_pos_site_id
 _symmetry_equiv_pos_as_xyz
  1  'x, y, z'
loop_
 _atom_site_type_symbol
 _atom_site_label
 _atom_site_symmetry_multiplicity
 _atom_site_fract_x
 _atom_site_fract_y
 _atom_site_fract_z
 _atom_site_occupancy
  Li  Li0  1  0.16393900  0.68791300  0.59112300  1
  Li  Li1  1  0.66393900  0.31208700  0.90887700  1
  Li  Li2  1  0.33606100  0.68791300  0.09112300  1
  Li  Li3  1  0.83606100  0.31208700  0.40887700  1
  Nd  Nd4  1  0.86553700  0.77679800  0.96422000  1
  Nd  Nd5  1  0.63446300  0.77679800  0.46422000  1
  Nd  Nd6  1  0.36553700  0.22320200  0.53578000  1
  Nd  Nd7  1  0.13446300  0.22320200  0.03578000  1
  O  O8  1  0.19214900  0.97228300  0.88107000  1
  O  O9  1  0.30785100  0.97228300  0.38107000  1
  O  O10  1  0.89544600  0.55302900  0.76349900  1
  O  O11  1  0.39544600  0.44697100  0.73650100  1
  O  O12  1  0.60455400  0.55302900  0.26349900  1
  O  O13  1  0.10455400  0.44697100  0.23650100  1
  O  O14  1  0.69214900  0.02771700  0.61893000  1
  O  O15  1  0.80785100  0.02771700  0.11893000  1
