# generated using pymatgen
data_Li2SiNiO4
_symmetry_space_group_name_H-M   'P 1'
_cell_length_a   5.01778106
_cell_length_b   8.69176424
_cell_length_c   12.53414011
_cell_angle_alpha   110.25805743
_cell_angle_beta   101.56827369
_cell_angle_gamma   89.99330671
_symmetry_Int_Tables_number   1
_chemical_formula_structural   Li2SiNiO4
_chemical_formula_sum   'Li12 Si6 Ni6 O24'
_cell_volume   500.99274685
_cell_formula_units_Z   6
loop_
 _symmetry_equiv_pos_site_id
 _symmetry_equiv_pos_as_xyz
  1  'x, y, z'
loop_
 _atom_site_type_symbol
 _atom_site_label
 _atom_site_symmetry_multiplicity
 _atom_site_fract_x
 _atom_site_fract_y
 _atom_site_fract_z
 _atom_site_occupancy
  Li  Li0  1  0.19586700  0.50909900  0.58478600  1
  Li  Li1  1  0.69600400  0.00903600  0.58492100  1
  Li  Li2  1  0.68247100  0.80222500  0.91845200  1
  Li  Li3  1  0.18257800  0.30232000  0.91856200  1
  Li  Li4  1  0.99940400  0.56586100  0.25171800  1
  Li  Li5  1  0.49905500  0.06579600  0.25174000  1
  Li  Li6  1  0.24616000  0.71074200  0.08052300  1
  Li  Li7  1  0.74659200  0.21067600  0.08052100  1
  Li  Li8  1  0.27671500  0.93557900  0.74764600  1
  Li  Li9  1  0.77671100  0.43542200  0.74749300  1
  Li  Li10  1  0.09810100  0.97474400  0.41387100  1
  Li  Li11  1  0.59813100  0.47482300  0.41410800  1
  Si  Si12  1  0.24999100  0.23959700  0.66758400  1
  Si  Si13  1  0.75004600  0.73967100  0.66765300  1
  Si  Si14  1  0.56774600  0.75617300  0.33419000  1
  Si  Si15  1  0.06760300  0.25611900  0.33419300  1
  Si  Si16  1  0.68358000  0.50570900  0.00091900  1
  Si  Si17  1  0.18355500  0.00567100  0.00087000  1
  Ni  Ni18  1  0.32586800  0.35622100  0.15976400  1
  Ni  Ni19  1  0.20918400  0.73121600  0.49314900  1
  Ni  Ni20  1  0.70505600  0.15239900  0.82593600  1
  Ni  Ni21  1  0.82476900  0.85644500  0.15943400  1
  Ni  Ni22  1  0.70908700  0.23052700  0.49277900  1
  Ni  Ni23  1  0.20535100  0.65222400  0.82590800  1
  O  O24  1  0.47600600  0.63539100  0.96268800  1
  O  O25  1  0.97620700  0.13540100  0.96256600  1
  O  O26  1  0.41934600  0.56848800  0.29622600  1
  O  O27  1  0.91901700  0.06845600  0.29615200  1
  O  O28  1  0.04915300  0.74002800  0.62978100  1
  O  O29  1  0.54904600  0.23982500  0.62967200  1
  O  O30  1  0.51420700  0.61891100  0.55889600  1
  O  O31  1  0.01410800  0.11873300  0.55887900  1
  O  O32  1  0.00433200  0.32633900  0.22564100  1
  O  O33  1  0.50418300  0.82636100  0.22564100  1
  O  O34  1  0.32048300  0.89391600  0.89252400  1
  O  O35  1  0.82064000  0.39399300  0.89259400  1
  O  O36  1  0.65052800  0.92809200  0.70708400  1
  O  O37  1  0.15053400  0.42805300  0.70702200  1
  O  O38  1  0.90021800  0.75106100  0.37414000  1
  O  O39  1  0.40006700  0.25097300  0.37413200  1
  O  O40  1  0.01005500  0.88174900  0.04068500  1
  O  O41  1  0.51056200  0.38154700  0.04069200  1
  O  O42  1  0.92562800  0.61833400  0.11148900  1
  O  O43  1  0.42580600  0.11820600  0.11144800  1
  O  O44  1  0.44305100  0.87646200  0.44454200  1
  O  O45  1  0.94264000  0.37627000  0.44454800  1
  O  O46  1  0.29729000  0.17256700  0.77806700  1
  O  O47  1  0.79722900  0.67252000  0.77809700  1
