# generated using pymatgen
data_Li2V2F7
_symmetry_space_group_name_H-M   'P 1'
_cell_length_a   7.21351000
_cell_length_b   7.67155500
_cell_length_c   10.36679332
_cell_angle_alpha   89.98573518
_cell_angle_beta   90.00000000
_cell_angle_gamma   90.00000000
_symmetry_Int_Tables_number   1
_chemical_formula_structural   Li2V2F7
_chemical_formula_sum   'Li8 V8 F28'
_cell_volume   573.68628575
_cell_formula_units_Z   4
loop_
 _symmetry_equiv_pos_site_id
 _symmetry_equiv_pos_as_xyz
  1  'x, y, z'
loop_
 _atom_site_type_symbol
 _atom_site_label
 _atom_site_symmetry_multiplicity
 _atom_site_fract_x
 _atom_site_fract_y
 _atom_site_fract_z
 _atom_site_occupancy
  Li  Li0  1  0.84898100  0.68252500  0.85912500  1
  Li  Li1  1  0.86948600  0.85181900  0.63370600  1
  Li  Li2  1  0.36948600  0.14818100  0.86629400  1
  Li  Li3  1  0.34898100  0.31747500  0.64087500  1
  Li  Li4  1  0.65101900  0.68252500  0.35912500  1
  Li  Li5  1  0.63051400  0.85181900  0.13370600  1
  Li  Li6  1  0.13051400  0.14818100  0.36629400  1
  Li  Li7  1  0.15101900  0.31747500  0.14087500  1
  V  V8  1  0.36922400  0.60588300  0.90572400  1
  V  V9  1  0.36774800  0.87374300  0.57995900  1
  V  V10  1  0.86774800  0.12625700  0.92004100  1
  V  V11  1  0.86922400  0.39411700  0.59427600  1
  V  V12  1  0.13077600  0.60588300  0.40572400  1
  V  V13  1  0.13225200  0.87374300  0.07995900  1
  V  V14  1  0.63225200  0.12625700  0.42004100  1
  V  V15  1  0.63077600  0.39411700  0.09427600  1
  F  F16  1  0.82393100  0.92488400  0.80512400  1
  F  F17  1  0.09332600  0.68583100  0.93923800  1
  F  F18  1  0.64998300  0.54899300  0.93120000  1
  F  F19  1  0.39973000  0.72653900  0.73528800  1
  F  F20  1  0.59394000  0.17956300  0.96946000  1
  F  F21  1  0.64549000  0.93671800  0.56012000  1
  F  F22  1  0.83369400  0.61754700  0.68646400  1
  F  F23  1  0.33369400  0.38245300  0.81353600  1
  F  F24  1  0.14549000  0.06328200  0.93988000  1
  F  F25  1  0.09394000  0.82043700  0.53054000  1
  F  F26  1  0.89973000  0.27346100  0.76471200  1
  F  F27  1  0.14998300  0.45100700  0.56880000  1
  F  F28  1  0.67606900  0.92488400  0.30512400  1
  F  F29  1  0.40667400  0.68583100  0.43923800  1
  F  F30  1  0.59332600  0.31416900  0.56076200  1
  F  F31  1  0.32393100  0.07511600  0.69487600  1
  F  F32  1  0.85001700  0.54899300  0.43120000  1
  F  F33  1  0.10027000  0.72653900  0.23528800  1
  F  F34  1  0.90606000  0.17956300  0.46946000  1
  F  F35  1  0.85451000  0.93671800  0.06012000  1
  F  F36  1  0.66630600  0.61754700  0.18646400  1
  F  F37  1  0.16630600  0.38245300  0.31353600  1
  F  F38  1  0.35451000  0.06328200  0.43988000  1
  F  F39  1  0.40606000  0.82043700  0.03054000  1
  F  F40  1  0.60027000  0.27346100  0.26471200  1
  F  F41  1  0.35001700  0.45100700  0.06880000  1
  F  F42  1  0.90667400  0.31416900  0.06076200  1
  F  F43  1  0.17606900  0.07511600  0.19487600  1
