# generated using pymatgen
data_Li3MnV(PO4)3
_symmetry_space_group_name_H-M   'P 1'
_cell_length_a   8.81357400
_cell_length_b   8.43032600
_cell_length_c   12.31456746
_cell_angle_alpha   88.19793278
_cell_angle_beta   90.00000000
_cell_angle_gamma   90.00000000
_symmetry_Int_Tables_number   1
_chemical_formula_structural   Li3MnV(PO4)3
_chemical_formula_sum   'Li12 Mn4 V4 P12 O48'
_cell_volume   914.53586729
_cell_formula_units_Z   4
loop_
 _symmetry_equiv_pos_site_id
 _symmetry_equiv_pos_as_xyz
  1  'x, y, z'
loop_
 _atom_site_type_symbol
 _atom_site_label
 _atom_site_symmetry_multiplicity
 _atom_site_fract_x
 _atom_site_fract_y
 _atom_site_fract_z
 _atom_site_occupancy
  Li  Li0  1  0.99954000  0.00328200  0.99968300  1
  Li  Li1  1  0.10127900  0.00614300  0.25027100  1
  Li  Li2  1  0.00046000  0.00328200  0.49968300  1
  Li  Li3  1  0.89872100  0.00614300  0.75027100  1
  Li  Li4  1  0.80688600  0.29247100  0.04640100  1
  Li  Li5  1  0.19311400  0.29247100  0.54640100  1
  Li  Li6  1  0.50104300  0.50391300  0.99981400  1
  Li  Li7  1  0.39984600  0.50341600  0.25111100  1
  Li  Li8  1  0.49895700  0.50391300  0.49981400  1
  Li  Li9  1  0.60015400  0.50341600  0.75111100  1
  Li  Li10  1  0.80353900  0.70777500  0.44892900  1
  Li  Li11  1  0.19646100  0.70777500  0.94892900  1
  Mn  Mn12  1  0.99326400  0.28893700  0.35749700  1
  Mn  Mn13  1  0.00673600  0.28893700  0.85749700  1
  Mn  Mn14  1  0.50229700  0.78983600  0.35272800  1
  Mn  Mn15  1  0.49770300  0.78983600  0.85272800  1
  V  V16  1  0.49930000  0.21342400  0.14465600  1
  V  V17  1  0.50070000  0.21342400  0.64465600  1
  V  V18  1  0.99775500  0.71566300  0.14127500  1
  V  V19  1  0.00224500  0.71566300  0.64127500  1
  P  P20  1  0.80011800  0.00184500  0.25014800  1
  P  P21  1  0.19988200  0.00184500  0.75014800  1
  P  P22  1  0.35636700  0.15075000  0.39583800  1
  P  P23  1  0.64363300  0.15075000  0.89583800  1
  P  P24  1  0.14752900  0.34932000  0.10433800  1
  P  P25  1  0.85247100  0.34932000  0.60433800  1
  P  P26  1  0.70634300  0.50356200  0.24919900  1
  P  P27  1  0.29365700  0.50356200  0.74919900  1
  P  P28  1  0.14557900  0.64642200  0.39655000  1
  P  P29  1  0.85442100  0.64642200  0.89655000  1
  P  P30  1  0.35329600  0.84192200  0.10476000  1
  P  P31  1  0.64670400  0.84192200  0.60476000  1
  O  O32  1  0.40988600  0.01545500  0.10623500  1
  O  O33  1  0.59011400  0.01545500  0.60623500  1
  O  O34  1  0.91093200  0.07651500  0.33466400  1
  O  O35  1  0.08906800  0.07651500  0.83466400  1
  O  O36  1  0.70214300  0.12624100  0.18878100  1
  O  O37  1  0.29785700  0.12624100  0.68878100  1
  O  O38  1  0.18167600  0.14128300  0.41001300  1
  O  O39  1  0.81832400  0.14128300  0.91001300  1
  O  O40  1  0.40714100  0.24434200  0.29158000  1
  O  O41  1  0.06305400  0.25104400  0.01915600  1
  O  O42  1  0.41275400  0.25036800  0.49314700  1
  O  O43  1  0.59285900  0.24434200  0.79158000  1
  O  O44  1  0.93694600  0.25104400  0.51915600  1
  O  O45  1  0.09791300  0.27244600  0.21280700  1
  O  O46  1  0.58724600  0.25036800  0.99314700  1
  O  O47  1  0.90208700  0.27244600  0.71280700  1
  O  O48  1  0.32351800  0.34765100  0.09137700  1
  O  O49  1  0.67648200  0.34765100  0.59137700  1
  O  O50  1  0.79819900  0.38566400  0.31646400  1
  O  O51  1  0.20180100  0.38566400  0.81646400  1
  O  O52  1  0.59769600  0.42800300  0.16310700  1
  O  O53  1  0.40230400  0.42800300  0.66310700  1
  O  O54  1  0.10393000  0.46685500  0.40900500  1
  O  O55  1  0.89607000  0.46685500  0.90900500  1
  O  O56  1  0.10774300  0.52671600  0.09295700  1
  O  O57  1  0.89225700  0.52671600  0.59295700  1
  O  O58  1  0.59764800  0.57944700  0.33345000  1
  O  O59  1  0.40235200  0.57944700  0.83345000  1
  O  O60  1  0.80560600  0.61781400  0.18373000  1
  O  O61  1  0.19439400  0.61781400  0.68373000  1
  O  O62  1  0.31860600  0.64491200  0.40956500  1
  O  O63  1  0.68139400  0.64491200  0.90956500  1
  O  O64  1  0.09199500  0.72050200  0.28794800  1
  O  O65  1  0.40688600  0.74546700  0.00774600  1
  O  O66  1  0.90800500  0.72050200  0.78794800  1
  O  O67  1  0.05974300  0.74441300  0.48191600  1
  O  O68  1  0.40042800  0.74922000  0.20751500  1
  O  O69  1  0.59311400  0.74546700  0.50774600  1
  O  O70  1  0.94025700  0.74441300  0.98191600  1
  O  O71  1  0.59957200  0.74922000  0.70751500  1
  O  O72  1  0.17688900  0.85609400  0.09174500  1
  O  O73  1  0.82311100  0.85609400  0.59174500  1
  O  O74  1  0.71328900  0.87547800  0.31399500  1
  O  O75  1  0.28671100  0.87547800  0.81399500  1
  O  O76  1  0.90963200  0.93360400  0.16373900  1
  O  O77  1  0.09036800  0.93360400  0.66373900  1
  O  O78  1  0.41177100  0.98178400  0.39616200  1
  O  O79  1  0.58822900  0.98178400  0.89616200  1
