# generated using pymatgen
data_Li2CoSiO4
_symmetry_space_group_name_H-M   'P 1'
_cell_length_a   5.02803700
_cell_length_b   6.28078200
_cell_length_c   10.75073500
_cell_angle_alpha   90.00000000
_cell_angle_beta   90.00000000
_cell_angle_gamma   90.00000000
_symmetry_Int_Tables_number   1
_chemical_formula_structural   Li2CoSiO4
_chemical_formula_sum   'Li8 Co4 Si4 O16'
_cell_volume   339.50825737
_cell_formula_units_Z   4
loop_
 _symmetry_equiv_pos_site_id
 _symmetry_equiv_pos_as_xyz
  1  'x, y, z'
loop_
 _atom_site_type_symbol
 _atom_site_label
 _atom_site_symmetry_multiplicity
 _atom_site_fract_x
 _atom_site_fract_y
 _atom_site_fract_z
 _atom_site_occupancy
  Li  Li0  1  0.75812800  0.00454800  0.16982200  1
  Li  Li1  1  0.75750400  0.25070500  0.91265800  1
  Li  Li2  1  0.75750400  0.24929500  0.41265800  1
  Li  Li3  1  0.75812800  0.49545200  0.66982200  1
  Li  Li4  1  0.25812800  0.50454800  0.33017800  1
  Li  Li5  1  0.25750400  0.75070500  0.58734200  1
  Li  Li6  1  0.25750400  0.74929500  0.08734200  1
  Li  Li7  1  0.25812800  0.99545200  0.83017800  1
  Co  Co8  1  0.26033600  0.24019400  0.58527600  1
  Co  Co9  1  0.26033600  0.25980600  0.08527600  1
  Co  Co10  1  0.76033600  0.74019400  0.91472400  1
  Co  Co11  1  0.76033600  0.75980600  0.41472400  1
  Si  Si12  1  0.26355800  0.00522900  0.33283100  1
  Si  Si13  1  0.26355800  0.49477100  0.83283100  1
  Si  Si14  1  0.76355800  0.50522900  0.16716900  1
  Si  Si15  1  0.76355800  0.99477100  0.66716900  1
  O  O16  1  0.09125100  0.99463900  0.66720300  1
  O  O17  1  0.15615600  0.00733300  0.18690400  1
  O  O18  1  0.15751400  0.27792900  0.90637800  1
  O  O19  1  0.65867700  0.21304700  0.59510800  1
  O  O20  1  0.65867700  0.28695300  0.09510800  1
  O  O21  1  0.15751400  0.22207100  0.40637800  1
  O  O22  1  0.15615600  0.49266700  0.68690400  1
  O  O23  1  0.09125100  0.50536100  0.16720300  1
  O  O24  1  0.59125100  0.49463900  0.83279700  1
  O  O25  1  0.65615600  0.50733300  0.31309600  1
  O  O26  1  0.65751400  0.77792900  0.59362200  1
  O  O27  1  0.15867700  0.71304700  0.90489200  1
  O  O28  1  0.15867700  0.78695300  0.40489200  1
  O  O29  1  0.65751400  0.72207100  0.09362200  1
  O  O30  1  0.65615600  0.99266700  0.81309600  1
  O  O31  1  0.59125100  0.00536100  0.33279700  1
