# generated using pymatgen
data_Li2Cr(PO3)4
_symmetry_space_group_name_H-M   'P 1'
_cell_length_a   12.90280000
_cell_length_b   8.14183200
_cell_length_c   11.81364505
_cell_angle_alpha   58.93292189
_cell_angle_beta   90.00000000
_cell_angle_gamma   90.00000000
_symmetry_Int_Tables_number   1
_chemical_formula_structural   Li2Cr(PO3)4
_chemical_formula_sum   'Li8 Cr4 P16 O48'
_cell_volume   1063.04024580
_cell_formula_units_Z   4
loop_
 _symmetry_equiv_pos_site_id
 _symmetry_equiv_pos_as_xyz
  1  'x, y, z'
loop_
 _atom_site_type_symbol
 _atom_site_label
 _atom_site_symmetry_multiplicity
 _atom_site_fract_x
 _atom_site_fract_y
 _atom_site_fract_z
 _atom_site_occupancy
  Li  Li0  1  0.07678000  0.59011300  0.57243200  1
  Li  Li1  1  0.70045000  0.90308900  0.16122600  1
  Li  Li2  1  0.57678000  0.40988700  0.92756800  1
  Li  Li3  1  0.20045000  0.09691100  0.33877400  1
  Li  Li4  1  0.79955000  0.90308900  0.66122600  1
  Li  Li5  1  0.42322000  0.59011300  0.07243200  1
  Li  Li6  1  0.29955000  0.09691100  0.83877400  1
  Li  Li7  1  0.92322000  0.40988700  0.42756800  1
  Cr  Cr8  1  0.14889400  0.25404800  0.98252400  1
  Cr  Cr9  1  0.64889400  0.74595200  0.51747600  1
  Cr  Cr10  1  0.35110600  0.25404800  0.48252400  1
  Cr  Cr11  1  0.85110600  0.74595200  0.01747600  1
  P  P12  1  0.82089800  0.39381300  0.68494700  1
  P  P13  1  0.42126700  0.55016500  0.61416600  1
  P  P14  1  0.32931100  0.90550700  0.14754800  1
  P  P15  1  0.92126700  0.44983500  0.88583400  1
  P  P16  1  0.92989600  0.08052000  0.13746300  1
  P  P17  1  0.32089800  0.60618700  0.81505300  1
  P  P18  1  0.42989600  0.91948000  0.36253700  1
  P  P19  1  0.82931100  0.09449300  0.35245200  1
  P  P20  1  0.17068900  0.90550700  0.64754800  1
  P  P21  1  0.57010400  0.08052000  0.63746300  1
  P  P22  1  0.67910200  0.39381300  0.18494700  1
  P  P23  1  0.07010400  0.91948000  0.86253700  1
  P  P24  1  0.07873300  0.55016500  0.11416600  1
  P  P25  1  0.67068900  0.09449300  0.85245200  1
  P  P26  1  0.57873300  0.44983500  0.38583400  1
  P  P27  1  0.17910200  0.60618700  0.31505300  1
  O  O28  1  0.63961100  0.20067900  0.91924100  1
  O  O29  1  0.36631100  0.36430300  0.65869600  1
  O  O30  1  0.90182600  0.41279500  0.58789800  1
  O  O31  1  0.87314100  0.33169500  0.82357600  1
  O  O32  1  0.24605300  0.79886700  0.26827400  1
  O  O33  1  0.84942900  0.94407800  0.14215000  1
  O  O34  1  0.53666500  0.54922000  0.63390400  1
  O  O35  1  0.74959700  0.55722900  0.65252600  1
  O  O36  1  0.24959700  0.44277100  0.84747400  1
  O  O37  1  0.03666500  0.45078000  0.86609600  1
  O  O38  1  0.39261900  0.69998900  0.46216800  1
  O  O39  1  0.37314100  0.66830500  0.67642400  1
  O  O40  1  0.04096800  0.05576500  0.11170500  1
  O  O41  1  0.42868900  0.92058400  0.22460900  1
  O  O42  1  0.78626600  0.89636000  0.44139100  1
  O  O43  1  0.28626600  0.10364000  0.05860900  1
  O  O44  1  0.92868900  0.07941600  0.27539100  1
  O  O45  1  0.40182600  0.58720500  0.91210200  1
  O  O46  1  0.86631100  0.63569700  0.84130400  1
  O  O47  1  0.54096800  0.94423500  0.38829500  1
  O  O48  1  0.13961100  0.79932100  0.58075900  1
  O  O49  1  0.89261900  0.30001100  0.03783200  1
  O  O50  1  0.25394700  0.79886700  0.76827400  1
  O  O51  1  0.65057100  0.94407800  0.64215000  1
  O  O52  1  0.34942900  0.05592200  0.35785000  1
  O  O53  1  0.74605300  0.20113300  0.23172600  1
  O  O54  1  0.10738100  0.69998900  0.96216800  1
  O  O55  1  0.86038900  0.20067900  0.41924100  1
  O  O56  1  0.45903200  0.05576500  0.61170500  1
  O  O57  1  0.13368900  0.36430300  0.15869600  1
  O  O58  1  0.59817400  0.41279500  0.08789800  1
  O  O59  1  0.07131100  0.92058400  0.72460900  1
  O  O60  1  0.71373400  0.89636000  0.94139100  1
  O  O61  1  0.21373400  0.10364000  0.55860900  1
  O  O62  1  0.57131100  0.07941600  0.77539100  1
  O  O63  1  0.95903200  0.94423500  0.88829500  1
  O  O64  1  0.62685900  0.33169500  0.32357600  1
  O  O65  1  0.60738100  0.30001100  0.53783200  1
  O  O66  1  0.96333500  0.54922000  0.13390400  1
  O  O67  1  0.75040300  0.55722900  0.15252600  1
  O  O68  1  0.25040300  0.44277100  0.34747400  1
  O  O69  1  0.46333500  0.45078000  0.36609600  1
  O  O70  1  0.15057100  0.05592200  0.85785000  1
  O  O71  1  0.75394700  0.20113300  0.73172600  1
  O  O72  1  0.12685900  0.66830500  0.17642400  1
  O  O73  1  0.09817400  0.58720500  0.41210200  1
  O  O74  1  0.63368900  0.63569700  0.34130400  1
  O  O75  1  0.36038900  0.79932100  0.08075900  1
