# generated using pymatgen
data_LiNi(PO3)3
_symmetry_space_group_name_H-M   'P 1'
_cell_length_a   6.79298000
_cell_length_b   7.10640663
_cell_length_c   7.23101128
_cell_angle_alpha   83.80993068
_cell_angle_beta   78.40172871
_cell_angle_gamma   83.59841436
_symmetry_Int_Tables_number   1
_chemical_formula_structural   LiNi(PO3)3
_chemical_formula_sum   'Li2 Ni2 P6 O18'
_cell_volume   338.49751076
_cell_formula_units_Z   2
loop_
 _symmetry_equiv_pos_site_id
 _symmetry_equiv_pos_as_xyz
  1  'x, y, z'
loop_
 _atom_site_type_symbol
 _atom_site_label
 _atom_site_symmetry_multiplicity
 _atom_site_fract_x
 _atom_site_fract_y
 _atom_site_fract_z
 _atom_site_occupancy
  Li  Li0  1  0.91418300  0.72420400  0.87091500  1
  Li  Li1  1  0.08581700  0.27579600  0.12908500  1
  Ni  Ni2  1  0.43860600  0.83768500  0.85229300  1
  Ni  Ni3  1  0.56139400  0.16231500  0.14770700  1
  P  P4  1  0.76379700  0.84990600  0.45325100  1
  P  P5  1  0.14348900  0.70641700  0.22118500  1
  P  P6  1  0.57556600  0.62037300  0.22082300  1
  P  P7  1  0.42443400  0.37962700  0.77917700  1
  P  P8  1  0.85651100  0.29358300  0.77881500  1
  P  P9  1  0.23620300  0.15009400  0.54674900  1
  O  O10  1  0.28109200  0.97072700  0.66524400  1
  O  O11  1  0.71090500  0.84581000  0.66643300  1
  O  O12  1  0.18854300  0.86564000  0.06655400  1
  O  O13  1  0.62270200  0.76758200  0.05190500  1
  O  O14  1  0.00252100  0.78981800  0.40862400  1
  O  O15  1  0.66805400  0.67305400  0.39292400  1
  O  O16  1  0.34047400  0.64520800  0.31392400  1
  O  O17  1  0.36167800  0.58334200  0.81092900  1
  O  O18  1  0.94493800  0.46175900  0.82371600  1
  O  O19  1  0.05506200  0.53824100  0.17628400  1
  O  O20  1  0.63832200  0.41665800  0.18907100  1
  O  O21  1  0.65952600  0.35479200  0.68607600  1
  O  O22  1  0.33194600  0.32694600  0.60707600  1
  O  O23  1  0.99747900  0.21018200  0.59137600  1
  O  O24  1  0.37729800  0.23241800  0.94809500  1
  O  O25  1  0.81145700  0.13436000  0.93344600  1
  O  O26  1  0.28909500  0.15419000  0.33356700  1
  O  O27  1  0.71890800  0.02927300  0.33475600  1
