# generated using pymatgen
data_Li2VCr(P2O7)2
_symmetry_space_group_name_H-M   'P 1'
_cell_length_a   7.02177400
_cell_length_b   8.22326490
_cell_length_c   14.03941984
_cell_angle_alpha   90.05547394
_cell_angle_beta   99.56848090
_cell_angle_gamma   90.07942281
_symmetry_Int_Tables_number   1
_chemical_formula_structural   Li2VCr(P2O7)2
_chemical_formula_sum   'Li6 V3 Cr3 P12 O42'
_cell_volume   799.38328311
_cell_formula_units_Z   3
loop_
 _symmetry_equiv_pos_site_id
 _symmetry_equiv_pos_as_xyz
  1  'x, y, z'
loop_
 _atom_site_type_symbol
 _atom_site_label
 _atom_site_symmetry_multiplicity
 _atom_site_fract_x
 _atom_site_fract_y
 _atom_site_fract_z
 _atom_site_occupancy
  Li  Li0  1  0.38276400  0.86282500  0.05901800  1
  Li  Li1  1  0.95129100  0.36293700  0.27452500  1
  Li  Li2  1  0.71543200  0.86289600  0.39204200  1
  Li  Li3  1  0.28418800  0.36259300  0.60788900  1
  Li  Li4  1  0.04890300  0.86317400  0.72569900  1
  Li  Li5  1  0.61715500  0.36286800  0.94091700  1
  V  V6  1  0.99008200  0.99948200  0.26116900  1
  V  V7  1  0.67640000  0.49959100  0.40526400  1
  V  V8  1  0.00947300  0.49967400  0.73910500  1
  Cr  Cr9  1  0.34344300  0.50003900  0.07119700  1
  Cr  Cr10  1  0.32272600  0.99995900  0.59561800  1
  Cr  Cr11  1  0.65647000  0.99998600  0.92861200  1
  P  P12  1  0.60992000  0.18069100  0.13294000  1
  P  P13  1  0.98478700  0.78309200  0.07015600  1
  P  P14  1  0.34781400  0.28491300  0.26183500  1
  P  P15  1  0.72113400  0.67958200  0.19950500  1
  P  P16  1  0.31896000  0.78510000  0.40460300  1
  P  P17  1  0.05680100  0.68077900  0.53332100  1
  P  P18  1  0.94559800  0.17983500  0.46699300  1
  P  P19  1  0.68052600  0.28234000  0.59577700  1
  P  P20  1  0.27902900  0.17949200  0.80002200  1
  P  P21  1  0.65093000  0.78568600  0.73740100  1
  P  P22  1  0.01538300  0.28271800  0.92958600  1
  P  P23  1  0.39033700  0.68055100  0.86693300  1
  O  O24  1  0.16353000  0.32313600  0.01793400  1
  O  O25  1  0.15976900  0.69309400  0.04361900  1
  O  O26  1  0.05158400  0.93354200  0.13194800  1
  O  O27  1  0.58018200  0.03798100  0.06186600  1
  O  O28  1  0.57301700  0.34623000  0.08243500  1
  O  O29  1  0.52561100  0.67837400  0.13229700  1
  O  O30  1  0.28431200  0.43480900  0.19990500  1
  O  O31  1  0.44466600  0.15192400  0.19815300  1
  O  O32  1  0.88849500  0.65182300  0.13483500  1
  O  O33  1  0.17428800  0.19700100  0.28972000  1
  O  O34  1  0.16799200  0.82339600  0.31648500  1
  O  O35  1  0.80593300  0.17984000  0.20023000  1
  O  O36  1  0.75589400  0.84397000  0.25062200  1
  O  O37  1  0.75367200  0.53693800  0.27080300  1
  O  O38  1  0.49871700  0.32337100  0.35005800  1
  O  O39  1  0.49234200  0.69686300  0.37685300  1
  O  O40  1  0.22195900  0.65203300  0.46819300  1
  O  O41  1  0.38272800  0.93493700  0.46678300  1
  O  O42  1  0.14078700  0.17865900  0.53432400  1
  O  O43  1  0.91296800  0.03717000  0.39554300  1
  O  O44  1  0.91039400  0.34416600  0.41608700  1
  O  O45  1  0.09357100  0.84612500  0.58409200  1
  O  O46  1  0.08689300  0.53847100  0.60475100  1
  O  O47  1  0.86072000  0.67968200  0.46620300  1
  O  O48  1  0.61466800  0.43315300  0.53464400  1
  O  O49  1  0.77795900  0.15166400  0.53159400  1
  O  O50  1  0.50632400  0.19275600  0.62296300  1
  O  O51  1  0.50178000  0.82413400  0.64901400  1
  O  O52  1  0.24701500  0.03651400  0.72898200  1
  O  O53  1  0.24417300  0.34411200  0.74926200  1
  O  O54  1  0.19390300  0.67957700  0.79982400  1
  O  O55  1  0.83066800  0.32244800  0.68380800  1
  O  O56  1  0.82505300  0.69714500  0.71010600  1
  O  O57  1  0.11148900  0.15160800  0.86474700  1
  O  O58  1  0.55529000  0.65204600  0.80171000  1
  O  O59  1  0.71564100  0.93506300  0.80001000  1
  O  O60  1  0.47431300  0.17845300  0.86755600  1
  O  O61  1  0.42691000  0.84617700  0.91761500  1
  O  O62  1  0.41979100  0.53801300  0.93803200  1
  O  O63  1  0.94875400  0.43326600  0.86809800  1
  O  O64  1  0.84023500  0.19299900  0.95621700  1
  O  O65  1  0.83647000  0.82327500  0.98195400  1
