# generated using pymatgen
data_Li8Cr2O9
_symmetry_space_group_name_H-M   'P 1'
_cell_length_a   14.74196801
_cell_length_b   8.67394584
_cell_length_c   5.73663708
_cell_angle_alpha   70.44693770
_cell_angle_beta   78.83040635
_cell_angle_gamma   85.52130135
_symmetry_Int_Tables_number   1
_chemical_formula_structural   Li8Cr2O9
_chemical_formula_sum   'Li32 Cr8 O36'
_cell_volume   678.08405584
_cell_formula_units_Z   4
loop_
 _symmetry_equiv_pos_site_id
 _symmetry_equiv_pos_as_xyz
  1  'x, y, z'
loop_
 _atom_site_type_symbol
 _atom_site_label
 _atom_site_symmetry_multiplicity
 _atom_site_fract_x
 _atom_site_fract_y
 _atom_site_fract_z
 _atom_site_occupancy
  Li  Li0  1  0.03323000  0.11818500  0.77546800  1
  Li  Li1  1  0.05356200  0.63271800  0.54542800  1
  Li  Li2  1  0.04488400  0.63088000  0.03352900  1
  Li  Li3  1  0.04274900  0.12274300  0.31613000  1
  Li  Li4  1  0.15766200  0.41260700  0.84867000  1
  Li  Li5  1  0.15301400  0.84820200  0.12886600  1
  Li  Li6  1  0.23979400  0.62988900  0.96571000  1
  Li  Li7  1  0.24124400  0.63108500  0.42414700  1
  Li  Li8  1  0.25510900  0.11826800  0.67010000  1
  Li  Li9  1  0.25593800  0.11587800  0.21717600  1
  Li  Li10  1  0.34166300  0.33968000  0.78763600  1
  Li  Li11  1  0.35035100  0.89636700  0.50787500  1
  Li  Li12  1  0.45672300  0.62990800  0.85853200  1
  Li  Li13  1  0.45873900  0.12088000  0.58974300  1
  Li  Li14  1  0.47014100  0.62399400  0.30824300  1
  Li  Li15  1  0.54749400  0.88210000  0.91199000  1
  Li  Li16  1  0.45250600  0.11790000  0.08801000  1
  Li  Li17  1  0.52985900  0.37600600  0.69175700  1
  Li  Li18  1  0.54126100  0.87912000  0.41025700  1
  Li  Li19  1  0.54327700  0.37009200  0.14146800  1
  Li  Li20  1  0.64964900  0.10363300  0.49212500  1
  Li  Li21  1  0.65833700  0.66032000  0.21236400  1
  Li  Li22  1  0.74406200  0.88412200  0.78282400  1
  Li  Li23  1  0.74489100  0.88173200  0.32990000  1
  Li  Li24  1  0.75875600  0.36891500  0.57585300  1
  Li  Li25  1  0.76020600  0.37011100  0.03429000  1
  Li  Li26  1  0.84698600  0.15179800  0.87113400  1
  Li  Li27  1  0.84233800  0.58739300  0.15133000  1
  Li  Li28  1  0.95725100  0.87725700  0.68387000  1
  Li  Li29  1  0.95511600  0.36912000  0.96647100  1
  Li  Li30  1  0.94643800  0.36728200  0.45457200  1
  Li  Li31  1  0.96677000  0.88181500  0.22453200  1
  Cr  Cr32  1  0.14924500  0.87481100  0.62283500  1
  Cr  Cr33  1  0.13966000  0.37659000  0.37107700  1
  Cr  Cr34  1  0.35628300  0.87110000  0.02162000  1
  Cr  Cr35  1  0.35368700  0.35771000  0.27796800  1
  Cr  Cr36  1  0.64631300  0.64229000  0.72203200  1
  Cr  Cr37  1  0.64371700  0.12890000  0.97838000  1
  Cr  Cr38  1  0.86034000  0.62341000  0.62892300  1
  Cr  Cr39  1  0.85075500  0.12518900  0.37716500  1
  O  O40  1  0.05991700  0.88153000  0.88934200  1
  O  O41  1  0.06645600  0.88170700  0.41659900  1
  O  O42  1  0.06868200  0.35679200  0.66046100  1
  O  O43  1  0.06250500  0.36704300  0.17176000  1
  O  O44  1  0.15387300  0.64908000  0.72887100  1
  O  O45  1  0.13985400  0.59875700  0.25907200  1
  O  O46  1  0.15138200  0.12071500  0.49011500  1
  O  O47  1  0.24587100  0.87593800  0.80844300  1
  O  O48  1  0.25115000  0.87375700  0.32554100  1
  O  O49  1  0.25365100  0.37981200  0.53656400  1
  O  O50  1  0.24839000  0.37408100  0.10164400  1
  O  O51  1  0.34166800  0.09062700  0.91400600  1
  O  O52  1  0.34534200  0.64896600  0.13059700  1
  O  O53  1  0.35872000  0.14700500  0.37820500  1
  O  O54  1  0.44056500  0.87051000  0.74003100  1
  O  O55  1  0.42910100  0.39189100  0.97700600  1
  O  O56  1  0.44340700  0.86499000  0.21057900  1
  O  O57  1  0.43683500  0.38717600  0.45434600  1
  O  O58  1  0.56316500  0.61282400  0.54565400  1
  O  O59  1  0.55659300  0.13501000  0.78942100  1
  O  O60  1  0.57089900  0.60810900  0.02299400  1
  O  O61  1  0.55943500  0.12949000  0.25996900  1
  O  O62  1  0.64128000  0.85299500  0.62179500  1
  O  O63  1  0.65465800  0.35103400  0.86940300  1
  O  O64  1  0.65833200  0.90937300  0.08599400  1
  O  O65  1  0.75161000  0.62591900  0.89835600  1
  O  O66  1  0.74634900  0.62018800  0.46343600  1
  O  O67  1  0.74885000  0.12624300  0.67445900  1
  O  O68  1  0.75412900  0.12406200  0.19155700  1
  O  O69  1  0.84861800  0.87928500  0.50988500  1
  O  O70  1  0.86014600  0.40124300  0.74092800  1
  O  O71  1  0.84612700  0.35092000  0.27112900  1
  O  O72  1  0.93749500  0.63295700  0.82824000  1
  O  O73  1  0.93131800  0.64320800  0.33953900  1
  O  O74  1  0.93354400  0.11829300  0.58340100  1
  O  O75  1  0.94008300  0.11847000  0.11065800  1
