# generated using pymatgen
data_Li4V3Fe5O16
_symmetry_space_group_name_H-M   'P 1'
_cell_length_a   5.92311349
_cell_length_b   5.92311349
_cell_length_c   9.58991967
_cell_angle_alpha   88.90980234
_cell_angle_beta   88.90980234
_cell_angle_gamma   60.29895396
_symmetry_Int_Tables_number   1
_chemical_formula_structural   Li4V3Fe5O16
_chemical_formula_sum   'Li4 V3 Fe5 O16'
_cell_volume   292.17360766
_cell_formula_units_Z   1
loop_
 _symmetry_equiv_pos_site_id
 _symmetry_equiv_pos_as_xyz
  1  'x, y, z'
loop_
 _atom_site_type_symbol
 _atom_site_label
 _atom_site_symmetry_multiplicity
 _atom_site_fract_x
 _atom_site_fract_y
 _atom_site_fract_z
 _atom_site_occupancy
  Li  Li0  1  0.66587400  0.66587400  0.89199700  1
  Li  Li1  1  0.99961300  0.99961300  0.99682800  1
  Li  Li2  1  0.99595800  0.99595800  0.49568200  1
  Li  Li3  1  0.33773600  0.33773600  0.39485200  1
  V  V4  1  0.82880300  0.82880300  0.21436000  1
  V  V5  1  0.66122800  0.16464300  0.71493500  1
  V  V6  1  0.16464300  0.66122800  0.71493500  1
  Fe  Fe7  1  0.83156900  0.33764000  0.21469200  1
  Fe  Fe8  1  0.66373400  0.66373400  0.49068300  1
  Fe  Fe9  1  0.33764000  0.83156900  0.21469200  1
  Fe  Fe10  1  0.16806900  0.16806900  0.71225200  1
  Fe  Fe11  1  0.33062700  0.33062700  0.99111400  1
  O  O12  1  0.82779400  0.31950500  0.60089900  1
  O  O13  1  0.52164400  0.52164400  0.33960400  1
  O  O14  1  0.67869800  0.67869800  0.10337100  1
  O  O15  1  0.99062100  0.99062100  0.30981200  1
  O  O16  1  0.99563400  0.99563400  0.81101400  1
  O  O17  1  0.31950500  0.82779400  0.60089900  1
  O  O18  1  0.96355300  0.53320400  0.33642600  1
  O  O19  1  0.53320400  0.96355300  0.33642600  1
  O  O20  1  0.16104700  0.16104700  0.09844900  1
  O  O21  1  0.83294300  0.83294300  0.60427200  1
  O  O22  1  0.49057900  0.03797900  0.83581300  1
  O  O23  1  0.03797900  0.49057900  0.83581300  1
  O  O24  1  0.33802000  0.33802000  0.60324600  1
  O  O25  1  0.67195000  0.14757500  0.10339100  1
  O  O26  1  0.47947700  0.47947700  0.83810900  1
  O  O27  1  0.14757500  0.67195000  0.10339100  1
