# generated using pymatgen
data_Li32Mn13Cr3O48
_symmetry_space_group_name_H-M   'P 1'
_cell_length_a   5.00938900
_cell_length_b   8.67195755
_cell_length_c   19.46779367
_cell_angle_alpha   98.25280184
_cell_angle_beta   94.84679338
_cell_angle_gamma   89.79676770
_symmetry_Int_Tables_number   1
_chemical_formula_structural   Li32Mn13Cr3O48
_chemical_formula_sum   'Li32 Mn13 Cr3 O48'
_cell_volume   833.92234581
_cell_formula_units_Z   1
loop_
 _symmetry_equiv_pos_site_id
 _symmetry_equiv_pos_as_xyz
  1  'x, y, z'
loop_
 _atom_site_type_symbol
 _atom_site_label
 _atom_site_symmetry_multiplicity
 _atom_site_fract_x
 _atom_site_fract_y
 _atom_site_fract_z
 _atom_site_occupancy
  Li  Li0  1  0.99433800  0.16931100  0.25010300  1
  Li  Li1  1  0.87846100  0.37421800  0.37471200  1
  Li  Li2  1  0.74945700  0.24970200  0.00020000  1
  Li  Li3  1  0.74215800  0.92024800  0.00056000  1
  Li  Li4  1  0.99231300  0.16884300  0.74912600  1
  Li  Li5  1  0.75730600  0.58196800  0.49965300  1
  Li  Li6  1  0.87591500  0.37579000  0.87530700  1
  Li  Li7  1  0.74663200  0.24866100  0.49996700  1
  Li  Li8  1  0.74422900  0.91889800  0.49992200  1
  Li  Li9  1  0.62489000  0.12508500  0.12503700  1
  Li  Li10  1  0.75616600  0.58049700  0.99989100  1
  Li  Li11  1  0.50568200  0.33078800  0.24997500  1
  Li  Li12  1  0.62463000  0.12541600  0.62499500  1
  Li  Li13  1  0.50035800  0.99992200  0.24993300  1
  Li  Li14  1  0.49160800  0.66887700  0.24924700  1
  Li  Li15  1  0.50896600  0.33082900  0.75046800  1
  Li  Li16  1  0.37597500  0.87507600  0.37530400  1
  Li  Li17  1  0.49821700  0.99965000  0.74977900  1
  Li  Li18  1  0.24927700  0.74953300  0.00016900  1
  Li  Li19  1  0.49517700  0.66949600  0.75030600  1
  Li  Li20  1  0.24353400  0.41904300  0.00012600  1
  Li  Li21  1  0.37803200  0.87462800  0.87475200  1
  Li  Li22  1  0.25645800  0.08063600  0.49975600  1
  Li  Li23  1  0.25038400  0.74985800  0.49981200  1
  Li  Li24  1  0.12474000  0.62500900  0.12498800  1
  Li  Li25  1  0.24366700  0.41962800  0.50034000  1
  Li  Li26  1  0.00687600  0.83123700  0.25039000  1
  Li  Li27  1  0.25862300  0.08139800  0.00013400  1
  Li  Li28  1  0.12497800  0.62689500  0.62500300  1
  Li  Li29  1  0.00005400  0.49969100  0.25001000  1
  Li  Li30  1  0.00587300  0.83125700  0.75016500  1
  Li  Li31  1  0.99838400  0.49964400  0.75028500  1
  Mn  Mn32  1  0.87667200  0.70996700  0.37572900  1
  Mn  Mn33  1  0.87481400  0.04138000  0.37501100  1
  Mn  Mn34  1  0.87205400  0.70763700  0.87431100  1
  Mn  Mn35  1  0.62601300  0.79134900  0.12506100  1
  Mn  Mn36  1  0.62433000  0.45856900  0.12513200  1
  Mn  Mn37  1  0.62608400  0.79143400  0.62496000  1
  Mn  Mn38  1  0.62372000  0.45896500  0.62481300  1
  Mn  Mn39  1  0.37225500  0.20732500  0.37423400  1
  Mn  Mn40  1  0.37491200  0.54155300  0.87518000  1
  Mn  Mn41  1  0.37652600  0.21013000  0.87592300  1
  Mn  Mn42  1  0.12423300  0.95850400  0.12505600  1
  Mn  Mn43  1  0.12586000  0.29150200  0.12510300  1
  Mn  Mn44  1  0.12396200  0.95801500  0.62500500  1
  Cr  Cr45  1  0.88202900  0.04144900  0.87492700  1
  Cr  Cr46  1  0.38250000  0.54100300  0.37471300  1
  Cr  Cr47  1  0.12491300  0.29452900  0.62503100  1
  O  O48  1  0.96369700  0.10678300  0.06885500  1
  O  O49  1  0.92804200  0.78511700  0.06896300  1
  O  O50  1  0.92722900  0.42769700  0.06805300  1
  O  O51  1  0.96685700  0.10629900  0.56882100  1
  O  O52  1  0.82195100  0.96480900  0.18101000  1
  O  O53  1  0.82252600  0.32229900  0.18201300  1
  O  O54  1  0.92811200  0.78451100  0.56907000  1
  O  O55  1  0.92715200  0.42586800  0.56785400  1
  O  O56  1  0.78651400  0.64319300  0.18109400  1
  O  O57  1  0.71316500  0.85732600  0.31898200  1
  O  O58  1  0.82167500  0.96481500  0.68099700  1
  O  O59  1  0.81761200  0.32367400  0.68276800  1
  O  O60  1  0.67778200  0.53698800  0.31879400  1
  O  O61  1  0.67695700  0.17800600  0.31795500  1
  O  O62  1  0.78805200  0.64309300  0.68090800  1
  O  O63  1  0.71166200  0.85338300  0.81806500  1
  O  O64  1  0.46344600  0.60682600  0.06892700  1
  O  O65  1  0.57638800  0.71776300  0.43169500  1
  O  O66  1  0.57261500  0.07204600  0.43189000  1
  O  O67  1  0.67767700  0.53391100  0.81899300  1
  O  O68  1  0.67643500  0.17520900  0.81808000  1
  O  O69  1  0.42714800  0.92752300  0.06789700  1
  O  O70  1  0.42829000  0.28532700  0.06915600  1
  O  O71  1  0.53050500  0.39346100  0.43092200  1
  O  O72  1  0.46255000  0.60697900  0.56882100  1
  O  O73  1  0.57079200  0.71494000  0.93093500  1
  O  O74  1  0.56975900  0.07313800  0.93250800  1
  O  O75  1  0.32281200  0.82222600  0.18207600  1
  O  O76  1  0.32199000  0.46496300  0.18114800  1
  O  O77  1  0.42742900  0.92765200  0.56809800  1
  O  O78  1  0.43421200  0.28617100  0.56827200  1
  O  O79  1  0.53841400  0.39411700  0.93124600  1
  O  O80  1  0.28669700  0.14284000  0.18094700  1
  O  O81  1  0.21091900  0.35259700  0.31782600  1
  O  O82  1  0.32257400  0.82147800  0.68195200  1
  O  O83  1  0.32204000  0.46265400  0.68096600  1
  O  O84  1  0.17587600  0.67602600  0.31788900  1
  O  O85  1  0.17763900  0.03378700  0.31888800  1
  O  O86  1  0.28425400  0.14221500  0.68109900  1
  O  O87  1  0.21332000  0.35722500  0.81897000  1
  O  O88  1  0.07030700  0.57312300  0.43244600  1
  O  O89  1  0.07082600  0.21502100  0.43094200  1
  O  O90  1  0.17701600  0.67785600  0.81798000  1
  O  O91  1  0.17869800  0.03689700  0.81900200  1
  O  O92  1  0.03861200  0.89407800  0.43112600  1
  O  O93  1  0.07268100  0.57226800  0.93202400  1
  O  O94  1  0.07551800  0.21695500  0.93150000  1
  O  O95  1  0.02933800  0.89382300  0.93097300  1
