# generated using pymatgen
data_LiScVO4
_symmetry_space_group_name_H-M   'P 1'
_cell_length_a   6.08011806
_cell_length_b   6.08010515
_cell_length_c   8.70346174
_cell_angle_alpha   88.14299211
_cell_angle_beta   91.85763750
_cell_angle_gamma   91.40386058
_symmetry_Int_Tables_number   1
_chemical_formula_structural   LiScVO4
_chemical_formula_sum   'Li4 Sc4 V4 O16'
_cell_volume   321.32091566
_cell_formula_units_Z   4
loop_
 _symmetry_equiv_pos_site_id
 _symmetry_equiv_pos_as_xyz
  1  'x, y, z'
loop_
 _atom_site_type_symbol
 _atom_site_label
 _atom_site_symmetry_multiplicity
 _atom_site_fract_x
 _atom_site_fract_y
 _atom_site_fract_z
 _atom_site_occupancy
  Li  Li0  1  0.25589600  0.00591100  0.12501500  1
  Li  Li1  1  0.75590700  0.50595400  0.62501700  1
  Li  Li2  1  0.74366200  0.99363300  0.87500600  1
  Li  Li3  1  0.24363400  0.49367600  0.37501100  1
  Sc  Sc4  1  0.75014100  0.75030900  0.25004800  1
  Sc  Sc5  1  0.25024400  0.25024400  0.75004300  1
  Sc  Sc6  1  0.50030100  0.00020300  0.49995200  1
  Sc  Sc7  1  0.00025000  0.50016300  0.99992200  1
  V  V8  1  0.50037600  0.49910200  0.00066900  1
  V  V9  1  0.24922700  0.75045900  0.74937700  1
  V  V10  1  0.00052600  0.99924800  0.50054200  1
  V  V11  1  0.74933300  0.25056400  0.24946300  1
  O  O12  1  0.23345300  0.21647100  0.50847900  1
  O  O13  1  0.73344900  0.71646700  0.00853200  1
  O  O14  1  0.53289300  0.01700200  0.25795900  1
  O  O15  1  0.03290700  0.51697600  0.75795300  1
  O  O16  1  0.46641700  0.98340500  0.74146500  1
  O  O17  1  0.96641900  0.48342100  0.24148800  1
  O  O18  1  0.76703900  0.78297500  0.49203100  1
  O  O19  1  0.26701900  0.28294600  0.99206200  1
  O  O20  1  0.76384000  0.22743500  0.48174500  1
  O  O21  1  0.26380600  0.72735900  0.98179200  1
  O  O22  1  0.97737200  0.01383500  0.26825000  1
  O  O23  1  0.47741400  0.51379900  0.76821200  1
  O  O24  1  0.02158700  0.98770400  0.73310100  1
  O  O25  1  0.52149400  0.48771200  0.23309400  1
  O  O26  1  0.23771600  0.77153100  0.51687700  1
  O  O27  1  0.73767900  0.27149400  0.01689500  1
