# generated using pymatgen
data_Li2TiFe2O5
_symmetry_space_group_name_H-M   'P 1'
_cell_length_a   5.29868600
_cell_length_b   5.30278793
_cell_length_c   7.86104971
_cell_angle_alpha   82.21658719
_cell_angle_beta   70.79951423
_cell_angle_gamma   67.62801467
_symmetry_Int_Tables_number   1
_chemical_formula_structural   Li2TiFe2O5
_chemical_formula_sum   'Li4 Ti2 Fe4 O10'
_cell_volume   192.87808423
_cell_formula_units_Z   2
loop_
 _symmetry_equiv_pos_site_id
 _symmetry_equiv_pos_as_xyz
  1  'x, y, z'
loop_
 _atom_site_type_symbol
 _atom_site_label
 _atom_site_symmetry_multiplicity
 _atom_site_fract_x
 _atom_site_fract_y
 _atom_site_fract_z
 _atom_site_occupancy
  Li  Li0  1  0.30469800  0.51163500  0.40220700  1
  Li  Li1  1  0.69590200  0.49708400  0.60294900  1
  Li  Li2  1  0.61288900  0.00884700  0.79792800  1
  Li  Li3  1  0.99960700  0.99706700  0.99598700  1
  Ti  Ti4  1  0.09377700  0.49187900  0.80107100  1
  Ti  Ti5  1  0.78940100  0.99385400  0.41089300  1
  Fe  Fe6  1  0.20583700  0.00047800  0.60719000  1
  Fe  Fe7  1  0.40711800  0.99665500  0.18902600  1
  Fe  Fe8  1  0.90584400  0.49726300  0.20040400  1
  Fe  Fe9  1  0.49547200  0.50588700  0.00226700  1
  O  O10  1  0.65198200  0.25292200  0.21031400  1
  O  O11  1  0.57637200  0.76876000  0.40177900  1
  O  O12  1  0.87076400  0.27959800  0.79910300  1
  O  O13  1  0.03958400  0.20800200  0.39872200  1
  O  O14  1  0.12107800  0.75753400  0.21613000  1
  O  O15  1  0.75945300  0.74719500  0.98524100  1
  O  O16  1  0.94389100  0.75351000  0.59964400  1
  O  O17  1  0.25246600  0.25664300  0.98096800  1
  O  O18  1  0.45404600  0.25170000  0.59721700  1
  O  O19  1  0.31981600  0.72348900  0.80095900  1
