# generated using pymatgen
data_Li6MnV3(PO4)6
_symmetry_space_group_name_H-M   'P 1'
_cell_length_a   6.36385700
_cell_length_b   8.62813054
_cell_length_c   16.66494707
_cell_angle_alpha   79.29611488
_cell_angle_beta   84.43753242
_cell_angle_gamma   74.02484782
_symmetry_Int_Tables_number   1
_chemical_formula_structural   Li6MnV3(PO4)6
_chemical_formula_sum   'Li12 Mn2 V6 P12 O48'
_cell_volume   863.38037638
_cell_formula_units_Z   2
loop_
 _symmetry_equiv_pos_site_id
 _symmetry_equiv_pos_as_xyz
  1  'x, y, z'
loop_
 _atom_site_type_symbol
 _atom_site_label
 _atom_site_symmetry_multiplicity
 _atom_site_fract_x
 _atom_site_fract_y
 _atom_site_fract_z
 _atom_site_occupancy
  Li  Li0  1  0.75373900  0.99306800  0.99724400  1
  Li  Li1  1  0.25307200  0.99610700  0.49647100  1
  Li  Li2  1  0.39386700  0.71201300  0.85602400  1
  Li  Li3  1  0.89533900  0.71316600  0.35587000  1
  Li  Li4  1  0.75094000  0.50046500  0.74971800  1
  Li  Li5  1  0.24883700  0.50084900  0.74970800  1
  Li  Li6  1  0.75037400  0.49951200  0.25028800  1
  Li  Li7  1  0.24876200  0.49979000  0.25052000  1
  Li  Li8  1  0.10618100  0.28930900  0.64278100  1
  Li  Li9  1  0.60711300  0.28689300  0.14443600  1
  Li  Li10  1  0.74886800  0.00627800  0.50185600  1
  Li  Li11  1  0.24607800  0.00619600  0.00372200  1
  Mn  Mn12  1  0.39589200  0.37605700  0.47149600  1
  Mn  Mn13  1  0.05631400  0.05692500  0.31199900  1
  V  V14  1  0.95018300  0.94336100  0.68982800  1
  V  V15  1  0.45264500  0.94105600  0.18871400  1
  V  V16  1  0.61138300  0.62334800  0.52895500  1
  V  V17  1  0.88791400  0.37950400  0.97161500  1
  V  V18  1  0.11245700  0.61995400  0.02871300  1
  V  V19  1  0.54806400  0.05718300  0.81011000  1
  P  P20  1  0.89316300  0.71363300  0.85688000  1
  P  P21  1  0.46707900  0.86276600  0.66948200  1
  P  P22  1  0.96891400  0.86132900  0.16786500  1
  P  P23  1  0.39305300  0.71405000  0.35727500  1
  P  P24  1  0.06724300  0.66432300  0.56942500  1
  P  P25  1  0.56821700  0.66118400  0.06852500  1
  P  P26  1  0.43201100  0.33857400  0.93133100  1
  P  P27  1  0.93235900  0.34016600  0.43300300  1
  P  P28  1  0.60697700  0.28786400  0.64239300  1
  P  P29  1  0.03233500  0.13733800  0.83075000  1
  P  P30  1  0.53567900  0.13410100  0.32990300  1
  P  P31  1  0.10741700  0.28342200  0.14372900  1
  O  O32  1  0.62602000  0.95054900  0.69972200  1
  O  O33  1  0.23855600  0.98824900  0.67006300  1
  O  O34  1  0.66216300  0.82833800  0.87046200  1
  O  O35  1  0.99915500  0.73679800  0.76893400  1
  O  O36  1  0.74057300  0.98732600  0.16956400  1
  O  O37  1  0.53011900  0.84348900  0.57792300  1
  O  O38  1  0.05385900  0.74033100  0.91404000  1
  O  O39  1  0.01992700  0.84852200  0.57991600  1
  O  O40  1  0.47633200  0.70416300  0.72823300  1
  O  O41  1  0.13425300  0.94574000  0.19376300  1
  O  O42  1  0.90402200  0.66063100  0.50629200  1
  O  O43  1  0.86283300  0.53780700  0.86850900  1
  O  O44  1  0.55163100  0.74411300  0.41396000  1
  O  O45  1  0.15847700  0.82975700  0.36890700  1
  O  O46  1  0.52960400  0.84465400  0.07799400  1
  O  O47  1  0.97644500  0.70344800  0.22734000  1
  O  O48  1  0.49925600  0.73452300  0.26935800  1
  O  O49  1  0.02435700  0.84077300  0.07553800  1
  O  O50  1  0.30069000  0.61282600  0.52705300  1
  O  O51  1  0.44361500  0.45549500  0.85187100  1
  O  O52  1  0.63745800  0.46289400  0.63189500  1
  O  O53  1  0.59697400  0.33984400  0.99411100  1
  O  O54  1  0.05594900  0.54484100  0.64825700  1
  O  O55  1  0.80140200  0.60078500  0.02487900  1
  O  O56  1  0.19887000  0.39892300  0.97505400  1
  O  O57  1  0.94334100  0.45443600  0.35266300  1
  O  O58  1  0.40290000  0.66023100  0.00572700  1
  O  O59  1  0.35864500  0.53863400  0.37033100  1
  O  O60  1  0.55599000  0.54407900  0.14785700  1
  O  O61  1  0.69689700  0.40499400  0.47633600  1
  O  O62  1  0.96991600  0.15693600  0.92253300  1
  O  O63  1  0.49985600  0.26269500  0.73020800  1
  O  O64  1  0.02374100  0.29573500  0.77209300  1
  O  O65  1  0.47073900  0.15509900  0.92135500  1
  O  O66  1  0.83655000  0.17229800  0.62855900  1
  O  O67  1  0.44182600  0.26284300  0.58528400  1
  O  O68  1  0.13416700  0.46029200  0.13224700  1
  O  O69  1  0.10137100  0.34126600  0.49476700  1
  O  O70  1  0.87271200  0.05012200  0.80063800  1
  O  O71  1  0.52278400  0.29515000  0.27284500  1
  O  O72  1  0.96385800  0.15668700  0.42687700  1
  O  O73  1  0.94713600  0.25733100  0.08593000  1
  O  O74  1  0.46901800  0.14641300  0.42165500  1
  O  O75  1  0.26083100  0.01144000  0.83018800  1
  O  O76  1  0.99985600  0.25913200  0.23182100  1
  O  O77  1  0.33926400  0.17136200  0.12900400  1
  O  O78  1  0.76723300  0.01121200  0.32916000  1
  O  O79  1  0.37635500  0.04701700  0.29765100  1
