# generated using pymatgen
data_Li2V2P7HO24
_symmetry_space_group_name_H-M   'P 1'
_cell_length_a   18.01494100
_cell_length_b   4.99079900
_cell_length_c   10.46444773
_cell_angle_alpha   83.56920481
_cell_angle_beta   90.00000000
_cell_angle_gamma   90.00000000
_symmetry_Int_Tables_number   1
_chemical_formula_structural   Li2V2P7HO24
_chemical_formula_sum   'Li4 V4 P14 H2 O48'
_cell_volume   934.92756220
_cell_formula_units_Z   2
loop_
 _symmetry_equiv_pos_site_id
 _symmetry_equiv_pos_as_xyz
  1  'x, y, z'
loop_
 _atom_site_type_symbol
 _atom_site_label
 _atom_site_symmetry_multiplicity
 _atom_site_fract_x
 _atom_site_fract_y
 _atom_site_fract_z
 _atom_site_occupancy
  Li  Li0  1  0.25000000  0.87229400  0.64672200  1
  Li  Li1  1  0.75000000  0.53493000  0.05812500  1
  Li  Li2  1  0.25000000  0.46507000  0.94187500  1
  Li  Li3  1  0.75000000  0.12770600  0.35327800  1
  V  V4  1  0.52314300  0.82257400  0.80603800  1
  V  V5  1  0.97685700  0.82257400  0.80603800  1
  V  V6  1  0.02314300  0.17742600  0.19396200  1
  V  V7  1  0.47685700  0.17742600  0.19396200  1
  P  P8  1  0.87391300  0.83803600  0.53658400  1
  P  P9  1  0.62608700  0.83803600  0.53658400  1
  P  P10  1  0.75000000  0.58912400  0.68982000  1
  P  P11  1  0.09642800  0.71887500  0.04710900  1
  P  P12  1  0.40357200  0.71887500  0.04710900  1
  P  P13  1  0.91424600  0.64404300  0.29354000  1
  P  P14  1  0.58575400  0.64404300  0.29354000  1
  P  P15  1  0.41424600  0.35595700  0.70646000  1
  P  P16  1  0.08575400  0.35595700  0.70646000  1
  P  P17  1  0.90357200  0.28112500  0.95289100  1
  P  P18  1  0.59642800  0.28112500  0.95289100  1
  P  P19  1  0.25000000  0.41087600  0.31018000  1
  P  P20  1  0.12608700  0.16196400  0.46341600  1
  P  P21  1  0.37391300  0.16196400  0.46341600  1
  H  H22  1  0.25000000  0.88899500  0.25204500  1
  H  H23  1  0.75000000  0.11100500  0.74795500  1
  O  O24  1  0.33177500  0.93484200  0.53128900  1
  O  O25  1  0.16822500  0.93484200  0.53128900  1
  O  O26  1  0.40203100  0.98550400  0.11122100  1
  O  O27  1  0.09796900  0.98550400  0.11122100  1
  O  O28  1  0.75000000  0.81599400  0.77068200  1
  O  O29  1  0.92501500  0.90625800  0.64510100  1
  O  O30  1  0.57498500  0.90625800  0.64510100  1
  O  O31  1  0.47496500  0.73946700  0.95982900  1
  O  O32  1  0.02503500  0.73946700  0.95982900  1
  O  O33  1  0.96843500  0.85994000  0.22640000  1
  O  O34  1  0.53156500  0.85994000  0.22640000  1
  O  O35  1  0.33575900  0.66476000  0.97423200  1
  O  O36  1  0.16424100  0.66476000  0.97423200  1
  O  O37  1  0.92547400  0.68011800  0.44580000  1
  O  O38  1  0.57452600  0.68011800  0.44580000  1
  O  O39  1  0.83563000  0.67475900  0.25284200  1
  O  O40  1  0.66437000  0.67475900  0.25284200  1
  O  O41  1  0.82009400  0.59495300  0.59496600  1
  O  O42  1  0.67990600  0.59495300  0.59496600  1
  O  O43  1  0.25000000  0.68739000  0.23327200  1
  O  O44  1  0.45059100  0.63447300  0.71668700  1
  O  O45  1  0.04940900  0.63447300  0.71668700  1
  O  O46  1  0.92055100  0.51188900  0.84088700  1
  O  O47  1  0.57944900  0.51188900  0.84088700  1
  O  O48  1  0.42055100  0.48811100  0.15911300  1
  O  O49  1  0.07944900  0.48811100  0.15911300  1
  O  O50  1  0.54940900  0.36552700  0.28331300  1
  O  O51  1  0.95059100  0.36552700  0.28331300  1
  O  O52  1  0.75000000  0.31261000  0.76672800  1
  O  O53  1  0.17990600  0.40504700  0.40503400  1
  O  O54  1  0.32009400  0.40504700  0.40503400  1
  O  O55  1  0.16437000  0.32524100  0.74715800  1
  O  O56  1  0.33563000  0.32524100  0.74715800  1
  O  O57  1  0.42547400  0.31988200  0.55420000  1
  O  O58  1  0.07452600  0.31988200  0.55420000  1
  O  O59  1  0.83575900  0.33524000  0.02576800  1
  O  O60  1  0.66424100  0.33524000  0.02576800  1
  O  O61  1  0.03156500  0.14006000  0.77360000  1
  O  O62  1  0.46843500  0.14006000  0.77360000  1
  O  O63  1  0.97496500  0.26053300  0.04017100  1
  O  O64  1  0.52503500  0.26053300  0.04017100  1
  O  O65  1  0.07498500  0.09374200  0.35489900  1
  O  O66  1  0.42501500  0.09374200  0.35489900  1
  O  O67  1  0.25000000  0.18400600  0.22931800  1
  O  O68  1  0.90203100  0.01449600  0.88877900  1
  O  O69  1  0.59796900  0.01449600  0.88877900  1
  O  O70  1  0.66822500  0.06515800  0.46871100  1
  O  O71  1  0.83177500  0.06515800  0.46871100  1
