# generated using pymatgen
data_LiV2P4(HO8)2
_symmetry_space_group_name_H-M   'P 1'
_cell_length_a   7.35544100
_cell_length_b   9.26217808
_cell_length_c   12.55235673
_cell_angle_alpha   97.05400111
_cell_angle_beta   101.07723893
_cell_angle_gamma   97.67113100
_symmetry_Int_Tables_number   1
_chemical_formula_structural   LiV2P4(HO8)2
_chemical_formula_sum   'Li3 V6 P12 H6 O48'
_cell_volume   821.97079059
_cell_formula_units_Z   3
loop_
 _symmetry_equiv_pos_site_id
 _symmetry_equiv_pos_as_xyz
  1  'x, y, z'
loop_
 _atom_site_type_symbol
 _atom_site_label
 _atom_site_symmetry_multiplicity
 _atom_site_fract_x
 _atom_site_fract_y
 _atom_site_fract_z
 _atom_site_occupancy
  Li  Li0  1  0.15305800  0.95541800  0.82621100  1
  Li  Li1  1  0.64784500  0.60974200  0.24104300  1
  Li  Li2  1  0.35073200  0.05175200  0.42315000  1
  V  V3  1  0.99787900  0.49952500  0.99978100  1
  V  V4  1  0.50333100  0.66656900  0.66650900  1
  V  V5  1  0.51104500  0.00292600  0.00424200  1
  V  V6  1  0.99767500  0.83340000  0.33342700  1
  V  V7  1  0.99057000  0.17513200  0.66617900  1
  V  V8  1  0.50152100  0.33234700  0.33328900  1
  P  P9  1  0.76585000  0.97649700  0.82501600  1
  P  P10  1  0.23839100  0.68803500  0.84276700  1
  P  P11  1  0.26598700  0.93956400  0.59708300  1
  P  P12  1  0.26497200  0.27475800  0.92408600  1
  P  P13  1  0.72433200  0.39008100  0.74318400  1
  P  P14  1  0.77047400  0.63746100  0.49429500  1
  P  P15  1  0.23164500  0.35672900  0.50900300  1
  P  P16  1  0.25987900  0.60608600  0.25800200  1
  P  P17  1  0.73154300  0.72185000  0.07112200  1
  P  P18  1  0.73325300  0.05712000  0.40889100  1
  P  P19  1  0.77644600  0.31049600  0.16186900  1
  P  P20  1  0.23614000  0.02508100  0.17464300  1
  H  H21  1  0.48919500  0.48561500  0.99145900  1
  H  H22  1  0.00766200  0.67026100  0.67720900  1
  H  H23  1  0.49271100  0.15191900  0.66149000  1
  H  H24  1  0.48723200  0.81734800  0.32480500  1
  H  H25  1  0.01002500  0.33918500  0.34542400  1
  H  H26  1  0.01254700  0.00703700  0.01746300  1
  O  O27  1  0.34363800  0.84351300  0.89847900  1
  O  O28  1  0.18070800  0.59744800  0.92962200  1
  O  O29  1  0.94643300  0.95566500  0.89829200  1
  O  O30  1  0.86462800  0.66109300  0.99837000  1
  O  O31  1  0.06003400  0.71674000  0.76604600  1
  O  O32  1  0.65008400  0.82424800  0.76412200  1
  O  O33  1  0.44621400  0.38250200  0.93503000  1
  O  O34  1  0.36648300  0.61003600  0.77815600  1
  O  O35  1  0.32301300  0.79065200  0.62404200  1
  O  O36  1  0.30875200  0.12305500  0.94835700  1
  O  O37  1  0.15955000  0.92118600  0.47659200  1
  O  O38  1  0.14545900  0.24963400  0.80358100  1
  O  O39  1  0.84783200  0.41847500  0.86096600  1
  O  O40  1  0.67907100  0.54084300  0.71213400  1
  O  O41  1  0.63449500  0.71533100  0.55693600  1
  O  O42  1  0.63544500  0.05612900  0.88458500  1
  O  O43  1  0.55014500  0.27925700  0.72864300  1
  O  O44  1  0.55458200  0.94814000  0.39757200  1
  O  O45  1  0.35063400  0.50585100  0.56805200  1
  O  O46  1  0.18940800  0.94624300  0.27052300  1
  O  O47  1  0.17317000  0.26885700  0.59909600  1
  O  O48  1  0.94787100  0.62357500  0.57283600  1
  O  O49  1  0.86437600  0.99421500  0.33727800  1
  O  O50  1  0.85848700  0.33290300  0.66744900  1
  O  O51  1  0.13753000  0.67181300  0.33266800  1
  O  O52  1  0.14398100  0.99752000  0.67519100  1
  O  O53  1  0.05364800  0.38192000  0.43342800  1
  O  O54  1  0.82091400  0.06488200  0.73312600  1
  O  O55  1  0.80831700  0.72046400  0.39864600  1
  O  O56  1  0.65062000  0.48640800  0.43599700  1
  O  O57  1  0.44469000  0.71600000  0.26867700  1
  O  O58  1  0.44610900  0.05006800  0.60244900  1
  O  O59  1  0.35537000  0.26827800  0.44729000  1
  O  O60  1  0.36297000  0.94435600  0.11264800  1
  O  O61  1  0.31593000  0.46199600  0.28840800  1
  O  O62  1  0.14914800  0.58407500  0.13732000  1
  O  O63  1  0.85209400  0.08497600  0.52996900  1
  O  O64  1  0.84138000  0.74325200  0.19277000  1
  O  O65  1  0.68714300  0.86941300  0.03896100  1
  O  O66  1  0.68706300  0.20472400  0.37825000  1
  O  O67  1  0.64423000  0.39579800  0.22001600  1
  O  O68  1  0.55670400  0.61011000  0.06372100  1
  O  O69  1  0.35038200  0.17854700  0.23183600  1
  O  O70  1  0.95143200  0.28955000  0.23812500  1
  O  O71  1  0.13625900  0.33574400  0.99789800  1
  O  O72  1  0.05062500  0.04450300  0.10109900  1
  O  O73  1  0.82783300  0.39752400  0.06879000  1
  O  O74  1  0.65401300  0.16098100  0.10123300  1
