# generated using pymatgen
data_LiZnO2
_symmetry_space_group_name_H-M   'P 1'
_cell_length_a   5.21076640
_cell_length_b   5.21076640
_cell_length_c   5.21076640
_cell_angle_alpha   132.57365144
_cell_angle_beta   132.57365144
_cell_angle_gamma   69.32450188
_symmetry_Int_Tables_number   1
_chemical_formula_structural   LiZnO2
_chemical_formula_sum   'Li2 Zn2 O4'
_cell_volume   75.28436568
_cell_formula_units_Z   2
loop_
 _symmetry_equiv_pos_site_id
 _symmetry_equiv_pos_as_xyz
  1  'x, y, z'
loop_
 _atom_site_type_symbol
 _atom_site_label
 _atom_site_symmetry_multiplicity
 _atom_site_fract_x
 _atom_site_fract_y
 _atom_site_fract_z
 _atom_site_occupancy
  Li  Li0  1  0.00000000  0.00000000  0.00000000  1
  Li  Li1  1  0.75000000  0.25000000  0.50000000  1
  Zn  Zn2  1  0.50000000  0.50000000  0.00000000  1
  Zn  Zn3  1  0.25000000  0.75000000  0.50000000  1
  O  O4  1  0.48253200  0.98253200  0.50000000  1
  O  O5  1  0.26746800  0.26746800  0.00000000  1
  O  O6  1  0.73253200  0.73253200  0.00000000  1
  O  O7  1  0.01746800  0.51746800  0.50000000  1
