# generated using pymatgen
data_Li3V2(CO3)4
_symmetry_space_group_name_H-M   'P 1'
_cell_length_a   6.24834971
_cell_length_b   6.36061010
_cell_length_c   6.35968566
_cell_angle_alpha   91.37001807
_cell_angle_beta   105.11751362
_cell_angle_gamma   105.12428080
_symmetry_Int_Tables_number   1
_chemical_formula_structural   Li3V2(CO3)4
_chemical_formula_sum   'Li3 V2 C4 O12'
_cell_volume   234.40653896
_cell_formula_units_Z   1
loop_
 _symmetry_equiv_pos_site_id
 _symmetry_equiv_pos_as_xyz
  1  'x, y, z'
loop_
 _atom_site_type_symbol
 _atom_site_label
 _atom_site_symmetry_multiplicity
 _atom_site_fract_x
 _atom_site_fract_y
 _atom_site_fract_z
 _atom_site_occupancy
  Li  Li0  1  0.75016400  0.31827500  0.68153100  1
  Li  Li1  1  0.05503000  0.68051400  0.50506200  1
  Li  Li2  1  0.44526900  0.49462000  0.31946800  1
  V  V3  1  0.25014300  0.18838200  0.81147000  1
  V  V4  1  0.74979500  0.82971900  0.17077300  1
  C  C5  1  0.77019000  0.87543000  0.68185200  1
  C  C6  1  0.72974700  0.31842600  0.12460600  1
  C  C7  1  0.26943800  0.68185400  0.88113100  1
  C  C8  1  0.23053400  0.11872400  0.31798700  1
  O  O9  1  0.09211600  0.92155600  0.31060300  1
  O  O10  1  0.40754000  0.68929000  0.07849600  1
  O  O11  1  0.25015800  0.85435600  0.78880300  1
  O  O12  1  0.24992200  0.21106000  0.14550100  1
  O  O13  1  0.69546700  0.75626400  0.49138600  1
  O  O14  1  0.80421300  0.50889100  0.24369200  1
  O  O15  1  0.73536300  0.77824100  0.85020800  1
  O  O16  1  0.76440800  0.15017300  0.22214700  1
  O  O17  1  0.14906900  0.49404400  0.77285400  1
  O  O18  1  0.35115900  0.22693900  0.50578800  1
  O  O19  1  0.62060200  0.30600500  0.92215200  1
  O  O20  1  0.87967200  0.07774400  0.69398500  1
