# generated using pymatgen
data_Li2MnV(PO4)3
_symmetry_space_group_name_H-M   'P 1'
_cell_length_a   8.97359856
_cell_length_b   8.53523985
_cell_length_c   8.22387557
_cell_angle_alpha   60.25520996
_cell_angle_beta   63.27808409
_cell_angle_gamma   92.26671657
_symmetry_Int_Tables_number   1
_chemical_formula_structural   Li2MnV(PO4)3
_chemical_formula_sum   'Li4 Mn2 V2 P6 O24'
_cell_volume   459.61555444
_cell_formula_units_Z   2
loop_
 _symmetry_equiv_pos_site_id
 _symmetry_equiv_pos_as_xyz
  1  'x, y, z'
loop_
 _atom_site_type_symbol
 _atom_site_label
 _atom_site_symmetry_multiplicity
 _atom_site_fract_x
 _atom_site_fract_y
 _atom_site_fract_z
 _atom_site_occupancy
  Li  Li0  1  0.14119339  0.73231371  0.18298093  1
  Li  Li1  1  0.13218210  0.06771354  0.60404916  1
  Li  Li2  1  0.86781790  0.93228646  0.39595084  1
  Li  Li3  1  0.85880661  0.26768629  0.81701907  1
  Mn  Mn4  1  0.05125154  0.35433094  0.29500203  1
  Mn  Mn5  1  0.94874846  0.64566906  0.70499797  1
  V  V6  1  0.56355505  0.84711424  0.29729029  1
  V  V7  1  0.43644495  0.15288576  0.70270971  1
  P  P8  1  0.25481887  0.03096970  0.21578777  1
  P  P9  1  0.24607151  0.45462162  0.50688840  1
  P  P10  1  0.24861857  0.74890684  0.78593108  1
  P  P11  1  0.75138143  0.25109316  0.21406892  1
  P  P12  1  0.75392849  0.54537838  0.49311060  1
  P  P13  1  0.74518113  0.96903030  0.78421223  1
  O  O14  1  0.09138964  0.83904206  0.36622020  1
  O  O15  1  0.28812720  0.11775141  0.97970013  1
  O  O16  1  0.20521459  0.15909594  0.29515514  1
  O  O17  1  0.20886216  0.49527576  0.32317408  1
  O  O18  1  0.08752404  0.44534174  0.69697259  1
  O  O19  1  0.10806594  0.79099968  0.72182031  1
  O  O20  1  0.42126891  0.98816577  0.20648950  1
  O  O21  1  0.27468003  0.25631544  0.60308936  1
  O  O22  1  0.41609928  0.61232047  0.39610752  1
  O  O23  1  0.19770716  0.54123565  0.97131302  1
  O  O24  1  0.26966495  0.88791390  0.84977944  1
  O  O25  1  0.42761322  0.80498960  0.57646772  1
  O  O26  1  0.57238678  0.19501040  0.42353228  1
  O  O27  1  0.73033505  0.11208610  0.15022056  1
  O  O28  1  0.80229284  0.45876335  0.02868698  1
  O  O29  1  0.58390072  0.38767953  0.60389248  1
  O  O30  1  0.72531997  0.74368456  0.39691064  1
  O  O31  1  0.57873109  0.01183423  0.79351050  1
  O  O32  1  0.89193406  0.20900032  0.27817969  1
  O  O33  1  0.91247596  0.55465826  0.30302741  1
  O  O34  1  0.79113784  0.50472424  0.67682592  1
  O  O35  1  0.79478541  0.84090406  0.70484486  1
  O  O36  1  0.71187280  0.88224859  0.02029987  1
  O  O37  1  0.90861036  0.16095794  0.63377980  1
