# generated using pymatgen
data_Li4Ti4MnCr4O18
_symmetry_space_group_name_H-M   'P 1'
_cell_length_a   2.94891300
_cell_length_b   9.18216400
_cell_length_c   24.78126100
_cell_angle_alpha   90.00000000
_cell_angle_beta   90.00000000
_cell_angle_gamma   90.00000000
_symmetry_Int_Tables_number   1
_chemical_formula_structural   Li4Ti4MnCr4O18
_chemical_formula_sum   'Li8 Ti8 Mn2 Cr8 O36'
_cell_volume   671.01218568
_cell_formula_units_Z   2
loop_
 _symmetry_equiv_pos_site_id
 _symmetry_equiv_pos_as_xyz
  1  'x, y, z'
loop_
 _atom_site_type_symbol
 _atom_site_label
 _atom_site_symmetry_multiplicity
 _atom_site_fract_x
 _atom_site_fract_y
 _atom_site_fract_z
 _atom_site_occupancy
  Li  Li0  1  0.00000000  0.69393000  0.48833100  1
  Li  Li1  1  0.00000000  0.70111000  0.69046100  1
  Li  Li2  1  0.00000000  0.79889000  0.19046100  1
  Li  Li3  1  0.00000000  0.80607000  0.98833100  1
  Li  Li4  1  0.00000000  0.19393000  0.01166900  1
  Li  Li5  1  0.00000000  0.20111000  0.80953900  1
  Li  Li6  1  0.00000000  0.29889000  0.30953900  1
  Li  Li7  1  0.00000000  0.30607000  0.51166900  1
  Ti  Ti8  1  0.00000000  0.49942400  0.60079600  1
  Ti  Ti9  1  0.50000000  0.65980300  0.30616000  1
  Ti  Ti10  1  0.50000000  0.84019700  0.80616000  1
  Ti  Ti11  1  0.00000000  0.00057600  0.10079600  1
  Ti  Ti12  1  0.00000000  0.99942400  0.89920400  1
  Ti  Ti13  1  0.50000000  0.15980300  0.19384000  1
  Ti  Ti14  1  0.50000000  0.34019700  0.69384000  1
  Ti  Ti15  1  0.00000000  0.50057600  0.39920400  1
  Mn  Mn16  1  0.00000000  0.50000000  0.00000000  1
  Mn  Mn17  1  0.00000000  0.00000000  0.50000000  1
  Cr  Cr18  1  0.00000000  0.50124100  0.81200100  1
  Cr  Cr19  1  0.50000000  0.65350600  0.08516500  1
  Cr  Cr20  1  0.50000000  0.84649400  0.58516500  1
  Cr  Cr21  1  0.00000000  0.99875900  0.31200100  1
  Cr  Cr22  1  0.00000000  0.00124100  0.68799900  1
  Cr  Cr23  1  0.50000000  0.15350600  0.41483500  1
  Cr  Cr24  1  0.50000000  0.34649400  0.91483500  1
  Cr  Cr25  1  0.00000000  0.49875900  0.18799900  1
  O  O26  1  0.00000000  0.49017300  0.92178800  1
  O  O27  1  0.00000000  0.50982700  0.07821200  1
  O  O28  1  0.50000000  0.56529000  0.44337200  1
  O  O29  1  0.50000000  0.54307600  0.65736300  1
  O  O30  1  0.50000000  0.63163000  0.16412500  1
  O  O31  1  0.00000000  0.60799500  0.25581800  1
  O  O32  1  0.50000000  0.64223100  0.00282400  1
  O  O33  1  0.50000000  0.63587800  0.79028600  1
  O  O34  1  0.00000000  0.68858000  0.35593000  1
  O  O35  1  0.00000000  0.69823100  0.58045100  1
  O  O36  1  0.00000000  0.80176900  0.08045100  1
  O  O37  1  0.00000000  0.81142000  0.85593000  1
  O  O38  1  0.50000000  0.86412200  0.29028600  1
  O  O39  1  0.50000000  0.85776900  0.50282400  1
  O  O40  1  0.00000000  0.89200500  0.75581800  1
  O  O41  1  0.50000000  0.86837000  0.66412500  1
  O  O42  1  0.50000000  0.95692400  0.15736300  1
  O  O43  1  0.50000000  0.93471000  0.94337200  1
  O  O44  1  0.00000000  0.99017300  0.57821200  1
  O  O45  1  0.00000000  0.00982700  0.42178800  1
  O  O46  1  0.50000000  0.06529000  0.05662800  1
  O  O47  1  0.50000000  0.04307600  0.84263700  1
  O  O48  1  0.50000000  0.13163000  0.33587500  1
  O  O49  1  0.00000000  0.10799500  0.24418200  1
  O  O50  1  0.50000000  0.14223100  0.49717600  1
  O  O51  1  0.50000000  0.13587800  0.70971400  1
  O  O52  1  0.00000000  0.18858000  0.14407000  1
  O  O53  1  0.00000000  0.19823100  0.91954900  1
  O  O54  1  0.00000000  0.30176900  0.41954900  1
  O  O55  1  0.00000000  0.31142000  0.64407000  1
  O  O56  1  0.50000000  0.36412200  0.20971400  1
  O  O57  1  0.50000000  0.35776900  0.99717600  1
  O  O58  1  0.00000000  0.39200500  0.74418200  1
  O  O59  1  0.50000000  0.36837000  0.83587500  1
  O  O60  1  0.50000000  0.45692400  0.34263700  1
  O  O61  1  0.50000000  0.43471000  0.55662800  1
