# generated using pymatgen
data_Li9V3P8O29
_symmetry_space_group_name_H-M   'P 1'
_cell_length_a   9.84333800
_cell_length_b   9.86166737
_cell_length_c   13.71233410
_cell_angle_alpha   90.03875539
_cell_angle_beta   90.21991036
_cell_angle_gamma   119.87754896
_symmetry_Int_Tables_number   1
_chemical_formula_structural   Li9V3P8O29
_chemical_formula_sum   'Li18 V6 P16 O58'
_cell_volume   1154.15512798
_cell_formula_units_Z   2
loop_
 _symmetry_equiv_pos_site_id
 _symmetry_equiv_pos_as_xyz
  1  'x, y, z'
loop_
 _atom_site_type_symbol
 _atom_site_label
 _atom_site_symmetry_multiplicity
 _atom_site_fract_x
 _atom_site_fract_y
 _atom_site_fract_z
 _atom_site_occupancy
  Li  Li0  1  0.75902700  0.09636400  0.07214900  1
  Li  Li1  1  0.89780300  0.23824700  0.56229400  1
  Li  Li2  1  0.34057700  0.10032700  0.56164400  1
  Li  Li3  1  0.65814500  0.31721900  0.37720100  1
  Li  Li4  1  0.66758900  0.33444900  0.88201300  1
  Li  Li5  1  0.33165900  0.23068600  0.06653400  1
  Li  Li6  1  0.90092200  0.66699200  0.06482000  1
  Li  Li7  1  0.23742600  0.34025100  0.43228100  1
  Li  Li8  1  0.76130100  0.65951600  0.56355300  1
  Li  Li9  1  0.09898900  0.33314100  0.93823800  1
  Li  Li10  1  0.66804200  0.76585000  0.93943900  1
  Li  Li11  1  0.33243300  0.66637300  0.61830600  1
  Li  Li12  1  0.34730400  0.68464200  0.12261300  1
  Li  Li13  1  0.65576500  0.90247900  0.42539500  1
  Li  Li14  1  0.10533700  0.76416100  0.43308400  1
  Li  Li15  1  0.56559200  0.99873900  0.24865200  1
  Li  Li16  1  0.23534300  0.90243700  0.93986300  1
  Li  Li17  1  0.99914900  0.99674300  0.00547900  1
  V  V18  1  0.43631300  0.43611300  0.24832900  1
  V  V19  1  0.56483200  0.56437800  0.75075500  1
  V  V20  1  0.99907600  0.43481600  0.75048300  1
  V  V21  1  0.00158800  0.56465200  0.24995300  1
  V  V22  1  0.43625600  0.00070100  0.75079600  1
  V  V23  1  0.00127200  0.00279400  0.49592900  1
  P  P24  1  0.77525600  0.08970300  0.84588000  1
  P  P25  1  0.90994800  0.22129300  0.34452300  1
  P  P26  1  0.31464800  0.09214300  0.34477300  1
  P  P27  1  0.67149500  0.33437900  0.12493400  1
  P  P28  1  0.66657900  0.33354800  0.62335000  1
  P  P29  1  0.31593900  0.22610900  0.84546100  1
  P  P30  1  0.22153600  0.31136300  0.65514500  1
  P  P31  1  0.91057700  0.68461200  0.84516500  1
  P  P32  1  0.08783200  0.31461300  0.15562100  1
  P  P33  1  0.77878100  0.68819900  0.34349000  1
  P  P34  1  0.68440300  0.77500700  0.15379400  1
  P  P35  1  0.33265600  0.66183900  0.37566500  1
  P  P36  1  0.33338400  0.66639800  0.87583300  1
  P  P37  1  0.68893600  0.91050300  0.65470700  1
  P  P38  1  0.08946700  0.77775100  0.65535300  1
  P  P39  1  0.22711200  0.90736900  0.15549200  1
  O  O40  1  0.78888500  0.00304100  0.56648200  1
  O  O41  1  0.75001200  0.08074600  0.34877300  1
  O  O42  1  0.99387600  0.22712400  0.06577700  1
  O  O43  1  0.92368400  0.25051700  0.84546400  1
  O  O44  1  0.62991900  0.10987000  0.83463300  1
  O  O45  1  0.68217900  0.19511700  0.16004500  1
  O  O46  1  0.47422600  0.10796200  0.34595300  1
  O  O47  1  0.21884000  0.99991200  0.06754300  1
  O  O48  1  0.32759700  0.07702500  0.84574300  1
  O  O49  1  0.80988400  0.32274900  0.66327600  1
  O  O50  1  0.90304200  0.37501200  0.33610200  1
  O  O51  1  0.51320300  0.18983500  0.66229100  1
  O  O52  1  0.67702300  0.35571700  0.01525100  1
  O  O53  1  0.66841900  0.33603500  0.51336000  1
  O  O54  1  0.52082900  0.33270800  0.16471600  1
  O  O55  1  0.89071200  0.52014900  0.83343900  1
  O  O56  1  0.81930500  0.48931200  0.17036500  1
  O  O57  1  0.32239300  0.25192800  0.34234700  1
  O  O58  1  0.21211100  0.21204500  0.75002700  1
  O  O59  1  0.21532200  0.21181200  0.56651700  1
  O  O60  1  0.22633900  0.23078600  0.93404000  1
  O  O61  1  0.48027000  0.37059100  0.83385500  1
  O  O62  1  0.67647500  0.48675100  0.66357100  1
  O  O63  1  0.25050300  0.33099400  0.15312100  1
  O  O64  1  0.63073300  0.52753600  0.34007800  1
  O  O65  1  0.92573900  0.67072500  0.34466800  1
  O  O66  1  0.00163400  0.21095300  0.25004700  1
  O  O67  1  0.00907900  0.22250300  0.43404900  1
  O  O68  1  0.99674300  0.78424300  0.56611500  1
  O  O69  1  0.07432200  0.32626200  0.65470200  1
  O  O70  1  0.36919400  0.47304500  0.66104800  1
  O  O71  1  0.75014200  0.67382300  0.84502100  1
  O  O72  1  0.31994900  0.50747500  0.33650900  1
  O  O73  1  0.52087400  0.62711700  0.16701800  1
  O  O74  1  0.77281400  0.76192900  0.06584600  1
  O  O75  1  0.78965800  0.78952800  0.43292500  1
  O  O76  1  0.78954000  0.78710200  0.24963400  1
  O  O77  1  0.67261700  0.74783500  0.65452100  1
  O  O78  1  0.18921400  0.51378200  0.83494100  1
  O  O79  1  0.10464800  0.47896700  0.16767600  1
  O  O80  1  0.48653200  0.67516700  0.83586000  1
  O  O81  1  0.33229000  0.66429200  0.98555800  1
  O  O82  1  0.30943500  0.65357200  0.48545000  1
  O  O83  1  0.48092000  0.80251400  0.34084900  1
  O  O84  1  0.10349900  0.63013000  0.66180900  1
  O  O85  1  0.18187900  0.66548200  0.33114000  1
  O  O86  1  0.67268700  0.92014300  0.15153100  1
  O  O87  1  0.78815800  0.00051600  0.74992800  1
  O  O88  1  0.77172800  0.99508800  0.93381000  1
  O  O89  1  0.52653900  0.89614200  0.66033500  1
  O  O90  1  0.32539200  0.81145500  0.83605400  1
  O  O91  1  0.36805600  0.88667600  0.16118800  1
  O  O92  1  0.07249400  0.74692300  0.15843000  1
  O  O93  1  0.00571400  0.77456400  0.93372800  1
  O  O94  1  0.99949200  0.78771800  0.74989000  1
  O  O95  1  0.25157600  0.92471000  0.65495000  1
  O  O96  1  0.20722500  0.99887300  0.43272000  1
  O  O97  1  0.21414300  0.99887400  0.25028900  1
