# generated using pymatgen
data_Na3Li2Fe5(SiO3)10
_symmetry_space_group_name_H-M   'P 1'
_cell_length_a   6.61171100
_cell_length_b   7.45431713
_cell_length_c   22.60943778
_cell_angle_alpha   85.39730099
_cell_angle_beta   86.36678547
_cell_angle_gamma   85.24394269
_symmetry_Int_Tables_number   1
_chemical_formula_structural   Na3Li2Fe5(SiO3)10
_chemical_formula_sum   'Na6 Li4 Fe10 Si20 O60'
_cell_volume   1105.10021696
_cell_formula_units_Z   2
loop_
 _symmetry_equiv_pos_site_id
 _symmetry_equiv_pos_as_xyz
  1  'x, y, z'
loop_
 _atom_site_type_symbol
 _atom_site_label
 _atom_site_symmetry_multiplicity
 _atom_site_fract_x
 _atom_site_fract_y
 _atom_site_fract_z
 _atom_site_occupancy
  Na  Na0  1  0.81480900  0.92344300  0.89103900  1
  Na  Na1  1  0.01504000  0.32374800  0.69113700  1
  Na  Na2  1  0.21527200  0.72369400  0.49126700  1
  Na  Na3  1  0.41482600  0.12295700  0.29160400  1
  Na  Na4  1  0.18745700  0.07693400  0.10886400  1
  Na  Na5  1  0.61451100  0.52444500  0.09095000  1
  Li  Li6  1  0.35115700  0.45191200  0.90040400  1
  Li  Li7  1  0.55267700  0.85108400  0.70077400  1
  Li  Li8  1  0.75292400  0.25092900  0.50097900  1
  Li  Li9  1  0.95210600  0.65060600  0.30068500  1
  Fe  Fe10  1  0.12879300  0.16239000  0.97014400  1
  Fe  Fe11  1  0.06864700  0.23967000  0.82951600  1
  Fe  Fe12  1  0.33209000  0.56167900  0.77020500  1
  Fe  Fe13  1  0.26913300  0.63962600  0.62974500  1
  Fe  Fe14  1  0.53247000  0.96155800  0.57065200  1
  Fe  Fe15  1  0.46958600  0.03954100  0.43020300  1
  Fe  Fe16  1  0.73320000  0.36110900  0.37095300  1
  Fe  Fe17  1  0.67047700  0.43683700  0.23006600  1
  Fe  Fe18  1  0.93294100  0.76056100  0.17046600  1
  Fe  Fe19  1  0.86808900  0.84170200  0.02952100  1
  Si  Si20  1  0.07160700  0.92880800  0.72681200  1
  Si  Si21  1  0.33121300  0.87111800  0.87314200  1
  Si  Si22  1  0.62455300  0.22374000  0.99113700  1
  Si  Si23  1  0.86954200  0.52837300  0.92694500  1
  Si  Si24  1  0.82743700  0.62352100  0.79074700  1
  Si  Si25  1  0.02770800  0.02351400  0.59087000  1
  Si  Si26  1  0.57326700  0.18031600  0.80899700  1
  Si  Si27  1  0.27182000  0.32871000  0.52708700  1
  Si  Si28  1  0.53170100  0.27107300  0.67365600  1
  Si  Si29  1  0.22808500  0.42304600  0.39119300  1
  Si  Si30  1  0.77369800  0.58013700  0.60922800  1
  Si  Si31  1  0.47354200  0.72769300  0.32812000  1
  Si  Si32  1  0.73205400  0.67109100  0.47388700  1
  Si  Si33  1  0.42986900  0.81739600  0.19254500  1
  Si  Si34  1  0.97417200  0.97994600  0.40924400  1
  Si  Si35  1  0.17298200  0.38110400  0.20898900  1
  Si  Si36  1  0.12896500  0.47620900  0.07269200  1
  Si  Si37  1  0.37263100  0.78156500  0.00798000  1
  Si  Si38  1  0.66968900  0.12552100  0.12729100  1
  Si  Si39  1  0.93264600  0.07038100  0.27371500  1
  O  O40  1  0.05872300  0.37774200  0.91035200  1
  O  O41  1  0.42255300  0.77870800  0.93587000  1
  O  O42  1  0.27119900  0.70051900  0.83976400  1
  O  O43  1  0.02629500  0.47927300  0.77850400  1
  O  O44  1  0.51448400  0.97582900  0.83504300  1
  O  O45  1  0.26077600  0.77777800  0.71070200  1
  O  O46  1  0.14709800  0.02635500  0.88908100  1
  O  O47  1  0.41953200  0.19720600  0.95848500  1
  O  O48  1  0.68627500  0.42701700  0.96552100  1
  O  O49  1  0.22672500  0.87935100  0.57872800  1
  O  O50  1  0.37655400  0.32578200  0.82299600  1
  O  O51  1  0.13486000  0.09331300  0.76233200  1
  O  O52  1  0.93162800  0.69285700  0.96265400  1
  O  O53  1  0.78186400  0.62213200  0.86357000  1
  O  O54  1  0.34744200  0.42637100  0.68938100  1
  O  O55  1  0.62254000  0.59723200  0.75781200  1
  O  O56  1  0.02289600  0.98115200  0.33692100  1
  O  O57  1  0.82390300  0.08058100  0.97882100  1
  O  O58  1  0.08901500  0.22719100  0.56548300  1
  O  O59  1  0.88887500  0.82714900  0.76527900  1
  O  O60  1  0.57682200  0.72551700  0.62316700  1
  O  O61  1  0.33494700  0.49326500  0.56257600  1
  O  O62  1  0.77765400  0.21620000  0.84023800  1
  O  O63  1  0.18268300  0.42203500  0.46395100  1
  O  O64  1  0.62135300  0.18066700  0.73676200  1
  O  O65  1  0.54785300  0.82624300  0.48979200  1
  O  O66  1  0.82275600  0.99711300  0.55803700  1
  O  O67  1  0.02355300  0.39651900  0.35817800  1
  O  O68  1  0.47250300  0.09998800  0.64038300  1
  O  O69  1  0.28962900  0.62692300  0.36618400  1
  O  O70  1  0.71480900  0.37574100  0.63540900  1
  O  O71  1  0.53701600  0.89220900  0.36348700  1
  O  O72  1  0.17848500  0.01613700  0.44050600  1
  O  O73  1  0.97809300  0.61647400  0.64039700  1
  O  O74  1  0.46112000  0.17767400  0.51110000  1
  O  O75  1  0.38590600  0.82213400  0.26503400  1
  O  O76  1  0.82171000  0.58045300  0.53697600  1
  O  O77  1  0.22597800  0.78170700  0.16118500  1
  O  O78  1  0.67284500  0.49977300  0.44066400  1
  O  O79  1  0.42713500  0.27889500  0.37897700  1
  O  O80  1  0.11472000  0.17490700  0.23440800  1
  O  O81  1  0.91498700  0.77567500  0.43547300  1
  O  O82  1  0.17317800  0.92438200  0.02040200  1
  O  O83  1  0.98273100  0.02255000  0.66366500  1
  O  O84  1  0.37832500  0.41496500  0.24000100  1
  O  O85  1  0.66150600  0.57617600  0.31165400  1
  O  O86  1  0.21662800  0.38130500  0.13621200  1
  O  O87  1  0.87387500  0.89903600  0.24056300  1
  O  O88  1  0.06598300  0.31094500  0.03767100  1
  O  O89  1  0.62972900  0.67614300  0.17975400  1
  O  O90  1  0.77742900  0.12535900  0.42334000  1
  O  O91  1  0.31529000  0.57787200  0.03550500  1
  O  O92  1  0.57520300  0.81948500  0.03986300  1
  O  O93  1  0.85486800  0.97306900  0.11137500  1
  O  O94  1  0.74824700  0.22516800  0.28970800  1
  O  O95  1  0.48623300  0.02296300  0.16605500  1
  O  O96  1  0.97505100  0.52350100  0.22377700  1
  O  O97  1  0.73318100  0.29002200  0.16275300  1
  O  O98  1  0.57778000  0.22007000  0.06434900  1
  O  O99  1  0.94558300  0.62951600  0.08972000  1
