# generated using pymatgen
data_Li4MnP2O9
_symmetry_space_group_name_H-M   'P 1'
_cell_length_a   6.75374400
_cell_length_b   14.20989000
_cell_length_c   14.60373900
_cell_angle_alpha   90.00000000
_cell_angle_beta   90.00000000
_cell_angle_gamma   90.00000000
_symmetry_Int_Tables_number   1
_chemical_formula_structural   Li4MnP2O9
_chemical_formula_sum   'Li32 Mn8 P16 O72'
_cell_volume   1401.52023787
_cell_formula_units_Z   8
loop_
 _symmetry_equiv_pos_site_id
 _symmetry_equiv_pos_as_xyz
  1  'x, y, z'
loop_
 _atom_site_type_symbol
 _atom_site_label
 _atom_site_symmetry_multiplicity
 _atom_site_fract_x
 _atom_site_fract_y
 _atom_site_fract_z
 _atom_site_occupancy
  Li  Li0  1  0.22214400  0.99711900  0.00447700  1
  Li  Li1  1  0.72214400  0.50288100  0.00447700  1
  Li  Li2  1  0.75450000  0.75279900  0.02693700  1
  Li  Li3  1  0.25450000  0.74720100  0.02693700  1
  Li  Li4  1  0.99970700  0.36762000  0.12778200  1
  Li  Li5  1  0.49970700  0.13238000  0.12778200  1
  Li  Li6  1  0.81718300  0.97185000  0.22611500  1
  Li  Li7  1  0.31718300  0.52815000  0.22611500  1
  Li  Li8  1  0.81718300  0.47185000  0.27388500  1
  Li  Li9  1  0.31718300  0.02815000  0.27388500  1
  Li  Li10  1  0.99970700  0.86762000  0.37221800  1
  Li  Li11  1  0.49970700  0.63238000  0.37221800  1
  Li  Li12  1  0.75450000  0.25279900  0.47306300  1
  Li  Li13  1  0.25450000  0.24720100  0.47306300  1
  Li  Li14  1  0.22214400  0.49711900  0.49552300  1
  Li  Li15  1  0.72214400  0.00288100  0.49552300  1
  Li  Li16  1  0.27785600  0.99711900  0.50447700  1
  Li  Li17  1  0.77785600  0.50288100  0.50447700  1
  Li  Li18  1  0.74550000  0.75279900  0.52693700  1
  Li  Li19  1  0.24550000  0.74720100  0.52693700  1
  Li  Li20  1  0.50029300  0.36762000  0.62778200  1
  Li  Li21  1  0.00029300  0.13238000  0.62778200  1
  Li  Li22  1  0.68281700  0.97185000  0.72611500  1
  Li  Li23  1  0.18281700  0.52815000  0.72611500  1
  Li  Li24  1  0.68281700  0.47185000  0.77388500  1
  Li  Li25  1  0.18281700  0.02815000  0.77388500  1
  Li  Li26  1  0.50029300  0.86762000  0.87221800  1
  Li  Li27  1  0.00029300  0.63238000  0.87221800  1
  Li  Li28  1  0.74550000  0.25279900  0.97306300  1
  Li  Li29  1  0.24550000  0.24720100  0.97306300  1
  Li  Li30  1  0.27785600  0.49711900  0.99552300  1
  Li  Li31  1  0.77785600  0.00288100  0.99552300  1
  Mn  Mn32  1  0.24834700  0.75153300  0.23457800  1
  Mn  Mn33  1  0.74834700  0.74846700  0.23457800  1
  Mn  Mn34  1  0.24834700  0.25153300  0.26542200  1
  Mn  Mn35  1  0.74834700  0.24846700  0.26542200  1
  Mn  Mn36  1  0.25165300  0.75153300  0.73457800  1
  Mn  Mn37  1  0.75165300  0.74846700  0.73457800  1
  Mn  Mn38  1  0.25165300  0.25153300  0.76542200  1
  Mn  Mn39  1  0.75165300  0.24846700  0.76542200  1
  P  P40  1  0.49940200  0.89596900  0.11416700  1
  P  P41  1  0.99940200  0.60403100  0.11416700  1
  P  P42  1  0.49720000  0.35967700  0.11737900  1
  P  P43  1  0.99720000  0.14032300  0.11737900  1
  P  P44  1  0.49720000  0.85967700  0.38262100  1
  P  P45  1  0.99720000  0.64032300  0.38262100  1
  P  P46  1  0.49940200  0.39596900  0.38583300  1
  P  P47  1  0.99940200  0.10403100  0.38583300  1
  P  P48  1  0.00059800  0.89596900  0.61416700  1
  P  P49  1  0.50059800  0.60403100  0.61416700  1
  P  P50  1  0.00280000  0.35967700  0.61737900  1
  P  P51  1  0.50280000  0.14032300  0.61737900  1
  P  P52  1  0.00280000  0.85967700  0.88262100  1
  P  P53  1  0.50280000  0.64032300  0.88262100  1
  P  P54  1  0.00059800  0.39596900  0.88583300  1
  P  P55  1  0.50059800  0.10403100  0.88583300  1
  O  O56  1  0.50230300  0.91082500  0.01030200  1
  O  O57  1  0.00230300  0.58917500  0.01030200  1
  O  O58  1  0.99482200  0.21577900  0.04237800  1
  O  O59  1  0.49482200  0.28422100  0.04237800  1
  O  O60  1  0.49229200  0.46179400  0.08312700  1
  O  O61  1  0.99229200  0.03820600  0.08312700  1
  O  O62  1  0.31093000  0.83502200  0.13317300  1
  O  O63  1  0.81093000  0.66497800  0.13317300  1
  O  O64  1  0.69342200  0.83944400  0.13697900  1
  O  O65  1  0.19342200  0.66055600  0.13697900  1
  O  O66  1  0.50132000  0.98754800  0.17093500  1
  O  O67  1  0.00132000  0.51245200  0.17093500  1
  O  O68  1  0.69155000  0.34963000  0.17633000  1
  O  O69  1  0.19155000  0.15037000  0.17633000  1
  O  O70  1  0.30724200  0.35116200  0.17913600  1
  O  O71  1  0.80724200  0.14883800  0.17913600  1
  O  O72  1  0.99700400  0.80044200  0.24428000  1
  O  O73  1  0.49700400  0.69955800  0.24428000  1
  O  O74  1  0.99700400  0.30044200  0.25572000  1
  O  O75  1  0.49700400  0.19955800  0.25572000  1
  O  O76  1  0.30724200  0.85116200  0.32086400  1
  O  O77  1  0.80724200  0.64883800  0.32086400  1
  O  O78  1  0.69155000  0.84963000  0.32367000  1
  O  O79  1  0.19155000  0.65037000  0.32367000  1
  O  O80  1  0.50132000  0.48754800  0.32906500  1
  O  O81  1  0.00132000  0.01245200  0.32906500  1
  O  O82  1  0.69342200  0.33944400  0.36302100  1
  O  O83  1  0.19342200  0.16055600  0.36302100  1
  O  O84  1  0.31093000  0.33502200  0.36682700  1
  O  O85  1  0.81093000  0.16497800  0.36682700  1
  O  O86  1  0.49229200  0.96179400  0.41687300  1
  O  O87  1  0.99229200  0.53820600  0.41687300  1
  O  O88  1  0.49482200  0.78422100  0.45762200  1
  O  O89  1  0.99482200  0.71577900  0.45762200  1
  O  O90  1  0.50230300  0.41082500  0.48969800  1
  O  O91  1  0.00230300  0.08917500  0.48969800  1
  O  O92  1  0.99769700  0.91082500  0.51030200  1
  O  O93  1  0.49769700  0.58917500  0.51030200  1
  O  O94  1  0.00517800  0.28422100  0.54237800  1
  O  O95  1  0.50517800  0.21577900  0.54237800  1
  O  O96  1  0.00770800  0.46179400  0.58312700  1
  O  O97  1  0.50770800  0.03820600  0.58312700  1
  O  O98  1  0.18907000  0.83502200  0.63317300  1
  O  O99  1  0.68907000  0.66497800  0.63317300  1
  O  O100  1  0.80657800  0.83944400  0.63697900  1
  O  O101  1  0.30657800  0.66055600  0.63697900  1
  O  O102  1  0.99868000  0.98754800  0.67093500  1
  O  O103  1  0.49868000  0.51245200  0.67093500  1
  O  O104  1  0.80845000  0.34963000  0.67633000  1
  O  O105  1  0.30845000  0.15037000  0.67633000  1
  O  O106  1  0.19275800  0.35116200  0.67913600  1
  O  O107  1  0.69275800  0.14883800  0.67913600  1
  O  O108  1  0.50299600  0.80044200  0.74428000  1
  O  O109  1  0.00299600  0.69955800  0.74428000  1
  O  O110  1  0.50299600  0.30044200  0.75572000  1
  O  O111  1  0.00299600  0.19955800  0.75572000  1
  O  O112  1  0.19275800  0.85116200  0.82086400  1
  O  O113  1  0.69275800  0.64883800  0.82086400  1
  O  O114  1  0.80845000  0.84963000  0.82367000  1
  O  O115  1  0.30845000  0.65037000  0.82367000  1
  O  O116  1  0.99868000  0.48754800  0.82906500  1
  O  O117  1  0.49868000  0.01245200  0.82906500  1
  O  O118  1  0.80657800  0.33944400  0.86302100  1
  O  O119  1  0.30657800  0.16055600  0.86302100  1
  O  O120  1  0.18907000  0.33502200  0.86682700  1
  O  O121  1  0.68907000  0.16497800  0.86682700  1
  O  O122  1  0.00770800  0.96179400  0.91687300  1
  O  O123  1  0.50770800  0.53820600  0.91687300  1
  O  O124  1  0.00517800  0.78422100  0.95762200  1
  O  O125  1  0.50517800  0.71577900  0.95762200  1
  O  O126  1  0.99769700  0.41082500  0.98969800  1
  O  O127  1  0.49769700  0.08917500  0.98969800  1
