# generated using pymatgen
data_Li2FeSn(PO4)2
_symmetry_space_group_name_H-M   'P 1'
_cell_length_a   6.27544314
_cell_length_b   9.71840468
_cell_length_c   12.25673680
_cell_angle_alpha   112.81273878
_cell_angle_beta   89.97435580
_cell_angle_gamma   90.01154659
_symmetry_Int_Tables_number   1
_chemical_formula_structural   Li2FeSn(PO4)2
_chemical_formula_sum   'Li8 Fe4 Sn4 P8 O32'
_cell_volume   689.03304169
_cell_formula_units_Z   4
loop_
 _symmetry_equiv_pos_site_id
 _symmetry_equiv_pos_as_xyz
  1  'x, y, z'
loop_
 _atom_site_type_symbol
 _atom_site_label
 _atom_site_symmetry_multiplicity
 _atom_site_fract_x
 _atom_site_fract_y
 _atom_site_fract_z
 _atom_site_occupancy
  Li  Li0  1  0.00012000  0.99982700  0.00003900  1
  Li  Li1  1  0.00014100  0.49986500  0.99982300  1
  Li  Li2  1  0.49974800  0.99984200  0.99996700  1
  Li  Li3  1  0.50037800  0.50008700  0.99974200  1
  Li  Li4  1  0.99984000  0.50001600  0.50005000  1
  Li  Li5  1  0.99995100  0.00002400  0.50013500  1
  Li  Li6  1  0.50000700  0.50006800  0.50015700  1
  Li  Li7  1  0.50004900  0.99987100  0.49996100  1
  Fe  Fe8  1  0.25006600  0.12189000  0.29505900  1
  Fe  Fe9  1  0.74976300  0.87864100  0.70527500  1
  Fe  Fe10  1  0.25013800  0.62040300  0.29449900  1
  Fe  Fe11  1  0.75006000  0.37941700  0.70540700  1
  Sn  Sn12  1  0.75017500  0.35314500  0.22030800  1
  Sn  Sn13  1  0.75035900  0.85377900  0.22058500  1
  Sn  Sn14  1  0.24967100  0.64718100  0.77959000  1
  Sn  Sn15  1  0.24988500  0.14618300  0.77922500  1
  P  P16  1  0.25005700  0.23404400  0.11205900  1
  P  P17  1  0.25039200  0.73414900  0.11213200  1
  P  P18  1  0.74966200  0.76588300  0.88798400  1
  P  P19  1  0.74998600  0.26586000  0.88773600  1
  P  P20  1  0.74996000  0.67201300  0.42327700  1
  P  P21  1  0.75005300  0.17217300  0.42347000  1
  P  P22  1  0.24989800  0.32794400  0.57673200  1
  P  P23  1  0.24994700  0.82780700  0.57656300  1
  O  O24  1  0.75023400  0.37860500  0.01905200  1
  O  O25  1  0.75009200  0.87865100  0.01919300  1
  O  O26  1  0.24983600  0.62115700  0.98081300  1
  O  O27  1  0.24975400  0.12121900  0.98083900  1
  O  O28  1  0.25036000  0.39877700  0.12878400  1
  O  O29  1  0.25011500  0.89882600  0.12865500  1
  O  O30  1  0.74983700  0.60116700  0.87121900  1
  O  O31  1  0.74955900  0.10117000  0.87104900  1
  O  O32  1  0.74990500  0.32859700  0.41892800  1
  O  O33  1  0.74997200  0.82846600  0.41890800  1
  O  O34  1  0.24988500  0.67145800  0.58125400  1
  O  O35  1  0.25000400  0.17154300  0.58119400  1
  O  O36  1  0.25001500  0.32766200  0.44976200  1
  O  O37  1  0.24996200  0.82768300  0.44977000  1
  O  O38  1  0.74992000  0.67208800  0.55021300  1
  O  O39  1  0.74986800  0.17228500  0.55029700  1
  O  O40  1  0.05249900  0.19006100  0.17157800  1
  O  O41  1  0.05335600  0.69029100  0.17206000  1
  O  O42  1  0.44746500  0.18966400  0.17138300  1
  O  O43  1  0.44810500  0.69021300  0.17145600  1
  O  O44  1  0.55189700  0.81016600  0.82885400  1
  O  O45  1  0.55285300  0.31019500  0.82833300  1
  O  O46  1  0.94694100  0.81006300  0.82838100  1
  O  O47  1  0.94745000  0.30975400  0.82822500  1
  O  O48  1  0.54913500  0.57724700  0.35882000  1
  O  O49  1  0.54953400  0.07710000  0.35887900  1
  O  O50  1  0.95080200  0.57719700  0.35879200  1
  O  O51  1  0.95106500  0.07744000  0.35912100  1
  O  O52  1  0.04889800  0.42263700  0.64101000  1
  O  O53  1  0.04921200  0.92284700  0.64113000  1
  O  O54  1  0.45046400  0.42289100  0.64119800  1
  O  O55  1  0.45070100  0.92276900  0.64107400  1
