# generated using pymatgen
data_LiAlVO4
_symmetry_space_group_name_H-M   'P 1'
_cell_length_a   8.72999115
_cell_length_b   8.72999115
_cell_length_c   8.72999122
_cell_angle_alpha   107.54200538
_cell_angle_beta   107.54200538
_cell_angle_gamma   107.54200430
_symmetry_Int_Tables_number   1
_chemical_formula_structural   LiAlVO4
_chemical_formula_sum   'Li6 Al6 V6 O24'
_cell_volume   545.69893225
_cell_formula_units_Z   6
loop_
 _symmetry_equiv_pos_site_id
 _symmetry_equiv_pos_as_xyz
  1  'x, y, z'
loop_
 _atom_site_type_symbol
 _atom_site_label
 _atom_site_symmetry_multiplicity
 _atom_site_fract_x
 _atom_site_fract_y
 _atom_site_fract_z
 _atom_site_occupancy
  Li  Li0  1  0.87262000  0.10106800  0.27394300  1
  Li  Li1  1  0.78694000  0.56290900  0.39141400  1
  Li  Li2  1  0.56290900  0.39141400  0.78694000  1
  Li  Li3  1  0.10106800  0.27394300  0.87262000  1
  Li  Li4  1  0.39141400  0.78694000  0.56290900  1
  Li  Li5  1  0.27394300  0.87262000  0.10106800  1
  Al  Al6  1  0.94553100  0.54193900  0.76639300  1
  Al  Al7  1  0.46543700  0.23678100  0.05357000  1
  Al  Al8  1  0.23678100  0.05357000  0.46543700  1
  Al  Al9  1  0.76639300  0.94553100  0.54193900  1
  Al  Al10  1  0.54193900  0.76639300  0.94553100  1
  Al  Al11  1  0.05357000  0.46543700  0.23678100  1
  V  V12  1  0.72292600  0.12802300  0.89939700  1
  V  V13  1  0.61077400  0.20278800  0.43311400  1
  V  V14  1  0.89939700  0.72292600  0.12802300  1
  V  V15  1  0.43311400  0.61077400  0.20278800  1
  V  V16  1  0.20278800  0.43311400  0.61077400  1
  V  V17  1  0.12802300  0.89939700  0.72292600  1
  O  O18  1  0.69252000  0.98898600  0.01944300  1
  O  O19  1  0.95442700  0.29645900  0.01454600  1
  O  O20  1  0.74842300  0.08246900  0.42908800  1
  O  O21  1  0.58712000  0.24922300  0.92290100  1
  O  O22  1  0.38087100  0.04707300  0.35803900  1
  O  O23  1  0.72044100  0.37993500  0.66214800  1
  O  O24  1  0.92290100  0.58712000  0.24922300  1
  O  O25  1  0.60602000  0.30820100  0.28043000  1
  O  O26  1  0.97001100  0.67036400  0.64265800  1
  O  O27  1  0.01454600  0.95442700  0.29645900  1
  O  O28  1  0.67036400  0.64265800  0.97001100  1
  O  O29  1  0.30820100  0.28043000  0.60602000  1
  O  O30  1  0.98898600  0.01944300  0.69252000  1
  O  O31  1  0.35803900  0.38087100  0.04707300  1
  O  O32  1  0.66214800  0.72044100  0.37993500  1
  O  O33  1  0.37993500  0.66214800  0.72044100  1
  O  O34  1  0.04707300  0.35803900  0.38087100  1
  O  O35  1  0.42908800  0.74842300  0.08246900  1
  O  O36  1  0.28043000  0.60602000  0.30820100  1
  O  O37  1  0.64265800  0.97001100  0.67036400  1
  O  O38  1  0.08246900  0.42908800  0.74842300  1
  O  O39  1  0.01944300  0.69252000  0.98898600  1
  O  O40  1  0.24922300  0.92290100  0.58712000  1
  O  O41  1  0.29645900  0.01454600  0.95442700  1
