# generated using pymatgen
data_Li24Ti11CrO36
_symmetry_space_group_name_H-M   'P 1'
_cell_length_a   8.85234387
_cell_length_b   8.85234387
_cell_length_c   11.81903208
_cell_angle_alpha   60.32025648
_cell_angle_beta   60.32025648
_cell_angle_gamma   59.75347800
_symmetry_Int_Tables_number   1
_chemical_formula_structural   Li24Ti11CrO36
_chemical_formula_sum   'Li24 Ti11 Cr1 O36'
_cell_volume   656.81869871
_cell_formula_units_Z   1
loop_
 _symmetry_equiv_pos_site_id
 _symmetry_equiv_pos_as_xyz
  1  'x, y, z'
loop_
 _atom_site_type_symbol
 _atom_site_label
 _atom_site_symmetry_multiplicity
 _atom_site_fract_x
 _atom_site_fract_y
 _atom_site_fract_z
 _atom_site_occupancy
  Li  Li0  1  0.82960600  0.17185200  0.74895400  1
  Li  Li1  1  0.83332000  0.50011700  0.49992400  1
  Li  Li2  1  0.49928000  0.16839000  0.24875100  1
  Li  Li3  1  0.49439700  0.83766200  0.25008200  1
  Li  Li4  1  0.49972000  0.16752300  0.00047300  1
  Li  Li5  1  0.16233800  0.50560300  0.74991800  1
  Li  Li6  1  0.50480600  0.49431300  0.75100400  1
  Li  Li7  1  0.49984000  0.16691600  0.74988700  1
  Li  Li8  1  0.16664100  0.83335900  0.50000000  1
  Li  Li9  1  0.17261000  0.16138400  0.24993400  1
  Li  Li10  1  0.16547400  0.83432800  0.25084100  1
  Li  Li11  1  0.16262600  0.50375800  0.24962600  1
  Li  Li12  1  0.16567200  0.83452600  0.74915900  1
  Li  Li13  1  0.83898500  0.82950700  0.24927600  1
  Li  Li14  1  0.83308400  0.50016000  0.25011300  1
  Li  Li15  1  0.82814800  0.17039400  0.25104600  1
  Li  Li16  1  0.83247700  0.50028000  0.99952700  1
  Li  Li17  1  0.49624200  0.83737400  0.75037400  1
  Li  Li18  1  0.83861600  0.82739000  0.75006600  1
  Li  Li19  1  0.83161000  0.50072000  0.75124900  1
  Li  Li20  1  0.49988300  0.16668000  0.50007600  1
  Li  Li21  1  0.50568700  0.49519400  0.24899600  1
  Li  Li22  1  0.16677400  0.83322600  0.00000000  1
  Li  Li23  1  0.17049300  0.16101500  0.75072400  1
  Ti  Ti24  1  0.50105500  0.83252700  0.49979800  1
  Ti  Ti25  1  0.49917200  0.50082800  0.50000000  1
  Ti  Ti26  1  0.16609500  0.16766100  0.49979100  1
  Ti  Ti27  1  0.16747300  0.49894500  0.50020200  1
  Ti  Ti28  1  0.16809500  0.49489400  0.00295800  1
  Ti  Ti29  1  0.16641200  0.16596400  0.99982500  1
  Ti  Ti30  1  0.83452200  0.16547800  0.50000000  1
  Ti  Ti31  1  0.83233900  0.83390500  0.50020900  1
  Ti  Ti32  1  0.83403600  0.83358800  0.00017500  1
  Ti  Ti33  1  0.83092200  0.16907800  0.00000000  1
  Ti  Ti34  1  0.50510600  0.83190500  0.99704200  1
  Cr  Cr35  1  0.49574100  0.50425900  0.00000000  1
  O  O36  1  0.66313900  0.32954400  0.61539900  1
  O  O37  1  0.64540000  0.66852500  0.38719300  1
  O  O38  1  0.68796100  0.99796400  0.11287600  1
  O  O39  1  0.35456700  0.66453200  0.61319000  1
  O  O40  1  0.66645300  0.33918400  0.88668500  1
  O  O41  1  0.33147500  0.35460000  0.61280700  1
  O  O42  1  0.33699100  0.00363000  0.38470200  1
  O  O43  1  0.33546800  0.64543300  0.38681000  1
  O  O44  1  0.33054200  0.35325600  0.11297000  1
  O  O45  1  0.32883400  0.99469900  0.11547500  1
  O  O46  1  0.02081800  0.33133500  0.61304500  1
  O  O47  1  0.34062300  0.64345500  0.88849000  1
  O  O48  1  0.99805300  0.02108400  0.61289500  1
  O  O49  1  0.99637000  0.66300900  0.61529800  1
  O  O50  1  0.31220300  0.33535900  0.88701400  1
  O  O51  1  0.00211700  0.31210600  0.38697900  1
  O  O52  1  0.00395400  0.67047400  0.38454100  1
  O  O53  1  0.97891600  0.00194700  0.38710500  1
  O  O54  1  0.02153600  0.33161500  0.11332000  1
  O  O55  1  0.99658400  0.66361300  0.11531800  1
  O  O56  1  0.99653400  0.02229500  0.11321500  1
  O  O57  1  0.68789400  0.99788300  0.61302100  1
  O  O58  1  0.00530100  0.67116600  0.88452500  1
  O  O59  1  0.00203600  0.31203900  0.88712400  1
  O  O60  1  0.66498000  0.68792700  0.61260200  1
  O  O61  1  0.97770500  0.00346600  0.88678500  1
  O  O62  1  0.67045600  0.33686100  0.38460100  1
  O  O63  1  0.66866500  0.97918200  0.38695500  1
  O  O64  1  0.66464100  0.68779700  0.11298600  1
  O  O65  1  0.66081600  0.33354700  0.11331500  1
  O  O66  1  0.66838500  0.97846400  0.88668000  1
  O  O67  1  0.32952600  0.99604600  0.61545900  1
  O  O68  1  0.64674400  0.66945800  0.88703000  1
  O  O69  1  0.31207300  0.33502000  0.38739800  1
  O  O70  1  0.35654500  0.65937700  0.11151000  1
  O  O71  1  0.33638700  0.00341600  0.88468200  1
