# generated using pymatgen
data_Li2Cr3CuO8
_symmetry_space_group_name_H-M   'P 1'
_cell_length_a   8.35802100
_cell_length_b   8.31477300
_cell_length_c   8.34729647
_cell_angle_alpha   89.96603696
_cell_angle_beta   90.00000000
_cell_angle_gamma   90.00000000
_symmetry_Int_Tables_number   1
_chemical_formula_structural   Li2Cr3CuO8
_chemical_formula_sum   'Li8 Cr12 Cu4 O32'
_cell_volume   580.09566122
_cell_formula_units_Z   4
loop_
 _symmetry_equiv_pos_site_id
 _symmetry_equiv_pos_as_xyz
  1  'x, y, z'
loop_
 _atom_site_type_symbol
 _atom_site_label
 _atom_site_symmetry_multiplicity
 _atom_site_fract_x
 _atom_site_fract_y
 _atom_site_fract_z
 _atom_site_occupancy
  Li  Li0  1  0.00107900  0.25290500  0.49892800  1
  Li  Li1  1  0.24893000  0.49782500  0.25333700  1
  Li  Li2  1  0.74893000  0.50217500  0.74666300  1
  Li  Li3  1  0.50107900  0.74709500  0.50107200  1
  Li  Li4  1  0.99899100  0.75199800  0.00347700  1
  Li  Li5  1  0.75116200  0.99789200  0.25090000  1
  Li  Li6  1  0.25116200  0.00210800  0.74910000  1
  Li  Li7  1  0.49899100  0.24800200  0.99652300  1
  Cr  Cr8  1  0.62701400  0.37293300  0.37516200  1
  Cr  Cr9  1  0.87434200  0.37137400  0.12533800  1
  Cr  Cr10  1  0.12381100  0.37602300  0.87860500  1
  Cr  Cr11  1  0.62381100  0.62397700  0.12139500  1
  Cr  Cr12  1  0.37434200  0.62862600  0.87466200  1
  Cr  Cr13  1  0.12701400  0.62706700  0.62483800  1
  Cr  Cr14  1  0.37700600  0.87463900  0.12838500  1
  Cr  Cr15  1  0.12580900  0.87860600  0.37679600  1
  Cr  Cr16  1  0.87595800  0.87930900  0.62560200  1
  Cr  Cr17  1  0.37595800  0.12069100  0.37439800  1
  Cr  Cr18  1  0.62580900  0.12139400  0.62320400  1
  Cr  Cr19  1  0.87700600  0.12536100  0.87161500  1
  Cu  Cu20  1  0.37442900  0.37546800  0.62525800  1
  Cu  Cu21  1  0.87442900  0.62453200  0.37474200  1
  Cu  Cu22  1  0.62493600  0.87356600  0.87513100  1
  Cu  Cu23  1  0.12493600  0.12643400  0.12486900  1
  O  O24  1  0.38782800  0.35225100  0.38218600  1
  O  O25  1  0.61543300  0.35559500  0.61506400  1
  O  O26  1  0.88589500  0.36454100  0.88814300  1
  O  O27  1  0.86271400  0.38413100  0.36084900  1
  O  O28  1  0.10348200  0.37327500  0.11482100  1
  O  O29  1  0.64151900  0.38345500  0.13564400  1
  O  O30  1  0.36441900  0.39581800  0.86589600  1
  O  O31  1  0.12839700  0.39890600  0.63907700  1
  O  O32  1  0.62839700  0.60109400  0.36092300  1
  O  O33  1  0.86441900  0.60418200  0.13410400  1
  O  O34  1  0.14151900  0.61654500  0.86435600  1
  O  O35  1  0.60348200  0.62672500  0.88517900  1
  O  O36  1  0.36271400  0.61586900  0.63915100  1
  O  O37  1  0.38589500  0.63545900  0.11185700  1
  O  O38  1  0.11543300  0.64440500  0.38493600  1
  O  O39  1  0.88782800  0.64774900  0.61781400  1
  O  O40  1  0.61386000  0.85903800  0.11714800  1
  O  O41  1  0.38086200  0.85475800  0.89193600  1
  O  O42  1  0.11562500  0.86148700  0.61226800  1
  O  O43  1  0.13739300  0.87984000  0.14895900  1
  O  O44  1  0.89068700  0.86866400  0.39667100  1
  O  O45  1  0.36318400  0.89154700  0.37056700  1
  O  O46  1  0.64239300  0.89367400  0.62891500  1
  O  O47  1  0.86641900  0.88459700  0.85457700  1
  O  O48  1  0.36641900  0.11540300  0.14542300  1
  O  O49  1  0.14239300  0.10632600  0.37108500  1
  O  O50  1  0.86318400  0.10845300  0.62943300  1
  O  O51  1  0.39068700  0.13133600  0.60332900  1
  O  O52  1  0.63739300  0.12016000  0.85104100  1
  O  O53  1  0.61562500  0.13851300  0.38773200  1
  O  O54  1  0.88086200  0.14524200  0.10806400  1
  O  O55  1  0.11386000  0.14096200  0.88285200  1
