# generated using pymatgen
data_LiTi(SiO3)2
_symmetry_space_group_name_H-M   'P 1'
_cell_length_a   5.22787400
_cell_length_b   8.73561700
_cell_length_c   18.60902400
_cell_angle_alpha   90.00000000
_cell_angle_beta   90.00000000
_cell_angle_gamma   90.00000000
_symmetry_Int_Tables_number   1
_chemical_formula_structural   LiTi(SiO3)2
_chemical_formula_sum   'Li8 Ti8 Si16 O48'
_cell_volume   849.85002718
_cell_formula_units_Z   8
loop_
 _symmetry_equiv_pos_site_id
 _symmetry_equiv_pos_as_xyz
  1  'x, y, z'
loop_
 _atom_site_type_symbol
 _atom_site_label
 _atom_site_symmetry_multiplicity
 _atom_site_fract_x
 _atom_site_fract_y
 _atom_site_fract_z
 _atom_site_occupancy
  Li  Li0  1  0.63359400  0.01658800  0.12232500  1
  Li  Li1  1  0.13359400  0.48341200  0.12232500  1
  Li  Li2  1  0.13359400  0.98341200  0.37767500  1
  Li  Li3  1  0.63359400  0.51658800  0.37767500  1
  Li  Li4  1  0.36640600  0.48341200  0.62232500  1
  Li  Li5  1  0.86640600  0.01658800  0.62232500  1
  Li  Li6  1  0.36640600  0.98341200  0.87767500  1
  Li  Li7  1  0.86640600  0.51658800  0.87767500  1
  Ti  Ti8  1  0.62781200  0.66009100  0.12457200  1
  Ti  Ti9  1  0.12781200  0.83990900  0.12457200  1
  Ti  Ti10  1  0.12781200  0.33990900  0.37542800  1
  Ti  Ti11  1  0.62781200  0.16009100  0.37542800  1
  Ti  Ti12  1  0.37218800  0.83990900  0.62457200  1
  Ti  Ti13  1  0.87218800  0.66009100  0.62457200  1
  Ti  Ti14  1  0.37218800  0.33990900  0.87542800  1
  Ti  Ti15  1  0.87218800  0.16009100  0.87542800  1
  Si  Si16  1  0.70771900  0.33854800  0.02824300  1
  Si  Si17  1  0.20771900  0.16145200  0.02824300  1
  Si  Si18  1  0.45143300  0.34315000  0.22513100  1
  Si  Si19  1  0.95143300  0.15685000  0.22513100  1
  Si  Si20  1  0.45143300  0.84315000  0.27486900  1
  Si  Si21  1  0.95143300  0.65685000  0.27486900  1
  Si  Si22  1  0.70771900  0.83854800  0.47175700  1
  Si  Si23  1  0.20771900  0.66145200  0.47175700  1
  Si  Si24  1  0.79228100  0.33854800  0.52824300  1
  Si  Si25  1  0.29228100  0.16145200  0.52824300  1
  Si  Si26  1  0.04856700  0.34315000  0.72513100  1
  Si  Si27  1  0.54856700  0.15685000  0.72513100  1
  Si  Si28  1  0.04856700  0.84315000  0.77486900  1
  Si  Si29  1  0.54856700  0.65685000  0.77486900  1
  Si  Si30  1  0.79228100  0.83854800  0.97175700  1
  Si  Si31  1  0.29228100  0.66145200  0.97175700  1
  O  O32  1  0.41042600  0.29774200  0.05354800  1
  O  O33  1  0.91042600  0.20225800  0.05354800  1
  O  O34  1  0.79180500  0.83705400  0.06092200  1
  O  O35  1  0.29180500  0.66294600  0.06092200  1
  O  O36  1  0.79677300  0.49525900  0.06694400  1
  O  O37  1  0.29677300  0.00474100  0.06694400  1
  O  O38  1  0.46146300  0.84017300  0.18610400  1
  O  O39  1  0.96146300  0.65982700  0.18610400  1
  O  O40  1  0.96023000  0.98930900  0.18885200  1
  O  O41  1  0.46023000  0.51069100  0.18885200  1
  O  O42  1  0.67840200  0.22897600  0.19574000  1
  O  O43  1  0.17840200  0.27102400  0.19574000  1
  O  O44  1  0.17840200  0.77102400  0.30426000  1
  O  O45  1  0.67840200  0.72897600  0.30426000  1
  O  O46  1  0.96023000  0.48930900  0.31114800  1
  O  O47  1  0.46023000  0.01069100  0.31114800  1
  O  O48  1  0.46146300  0.34017300  0.31389600  1
  O  O49  1  0.96146300  0.15982700  0.31389600  1
  O  O50  1  0.79677300  0.99525900  0.43305600  1
  O  O51  1  0.29677300  0.50474100  0.43305600  1
  O  O52  1  0.79180500  0.33705400  0.43907800  1
  O  O53  1  0.29180500  0.16294600  0.43907800  1
  O  O54  1  0.41042600  0.79774200  0.44645200  1
  O  O55  1  0.91042600  0.70225800  0.44645200  1
  O  O56  1  0.08957400  0.29774200  0.55354800  1
  O  O57  1  0.58957400  0.20225800  0.55354800  1
  O  O58  1  0.70819500  0.83705400  0.56092200  1
  O  O59  1  0.20819500  0.66294600  0.56092200  1
  O  O60  1  0.70322700  0.49525900  0.56694400  1
  O  O61  1  0.20322700  0.00474100  0.56694400  1
  O  O62  1  0.03853700  0.84017300  0.68610400  1
  O  O63  1  0.53853700  0.65982700  0.68610400  1
  O  O64  1  0.53977000  0.98930900  0.68885200  1
  O  O65  1  0.03977000  0.51069100  0.68885200  1
  O  O66  1  0.32159800  0.27102400  0.69574000  1
  O  O67  1  0.82159800  0.22897600  0.69574000  1
  O  O68  1  0.32159800  0.77102400  0.80426000  1
  O  O69  1  0.82159800  0.72897600  0.80426000  1
  O  O70  1  0.53977000  0.48930900  0.81114800  1
  O  O71  1  0.03977000  0.01069100  0.81114800  1
  O  O72  1  0.03853700  0.34017300  0.81389600  1
  O  O73  1  0.53853700  0.15982700  0.81389600  1
  O  O74  1  0.70322700  0.99525900  0.93305600  1
  O  O75  1  0.20322700  0.50474100  0.93305600  1
  O  O76  1  0.70819500  0.33705400  0.93907800  1
  O  O77  1  0.20819500  0.16294600  0.93907800  1
  O  O78  1  0.08957400  0.79774200  0.94645200  1
  O  O79  1  0.58957400  0.70225800  0.94645200  1
