# generated using pymatgen
data_Li9Cr4(BO3)8
_symmetry_space_group_name_H-M   'P 1'
_cell_length_a   6.01728700
_cell_length_b   8.94602656
_cell_length_c   9.47189377
_cell_angle_alpha   113.69107350
_cell_angle_beta   90.11323189
_cell_angle_gamma   90.12868146
_symmetry_Int_Tables_number   1
_chemical_formula_structural   Li9Cr4(BO3)8
_chemical_formula_sum   'Li9 Cr4 B8 O24'
_cell_volume   466.90621476
_cell_formula_units_Z   1
loop_
 _symmetry_equiv_pos_site_id
 _symmetry_equiv_pos_as_xyz
  1  'x, y, z'
loop_
 _atom_site_type_symbol
 _atom_site_label
 _atom_site_symmetry_multiplicity
 _atom_site_fract_x
 _atom_site_fract_y
 _atom_site_fract_z
 _atom_site_occupancy
  Li  Li0  1  0.29051100  0.13009600  0.92958000  1
  Li  Li1  1  0.06808700  0.29128700  0.82342900  1
  Li  Li2  1  0.25224300  0.14597900  0.41644400  1
  Li  Li3  1  0.72518200  0.37906700  0.49858300  1
  Li  Li4  1  0.25159700  0.61444600  0.98836800  1
  Li  Li5  1  0.74383500  0.38139900  0.01601100  1
  Li  Li6  1  0.24195400  0.60979400  0.48744400  1
  Li  Li7  1  0.58686700  0.72478400  0.66159700  1
  Li  Li8  1  0.91192000  0.72618600  0.15853000  1
  Cr  Cr9  1  0.53461700  0.22765900  0.71909100  1
  Cr  Cr10  1  0.03838000  0.76414900  0.77965600  1
  Cr  Cr11  1  0.45771300  0.76800000  0.27998800  1
  Cr  Cr12  1  0.96940000  0.22934700  0.21851000  1
  B  B13  1  0.72041800  0.04955400  0.92442600  1
  B  B14  1  0.78268800  0.05291900  0.42214800  1
  B  B15  1  0.34764200  0.45590900  0.69166500  1
  B  B16  1  0.84199500  0.53877400  0.80628600  1
  B  B17  1  0.15577200  0.45398500  0.18801700  1
  B  B18  1  0.65356200  0.54185500  0.30735400  1
  B  B19  1  0.22216200  0.94889800  0.58341100  1
  B  B20  1  0.27759300  0.94846500  0.08033200  1
  O  O21  1  0.60273100  0.17123800  0.89998800  1
  O  O22  1  0.25769800  0.10300600  0.70353100  1
  O  O23  1  0.72318500  0.08970900  0.57657200  1
  O  O24  1  0.90208600  0.17434800  0.40063500  1
  O  O25  1  0.22701900  0.09655100  0.19729800  1
  O  O26  1  0.78454900  0.39172000  0.81289600  1
  O  O27  1  0.33638800  0.42142900  0.82391400  1
  O  O28  1  0.77974600  0.08798000  0.07801500  1
  O  O29  1  0.43791300  0.32236300  0.56921800  1
  O  O30  1  0.72662000  0.39868700  0.30482300  1
  O  O31  1  0.95574100  0.65796800  0.92751400  1
  O  O32  1  0.15735200  0.42092600  0.31822200  1
  O  O33  1  0.81624800  0.57238100  0.67678400  1
  O  O34  1  0.07113400  0.32116600  0.05771100  1
  O  O35  1  0.29472500  0.60104700  0.68812100  1
  O  O36  1  0.53763400  0.66161500  0.42685800  1
  O  O37  1  0.23605400  0.92446200  0.93082800  1
  O  O38  1  0.67117700  0.58610500  0.18035300  1
  O  O39  1  0.20610300  0.60313800  0.18797500  1
  O  O40  1  0.76846100  0.90186500  0.81408200  1
  O  O41  1  0.12589000  0.82390800  0.60486700  1
  O  O42  1  0.29746400  0.93408900  0.43704400  1
  O  O43  1  0.73124400  0.90366800  0.31203500  1
  O  O44  1  0.36558000  0.82592000  0.11722300  1
