# generated using pymatgen
data_Li4FeO4
_symmetry_space_group_name_H-M   'P 1'
_cell_length_a   5.27330927
_cell_length_b   8.33118475
_cell_length_c   8.89270448
_cell_angle_alpha   71.27636950
_cell_angle_beta   88.42532210
_cell_angle_gamma   100.86183112
_symmetry_Int_Tables_number   1
_chemical_formula_structural   Li4FeO4
_chemical_formula_sum   'Li16 Fe4 O16'
_cell_volume   361.74890481
_cell_formula_units_Z   4
loop_
 _symmetry_equiv_pos_site_id
 _symmetry_equiv_pos_as_xyz
  1  'x, y, z'
loop_
 _atom_site_type_symbol
 _atom_site_label
 _atom_site_symmetry_multiplicity
 _atom_site_fract_x
 _atom_site_fract_y
 _atom_site_fract_z
 _atom_site_occupancy
  Li  Li0  1  0.66702700  0.46946400  0.22004000  1
  Li  Li1  1  0.16697500  0.96946200  0.72006500  1
  Li  Li2  1  0.33294400  0.53053500  0.77997300  1
  Li  Li3  1  0.83297800  0.03053300  0.27997400  1
  Li  Li4  1  0.85164600  0.63490800  0.87892100  1
  Li  Li5  1  0.35161500  0.13492600  0.37893400  1
  Li  Li6  1  0.14830700  0.36507700  0.12109600  1
  Li  Li7  1  0.64835500  0.86506600  0.62110800  1
  Li  Li8  1  0.88139000  0.82730500  0.10489900  1
  Li  Li9  1  0.38133400  0.32730200  0.60489400  1
  Li  Li10  1  0.11861000  0.17269900  0.89511800  1
  Li  Li11  1  0.61862400  0.67267800  0.39512600  1
  Li  Li12  1  0.87966400  0.46446400  0.67523700  1
  Li  Li13  1  0.37963300  0.96446800  0.17523100  1
  Li  Li14  1  0.12033300  0.53552500  0.32479300  1
  Li  Li15  1  0.62031200  0.03553900  0.82477600  1
  Fe  Fe16  1  0.17896000  0.77098200  0.48306600  1
  Fe  Fe17  1  0.32125200  0.72909100  0.01685500  1
  Fe  Fe18  1  0.67879400  0.27089800  0.98303700  1
  Fe  Fe19  1  0.82114100  0.22905900  0.51689200  1
  O  O20  1  0.51305900  0.34395100  0.80726300  1
  O  O21  1  0.01317300  0.84395800  0.30730100  1
  O  O22  1  0.48688400  0.65604400  0.19272100  1
  O  O23  1  0.98681800  0.15604800  0.69273800  1
  O  O24  1  0.46494500  0.26418000  0.14902000  1
  O  O25  1  0.96492700  0.76418300  0.64907800  1
  O  O26  1  0.53512000  0.73581600  0.85091200  1
  O  O27  1  0.03512100  0.23581900  0.35090300  1
  O  O28  1  0.76042100  0.05857400  0.05228300  1
  O  O29  1  0.26046200  0.55857900  0.55228000  1
  O  O30  1  0.23955200  0.94142000  0.94774100  1
  O  O31  1  0.73953600  0.44139300  0.44773500  1
  O  O32  1  0.99833800  0.40142000  0.90239300  1
  O  O33  1  0.49838100  0.90140900  0.40240200  1
  O  O34  1  0.00171400  0.59861200  0.09760100  1
  O  O35  1  0.50165500  0.09861300  0.59759400  1
