# generated using pymatgen
data_Li3Mn2Fe(BO3)3
_symmetry_space_group_name_H-M   'P 1'
_cell_length_a   3.17052300
_cell_length_b   8.25393200
_cell_length_c   14.31657373
_cell_angle_alpha   89.93673543
_cell_angle_beta   90.00000000
_cell_angle_gamma   90.00000000
_symmetry_Int_Tables_number   1
_chemical_formula_structural   Li3Mn2Fe(BO3)3
_chemical_formula_sum   'Li6 Mn4 Fe2 B6 O18'
_cell_volume   374.65421597
_cell_formula_units_Z   2
loop_
 _symmetry_equiv_pos_site_id
 _symmetry_equiv_pos_as_xyz
  1  'x, y, z'
loop_
 _atom_site_type_symbol
 _atom_site_label
 _atom_site_symmetry_multiplicity
 _atom_site_fract_x
 _atom_site_fract_y
 _atom_site_fract_z
 _atom_site_occupancy
  Li  Li0  1  0.50000000  0.70805700  0.99109800  1
  Li  Li1  1  0.50000000  0.65974200  0.35783700  1
  Li  Li2  1  0.50000000  0.63345700  0.65100300  1
  Li  Li3  1  0.50000000  0.20663600  0.49153300  1
  Li  Li4  1  0.50000000  0.15813600  0.85789800  1
  Li  Li5  1  0.50000000  0.13186000  0.15066400  1
  Mn  Mn6  1  0.00000000  0.86458700  0.50579100  1
  Mn  Mn7  1  0.00000000  0.36664300  0.00611200  1
  Mn  Mn8  1  0.00000000  0.32641000  0.31460900  1
  Mn  Mn9  1  0.00000000  0.30889000  0.67977000  1
  Fe  Fe10  1  0.00000000  0.82440200  0.81613600  1
  Fe  Fe11  1  0.00000000  0.81205300  0.17964400  1
  B  B12  1  0.50000000  0.99830800  0.66770500  1
  B  B13  1  0.00000000  0.99882700  0.99914000  1
  B  B14  1  0.50000000  0.99895800  0.33218900  1
  B  B15  1  0.50000000  0.50260200  0.16701400  1
  B  B16  1  0.00000000  0.49990900  0.50001300  1
  B  B17  1  0.50000000  0.50225500  0.83346700  1
  O  O18  1  0.50000000  0.98788800  0.42892900  1
  O  O19  1  0.50000000  0.98180700  0.76429200  1
  O  O20  1  0.50000000  0.86125900  0.61085200  1
  O  O21  1  0.50000000  0.85954100  0.27767200  1
  O  O22  1  0.00000000  0.84594900  0.95771200  1
  O  O23  1  0.50000000  0.65569000  0.12665500  1
  O  O24  1  0.50000000  0.65358500  0.79079800  1
  O  O25  1  0.00000000  0.63573300  0.44215400  1
  O  O26  1  0.00000000  0.51858600  0.59676400  1
  O  O27  1  0.50000000  0.49055400  0.93030500  1
  O  O28  1  0.50000000  0.48624300  0.26389100  1
  O  O29  1  0.50000000  0.36354600  0.11130800  1
  O  O30  1  0.50000000  0.36222200  0.77979200  1
  O  O31  1  0.00000000  0.34500000  0.46095600  1
  O  O32  1  0.50000000  0.15162700  0.62655500  1
  O  O33  1  0.50000000  0.15026000  0.28958900  1
  O  O34  1  0.00000000  0.13662100  0.94366500  1
  O  O35  1  0.00000000  0.01216000  0.09648900  1
