# generated using pymatgen
data_LiMn3(BO3)3
_symmetry_space_group_name_H-M   'P 1'
_cell_length_a   5.31386400
_cell_length_b   8.19776053
_cell_length_c   9.22963121
_cell_angle_alpha   106.24909005
_cell_angle_beta   106.14326920
_cell_angle_gamma   87.73326582
_symmetry_Int_Tables_number   1
_chemical_formula_structural   LiMn3(BO3)3
_chemical_formula_sum   'Li2 Mn6 B6 O18'
_cell_volume   370.45949844
_cell_formula_units_Z   2
loop_
 _symmetry_equiv_pos_site_id
 _symmetry_equiv_pos_as_xyz
  1  'x, y, z'
loop_
 _atom_site_type_symbol
 _atom_site_label
 _atom_site_symmetry_multiplicity
 _atom_site_fract_x
 _atom_site_fract_y
 _atom_site_fract_z
 _atom_site_occupancy
  Li  Li0  1  0.64420700  0.03933200  0.62766100  1
  Li  Li1  1  0.31299700  0.71174200  0.96828800  1
  Mn  Mn2  1  0.81578400  0.03019600  0.22133900  1
  Mn  Mn3  1  0.87184100  0.62616600  0.11951500  1
  Mn  Mn4  1  0.50502500  0.29706200  0.43764300  1
  Mn  Mn5  1  0.46772400  0.68892800  0.55316800  1
  Mn  Mn6  1  0.14117800  0.36472500  0.88378500  1
  Mn  Mn7  1  0.19173300  0.96327400  0.77994800  1
  B  B8  1  0.22654900  0.13844200  0.10784400  1
  B  B9  1  0.44059500  0.52822700  0.22189900  1
  B  B10  1  0.10233600  0.17184300  0.55061200  1
  B  B11  1  0.89591000  0.81469500  0.44818000  1
  B  B12  1  0.56947800  0.48117400  0.77851700  1
  B  B13  1  0.77212500  0.86816000  0.89660200  1
  O  O14  1  0.97447600  0.14579000  0.11350300  1
  O  O15  1  0.69834900  0.83865600  0.02444900  1
  O  O16  1  0.24775200  0.58165800  0.10954100  1
  O  O17  1  0.43735300  0.12496300  0.23238600  1
  O  O18  1  0.69042500  0.51017000  0.21258100  1
  O  O19  1  0.37372700  0.48329600  0.34176600  1
  O  O20  1  0.89938300  0.19568400  0.42693200  1
  O  O21  1  0.94895100  0.82371700  0.30847000  1
  O  O22  1  0.35989400  0.16905600  0.55150600  1
  O  O23  1  0.65358800  0.83550700  0.46530700  1
  O  O24  1  0.02637100  0.14669200  0.67718500  1
  O  O25  1  0.11344500  0.80029100  0.57082400  1
  O  O26  1  0.62483000  0.47497700  0.63594800  1
  O  O27  1  0.32779700  0.51255900  0.79675400  1
  O  O28  1  0.57895100  0.90731700  0.77743800  1
  O  O29  1  0.78363000  0.46988200  0.90367300  1
  O  O30  1  0.28341300  0.15173000  0.97155200  1
  O  O31  1  0.02368900  0.83958000  0.88672000  1
