# generated using pymatgen
data_LiCr4(PO4)3
_symmetry_space_group_name_H-M   'P 1'
_cell_length_a   6.46077700
_cell_length_b   9.97460300
_cell_length_c   16.34409200
_cell_angle_alpha   90.00000000
_cell_angle_beta   90.00000000
_cell_angle_gamma   90.00000000
_symmetry_Int_Tables_number   1
_chemical_formula_structural   LiCr4(PO4)3
_chemical_formula_sum   'Li4 Cr16 P12 O48'
_cell_volume   1053.27352703
_cell_formula_units_Z   4
loop_
 _symmetry_equiv_pos_site_id
 _symmetry_equiv_pos_as_xyz
  1  'x, y, z'
loop_
 _atom_site_type_symbol
 _atom_site_label
 _atom_site_symmetry_multiplicity
 _atom_site_fract_x
 _atom_site_fract_y
 _atom_site_fract_z
 _atom_site_occupancy
  Li  Li0  1  0.00000000  0.28290900  0.47156900  1
  Li  Li1  1  0.00000000  0.71709100  0.52843100  1
  Li  Li2  1  0.50000000  0.78290900  0.02843100  1
  Li  Li3  1  0.50000000  0.21709100  0.97156900  1
  Cr  Cr4  1  0.00000000  0.54212000  0.09830300  1
  Cr  Cr5  1  0.00000000  0.98118300  0.14405800  1
  Cr  Cr6  1  0.00000000  0.01881700  0.85594300  1
  Cr  Cr7  1  0.00000000  0.45788000  0.90169700  1
  Cr  Cr8  1  0.24894100  0.75398300  0.29538800  1
  Cr  Cr9  1  0.24894100  0.24601700  0.70461200  1
  Cr  Cr10  1  0.25105900  0.25398300  0.20461200  1
  Cr  Cr11  1  0.25105900  0.74601700  0.79538800  1
  Cr  Cr12  1  0.50000000  0.95788000  0.59830300  1
  Cr  Cr13  1  0.50000000  0.48118300  0.35594200  1
  Cr  Cr14  1  0.50000000  0.04212000  0.40169700  1
  Cr  Cr15  1  0.50000000  0.51881700  0.64405700  1
  Cr  Cr16  1  0.74894100  0.25398300  0.20461200  1
  Cr  Cr17  1  0.74894100  0.74601700  0.79538800  1
  Cr  Cr18  1  0.75105900  0.75398300  0.29538800  1
  Cr  Cr19  1  0.75105900  0.24601700  0.70461200  1
  P  P20  1  0.00000000  0.21492200  0.02743500  1
  P  P21  1  0.00000000  0.04574600  0.33546700  1
  P  P22  1  0.00000000  0.46562100  0.28987600  1
  P  P23  1  0.00000000  0.53437900  0.71012400  1
  P  P24  1  0.00000000  0.95425400  0.66453300  1
  P  P25  1  0.00000000  0.78507800  0.97256500  1
  P  P26  1  0.50000000  0.96562100  0.21012400  1
  P  P27  1  0.50000000  0.71492200  0.47256500  1
  P  P28  1  0.50000000  0.28507800  0.52743500  1
  P  P29  1  0.50000000  0.03437900  0.78987600  1
  P  P30  1  0.50000000  0.54574600  0.16453300  1
  P  P31  1  0.50000000  0.45425400  0.83546700  1
  O  O32  1  0.00000000  0.36922200  0.01367900  1
  O  O33  1  0.00000000  0.11674200  0.24539800  1
  O  O34  1  0.00000000  0.39859100  0.19925200  1
  O  O35  1  0.00000000  0.84866300  0.05687900  1
  O  O36  1  0.00000000  0.62129100  0.27631400  1
  O  O37  1  0.00000000  0.10962600  0.68213400  1
  O  O38  1  0.00000000  0.89037400  0.31786600  1
  O  O39  1  0.00000000  0.37870900  0.72368600  1
  O  O40  1  0.00000000  0.15133700  0.94312100  1
  O  O41  1  0.00000000  0.60140900  0.80074800  1
  O  O42  1  0.00000000  0.88325800  0.75460200  1
  O  O43  1  0.00000000  0.63077800  0.98632100  1
  O  O44  1  0.19256500  0.09104900  0.38090500  1
  O  O45  1  0.19256500  0.90895100  0.61909500  1
  O  O46  1  0.19537300  0.41474800  0.33117600  1
  O  O47  1  0.19537300  0.58525200  0.66882400  1
  O  O48  1  0.19828500  0.17496100  0.07642800  1
  O  O49  1  0.19828500  0.82503900  0.92357200  1
  O  O50  1  0.30171500  0.32503900  0.57642800  1
  O  O51  1  0.30171500  0.67496100  0.42357200  1
  O  O52  1  0.30462700  0.91474800  0.16882400  1
  O  O53  1  0.30462700  0.08525200  0.83117600  1
  O  O54  1  0.30743500  0.40895100  0.88090500  1
  O  O55  1  0.30743500  0.59104900  0.11909500  1
  O  O56  1  0.50000000  0.34866300  0.44312100  1
  O  O57  1  0.50000000  0.86922200  0.48632100  1
  O  O58  1  0.50000000  0.13077800  0.51367900  1
  O  O59  1  0.50000000  0.65133700  0.55687900  1
  O  O60  1  0.50000000  0.87870900  0.77631400  1
  O  O61  1  0.50000000  0.60962600  0.81786600  1
  O  O62  1  0.50000000  0.61674200  0.25460200  1
  O  O63  1  0.50000000  0.89859100  0.30074800  1
  O  O64  1  0.50000000  0.10140900  0.69925200  1
  O  O65  1  0.50000000  0.39037400  0.18213400  1
  O  O66  1  0.50000000  0.12129100  0.22368600  1
  O  O67  1  0.50000000  0.38325800  0.74539800  1
  O  O68  1  0.69256500  0.59104900  0.11909500  1
  O  O69  1  0.69256500  0.40895100  0.88090500  1
  O  O70  1  0.69537300  0.91474800  0.16882400  1
  O  O71  1  0.69537300  0.08525200  0.83117600  1
  O  O72  1  0.69828500  0.67496100  0.42357200  1
  O  O73  1  0.69828500  0.32503900  0.57642800  1
  O  O74  1  0.80171500  0.17496100  0.07642800  1
  O  O75  1  0.80171500  0.82503900  0.92357200  1
  O  O76  1  0.80462700  0.41474800  0.33117600  1
  O  O77  1  0.80462700  0.58525200  0.66882400  1
  O  O78  1  0.80743500  0.09104900  0.38090500  1
  O  O79  1  0.80743500  0.90895100  0.61909500  1
