# generated using pymatgen
data_Li10Ti2Fe3Co3O16
_symmetry_space_group_name_H-M   'P 1'
_cell_length_a   5.98625100
_cell_length_b   5.99196035
_cell_length_c   9.87155569
_cell_angle_alpha   90.14984350
_cell_angle_beta   90.31124213
_cell_angle_gamma   119.68132411
_symmetry_Int_Tables_number   1
_chemical_formula_structural   Li10Ti2Fe3Co3O16
_chemical_formula_sum   'Li10 Ti2 Fe3 Co3 O16'
_cell_volume   307.61764589
_cell_formula_units_Z   1
loop_
 _symmetry_equiv_pos_site_id
 _symmetry_equiv_pos_as_xyz
  1  'x, y, z'
loop_
 _atom_site_type_symbol
 _atom_site_label
 _atom_site_symmetry_multiplicity
 _atom_site_fract_x
 _atom_site_fract_y
 _atom_site_fract_z
 _atom_site_occupancy
  Li  Li0  1  0.00032900  0.99829400  0.97025100  1
  Li  Li1  1  0.99222700  0.99981400  0.47337500  1
  Li  Li2  1  0.80388900  0.60349600  0.03947300  1
  Li  Li3  1  0.60169400  0.79931500  0.54129600  1
  Li  Li4  1  0.81233100  0.19514800  0.04062900  1
  Li  Li5  1  0.66955500  0.33020400  0.25424600  1
  Li  Li6  1  0.19263600  0.80639900  0.53804000  1
  Li  Li7  1  0.32970900  0.66463500  0.75337100  1
  Li  Li8  1  0.39196500  0.19458000  0.03784800  1
  Li  Li9  1  0.19661800  0.39081000  0.53792000  1
  Ti  Ti10  1  0.35045000  0.68184900  0.01449100  1
  Ti  Ti11  1  0.68316200  0.34621300  0.51762800  1
  Fe  Fe12  1  0.16965500  0.83604600  0.27307100  1
  Fe  Fe13  1  0.17916000  0.34410000  0.27001300  1
  Fe  Fe14  1  0.34242400  0.17417600  0.77032600  1
  Co  Co15  1  0.66004100  0.83234600  0.27457900  1
  Co  Co16  1  0.83203300  0.66106300  0.77456800  1
  Co  Co17  1  0.83396100  0.17046900  0.77430900  1
  O  O18  1  0.99838200  0.01465900  0.16310300  1
  O  O19  1  0.00491500  0.00054900  0.66521200  1
  O  O20  1  0.81735600  0.65234300  0.41170400  1
  O  O21  1  0.65475800  0.82089700  0.90864800  1
  O  O22  1  0.49314400  0.97827500  0.13781900  1
  O  O23  1  0.97828700  0.48960200  0.63990900  1
  O  O24  1  0.48627300  0.50243900  0.14451400  1
  O  O25  1  0.32999700  0.65519100  0.39203900  1
  O  O26  1  0.50097500  0.48244600  0.64626200  1
  O  O27  1  0.66138300  0.32877000  0.89048400  1
  O  O28  1  0.82659800  0.17916100  0.40492900  1
  O  O29  1  0.18048100  0.83174000  0.90360600  1
  O  O30  1  0.02438800  0.50790300  0.14617900  1
  O  O31  1  0.50193700  0.02081000  0.64465000  1
  O  O32  1  0.33165800  0.17431200  0.39955800  1
  O  O33  1  0.18101900  0.33985300  0.90067000  1
