# generated using pymatgen
data_Li2V3BiO8
_symmetry_space_group_name_H-M   'P 1'
_cell_length_a   8.71215000
_cell_length_b   8.79877885
_cell_length_c   8.80335959
_cell_angle_alpha   89.98981681
_cell_angle_beta   89.94922797
_cell_angle_gamma   89.77499762
_symmetry_Int_Tables_number   1
_chemical_formula_structural   Li2V3BiO8
_chemical_formula_sum   'Li8 V12 Bi4 O32'
_cell_volume   674.82732884
_cell_formula_units_Z   4
loop_
 _symmetry_equiv_pos_site_id
 _symmetry_equiv_pos_as_xyz
  1  'x, y, z'
loop_
 _atom_site_type_symbol
 _atom_site_label
 _atom_site_symmetry_multiplicity
 _atom_site_fract_x
 _atom_site_fract_y
 _atom_site_fract_z
 _atom_site_occupancy
  Li  Li0  1  0.00256700  0.00034100  0.99818600  1
  Li  Li1  1  0.24857800  0.75010300  0.25021500  1
  Li  Li2  1  0.74733500  0.24695300  0.25429600  1
  Li  Li3  1  0.50259500  0.00061600  0.49863900  1
  Li  Li4  1  0.99678800  0.50296100  0.50756200  1
  Li  Li5  1  0.75074200  0.74718100  0.74688700  1
  Li  Li6  1  0.25370000  0.25500500  0.75445300  1
  Li  Li7  1  0.49814100  0.49609200  0.99273900  1
  V  V8  1  0.62622600  0.85750800  0.10384100  1
  V  V9  1  0.85266800  0.60237300  0.12594900  1
  V  V10  1  0.10694900  0.37251000  0.14533800  1
  V  V11  1  0.60938300  0.62514500  0.35315200  1
  V  V12  1  0.35663700  0.38745500  0.37546000  1
  V  V13  1  0.12449400  0.14751100  0.39578100  1
  V  V14  1  0.37128200  0.63889500  0.60678600  1
  V  V15  1  0.14621900  0.89648000  0.62138600  1
  V  V16  1  0.89886600  0.12565500  0.64542200  1
  V  V17  1  0.39359200  0.87369500  0.85667500  1
  V  V18  1  0.64173800  0.11089100  0.87302800  1
  V  V19  1  0.87999600  0.36128800  0.88826600  1
  Bi  Bi20  1  0.37423500  0.12091800  0.12103300  1
  Bi  Bi21  1  0.87640800  0.88103200  0.37696900  1
  Bi  Bi22  1  0.62906600  0.37619000  0.62147200  1
  Bi  Bi23  1  0.12547800  0.62934600  0.87998200  1
  O  O24  1  0.40484500  0.86120700  0.09609100  1
  O  O25  1  0.64269800  0.08373400  0.09581600  1
  O  O26  1  0.88570700  0.37652100  0.12229600  1
  O  O27  1  0.84477700  0.83477600  0.10952400  1
  O  O28  1  0.08587900  0.60745100  0.13651200  1
  O  O29  1  0.62397000  0.62667300  0.12980600  1
  O  O30  1  0.32645200  0.39041900  0.14494000  1
  O  O31  1  0.11136600  0.14903000  0.16406100  1
  O  O32  1  0.60949400  0.85087600  0.33360800  1
  O  O33  1  0.82025000  0.60627600  0.36757100  1
  O  O34  1  0.12588000  0.37620000  0.37001800  1
  O  O35  1  0.58598200  0.39210200  0.36023800  1
  O  O36  1  0.36730400  0.17766700  0.39145200  1
  O  O37  1  0.38285600  0.61224700  0.37484100  1
  O  O38  1  0.14003000  0.91736100  0.39551800  1
  O  O39  1  0.88223900  0.13351300  0.41681500  1
  O  O40  1  0.59327000  0.63983400  0.58702600  1
  O  O41  1  0.35726700  0.41737800  0.60135300  1
  O  O42  1  0.12714700  0.12204300  0.62238100  1
  O  O43  1  0.15504200  0.66339900  0.60583000  1
  O  O44  1  0.92743500  0.88327700  0.63707800  1
  O  O45  1  0.36350500  0.87233500  0.62190800  1
  O  O46  1  0.66168000  0.10854500  0.65905500  1
  O  O47  1  0.88977800  0.36428900  0.66403800  1
  O  O48  1  0.38740700  0.64359500  0.83213000  1
  O  O49  1  0.16380300  0.88954500  0.85476100  1
  O  O50  1  0.87429300  0.13789700  0.87348000  1
  O  O51  1  0.41442600  0.10800700  0.86624300  1
  O  O52  1  0.64565300  0.33315300  0.88887400  1
  O  O53  1  0.62414100  0.87927300  0.87892900  1
  O  O54  1  0.85675300  0.57398100  0.88855500  1
  O  O55  1  0.10512800  0.36111200  0.91573200  1
