# generated using pymatgen
data_LiV2(PO4)3
_symmetry_space_group_name_H-M   'P 1'
_cell_length_a   9.52581837
_cell_length_b   9.52581837
_cell_length_c   8.01009830
_cell_angle_alpha   74.41193553
_cell_angle_beta   74.41193553
_cell_angle_gamma   37.54168407
_symmetry_Int_Tables_number   1
_chemical_formula_structural   LiV2(PO4)3
_chemical_formula_sum   'Li2 V4 P6 O24'
_cell_volume   424.68306366
_cell_formula_units_Z   2
loop_
 _symmetry_equiv_pos_site_id
 _symmetry_equiv_pos_as_xyz
  1  'x, y, z'
loop_
 _atom_site_type_symbol
 _atom_site_label
 _atom_site_symmetry_multiplicity
 _atom_site_fract_x
 _atom_site_fract_y
 _atom_site_fract_z
 _atom_site_occupancy
  Li  Li0  1  0.50000000  0.50000000  0.00000000  1
  Li  Li1  1  0.50000000  0.50000000  0.50000000  1
  V  V2  1  0.70249500  0.02927300  0.09405200  1
  V  V3  1  0.02927300  0.70249500  0.59405200  1
  V  V4  1  0.97072700  0.29750500  0.40594800  1
  V  V5  1  0.29750500  0.97072700  0.90594800  1
  P  P6  1  0.14559300  0.50147300  0.22410700  1
  P  P7  1  0.50147300  0.14559300  0.72410700  1
  P  P8  1  0.49852700  0.85440700  0.27589300  1
  P  P9  1  0.85440700  0.49852700  0.77589300  1
  P  P10  1  0.94968500  0.05031500  0.75000000  1
  P  P11  1  0.05031500  0.94968500  0.25000000  1
  O  O12  1  0.77153600  0.17205800  0.90871900  1
  O  O13  1  0.03795800  0.82899600  0.73602400  1
  O  O14  1  0.17205800  0.77153600  0.40871900  1
  O  O15  1  0.40100700  0.34907900  0.16398300  1
  O  O16  1  0.82899600  0.03795800  0.23602400  1
  O  O17  1  0.07459300  0.58115500  0.40800900  1
  O  O18  1  0.00887200  0.71006700  0.08354100  1
  O  O19  1  0.34907900  0.40100700  0.66398300  1
  O  O20  1  0.58115500  0.07459300  0.90800900  1
  O  O21  1  0.71006700  0.00887200  0.58354100  1
  O  O22  1  0.61721600  0.90741500  0.25630600  1
  O  O23  1  0.09258500  0.38278400  0.24369400  1
  O  O24  1  0.90741500  0.61721600  0.75630600  1
  O  O25  1  0.38278400  0.09258500  0.74369400  1
  O  O26  1  0.28993300  0.99112800  0.41645900  1
  O  O27  1  0.41884500  0.92540700  0.09199100  1
  O  O28  1  0.65092100  0.59899300  0.33601700  1
  O  O29  1  0.99112800  0.28993300  0.91645900  1
  O  O30  1  0.92540700  0.41884500  0.59199100  1
  O  O31  1  0.17100400  0.96204200  0.76397600  1
  O  O32  1  0.59899300  0.65092100  0.83601700  1
  O  O33  1  0.82794200  0.22846400  0.59128100  1
  O  O34  1  0.96204200  0.17100400  0.26397600  1
  O  O35  1  0.22846400  0.82794200  0.09128100  1
