# generated using pymatgen
data_Li7Mn3(WO8)2
_symmetry_space_group_name_H-M   'P 1'
_cell_length_a   5.90760436
_cell_length_b   5.90760436
_cell_length_c   9.65178665
_cell_angle_alpha   89.83414023
_cell_angle_beta   89.83414023
_cell_angle_gamma   59.49062151
_symmetry_Int_Tables_number   1
_chemical_formula_structural   Li7Mn3(WO8)2
_chemical_formula_sum   'Li7 Mn3 W2 O16'
_cell_volume   290.20614915
_cell_formula_units_Z   1
loop_
 _symmetry_equiv_pos_site_id
 _symmetry_equiv_pos_as_xyz
  1  'x, y, z'
loop_
 _atom_site_type_symbol
 _atom_site_label
 _atom_site_symmetry_multiplicity
 _atom_site_fract_x
 _atom_site_fract_y
 _atom_site_fract_z
 _atom_site_occupancy
  Li  Li0  1  0.82673800  0.33503200  0.20747900  1
  Li  Li1  1  0.67390300  0.67390300  0.90315300  1
  Li  Li2  1  0.99304600  0.99304600  0.99768500  1
  Li  Li3  1  0.99821900  0.99821900  0.48416000  1
  Li  Li4  1  0.33503200  0.82673800  0.20747900  1
  Li  Li5  1  0.17062600  0.17062600  0.71517000  1
  Li  Li6  1  0.33379100  0.33379100  0.40841100  1
  Mn  Mn7  1  0.82114100  0.82114100  0.23285700  1
  Mn  Mn8  1  0.66009400  0.16333300  0.71660200  1
  Mn  Mn9  1  0.16333300  0.66009400  0.71660200  1
  W  W10  1  0.64683900  0.64683900  0.48495900  1
  W  W11  1  0.32859100  0.32859100  0.99237700  1
  O  O12  1  0.82795600  0.33760900  0.59016000  1
  O  O13  1  0.51722500  0.51722500  0.35632000  1
  O  O14  1  0.69233800  0.69233800  0.11200800  1
  O  O15  1  0.98338300  0.98338300  0.29223900  1
  O  O16  1  0.99295500  0.99295500  0.80520800  1
  O  O17  1  0.33760900  0.82795600  0.59016000  1
  O  O18  1  0.96143500  0.53804900  0.35560600  1
  O  O19  1  0.53804900  0.96143500  0.35560600  1
  O  O20  1  0.16907200  0.16907200  0.07331000  1
  O  O21  1  0.83480500  0.83480500  0.60323200  1
  O  O22  1  0.50141800  0.04340300  0.84228300  1
  O  O23  1  0.04340300  0.50141800  0.84228300  1
  O  O24  1  0.34482800  0.34482800  0.61208600  1
  O  O25  1  0.64925700  0.17166800  0.08863200  1
  O  O26  1  0.48345000  0.48345000  0.83312300  1
  O  O27  1  0.17166800  0.64925700  0.08863200  1
