# generated using pymatgen
data_Li4Mn3Sn(PO4)4
_symmetry_space_group_name_H-M   'P 1'
_cell_length_a   7.94030328
_cell_length_b   10.85013383
_cell_length_c   7.94020806
_cell_angle_alpha   89.83540022
_cell_angle_beta   75.13709230
_cell_angle_gamma   90.16563770
_symmetry_Int_Tables_number   1
_chemical_formula_structural   Li4Mn3Sn(PO4)4
_chemical_formula_sum   'Li8 Mn6 Sn2 P8 O32'
_cell_volume   661.18059677
_cell_formula_units_Z   2
loop_
 _symmetry_equiv_pos_site_id
 _symmetry_equiv_pos_as_xyz
  1  'x, y, z'
loop_
 _atom_site_type_symbol
 _atom_site_label
 _atom_site_symmetry_multiplicity
 _atom_site_fract_x
 _atom_site_fract_y
 _atom_site_fract_z
 _atom_site_occupancy
  Li  Li0  1  0.50188000  0.99013900  0.50302300  1
  Li  Li1  1  0.00187900  0.99015300  0.00306900  1
  Li  Li2  1  0.74692900  0.99015300  0.74812200  1
  Li  Li3  1  0.24697700  0.99014100  0.24811700  1
  Li  Li4  1  0.49929800  0.51163100  0.99496700  1
  Li  Li5  1  0.99929300  0.51162800  0.49498500  1
  Li  Li6  1  0.25501600  0.51162700  0.75070300  1
  Li  Li7  1  0.75503000  0.51163400  0.25070100  1
  Mn  Mn8  1  0.11151300  0.21403600  0.63848100  1
  Mn  Mn9  1  0.39347200  0.78516000  0.85653500  1
  Mn  Mn10  1  0.89346400  0.78517600  0.35652700  1
  Mn  Mn11  1  0.38946900  0.72384800  0.36052100  1
  Mn  Mn12  1  0.88946300  0.72388900  0.86054800  1
  Mn  Mn13  1  0.61151200  0.21412200  0.13849500  1
  Sn  Sn14  1  0.61510600  0.28366800  0.63489200  1
  Sn  Sn15  1  0.11510600  0.28366400  0.13489400  1
  P  P16  1  0.17317100  0.60421700  0.07682800  1
  P  P17  1  0.67317100  0.60421500  0.57681600  1
  P  P18  1  0.33632700  0.07472100  0.91373800  1
  P  P19  1  0.83626600  0.07472800  0.41369000  1
  P  P20  1  0.67097800  0.90698000  0.07902000  1
  P  P21  1  0.17098800  0.90696600  0.57901300  1
  P  P22  1  0.81728900  0.41486000  0.93271300  1
  P  P23  1  0.31728500  0.41486600  0.43271600  1
  O  O24  1  0.23831000  0.47264300  0.01168400  1
  O  O25  1  0.73834500  0.47265300  0.51165600  1
  O  O26  1  0.47409800  0.39596800  0.27590100  1
  O  O27  1  0.97409800  0.39596800  0.77590000  1
  O  O28  1  0.51194600  0.90170800  0.23805400  1
  O  O29  1  0.01195500  0.90169400  0.73804500  1
  O  O30  1  0.26399600  0.94600400  0.98618200  1
  O  O31  1  0.76381700  0.94600800  0.48600500  1
  O  O32  1  0.73199300  0.04021400  0.01800600  1
  O  O33  1  0.23200200  0.04020200  0.51799600  1
  O  O34  1  0.49439000  0.06442800  0.75561600  1
  O  O35  1  0.99438100  0.06442800  0.25561700  1
  O  O36  1  0.51402100  0.60384600  0.73597300  1
  O  O37  1  0.01402500  0.60385300  0.23597500  1
  O  O38  1  0.77015000  0.55204300  0.97984900  1
  O  O39  1  0.27019600  0.55206100  0.47980200  1
  O  O40  1  0.13736000  0.67062800  0.91357500  1
  O  O41  1  0.63735400  0.67062800  0.41357600  1
  O  O42  1  0.33642100  0.67062500  0.11263900  1
  O  O43  1  0.83638100  0.67067000  0.61266800  1
  O  O44  1  0.17939800  0.14544800  0.87035300  1
  O  O45  1  0.67938600  0.14552100  0.37027900  1
  O  O46  1  0.37972400  0.14552100  0.07061900  1
  O  O47  1  0.87965800  0.14544800  0.57063500  1
  O  O48  1  0.63780500  0.83835300  0.91554100  1
  O  O49  1  0.13781800  0.83834800  0.41553400  1
  O  O50  1  0.83445800  0.83835500  0.11219400  1
  O  O51  1  0.33446500  0.83834700  0.61218100  1
  O  O52  1  0.64573600  0.35154100  0.91014700  1
  O  O53  1  0.14573600  0.35154200  0.41015100  1
  O  O54  1  0.83985100  0.35154200  0.10426200  1
  O  O55  1  0.33984800  0.35154200  0.60426300  1
