# generated using pymatgen
data_Li5VO4F
_symmetry_space_group_name_H-M   'P 1'
_cell_length_a   5.13703222
_cell_length_b   5.13703222
_cell_length_c   5.81470057
_cell_angle_alpha   73.65085018
_cell_angle_beta   73.65085018
_cell_angle_gamma   46.07587587
_symmetry_Int_Tables_number   1
_chemical_formula_structural   Li5VO4F
_chemical_formula_sum   'Li5 V1 O4 F1'
_cell_volume   105.22254041
_cell_formula_units_Z   1
loop_
 _symmetry_equiv_pos_site_id
 _symmetry_equiv_pos_as_xyz
  1  'x, y, z'
loop_
 _atom_site_type_symbol
 _atom_site_label
 _atom_site_symmetry_multiplicity
 _atom_site_fract_x
 _atom_site_fract_y
 _atom_site_fract_z
 _atom_site_occupancy
  Li  Li0  1  0.67001200  0.67001200  0.11090400  1
  Li  Li1  1  0.69578000  0.69578000  0.65711900  1
  Li  Li2  1  0.28997600  0.28997600  0.30366800  1
  Li  Li3  1  0.31686600  0.31686600  0.85513600  1
  Li  Li4  1  0.98622000  0.98622000  0.47849300  1
  V  V5  1  0.97652700  0.97652700  0.01507600  1
  O  O6  1  0.13314300  0.13314300  0.14782100  1
  O  O7  1  0.49059500  0.49059500  0.98476700  1
  O  O8  1  0.82552000  0.82552000  0.31396900  1
  O  O9  1  0.85412900  0.85412900  0.81071400  1
  F  F10  1  0.15987200  0.15987200  0.64883700  1
