# generated using pymatgen
data_Li4Fe2Si3O10
_symmetry_space_group_name_H-M   'P 1'
_cell_length_a   5.36603382
_cell_length_b   5.36603382
_cell_length_c   17.21453131
_cell_angle_alpha   81.84827261
_cell_angle_beta   81.84827261
_cell_angle_gamma   60.77917154
_symmetry_Int_Tables_number   1
_chemical_formula_structural   Li4Fe2Si3O10
_chemical_formula_sum   'Li8 Fe4 Si6 O20'
_cell_volume   426.71804853
_cell_formula_units_Z   2
loop_
 _symmetry_equiv_pos_site_id
 _symmetry_equiv_pos_as_xyz
  1  'x, y, z'
loop_
 _atom_site_type_symbol
 _atom_site_label
 _atom_site_symmetry_multiplicity
 _atom_site_fract_x
 _atom_site_fract_y
 _atom_site_fract_z
 _atom_site_occupancy
  Li  Li0  1  0.82699500  0.68265000  0.94819700  1
  Li  Li1  1  0.57716200  0.79411900  0.77170800  1
  Li  Li2  1  0.68265000  0.82699500  0.44819700  1
  Li  Li3  1  0.79411900  0.57716200  0.27170800  1
  Li  Li4  1  0.20588100  0.42283800  0.72829200  1
  Li  Li5  1  0.31735000  0.17300500  0.55180300  1
  Li  Li6  1  0.42283800  0.20588100  0.22829200  1
  Li  Li7  1  0.17300500  0.31735000  0.05180300  1
  Fe  Fe8  1  0.19670000  0.01196700  0.91587100  1
  Fe  Fe9  1  0.01196700  0.19670000  0.41587100  1
  Fe  Fe10  1  0.98803300  0.80330000  0.58412900  1
  Fe  Fe11  1  0.80330000  0.98803300  0.08412900  1
  Si  Si12  1  0.66071100  0.46713500  0.59876400  1
  Si  Si13  1  0.88567700  0.11432300  0.75000000  1
  Si  Si14  1  0.53286500  0.33928900  0.90123600  1
  Si  Si15  1  0.46713500  0.66071100  0.09876400  1
  Si  Si16  1  0.11432300  0.88567700  0.25000000  1
  Si  Si17  1  0.33928900  0.53286500  0.40123600  1
  O  O18  1  0.91832100  0.83715100  0.71313400  1
  O  O19  1  0.83715100  0.91832100  0.21313400  1
  O  O20  1  0.61902500  0.78401200  0.56535400  1
  O  O21  1  0.55651100  0.63646800  0.89034100  1
  O  O22  1  0.78096000  0.40917300  0.68777500  1
  O  O23  1  0.78359300  0.07984900  0.95271700  1
  O  O24  1  0.92015100  0.21640700  0.54728300  1
  O  O25  1  0.78401200  0.61902500  0.06535400  1
  O  O26  1  0.63646800  0.55651100  0.39034100  1
  O  O27  1  0.59082700  0.21904000  0.81222500  1
  O  O28  1  0.40917300  0.78096000  0.18777500  1
  O  O29  1  0.36353200  0.44348900  0.60965900  1
  O  O30  1  0.21598800  0.38097500  0.93464600  1
  O  O31  1  0.07984900  0.78359300  0.45271700  1
  O  O32  1  0.21640700  0.92015100  0.04728300  1
  O  O33  1  0.21904000  0.59082700  0.31222500  1
  O  O34  1  0.44348900  0.36353200  0.10965900  1
  O  O35  1  0.38097500  0.21598800  0.43464600  1
  O  O36  1  0.16284900  0.08167900  0.78686600  1
  O  O37  1  0.08167900  0.16284900  0.28686600  1
