# generated using pymatgen
data_Li4Si3(NiO5)2
_symmetry_space_group_name_H-M   'P 1'
_cell_length_a   5.30826046
_cell_length_b   5.30826046
_cell_length_c   16.68138250
_cell_angle_alpha   82.92518220
_cell_angle_beta   82.92518220
_cell_angle_gamma   61.97234312
_symmetry_Int_Tables_number   1
_chemical_formula_structural   Li4Si3(NiO5)2
_chemical_formula_sum   'Li8 Si6 Ni4 O20'
_cell_volume   410.61135976
_cell_formula_units_Z   2
loop_
 _symmetry_equiv_pos_site_id
 _symmetry_equiv_pos_as_xyz
  1  'x, y, z'
loop_
 _atom_site_type_symbol
 _atom_site_label
 _atom_site_symmetry_multiplicity
 _atom_site_fract_x
 _atom_site_fract_y
 _atom_site_fract_z
 _atom_site_occupancy
  Li  Li0  1  0.83111100  0.67786800  0.94659100  1
  Li  Li1  1  0.57636700  0.79321200  0.76979100  1
  Li  Li2  1  0.67786800  0.83111100  0.44659100  1
  Li  Li3  1  0.79321200  0.57636700  0.26979100  1
  Li  Li4  1  0.20678800  0.42363300  0.73020900  1
  Li  Li5  1  0.32213200  0.16888900  0.55340900  1
  Li  Li6  1  0.42363300  0.20678800  0.23020900  1
  Li  Li7  1  0.16888900  0.32213200  0.05340900  1
  Si  Si8  1  0.66180800  0.46956500  0.59805700  1
  Si  Si9  1  0.88681700  0.11318300  0.75000000  1
  Si  Si10  1  0.53043500  0.33819200  0.90194300  1
  Si  Si11  1  0.46956500  0.66180800  0.09805700  1
  Si  Si12  1  0.11318300  0.88681700  0.25000000  1
  Si  Si13  1  0.33819200  0.53043500  0.40194300  1
  Ni  Ni14  1  0.19365200  0.00069700  0.91901600  1
  Ni  Ni15  1  0.00069700  0.19365200  0.41901600  1
  Ni  Ni16  1  0.99930300  0.80634800  0.58098400  1
  Ni  Ni17  1  0.80634800  0.99930300  0.08098400  1
  O  O18  1  0.92338900  0.84019400  0.70736900  1
  O  O19  1  0.84019400  0.92338900  0.20736900  1
  O  O20  1  0.63020800  0.78335900  0.56551300  1
  O  O21  1  0.55306300  0.63751800  0.88994300  1
  O  O22  1  0.79081300  0.40967300  0.68888600  1
  O  O23  1  0.78400200  0.08743800  0.95494500  1
  O  O24  1  0.91256200  0.21599800  0.54505500  1
  O  O25  1  0.78335900  0.63020800  0.06551300  1
  O  O26  1  0.63751800  0.55306300  0.38994300  1
  O  O27  1  0.59032700  0.20918700  0.81111400  1
  O  O28  1  0.40967300  0.79081300  0.18888600  1
  O  O29  1  0.36248200  0.44693700  0.61005700  1
  O  O30  1  0.21664100  0.36979200  0.93448700  1
  O  O31  1  0.08743800  0.78400200  0.45494500  1
  O  O32  1  0.21599800  0.91256200  0.04505500  1
  O  O33  1  0.20918700  0.59032700  0.31111400  1
  O  O34  1  0.44693700  0.36248200  0.11005700  1
  O  O35  1  0.36979200  0.21664100  0.43448700  1
  O  O36  1  0.15980600  0.07661100  0.79263100  1
  O  O37  1  0.07661100  0.15980600  0.29263100  1
