# generated using pymatgen
data_LiNiPO4
_symmetry_space_group_name_H-M   'P 1'
_cell_length_a   7.71743700
_cell_length_b   8.58613300
_cell_length_c   17.22887228
_cell_angle_alpha   62.20656333
_cell_angle_beta   90.00000000
_cell_angle_gamma   90.00000000
_symmetry_Int_Tables_number   1
_chemical_formula_structural   LiNiPO4
_chemical_formula_sum   'Li12 Ni12 P12 O48'
_cell_volume   1009.93024070
_cell_formula_units_Z   12
loop_
 _symmetry_equiv_pos_site_id
 _symmetry_equiv_pos_as_xyz
  1  'x, y, z'
loop_
 _atom_site_type_symbol
 _atom_site_label
 _atom_site_symmetry_multiplicity
 _atom_site_fract_x
 _atom_site_fract_y
 _atom_site_fract_z
 _atom_site_occupancy
  Li  Li0  1  0.46750900  0.20929300  0.05984000  1
  Li  Li1  1  0.53904200  0.85237700  0.40695300  1
  Li  Li2  1  0.33967400  0.50125000  0.75448500  1
  Li  Li3  1  0.83967400  0.49875000  0.74551500  1
  Li  Li4  1  0.03904200  0.14762300  0.09304700  1
  Li  Li5  1  0.96750900  0.79070700  0.44016000  1
  Li  Li6  1  0.03249100  0.20929300  0.55984000  1
  Li  Li7  1  0.96095800  0.85237700  0.90695300  1
  Li  Li8  1  0.16032600  0.50125000  0.25448500  1
  Li  Li9  1  0.66032600  0.49875000  0.24551500  1
  Li  Li10  1  0.46095800  0.14762300  0.59304700  1
  Li  Li11  1  0.53249100  0.79070700  0.94016000  1
  Ni  Ni12  1  0.76107400  0.87390300  0.58894500  1
  Ni  Ni13  1  0.73006800  0.17505700  0.22862800  1
  Ni  Ni14  1  0.77407500  0.45730700  0.92235300  1
  Ni  Ni15  1  0.27407500  0.54269300  0.57764700  1
  Ni  Ni16  1  0.23006800  0.82494300  0.27137200  1
  Ni  Ni17  1  0.26107400  0.12609700  0.91105500  1
  Ni  Ni18  1  0.73892600  0.87390300  0.08894500  1
  Ni  Ni19  1  0.76993200  0.17505700  0.72862800  1
  Ni  Ni20  1  0.72592500  0.45730700  0.42235300  1
  Ni  Ni21  1  0.22592500  0.54269300  0.07764700  1
  Ni  Ni22  1  0.26993200  0.82494300  0.77137200  1
  Ni  Ni23  1  0.23892600  0.12609700  0.41105500  1
  P  P24  1  0.17173800  0.86453100  0.59171400  1
  P  P25  1  0.32356400  0.18389600  0.22403900  1
  P  P26  1  0.17615400  0.45665500  0.92957900  1
  P  P27  1  0.67615400  0.54334500  0.57042100  1
  P  P28  1  0.82356400  0.81610400  0.27596100  1
  P  P29  1  0.67173800  0.13546900  0.90828600  1
  P  P30  1  0.32826200  0.86453100  0.09171400  1
  P  P31  1  0.17643600  0.18389600  0.72403900  1
  P  P32  1  0.32384600  0.45665500  0.42957900  1
  P  P33  1  0.82384600  0.54334500  0.07042100  1
  P  P34  1  0.67643600  0.81610400  0.77596100  1
  P  P35  1  0.82826200  0.13546900  0.40828600  1
  O  O36  1  0.00244600  0.07498700  0.38721600  1
  O  O37  1  0.85856700  0.34454400  0.12762300  1
  O  O38  1  0.71857200  0.96620000  0.46252200  1
  O  O39  1  0.76889000  0.63974500  0.79781800  1
  O  O40  1  0.29190700  0.41873600  0.01057400  1
  O  O41  1  0.49877400  0.22445000  0.17434600  1
  O  O42  1  0.35499300  0.07354700  0.32445900  1
  O  O43  1  0.26789400  0.74177700  0.67881100  1
  O  O44  1  0.00265500  0.35566600  0.96459100  1
  O  O45  1  0.14414800  0.76541700  0.53642400  1
  O  O46  1  0.26918600  0.38248000  0.87350000  1
  O  O47  1  0.20736600  0.07858500  0.19169000  1
  O  O48  1  0.76918600  0.61752000  0.62650000  1
  O  O49  1  0.70736600  0.92141500  0.30831000  1
  O  O50  1  0.64414800  0.23458300  0.96357600  1
  O  O51  1  0.50265500  0.64433400  0.53540900  1
  O  O52  1  0.76789400  0.25822300  0.82118900  1
  O  O53  1  0.85499300  0.92645300  0.17554100  1
  O  O54  1  0.99877400  0.77555000  0.32565400  1
  O  O55  1  0.26889000  0.36025500  0.70218200  1
  O  O56  1  0.79190700  0.58126400  0.48942600  1
  O  O57  1  0.21857200  0.03380000  0.03747800  1
  O  O58  1  0.35856700  0.65545600  0.37237700  1
  O  O59  1  0.50244600  0.92501300  0.11278400  1
  O  O60  1  0.49755400  0.07498700  0.88721600  1
  O  O61  1  0.64143300  0.34454400  0.62762300  1
  O  O62  1  0.78142800  0.96620000  0.96252200  1
  O  O63  1  0.20809300  0.41873600  0.51057400  1
  O  O64  1  0.73111000  0.63974500  0.29781800  1
  O  O65  1  0.00122600  0.22445000  0.67434600  1
  O  O66  1  0.14500700  0.07354700  0.82445900  1
  O  O67  1  0.23210600  0.74177700  0.17881100  1
  O  O68  1  0.49734500  0.35566600  0.46459100  1
  O  O69  1  0.35585200  0.76541700  0.03642400  1
  O  O70  1  0.29263400  0.07858500  0.69169000  1
  O  O71  1  0.23081400  0.38248000  0.37350000  1
  O  O72  1  0.79263400  0.92141500  0.80831000  1
  O  O73  1  0.73081400  0.61752000  0.12650000  1
  O  O74  1  0.85585200  0.23458300  0.46357600  1
  O  O75  1  0.99734500  0.64433400  0.03540900  1
  O  O76  1  0.73210600  0.25822300  0.32118900  1
  O  O77  1  0.64500700  0.92645300  0.67554100  1
  O  O78  1  0.50122600  0.77555000  0.82565400  1
  O  O79  1  0.70809300  0.58126400  0.98942600  1
  O  O80  1  0.23111000  0.36025500  0.20218200  1
  O  O81  1  0.28142800  0.03380000  0.53747800  1
  O  O82  1  0.14143300  0.65545600  0.87237700  1
  O  O83  1  0.99755400  0.92501300  0.61278400  1
