# generated using pymatgen
data_Li2Bi5B3O13
_symmetry_space_group_name_H-M   'P 1'
_cell_length_a   3.73047800
_cell_length_b   10.75979900
_cell_length_c   16.39682250
_cell_angle_alpha   76.20496099
_cell_angle_beta   90.00000000
_cell_angle_gamma   90.00000000
_symmetry_Int_Tables_number   1
_chemical_formula_structural   Li2Bi5B3O13
_chemical_formula_sum   'Li4 Bi10 B6 O26'
_cell_volume   639.17069638
_cell_formula_units_Z   2
loop_
 _symmetry_equiv_pos_site_id
 _symmetry_equiv_pos_as_xyz
  1  'x, y, z'
loop_
 _atom_site_type_symbol
 _atom_site_label
 _atom_site_symmetry_multiplicity
 _atom_site_fract_x
 _atom_site_fract_y
 _atom_site_fract_z
 _atom_site_occupancy
  Li  Li0  1  0.75000000  0.78650900  0.73207400  1
  Li  Li1  1  0.25000000  0.60994100  0.94486400  1
  Li  Li2  1  0.75000000  0.39005900  0.05513600  1
  Li  Li3  1  0.25000000  0.21349100  0.26792600  1
  Bi  Bi4  1  0.75000000  0.85216500  0.99413300  1
  Bi  Bi5  1  0.75000000  0.96623700  0.37632300  1
  Bi  Bi6  1  0.25000000  0.81653600  0.20040800  1
  Bi  Bi7  1  0.25000000  0.64057900  0.43785200  1
  Bi  Bi8  1  0.25000000  0.52850100  0.70175100  1
  Bi  Bi9  1  0.75000000  0.47149900  0.29824900  1
  Bi  Bi10  1  0.75000000  0.35942100  0.56214800  1
  Bi  Bi11  1  0.75000000  0.18346400  0.79959200  1
  Bi  Bi12  1  0.25000000  0.03376300  0.62367700  1
  Bi  Bi13  1  0.25000000  0.14783500  0.00586700  1
  B  B14  1  0.25000000  0.90505400  0.81598800  1
  B  B15  1  0.75000000  0.78510900  0.57654500  1
  B  B16  1  0.25000000  0.40450700  0.89724300  1
  B  B17  1  0.75000000  0.59549300  0.10275700  1
  B  B18  1  0.25000000  0.21489100  0.42345500  1
  B  B19  1  0.75000000  0.09494600  0.18401200  1
  O  O20  1  0.25000000  0.82376500  0.89422700  1
  O  O21  1  0.75000000  0.91070700  0.58470000  1
  O  O22  1  0.25000000  0.85599300  0.74432900  1
  O  O23  1  0.75000000  0.96004900  0.19758600  1
  O  O24  1  0.25000000  0.86131400  0.33832400  1
  O  O25  1  0.75000000  0.76096600  0.49703300  1
  O  O26  1  0.75000000  0.68682400  0.64973600  1
  O  O27  1  0.25000000  0.91737100  0.05863300  1
  O  O28  1  0.25000000  0.52575400  0.84721600  1
  O  O29  1  0.25000000  0.38209200  0.98412100  1
  O  O30  1  0.75000000  0.70671400  0.13743500  1
  O  O31  1  0.25000000  0.60323800  0.29631400  1
  O  O32  1  0.25000000  0.48484700  0.56859100  1
  O  O33  1  0.75000000  0.51515300  0.43140900  1
  O  O34  1  0.75000000  0.39676200  0.70368600  1
  O  O35  1  0.25000000  0.29328600  0.86256500  1
  O  O36  1  0.75000000  0.61790800  0.01587900  1
  O  O37  1  0.75000000  0.47424600  0.15278400  1
  O  O38  1  0.75000000  0.08262900  0.94136700  1
  O  O39  1  0.25000000  0.31317600  0.35026400  1
  O  O40  1  0.25000000  0.23903400  0.50296700  1
  O  O41  1  0.75000000  0.13868600  0.66167600  1
  O  O42  1  0.25000000  0.03995100  0.80241400  1
  O  O43  1  0.75000000  0.14400700  0.25567100  1
  O  O44  1  0.25000000  0.08929300  0.41530000  1
  O  O45  1  0.75000000  0.17623500  0.10577300  1
