# generated using pymatgen
data_Li2FeP2O7
_symmetry_space_group_name_H-M   'P 1'
_cell_length_a   5.16341900
_cell_length_b   8.05975200
_cell_length_c   14.31414864
_cell_angle_alpha   67.88855990
_cell_angle_beta   90.00000000
_cell_angle_gamma   90.00000000
_symmetry_Int_Tables_number   1
_chemical_formula_structural   Li2FeP2O7
_chemical_formula_sum   'Li8 Fe4 P8 O28'
_cell_volume   551.88449479
_cell_formula_units_Z   4
loop_
 _symmetry_equiv_pos_site_id
 _symmetry_equiv_pos_as_xyz
  1  'x, y, z'
loop_
 _atom_site_type_symbol
 _atom_site_label
 _atom_site_symmetry_multiplicity
 _atom_site_fract_x
 _atom_site_fract_y
 _atom_site_fract_z
 _atom_site_occupancy
  Li  Li0  1  0.21185400  0.96997700  0.67682500  1
  Li  Li1  1  0.28814600  0.96997700  0.17682500  1
  Li  Li2  1  0.74851600  0.42549400  0.83834500  1
  Li  Li3  1  0.24851600  0.57450600  0.66165500  1
  Li  Li4  1  0.75148400  0.42549400  0.33834500  1
  Li  Li5  1  0.25148400  0.57450600  0.16165500  1
  Li  Li6  1  0.71185400  0.03002300  0.82317500  1
  Li  Li7  1  0.78814600  0.03002300  0.32317500  1
  Fe  Fe8  1  0.28347800  0.72070100  0.87856400  1
  Fe  Fe9  1  0.21652200  0.72070100  0.37856400  1
  Fe  Fe10  1  0.78347800  0.27929900  0.62143600  1
  Fe  Fe11  1  0.71652200  0.27929900  0.12143600  1
  P  P12  1  0.71646100  0.81486500  0.69327900  1
  P  P13  1  0.71951600  0.70577900  0.52245400  1
  P  P14  1  0.78353900  0.81486500  0.19327900  1
  P  P15  1  0.21951600  0.29422100  0.97754600  1
  P  P16  1  0.78048400  0.70577900  0.02245400  1
  P  P17  1  0.21646100  0.18513500  0.80672100  1
  P  P18  1  0.28048400  0.29422100  0.47754600  1
  P  P19  1  0.28353900  0.18513500  0.30672100  1
  O  O20  1  0.25161500  0.99627100  0.80496100  1
  O  O21  1  0.24838500  0.99627100  0.30496100  1
  O  O22  1  0.65570200  0.79372500  0.91903400  1
  O  O23  1  0.76656400  0.85180900  0.57494000  1
  O  O24  1  0.43344900  0.75176400  0.71634100  1
  O  O25  1  0.91594000  0.68087000  0.75746400  1
  O  O26  1  0.42563000  0.67930800  0.51754200  1
  O  O27  1  0.84429800  0.79372500  0.41903400  1
  O  O28  1  0.73343600  0.85180900  0.07494000  1
  O  O29  1  0.36478200  0.46213300  0.90838200  1
  O  O30  1  0.06655100  0.75176400  0.21634100  1
  O  O31  1  0.58406000  0.68087000  0.25746400  1
  O  O32  1  0.86478200  0.53786700  0.59161800  1
  O  O33  1  0.07437000  0.67930800  0.01754200  1
  O  O34  1  0.92563000  0.32069200  0.98245800  1
  O  O35  1  0.13521800  0.46213300  0.40838200  1
  O  O36  1  0.41594000  0.31913000  0.74253600  1
  O  O37  1  0.93344900  0.24823600  0.78365900  1
  O  O38  1  0.63521800  0.53786700  0.09161800  1
  O  O39  1  0.26656400  0.14819100  0.92506000  1
  O  O40  1  0.15570200  0.20627500  0.58096600  1
  O  O41  1  0.57437000  0.32069200  0.48245800  1
  O  O42  1  0.08406000  0.31913000  0.24253600  1
  O  O43  1  0.56655100  0.24823600  0.28365900  1
  O  O44  1  0.23343600  0.14819100  0.42506000  1
  O  O45  1  0.34429800  0.20627500  0.08096600  1
  O  O46  1  0.75161500  0.00372900  0.69503900  1
  O  O47  1  0.74838500  0.00372900  0.19503900  1
