# generated using pymatgen
data_Li32Mn3Cr13O48
_symmetry_space_group_name_H-M   'P 1'
_cell_length_a   5.04152700
_cell_length_b   8.70984639
_cell_length_c   19.52362391
_cell_angle_alpha   97.98546267
_cell_angle_beta   94.99144238
_cell_angle_gamma   89.60270837
_symmetry_Int_Tables_number   1
_chemical_formula_structural   Li32Mn3Cr13O48
_chemical_formula_sum   'Li32 Mn3 Cr13 O48'
_cell_volume   845.75630688
_cell_formula_units_Z   1
loop_
 _symmetry_equiv_pos_site_id
 _symmetry_equiv_pos_as_xyz
  1  'x, y, z'
loop_
 _atom_site_type_symbol
 _atom_site_label
 _atom_site_symmetry_multiplicity
 _atom_site_fract_x
 _atom_site_fract_y
 _atom_site_fract_z
 _atom_site_occupancy
  Li  Li0  1  0.99264400  0.16881100  0.24961900  1
  Li  Li1  1  0.87644000  0.37653300  0.37488600  1
  Li  Li2  1  0.75005800  0.24840800  0.99959000  1
  Li  Li3  1  0.74198900  0.92021800  0.99991100  1
  Li  Li4  1  0.99190500  0.16722400  0.74902400  1
  Li  Li5  1  0.75811100  0.57998600  0.49942800  1
  Li  Li6  1  0.87527200  0.37547400  0.87506600  1
  Li  Li7  1  0.75201100  0.24993300  0.50053100  1
  Li  Li8  1  0.74157800  0.91930400  0.49936000  1
  Li  Li9  1  0.62583300  0.12385300  0.12515800  1
  Li  Li10  1  0.75634600  0.57975600  0.99982300  1
  Li  Li11  1  0.50734300  0.33067800  0.25042900  1
  Li  Li12  1  0.62468600  0.12373300  0.62513700  1
  Li  Li13  1  0.49888100  0.99802400  0.24963300  1
  Li  Li14  1  0.49301200  0.67024600  0.24996500  1
  Li  Li15  1  0.50557000  0.33018800  0.74986900  1
  Li  Li16  1  0.37491300  0.87461600  0.37519800  1
  Li  Li17  1  0.50095000  0.00039100  0.74988500  1
  Li  Li18  1  0.24742900  0.74939400  0.00020100  1
  Li  Li19  1  0.49503100  0.66986600  0.75043500  1
  Li  Li20  1  0.24336000  0.42086500  0.99991600  1
  Li  Li21  1  0.37674000  0.87659000  0.87497800  1
  Li  Li22  1  0.25769500  0.07938700  0.50060000  1
  Li  Li23  1  0.24775900  0.75110100  0.49946400  1
  Li  Li24  1  0.12702500  0.62663100  0.12505100  1
  Li  Li25  1  0.24173400  0.42060900  0.50053100  1
  Li  Li26  1  0.00927800  0.83214800  0.25065000  1
  Li  Li27  1  0.25951500  0.08059600  0.99992900  1
  Li  Li28  1  0.12532400  0.62380800  0.62480200  1
  Li  Li29  1  0.99962600  0.50022400  0.25088000  1
  Li  Li30  1  0.00635600  0.83269800  0.75052700  1
  Li  Li31  1  0.99945300  0.49962700  0.75007700  1
  Mn  Mn32  1  0.87646300  0.70969400  0.37580000  1
  Mn  Mn33  1  0.87252200  0.70744200  0.87434300  1
  Mn  Mn34  1  0.12425300  0.29116600  0.62493600  1
  Cr  Cr35  1  0.87282000  0.04614200  0.37492200  1
  Cr  Cr36  1  0.88080300  0.03907800  0.87469700  1
  Cr  Cr37  1  0.63151000  0.78853100  0.12518600  1
  Cr  Cr38  1  0.62076800  0.45238600  0.12389100  1
  Cr  Cr39  1  0.63168500  0.78905400  0.62499900  1
  Cr  Cr40  1  0.61839000  0.45476400  0.62417900  1
  Cr  Cr41  1  0.38228100  0.54220600  0.37557800  1
  Cr  Cr42  1  0.36937200  0.20324800  0.37367000  1
  Cr  Cr43  1  0.37690400  0.54637700  0.87512800  1
  Cr  Cr44  1  0.37418700  0.21200500  0.87544400  1
  Cr  Cr45  1  0.12425800  0.96262800  0.12544300  1
  Cr  Cr46  1  0.12529500  0.29790600  0.12524700  1
  Cr  Cr47  1  0.12351000  0.95918600  0.62607000  1
  O  O48  1  0.96684300  0.10853700  0.06926900  1
  O  O49  1  0.91977400  0.78618100  0.06891800  1
  O  O50  1  0.93312200  0.42415900  0.06703300  1
  O  O51  1  0.96597600  0.10703100  0.56918600  1
  O  O52  1  0.83226100  0.96513200  0.18157000  1
  O  O53  1  0.81598100  0.32669300  0.18269900  1
  O  O54  1  0.92302100  0.78767900  0.56920600  1
  O  O55  1  0.93135100  0.42710700  0.56769900  1
  O  O56  1  0.78238700  0.64294000  0.18038400  1
  O  O57  1  0.71534700  0.85686500  0.31947100  1
  O  O58  1  0.82491300  0.96687200  0.68149600  1
  O  O59  1  0.82401500  0.32445400  0.68166200  1
  O  O60  1  0.67849500  0.53713100  0.31930100  1
  O  O61  1  0.68233000  0.17360600  0.31705200  1
  O  O62  1  0.78125700  0.64467500  0.68091700  1
  O  O63  1  0.71012600  0.85354300  0.81853400  1
  O  O64  1  0.46399300  0.60281900  0.06862200  1
  O  O65  1  0.57537500  0.71652500  0.43101300  1
  O  O66  1  0.56635700  0.07754100  0.43267400  1
  O  O67  1  0.68310700  0.53579900  0.81876400  1
  O  O68  1  0.67273000  0.17488400  0.81819300  1
  O  O69  1  0.42244200  0.92549500  0.06797500  1
  O  O70  1  0.43576000  0.28720100  0.06858200  1
  O  O71  1  0.52938400  0.39455700  0.43072600  1
  O  O72  1  0.46822100  0.60237600  0.56858400  1
  O  O73  1  0.57258000  0.71336900  0.93043200  1
  O  O74  1  0.57645400  0.07143500  0.93244100  1
  O  O75  1  0.32726800  0.82175600  0.18246900  1
  O  O76  1  0.31413600  0.46144300  0.18134700  1
  O  O77  1  0.42803900  0.92608900  0.56791500  1
  O  O78  1  0.42578900  0.28469500  0.56920700  1
  O  O79  1  0.53290200  0.39554900  0.93116200  1
  O  O80  1  0.28535600  0.14557400  0.18069900  1
  O  O81  1  0.21622200  0.35459900  0.31868700  1
  O  O82  1  0.32406400  0.82515200  0.68214400  1
  O  O83  1  0.31855300  0.46370000  0.68092900  1
  O  O84  1  0.17591300  0.67595500  0.31847400  1
  O  O85  1  0.18490700  0.03710500  0.31856900  1
  O  O86  1  0.28730000  0.14514700  0.68146200  1
  O  O87  1  0.21833000  0.35853000  0.81921700  1
  O  O88  1  0.07014100  0.57264700  0.43236000  1
  O  O89  1  0.06412800  0.20956900  0.43109000  1
  O  O90  1  0.17565000  0.67693300  0.81808100  1
  O  O91  1  0.16982900  0.03579800  0.81889500  1
  O  O92  1  0.03627500  0.89258400  0.43072800  1
  O  O93  1  0.06824900  0.57320600  0.93216200  1
  O  O94  1  0.08098100  0.21395600  0.93121500  1
  O  O95  1  0.03347300  0.89267100  0.93069300  1
