# generated using pymatgen
data_Li2VP4(HO2)8
_symmetry_space_group_name_H-M   'P 1'
_cell_length_a   6.76021600
_cell_length_b   7.13158219
_cell_length_c   7.34578499
_cell_angle_alpha   79.30718132
_cell_angle_beta   77.41053641
_cell_angle_gamma   79.39339712
_symmetry_Int_Tables_number   1
_chemical_formula_structural   Li2VP4(HO2)8
_chemical_formula_sum   'Li2 V1 P4 H8 O16'
_cell_volume   335.80121032
_cell_formula_units_Z   1
loop_
 _symmetry_equiv_pos_site_id
 _symmetry_equiv_pos_as_xyz
  1  'x, y, z'
loop_
 _atom_site_type_symbol
 _atom_site_label
 _atom_site_symmetry_multiplicity
 _atom_site_fract_x
 _atom_site_fract_y
 _atom_site_fract_z
 _atom_site_occupancy
  Li  Li0  1  0.18561700  0.72341500  0.28885100  1
  Li  Li1  1  0.81438300  0.27658500  0.71114900  1
  V  V2  1  0.50000000  0.50000000  0.50000000  1
  P  P3  1  0.30535300  0.28277000  0.23307300  1
  P  P4  1  0.24049800  0.82072100  0.76964600  1
  P  P5  1  0.75950200  0.17927900  0.23035400  1
  P  P6  1  0.69464700  0.71723000  0.76692700  1
  H  H7  1  0.04105100  0.27400400  0.04337400  1
  H  H8  1  0.22686100  0.06116100  0.48429800  1
  H  H9  1  0.40205100  0.17247200  0.71964000  1
  H  H10  1  0.38479600  0.31653100  0.85988100  1
  H  H11  1  0.61520400  0.68346900  0.14011900  1
  H  H12  1  0.59794900  0.82752800  0.28036000  1
  H  H13  1  0.77313900  0.93883900  0.51570200  1
  H  H14  1  0.95894900  0.72599600  0.95662600  1
  O  O15  1  0.21690000  0.34893700  0.05482200  1
  O  O16  1  0.23233800  0.08750300  0.33642900  1
  O  O17  1  0.08940600  0.78559000  0.96328700  1
  O  O18  1  0.22110800  0.03481300  0.68421800  1
  O  O19  1  0.27104600  0.43316100  0.36376700  1
  O  O20  1  0.23939300  0.68844300  0.63036800  1
  O  O21  1  0.54749100  0.23443800  0.15081200  1
  O  O22  1  0.52535900  0.72689800  0.25771900  1
  O  O23  1  0.47464100  0.27310200  0.74228100  1
  O  O24  1  0.45250900  0.76556200  0.84918800  1
  O  O25  1  0.76060700  0.31155700  0.36963200  1
  O  O26  1  0.72895400  0.56683900  0.63623300  1
  O  O27  1  0.77889200  0.96518700  0.31578200  1
  O  O28  1  0.91059400  0.21441000  0.03671300  1
  O  O29  1  0.76766200  0.91249700  0.66357100  1
  O  O30  1  0.78310000  0.65106300  0.94517800  1
