# generated using pymatgen
data_LiMnSiO4
_symmetry_space_group_name_H-M   'P 1'
_cell_length_a   6.40770400
_cell_length_b   9.04231500
_cell_length_c   4.91734300
_cell_angle_alpha   89.99992703
_cell_angle_beta   89.99997046
_cell_angle_gamma   90.00005851
_symmetry_Int_Tables_number   1
_chemical_formula_structural   LiMnSiO4
_chemical_formula_sum   'Li4 Mn4 Si4 O16'
_cell_volume   284.91320388
_cell_formula_units_Z   4
loop_
 _symmetry_equiv_pos_site_id
 _symmetry_equiv_pos_as_xyz
  1  'x, y, z'
loop_
 _atom_site_type_symbol
 _atom_site_label
 _atom_site_symmetry_multiplicity
 _atom_site_fract_x
 _atom_site_fract_y
 _atom_site_fract_z
 _atom_site_occupancy
  Li  Li0  1  0.25000000  0.16300000  0.46221000  1
  Li  Li1  1  0.25000000  0.66299800  0.03779400  1
  Li  Li2  1  0.75000000  0.33700200  0.96220600  1
  Li  Li3  1  0.75000000  0.83700000  0.53779000  1
  Mn  Mn4  1  0.00000000  0.00000000  0.00000000  1
  Mn  Mn5  1  0.00000000  0.50000000  0.50000000  1
  Mn  Mn6  1  0.50000000  0.00000000  0.00000000  1
  Mn  Mn7  1  0.50000000  0.50000000  0.50000000  1
  Si  Si8  1  0.24999800  0.32066600  0.96469200  1
  Si  Si9  1  0.25000000  0.82066800  0.53530800  1
  Si  Si10  1  0.75000000  0.17933200  0.46469200  1
  Si  Si11  1  0.75000200  0.67933400  0.03530800  1
  O  O12  1  0.03803100  0.38114400  0.81457100  1
  O  O13  1  0.03803300  0.88114500  0.68543000  1
  O  O14  1  0.25000000  0.13622300  0.90113700  1
  O  O15  1  0.25000100  0.36832700  0.28619900  1
  O  O16  1  0.25000000  0.86833100  0.21380300  1
  O  O17  1  0.24999700  0.63622400  0.59886000  1
  O  O18  1  0.46196600  0.38114200  0.81456800  1
  O  O19  1  0.46196700  0.88114300  0.68543100  1
  O  O20  1  0.53803300  0.11885700  0.31456900  1
  O  O21  1  0.53803400  0.61885800  0.18543200  1
  O  O22  1  0.75000000  0.13166900  0.78619700  1
  O  O23  1  0.75000300  0.36377500  0.40114000  1
  O  O24  1  0.74999900  0.63167300  0.71380100  1
  O  O25  1  0.75000000  0.86377700  0.09886300  1
  O  O26  1  0.96196700  0.11885500  0.31457000  1
  O  O27  1  0.96196900  0.61885600  0.18542900  1
