# generated using pymatgen
data_LiMnPO4
_symmetry_space_group_name_H-M   'P 1'
_cell_length_a   8.22952000
_cell_length_b   5.10752100
_cell_length_c   10.67378391
_cell_angle_alpha   62.60525436
_cell_angle_beta   90.00000000
_cell_angle_gamma   90.00000000
_symmetry_Int_Tables_number   1
_chemical_formula_structural   LiMnPO4
_chemical_formula_sum   'Li4 Mn4 P4 O16'
_cell_volume   398.33308634
_cell_formula_units_Z   4
loop_
 _symmetry_equiv_pos_site_id
 _symmetry_equiv_pos_as_xyz
  1  'x, y, z'
loop_
 _atom_site_type_symbol
 _atom_site_label
 _atom_site_symmetry_multiplicity
 _atom_site_fract_x
 _atom_site_fract_y
 _atom_site_fract_z
 _atom_site_occupancy
  Li  Li0  1  0.04642300  0.05710800  0.62451000  1
  Li  Li1  1  0.54642300  0.94289200  0.87549000  1
  Li  Li2  1  0.45357700  0.05710800  0.12451000  1
  Li  Li3  1  0.95357700  0.94289200  0.37549000  1
  Mn  Mn4  1  0.32722200  0.33221000  0.40879600  1
  Mn  Mn5  1  0.82722200  0.66779000  0.09120400  1
  Mn  Mn6  1  0.17277800  0.33221000  0.90879600  1
  Mn  Mn7  1  0.67277800  0.66779000  0.59120400  1
  P  P8  1  0.25584600  0.68377500  0.06962700  1
  P  P9  1  0.75584600  0.31622500  0.43037300  1
  P  P10  1  0.24415400  0.68377500  0.56962700  1
  P  P11  1  0.74415400  0.31622500  0.93037300  1
  O  O12  1  0.18666000  0.40694300  0.55707900  1
  O  O13  1  0.32852800  0.97073500  0.94490200  1
  O  O14  1  0.32117600  0.68046400  0.20722300  1
  O  O15  1  0.57033700  0.29372900  0.44062800  1
  O  O16  1  0.07033700  0.70627100  0.05937200  1
  O  O17  1  0.82117600  0.31953600  0.29277700  1
  O  O18  1  0.82852800  0.02926500  0.55509800  1
  O  O19  1  0.68666000  0.59305700  0.94292100  1
  O  O20  1  0.31334000  0.40694300  0.05707900  1
  O  O21  1  0.17147200  0.97073500  0.44490200  1
  O  O22  1  0.17882400  0.68046400  0.70722300  1
  O  O23  1  0.92966300  0.29372900  0.94062800  1
  O  O24  1  0.42966300  0.70627100  0.55937200  1
  O  O25  1  0.67882400  0.31953600  0.79277700  1
  O  O26  1  0.67147200  0.02926500  0.05509800  1
  O  O27  1  0.81334000  0.59305700  0.44292100  1
