# generated using pymatgen
data_Li2Mn3VO8
_symmetry_space_group_name_H-M   'P 1'
_cell_length_a   5.83848087
_cell_length_b   5.83848087
_cell_length_c   9.61435400
_cell_angle_alpha   90.00000000
_cell_angle_beta   90.00000000
_cell_angle_gamma   117.93612713
_symmetry_Int_Tables_number   1
_chemical_formula_structural   Li2Mn3VO8
_chemical_formula_sum   'Li4 Mn6 V2 O16'
_cell_volume   289.54217946
_cell_formula_units_Z   2
loop_
 _symmetry_equiv_pos_site_id
 _symmetry_equiv_pos_as_xyz
  1  'x, y, z'
loop_
 _atom_site_type_symbol
 _atom_site_label
 _atom_site_symmetry_multiplicity
 _atom_site_fract_x
 _atom_site_fract_y
 _atom_site_fract_z
 _atom_site_occupancy
  Li  Li0  1  0.17004600  0.82995400  0.10400600  1
  Li  Li1  1  0.50538500  0.49461500  0.00621400  1
  Li  Li2  1  0.49461500  0.50538500  0.50621400  1
  Li  Li3  1  0.82995400  0.17004600  0.60400600  1
  Mn  Mn4  1  0.83895400  0.67274200  0.78647000  1
  Mn  Mn5  1  0.32725800  0.16104600  0.78647000  1
  Mn  Mn6  1  0.33088900  0.66911100  0.78548400  1
  Mn  Mn7  1  0.66911100  0.33088900  0.28548400  1
  Mn  Mn8  1  0.67274200  0.83895400  0.28647000  1
  Mn  Mn9  1  0.16104600  0.32725800  0.28647000  1
  V  V10  1  0.16335100  0.83664900  0.51222600  1
  V  V11  1  0.83664900  0.16335100  0.01222600  1
  O  O12  1  0.81851800  0.65673700  0.39988100  1
  O  O13  1  0.01896900  0.98103100  0.63490700  1
  O  O14  1  0.16669700  0.83330300  0.88970800  1
  O  O15  1  0.50288500  0.49711500  0.69332400  1
  O  O16  1  0.49711500  0.50288500  0.19332400  1
  O  O17  1  0.34326300  0.18148200  0.39988100  1
  O  O18  1  0.02633900  0.54067000  0.66564100  1
  O  O19  1  0.45933000  0.97366100  0.66564100  1
  O  O20  1  0.67987200  0.32012800  0.91800100  1
  O  O21  1  0.32012800  0.67987200  0.41800100  1
  O  O22  1  0.54067000  0.02633900  0.16564100  1
  O  O23  1  0.97366100  0.45933000  0.16564100  1
  O  O24  1  0.83330300  0.16669700  0.38970800  1
  O  O25  1  0.65673700  0.81851800  0.89988100  1
  O  O26  1  0.98103100  0.01896900  0.13490700  1
  O  O27  1  0.18148200  0.34326300  0.89988100  1
