# generated using pymatgen
data_Li4Mn3Nb2Cu3O16
_symmetry_space_group_name_H-M   'P 1'
_cell_length_a   5.93680984
_cell_length_b   5.89346769
_cell_length_c   9.79279867
_cell_angle_alpha   90.28021490
_cell_angle_beta   87.58984365
_cell_angle_gamma   118.82839633
_symmetry_Int_Tables_number   1
_chemical_formula_structural   Li4Mn3Nb2Cu3O16
_chemical_formula_sum   'Li4 Mn3 Nb2 Cu3 O16'
_cell_volume   299.85902991
_cell_formula_units_Z   1
loop_
 _symmetry_equiv_pos_site_id
 _symmetry_equiv_pos_as_xyz
  1  'x, y, z'
loop_
 _atom_site_type_symbol
 _atom_site_label
 _atom_site_symmetry_multiplicity
 _atom_site_fract_x
 _atom_site_fract_y
 _atom_site_fract_z
 _atom_site_occupancy
  Li  Li0  1  0.34628300  0.67635900  0.90386000  1
  Li  Li1  1  0.98958700  0.99553400  0.99336900  1
  Li  Li2  1  0.99279000  0.99456800  0.48575500  1
  Li  Li3  1  0.67537500  0.33318700  0.40225100  1
  Mn  Mn4  1  0.65691000  0.83087100  0.22044600  1
  Mn  Mn5  1  0.82857700  0.66238200  0.71515000  1
  Mn  Mn6  1  0.82622900  0.16412300  0.71610400  1
  Nb  Nb7  1  0.30964800  0.64441300  0.48510500  1
  Nb  Nb8  1  0.65964700  0.33537100  0.99544700  1
  Cu  Cu9  1  0.16462300  0.83003300  0.21113000  1
  Cu  Cu10  1  0.16350300  0.33549900  0.20960200  1
  Cu  Cu11  1  0.33782900  0.16818300  0.71382200  1
  O  O12  1  0.14575800  0.81609000  0.58773700  1
  O  O13  1  0.04178600  0.49939900  0.35754900  1
  O  O14  1  0.34302200  0.67026900  0.12087400  1
  O  O15  1  0.99284700  0.99968400  0.29602500  1
  O  O16  1  0.99537900  0.99599600  0.80437200  1
  O  O17  1  0.15285500  0.32268800  0.59489500  1
  O  O18  1  0.50261200  0.96991700  0.34571600  1
  O  O19  1  0.53379200  0.55774400  0.35505000  1
  O  O20  1  0.32348600  0.18062600  0.07296600  1
  O  O21  1  0.67892300  0.84124900  0.60950300  1
  O  O22  1  0.54929400  0.51445900  0.84317400  1
  O  O23  1  0.53876000  0.04145000  0.84013700  1
  O  O24  1  0.67587500  0.33742500  0.61564200  1
  O  O25  1  0.81613800  0.66300600  0.09469100  1
  O  O26  1  0.96623800  0.48155300  0.82848800  1
  O  O27  1  0.79223300  0.13822000  0.08897500  1
