# generated using pymatgen
data_Li3Cr2(PO4)3
_symmetry_space_group_name_H-M   'P 1'
_cell_length_a   8.72633700
_cell_length_b   8.68440100
_cell_length_c   14.91830423
_cell_angle_alpha   54.35733861
_cell_angle_beta   90.00000000
_cell_angle_gamma   90.00000000
_symmetry_Int_Tables_number   1
_chemical_formula_structural   Li3Cr2(PO4)3
_chemical_formula_sum   'Li12 Cr8 P12 O48'
_cell_volume   918.76403398
_cell_formula_units_Z   4
loop_
 _symmetry_equiv_pos_site_id
 _symmetry_equiv_pos_as_xyz
  1  'x, y, z'
loop_
 _atom_site_type_symbol
 _atom_site_label
 _atom_site_symmetry_multiplicity
 _atom_site_fract_x
 _atom_site_fract_y
 _atom_site_fract_z
 _atom_site_occupancy
  Li  Li0  1  0.90790000  0.38864600  0.69670900  1
  Li  Li1  1  0.28978100  0.32857200  0.75269000  1
  Li  Li2  1  0.22843800  0.03401800  0.17734900  1
  Li  Li3  1  0.72843800  0.96598200  0.32265100  1
  Li  Li4  1  0.78978100  0.67142800  0.74731000  1
  Li  Li5  1  0.40790000  0.61135400  0.80329100  1
  Li  Li6  1  0.59210000  0.38864600  0.19670900  1
  Li  Li7  1  0.21021900  0.32857200  0.25269000  1
  Li  Li8  1  0.27156200  0.03401800  0.67734900  1
  Li  Li9  1  0.77156200  0.96598200  0.82265100  1
  Li  Li10  1  0.71021900  0.67142800  0.24731000  1
  Li  Li11  1  0.09210000  0.61135400  0.30329100  1
  Cr  Cr12  1  0.54280100  0.13465200  0.11315900  1
  Cr  Cr13  1  0.96385600  0.36317100  0.88793900  1
  Cr  Cr14  1  0.46385600  0.63682900  0.61206100  1
  Cr  Cr15  1  0.04280100  0.86534800  0.38684100  1
  Cr  Cr16  1  0.95719900  0.13465200  0.61315900  1
  Cr  Cr17  1  0.53614400  0.36317100  0.38793900  1
  Cr  Cr18  1  0.03614400  0.63682900  0.11206100  1
  Cr  Cr19  1  0.45719900  0.86534800  0.88684100  1
  P  P20  1  0.75071900  0.54309100  0.49435000  1
  P  P21  1  0.60949400  0.25137200  0.85212500  1
  P  P22  1  0.90016000  0.95654200  0.14799200  1
  P  P23  1  0.40016000  0.04345800  0.35200800  1
  P  P24  1  0.10949400  0.74862800  0.64787500  1
  P  P25  1  0.25071900  0.45690900  0.00565000  1
  P  P26  1  0.74928100  0.54309100  0.99435000  1
  P  P27  1  0.89050600  0.25137200  0.35212500  1
  P  P28  1  0.59984000  0.95654200  0.64799200  1
  P  P29  1  0.09984000  0.04345800  0.85200800  1
  P  P30  1  0.39050600  0.74862800  0.14787500  1
  P  P31  1  0.24928100  0.45690900  0.50565000  1
  O  O32  1  0.14190000  0.62515000  0.42518700  1
  O  O33  1  0.32199400  0.47804900  0.59252500  1
  O  O34  1  0.09923800  0.23723700  0.83723200  1
  O  O35  1  0.40496700  0.91016100  0.16279700  1
  O  O36  1  0.63655500  0.55326000  0.56796400  1
  O  O37  1  0.77447000  0.33358800  0.81431300  1
  O  O38  1  0.84064900  0.73229300  0.42618400  1
  O  O39  1  0.58055800  0.18472600  0.96969300  1
  O  O40  1  0.93778200  0.12354300  0.03263200  1
  O  O41  1  0.73637000  0.96688500  0.18635700  1
  O  O42  1  0.02382800  0.93487900  0.23011200  1
  O  O43  1  0.48670000  0.40737100  0.77653300  1
  O  O44  1  0.98670000  0.59262900  0.72346700  1
  O  O45  1  0.52382800  0.06512100  0.26988800  1
  O  O46  1  0.23637000  0.03311500  0.31364300  1
  O  O47  1  0.43778200  0.87645700  0.46736800  1
  O  O48  1  0.08055800  0.81527400  0.53030700  1
  O  O49  1  0.34064900  0.26770700  0.07381600  1
  O  O50  1  0.27447000  0.66641200  0.68568700  1
  O  O51  1  0.13655500  0.44674000  0.93203600  1
  O  O52  1  0.90496700  0.08983900  0.33720300  1
  O  O53  1  0.59923800  0.76276300  0.66276800  1
  O  O54  1  0.82199400  0.52195100  0.90747500  1
  O  O55  1  0.64190000  0.37485000  0.07481300  1
  O  O56  1  0.35810000  0.62515000  0.92518700  1
  O  O57  1  0.17800600  0.47804900  0.09252500  1
  O  O58  1  0.40076200  0.23723700  0.33723200  1
  O  O59  1  0.09503300  0.91016100  0.66279700  1
  O  O60  1  0.86344500  0.55326000  0.06796400  1
  O  O61  1  0.72553000  0.33358800  0.31431300  1
  O  O62  1  0.65935100  0.73229300  0.92618400  1
  O  O63  1  0.91944200  0.18472600  0.46969300  1
  O  O64  1  0.56221800  0.12354300  0.53263200  1
  O  O65  1  0.76363000  0.96688500  0.68635700  1
  O  O66  1  0.47617200  0.93487900  0.73011200  1
  O  O67  1  0.01330000  0.40737100  0.27653300  1
  O  O68  1  0.51330000  0.59262900  0.22346700  1
  O  O69  1  0.97617200  0.06512100  0.76988800  1
  O  O70  1  0.26363000  0.03311500  0.81364300  1
  O  O71  1  0.06221800  0.87645700  0.96736800  1
  O  O72  1  0.41944200  0.81527400  0.03030700  1
  O  O73  1  0.15935100  0.26770700  0.57381600  1
  O  O74  1  0.22553000  0.66641200  0.18568700  1
  O  O75  1  0.36344500  0.44674000  0.43203600  1
  O  O76  1  0.59503300  0.08983900  0.83720300  1
  O  O77  1  0.90076200  0.76276300  0.16276800  1
  O  O78  1  0.67800600  0.52195100  0.40747500  1
  O  O79  1  0.85810000  0.37485000  0.57481300  1
