# generated using pymatgen
data_Li2VCo3O8
_symmetry_space_group_name_H-M   'P 1'
_cell_length_a   5.70615012
_cell_length_b   5.70615012
_cell_length_c   9.13963100
_cell_angle_alpha   90.00000000
_cell_angle_beta   90.00000000
_cell_angle_gamma   120.00000143
_symmetry_Int_Tables_number   1
_chemical_formula_structural   Li2VCo3O8
_chemical_formula_sum   'Li4 V2 Co6 O16'
_cell_volume   257.71854700
_cell_formula_units_Z   2
loop_
 _symmetry_equiv_pos_site_id
 _symmetry_equiv_pos_as_xyz
  1  'x, y, z'
loop_
 _atom_site_type_symbol
 _atom_site_label
 _atom_site_symmetry_multiplicity
 _atom_site_fract_x
 _atom_site_fract_y
 _atom_site_fract_z
 _atom_site_occupancy
  Li  Li0  1  0.33333300  0.66666700  0.89417200  1
  Li  Li1  1  0.00000000  0.00000000  0.99839300  1
  Li  Li2  1  0.00000000  0.00000000  0.49839300  1
  Li  Li3  1  0.66666700  0.33333300  0.39417200  1
  V  V4  1  0.33333300  0.66666700  0.49801800  1
  V  V5  1  0.66666700  0.33333300  0.99801800  1
  Co  Co6  1  0.17143000  0.82857000  0.21518900  1
  Co  Co7  1  0.17143000  0.34286000  0.21518900  1
  Co  Co8  1  0.65714000  0.82857000  0.21518900  1
  Co  Co9  1  0.34286000  0.17143000  0.71518900  1
  Co  Co10  1  0.82857000  0.65714000  0.71518900  1
  Co  Co11  1  0.82857000  0.17143000  0.71518900  1
  O  O12  1  0.17139200  0.82860800  0.59520800  1
  O  O13  1  0.04357200  0.52178600  0.33850800  1
  O  O14  1  0.33333300  0.66666700  0.10888200  1
  O  O15  1  0.00000000  0.00000000  0.30773400  1
  O  O16  1  0.00000000  0.00000000  0.80773400  1
  O  O17  1  0.17139200  0.34278300  0.59520800  1
  O  O18  1  0.47821400  0.95642800  0.33850800  1
  O  O19  1  0.47821400  0.52178600  0.33850800  1
  O  O20  1  0.34278300  0.17139200  0.09520800  1
  O  O21  1  0.65721700  0.82860800  0.59520800  1
  O  O22  1  0.52178600  0.47821400  0.83850800  1
  O  O23  1  0.52178600  0.04357200  0.83850800  1
  O  O24  1  0.66666700  0.33333300  0.60888200  1
  O  O25  1  0.82860800  0.65721700  0.09520800  1
  O  O26  1  0.95642800  0.47821400  0.83850800  1
  O  O27  1  0.82860800  0.17139200  0.09520800  1
