# generated using pymatgen
data_LiNbVO4
_symmetry_space_group_name_H-M   'P 1'
_cell_length_a   6.16688000
_cell_length_b   6.16676100
_cell_length_c   8.77074000
_cell_angle_alpha   89.99994600
_cell_angle_beta   89.99968527
_cell_angle_gamma   89.99955403
_symmetry_Int_Tables_number   1
_chemical_formula_structural   LiNbVO4
_chemical_formula_sum   'Li4 Nb4 V4 O16'
_cell_volume   333.54839237
_cell_formula_units_Z   4
loop_
 _symmetry_equiv_pos_site_id
 _symmetry_equiv_pos_as_xyz
  1  'x, y, z'
loop_
 _atom_site_type_symbol
 _atom_site_label
 _atom_site_symmetry_multiplicity
 _atom_site_fract_x
 _atom_site_fract_y
 _atom_site_fract_z
 _atom_site_occupancy
  Li  Li0  1  0.00000000  0.23044300  0.00000100  1
  Li  Li1  1  0.00000000  0.76955900  0.50000000  1
  Li  Li2  1  0.23045100  0.00000100  0.25000000  1
  Li  Li3  1  0.76954800  0.00000100  0.75000000  1
  Nb  Nb4  1  0.25311000  0.25312800  0.62500200  1
  Nb  Nb5  1  0.25310900  0.74687200  0.87499800  1
  Nb  Nb6  1  0.74689200  0.25312700  0.37499700  1
  Nb  Nb7  1  0.74688900  0.74687100  0.12500300  1
  V  V8  1  0.24210900  0.50000100  0.24999800  1
  V  V9  1  0.49999900  0.24211100  0.00000300  1
  V  V10  1  0.49999700  0.75788700  0.50000100  1
  V  V11  1  0.75789000  0.50000000  0.74999800  1
  O  O12  1  0.99834600  0.25361700  0.25415400  1
  O  O13  1  0.99834300  0.74638000  0.24584200  1
  O  O14  1  0.25362000  0.99832700  0.99584800  1
  O  O15  1  0.25362000  0.00167300  0.50415200  1
  O  O16  1  0.25588300  0.49818500  0.00412700  1
  O  O17  1  0.25588400  0.50181500  0.49587200  1
  O  O18  1  0.49820800  0.25588500  0.24586900  1
  O  O19  1  0.49820500  0.74411900  0.25413300  1
  O  O20  1  0.50179300  0.25588200  0.75413200  1
  O  O21  1  0.50179900  0.74412200  0.74587200  1
  O  O22  1  0.74411500  0.50181200  0.50412700  1
  O  O23  1  0.74411500  0.49818500  0.99587400  1
  O  O24  1  0.74638000  0.99832700  0.00415600  1
  O  O25  1  0.74638300  0.00167100  0.49584500  1
  O  O26  1  0.00165400  0.25362100  0.74584200  1
  O  O27  1  0.00165500  0.74637800  0.75415600  1
