# generated using pymatgen
data_Li5Mn(CO3)4
_symmetry_space_group_name_H-M   'P 1'
_cell_length_a   9.59703200
_cell_length_b   8.39933600
_cell_length_c   11.14218168
_cell_angle_alpha   88.72568885
_cell_angle_beta   90.00000000
_cell_angle_gamma   90.00000000
_symmetry_Int_Tables_number   1
_chemical_formula_structural   Li5Mn(CO3)4
_chemical_formula_sum   'Li20 Mn4 C16 O48'
_cell_volume   897.93460818
_cell_formula_units_Z   4
loop_
 _symmetry_equiv_pos_site_id
 _symmetry_equiv_pos_as_xyz
  1  'x, y, z'
loop_
 _atom_site_type_symbol
 _atom_site_label
 _atom_site_symmetry_multiplicity
 _atom_site_fract_x
 _atom_site_fract_y
 _atom_site_fract_z
 _atom_site_occupancy
  Li  Li0  1  0.36330700  0.43686400  0.06896600  1
  Li  Li1  1  0.13669300  0.93686400  0.06896600  1
  Li  Li2  1  0.86603300  0.42556000  0.12248700  1
  Li  Li3  1  0.63396700  0.92556000  0.12248700  1
  Li  Li4  1  0.10766200  0.30231700  0.21760400  1
  Li  Li5  1  0.39233800  0.80231700  0.21760400  1
  Li  Li6  1  0.33162000  0.47574200  0.34166000  1
  Li  Li7  1  0.16838000  0.97574200  0.34166000  1
  Li  Li8  1  0.90202900  0.43876000  0.39845300  1
  Li  Li9  1  0.59797100  0.93876000  0.39845300  1
  Li  Li10  1  0.40202900  0.06124000  0.60154700  1
  Li  Li11  1  0.09797100  0.56124000  0.60154700  1
  Li  Li12  1  0.83162000  0.02425800  0.65834000  1
  Li  Li13  1  0.66838000  0.52425800  0.65834000  1
  Li  Li14  1  0.60766200  0.19768300  0.78239600  1
  Li  Li15  1  0.89233800  0.69768300  0.78239600  1
  Li  Li16  1  0.36603300  0.07444000  0.87751300  1
  Li  Li17  1  0.13396700  0.57444000  0.87751300  1
  Li  Li18  1  0.86330700  0.06313600  0.93103400  1
  Li  Li19  1  0.63669300  0.56313600  0.93103400  1
  Mn  Mn20  1  0.60584600  0.27313700  0.27077700  1
  Mn  Mn21  1  0.89415400  0.77313700  0.27077700  1
  Mn  Mn22  1  0.10584600  0.22686300  0.72922300  1
  Mn  Mn23  1  0.39415400  0.72686300  0.72922300  1
  C  C24  1  0.61277900  0.24430300  0.02081400  1
  C  C25  1  0.88722100  0.74430300  0.02081400  1
  C  C26  1  0.36208700  0.13624700  0.20432100  1
  C  C27  1  0.13791300  0.63624800  0.20432100  1
  C  C28  1  0.86849700  0.12062900  0.28630900  1
  C  C29  1  0.63150300  0.62062900  0.28630900  1
  C  C30  1  0.15365700  0.26371800  0.48595300  1
  C  C31  1  0.34634300  0.76371800  0.48595300  1
  C  C32  1  0.65365700  0.23628200  0.51404700  1
  C  C33  1  0.84634300  0.73628200  0.51404700  1
  C  C34  1  0.36849700  0.37937100  0.71369100  1
  C  C35  1  0.13150300  0.87937100  0.71369100  1
  C  C36  1  0.86208700  0.36375300  0.79567900  1
  C  C37  1  0.63791300  0.86375300  0.79567900  1
  C  C38  1  0.11277900  0.25569700  0.97918600  1
  C  C39  1  0.38722100  0.75569700  0.97918600  1
  O  O40  1  0.17708500  0.38336000  0.00460700  1
  O  O41  1  0.32291500  0.88336000  0.00460700  1
  O  O42  1  0.00346300  0.20595700  0.03402400  1
  O  O43  1  0.49653700  0.70595700  0.03402400  1
  O  O44  1  0.66420800  0.33668900  0.10882400  1
  O  O45  1  0.83579200  0.83668900  0.10882400  1
  O  O46  1  0.23261600  0.09846900  0.19591000  1
  O  O47  1  0.26738400  0.59846900  0.19591000  1
  O  O48  1  0.46278200  0.03532800  0.20239700  1
  O  O49  1  0.03721800  0.53532800  0.20239700  1
  O  O50  1  0.39469100  0.28710000  0.21803200  1
  O  O51  1  0.10530900  0.78710000  0.21803200  1
  O  O52  1  0.90697300  0.26607600  0.28026600  1
  O  O53  1  0.73659800  0.08401200  0.27183800  1
  O  O54  1  0.59302700  0.76607600  0.28026600  1
  O  O55  1  0.76340200  0.58401200  0.27183800  1
  O  O56  1  0.95583400  0.00652900  0.30614600  1
  O  O57  1  0.54416600  0.50652900  0.30614600  1
  O  O58  1  0.16116000  0.35218000  0.39194100  1
  O  O59  1  0.33884000  0.85218000  0.39194100  1
  O  O60  1  0.56057700  0.18777500  0.43115800  1
  O  O61  1  0.93942300  0.68777500  0.43115800  1
  O  O62  1  0.72357700  0.36256400  0.49326000  1
  O  O63  1  0.77642300  0.86256400  0.49326000  1
  O  O64  1  0.22357700  0.13743600  0.50674000  1
  O  O65  1  0.27642300  0.63743600  0.50674000  1
  O  O66  1  0.06057700  0.31222500  0.56884200  1
  O  O67  1  0.43942300  0.81222500  0.56884200  1
  O  O68  1  0.66116000  0.14782000  0.60805900  1
  O  O69  1  0.83884000  0.64782000  0.60805900  1
  O  O70  1  0.45583400  0.49347100  0.69385400  1
  O  O71  1  0.04416600  0.99347100  0.69385400  1
  O  O72  1  0.23659800  0.41598800  0.72816200  1
  O  O73  1  0.40697300  0.23392400  0.71973400  1
  O  O74  1  0.26340200  0.91598800  0.72816200  1
  O  O75  1  0.09302700  0.73392400  0.71973400  1
  O  O76  1  0.89469100  0.21290000  0.78196800  1
  O  O77  1  0.60530900  0.71290000  0.78196800  1
  O  O78  1  0.96278200  0.46467200  0.79760300  1
  O  O79  1  0.53721800  0.96467200  0.79760300  1
  O  O80  1  0.73261600  0.40153100  0.80409000  1
  O  O81  1  0.76738400  0.90153100  0.80409000  1
  O  O82  1  0.16420800  0.16331100  0.89117600  1
  O  O83  1  0.33579200  0.66331100  0.89117600  1
  O  O84  1  0.50346300  0.29404300  0.96597600  1
  O  O85  1  0.99653700  0.79404300  0.96597600  1
  O  O86  1  0.67708500  0.11664000  0.99539300  1
  O  O87  1  0.82291500  0.61664000  0.99539300  1
