# generated using pymatgen
data_LiSi3BiO8
_symmetry_space_group_name_H-M   'P 1'
_cell_length_a   7.67730364
_cell_length_b   7.67730364
_cell_length_c   13.48092734
_cell_angle_alpha   85.96547338
_cell_angle_beta   85.96547338
_cell_angle_gamma   115.47238940
_symmetry_Int_Tables_number   1
_chemical_formula_structural   LiSi3BiO8
_chemical_formula_sum   'Li4 Si12 Bi4 O32'
_cell_volume   711.08236971
_cell_formula_units_Z   4
loop_
 _symmetry_equiv_pos_site_id
 _symmetry_equiv_pos_as_xyz
  1  'x, y, z'
loop_
 _atom_site_type_symbol
 _atom_site_label
 _atom_site_symmetry_multiplicity
 _atom_site_fract_x
 _atom_site_fract_y
 _atom_site_fract_z
 _atom_site_occupancy
  Li  Li0  1  0.36995900  0.05359700  0.81713000  1
  Li  Li1  1  0.05359700  0.36995900  0.31713000  1
  Li  Li2  1  0.94640300  0.63004100  0.68287000  1
  Li  Li3  1  0.63004100  0.94640300  0.18287000  1
  Si  Si4  1  0.64269600  0.84957300  0.82269400  1
  Si  Si5  1  0.95187900  0.74515300  0.90459200  1
  Si  Si6  1  0.32649700  0.41798800  0.88580200  1
  Si  Si7  1  0.58201200  0.67350300  0.61419800  1
  Si  Si8  1  0.25484700  0.04812100  0.59540800  1
  Si  Si9  1  0.84957300  0.64269600  0.32269400  1
  Si  Si10  1  0.15042700  0.35730400  0.67730600  1
  Si  Si11  1  0.74515300  0.95187900  0.40459200  1
  Si  Si12  1  0.41798800  0.32649700  0.38580200  1
  Si  Si13  1  0.04812100  0.25484700  0.09540800  1
  Si  Si14  1  0.67350300  0.58201200  0.11419800  1
  Si  Si15  1  0.35730400  0.15042700  0.17730600  1
  Bi  Bi16  1  0.71193200  0.27461900  0.56684900  1
  Bi  Bi17  1  0.72538100  0.28806800  0.93315100  1
  Bi  Bi18  1  0.27461900  0.71193200  0.06684900  1
  Bi  Bi19  1  0.28806800  0.72538100  0.43315100  1
  O  O20  1  0.17492800  0.86828800  0.91966300  1
  O  O21  1  0.45687500  0.65578200  0.88279800  1
  O  O22  1  0.43206200  0.09353700  0.66642200  1
  O  O23  1  0.64512200  0.81005700  0.70537200  1
  O  O24  1  0.61269200  0.04160300  0.84057900  1
  O  O25  1  0.45768100  0.30108300  0.88810400  1
  O  O26  1  0.84699800  0.87985700  0.86454600  1
  O  O27  1  0.65578200  0.45687500  0.38279800  1
  O  O28  1  0.86828800  0.17492800  0.41966300  1
  O  O29  1  0.69891700  0.54231900  0.61189600  1
  O  O30  1  0.12014300  0.15300200  0.63545400  1
  O  O31  1  0.09353700  0.43206200  0.16642200  1
  O  O32  1  0.81005700  0.64512200  0.20537200  1
  O  O33  1  0.95839700  0.38730800  0.65942100  1
  O  O34  1  0.37932800  0.17242300  0.48546600  1
  O  O35  1  0.62067200  0.82757700  0.51453400  1
  O  O36  1  0.04160300  0.61269200  0.34057900  1
  O  O37  1  0.90646300  0.56793800  0.83357800  1
  O  O38  1  0.18994300  0.35487800  0.79462800  1
  O  O39  1  0.87985700  0.84699800  0.36454600  1
  O  O40  1  0.30108300  0.45768100  0.38810400  1
  O  O41  1  0.13171200  0.82507200  0.58033700  1
  O  O42  1  0.34421800  0.54312500  0.61720200  1
  O  O43  1  0.15300200  0.12014300  0.13545400  1
  O  O44  1  0.54231900  0.69891700  0.11189600  1
  O  O45  1  0.38730800  0.95839700  0.15942100  1
  O  O46  1  0.17242300  0.37932800  0.98546600  1
  O  O47  1  0.82757700  0.62067200  0.01453400  1
  O  O48  1  0.35487800  0.18994300  0.29462800  1
  O  O49  1  0.56793800  0.90646300  0.33357800  1
  O  O50  1  0.54312500  0.34421800  0.11720200  1
  O  O51  1  0.82507200  0.13171200  0.08033700  1
