# generated using pymatgen
data_Li2Fe3BiO8
_symmetry_space_group_name_H-M   'P 1'
_cell_length_a   8.69862170
_cell_length_b   8.72909456
_cell_length_c   8.71965581
_cell_angle_alpha   90.47034969
_cell_angle_beta   89.59006986
_cell_angle_gamma   89.82211380
_symmetry_Int_Tables_number   1
_chemical_formula_structural   Li2Fe3BiO8
_chemical_formula_sum   'Li8 Fe12 Bi4 O32'
_cell_volume   662.05041360
_cell_formula_units_Z   4
loop_
 _symmetry_equiv_pos_site_id
 _symmetry_equiv_pos_as_xyz
  1  'x, y, z'
loop_
 _atom_site_type_symbol
 _atom_site_label
 _atom_site_symmetry_multiplicity
 _atom_site_fract_x
 _atom_site_fract_y
 _atom_site_fract_z
 _atom_site_occupancy
  Li  Li0  1  0.99784000  0.00561500  0.00017300  1
  Li  Li1  1  0.25295200  0.24447000  0.24811800  1
  Li  Li2  1  0.25526600  0.74707500  0.75010000  1
  Li  Li3  1  0.49827000  0.00092800  0.50126900  1
  Li  Li4  1  0.49790900  0.49909400  0.99907800  1
  Li  Li5  1  0.74762400  0.24592900  0.75078400  1
  Li  Li6  1  0.75118500  0.74855300  0.25435300  1
  Li  Li7  1  0.99758000  0.50341100  0.49857400  1
  Fe  Fe8  1  0.10991200  0.14314500  0.62827700  1
  Fe  Fe9  1  0.12689000  0.39035800  0.86553500  1
  Fe  Fe10  1  0.13606400  0.62606200  0.11273800  1
  Fe  Fe11  1  0.35749000  0.37562300  0.60952700  1
  Fe  Fe12  1  0.37584500  0.60839700  0.36172100  1
  Fe  Fe13  1  0.39223200  0.86020100  0.12115400  1
  Fe  Fe14  1  0.60698400  0.35838500  0.37617100  1
  Fe  Fe15  1  0.62310500  0.10882100  0.14084300  1
  Fe  Fe16  1  0.64374000  0.87696400  0.88893400  1
  Fe  Fe17  1  0.85805100  0.12589000  0.38824800  1
  Fe  Fe18  1  0.87802300  0.88481300  0.63440000  1
  Fe  Fe19  1  0.89368900  0.64389600  0.87322200  1
  Bi  Bi20  1  0.12606400  0.87590700  0.37454100  1
  Bi  Bi21  1  0.37657700  0.12376500  0.87528300  1
  Bi  Bi22  1  0.62305900  0.62372700  0.62490300  1
  Bi  Bi23  1  0.87040800  0.37325100  0.12671900  1
  O  O24  1  0.10153400  0.12124000  0.38692500  1
  O  O25  1  0.10359800  0.89522100  0.62404200  1
  O  O26  1  0.12641200  0.61478000  0.88910400  1
  O  O27  1  0.11653300  0.16519500  0.86268800  1
  O  O28  1  0.13366700  0.40270700  0.09022200  1
  O  O29  1  0.12551100  0.37293300  0.63971800  1
  O  O30  1  0.13292800  0.62592100  0.33964500  1
  O  O31  1  0.14386000  0.85248200  0.12491500  1
  O  O32  1  0.34217900  0.13798500  0.62085000  1
  O  O33  1  0.34507900  0.38489700  0.85033000  1
  O  O34  1  0.35409500  0.63005400  0.12794600  1
  O  O35  1  0.36878200  0.61204400  0.59696900  1
  O  O36  1  0.36989800  0.85106700  0.36364000  1
  O  O37  1  0.37553600  0.37991600  0.38014400  1
  O  O38  1  0.38537800  0.09302800  0.13028100  1
  O  O39  1  0.40383400  0.86869000  0.88675300  1
  O  O40  1  0.59433700  0.36938600  0.61410700  1
  O  O41  1  0.60753600  0.59892900  0.36776000  1
  O  O42  1  0.62033200  0.87673800  0.12016100  1
  O  O43  1  0.61886300  0.34866800  0.13921200  1
  O  O44  1  0.63016600  0.11124600  0.90306300  1
  O  O45  1  0.63043100  0.12865300  0.37079900  1
  O  O46  1  0.65471200  0.88203100  0.64987900  1
  O  O47  1  0.66118500  0.63820700  0.88146100  1
  O  O48  1  0.85091700  0.35862100  0.38256400  1
  O  O49  1  0.86178000  0.11933100  0.15298400  1
  O  O50  1  0.87638900  0.87408000  0.85722900  1
  O  O51  1  0.87753500  0.88304100  0.40776400  1
  O  O52  1  0.88630600  0.66496000  0.63734100  1
  O  O53  1  0.88080400  0.10383200  0.62133300  1
  O  O54  1  0.90677800  0.40499000  0.86599800  1
  O  O55  1  0.91634200  0.63498600  0.10964700  1
