# generated using pymatgen
data_Li3VPCO7
_symmetry_space_group_name_H-M   'P 1'
_cell_length_a   6.50960500
_cell_length_b   8.65362000
_cell_length_c   9.69203239
_cell_angle_alpha   88.08669773
_cell_angle_beta   90.00000000
_cell_angle_gamma   90.00000000
_symmetry_Int_Tables_number   1
_chemical_formula_structural   Li3VPCO7
_chemical_formula_sum   'Li12 V4 P4 C4 O28'
_cell_volume   545.66377533
_cell_formula_units_Z   4
loop_
 _symmetry_equiv_pos_site_id
 _symmetry_equiv_pos_as_xyz
  1  'x, y, z'
loop_
 _atom_site_type_symbol
 _atom_site_label
 _atom_site_symmetry_multiplicity
 _atom_site_fract_x
 _atom_site_fract_y
 _atom_site_fract_z
 _atom_site_occupancy
  Li  Li0  1  0.75853900  0.88976900  0.36556400  1
  Li  Li1  1  0.74146100  0.88976900  0.86556400  1
  Li  Li2  1  0.51670300  0.70935400  0.62745300  1
  Li  Li3  1  0.98329700  0.70935400  0.12745300  1
  Li  Li4  1  0.24320500  0.62859600  0.36477200  1
  Li  Li5  1  0.25679500  0.62859600  0.86477200  1
  Li  Li6  1  0.75679500  0.37140400  0.63522800  1
  Li  Li7  1  0.74320500  0.37140400  0.13522800  1
  Li  Li8  1  0.48329700  0.29064600  0.37254700  1
  Li  Li9  1  0.01670300  0.29064600  0.87254700  1
  Li  Li10  1  0.24146100  0.11023100  0.63443600  1
  Li  Li11  1  0.25853900  0.11023100  0.13443600  1
  V  V12  1  0.01811500  0.75187600  0.63728600  1
  V  V13  1  0.48188500  0.75187600  0.13728600  1
  V  V14  1  0.98188500  0.24812400  0.36271400  1
  V  V15  1  0.51811500  0.24812400  0.86271400  1
  P  P16  1  0.76079800  0.59219500  0.39091500  1
  P  P17  1  0.73920200  0.59219500  0.89091500  1
  P  P18  1  0.23920200  0.40780500  0.60908500  1
  P  P19  1  0.26079800  0.40780500  0.10908500  1
  C  C20  1  0.25632300  0.94644400  0.38621200  1
  C  C21  1  0.24367700  0.94644400  0.88621200  1
  C  C22  1  0.74367700  0.05355600  0.61378800  1
  C  C23  1  0.75632300  0.05355600  0.11378800  1
  O  O24  1  0.29531000  0.92558100  0.25633000  1
  O  O25  1  0.77114100  0.91123600  0.57340200  1
  O  O26  1  0.20469000  0.92558100  0.75633000  1
  O  O27  1  0.24590300  0.83338700  0.47509200  1
  O  O28  1  0.72885900  0.91123600  0.07340200  1
  O  O29  1  0.25409700  0.83338700  0.97509200  1
  O  O30  1  0.94114700  0.68782000  0.32945700  1
  O  O31  1  0.56337800  0.68162900  0.34509300  1
  O  O32  1  0.93662200  0.68162900  0.84509300  1
  O  O33  1  0.55885300  0.68782000  0.82945700  1
  O  O34  1  0.24997200  0.57745800  0.65582800  1
  O  O35  1  0.77466200  0.59144300  0.55212200  1
  O  O36  1  0.25002800  0.57745800  0.15582800  1
  O  O37  1  0.72533800  0.59144300  0.05212200  1
  O  O38  1  0.22533800  0.40855700  0.44787800  1
  O  O39  1  0.75002800  0.42254200  0.34417200  1
  O  O40  1  0.27466200  0.40855700  0.94787800  1
  O  O41  1  0.74997200  0.42254200  0.84417200  1
  O  O42  1  0.05885300  0.31218000  0.67054300  1
  O  O43  1  0.43662200  0.31837100  0.65490700  1
  O  O44  1  0.44114700  0.31218000  0.17054300  1
  O  O45  1  0.06337800  0.31837100  0.15490700  1
  O  O46  1  0.75409700  0.16661300  0.52490800  1
  O  O47  1  0.22885900  0.08876400  0.42659800  1
  O  O48  1  0.74590300  0.16661300  0.02490800  1
  O  O49  1  0.70469000  0.07441900  0.74367000  1
  O  O50  1  0.27114100  0.08876400  0.92659800  1
  O  O51  1  0.79531000  0.07441900  0.24367000  1
