# generated using pymatgen
data_Li5Fe3(CoO5)2
_symmetry_space_group_name_H-M   'P 1'
_cell_length_a   5.06787044
_cell_length_b   5.18634886
_cell_length_c   7.91874944
_cell_angle_alpha   107.83240939
_cell_angle_beta   100.98262789
_cell_angle_gamma   101.44070168
_symmetry_Int_Tables_number   1
_chemical_formula_structural   Li5Fe3(CoO5)2
_chemical_formula_sum   'Li5 Fe3 Co2 O10'
_cell_volume   187.02444127
_cell_formula_units_Z   1
loop_
 _symmetry_equiv_pos_site_id
 _symmetry_equiv_pos_as_xyz
  1  'x, y, z'
loop_
 _atom_site_type_symbol
 _atom_site_label
 _atom_site_symmetry_multiplicity
 _atom_site_fract_x
 _atom_site_fract_y
 _atom_site_fract_z
 _atom_site_occupancy
  Li  Li0  1  0.21343665  0.91268544  0.41311523  1
  Li  Li1  1  0.37823628  0.28574994  0.77244502  1
  Li  Li2  1  0.50000000  0.50000000  0.50000000  1
  Li  Li3  1  0.62176372  0.71425006  0.22755498  1
  Li  Li4  1  0.78656335  0.08731456  0.58688477  1
  Fe  Fe5  1  0.00000000  0.50000000  0.00000000  1
  Fe  Fe6  1  0.69147433  0.89351980  0.89256146  1
  Fe  Fe7  1  0.30852567  0.10648020  0.10743854  1
  Co  Co8  1  0.09921321  0.69161541  0.68267808  1
  Co  Co9  1  0.90078679  0.30838459  0.31732192  1
  O  O10  1  0.04836600  0.11227073  0.86372021  1
  O  O11  1  0.34145213  0.71467870  0.94877343  1
  O  O12  1  0.13496501  0.31385231  0.54581921  1
  O  O13  1  0.22723334  0.47382389  0.23495941  1
  O  O14  1  0.44309767  0.89749266  0.66382626  1
  O  O15  1  0.55690233  0.10250734  0.33617374  1
  O  O16  1  0.77276666  0.52617611  0.76504059  1
  O  O17  1  0.86503499  0.68614769  0.45418079  1
  O  O18  1  0.65854787  0.28532130  0.05122657  1
  O  O19  1  0.95163400  0.88772927  0.13627979  1
