# generated using pymatgen
data_Li3SiNi3O8
_symmetry_space_group_name_H-M   'P 1'
_cell_length_a   5.07304451
_cell_length_b   9.72829012
_cell_length_c   5.54366066
_cell_angle_alpha   89.99996070
_cell_angle_beta   89.99997528
_cell_angle_gamma   97.61395671
_symmetry_Int_Tables_number   1
_chemical_formula_structural   Li3SiNi3O8
_chemical_formula_sum   'Li6 Si2 Ni6 O16'
_cell_volume   271.17883995
_cell_formula_units_Z   2
loop_
 _symmetry_equiv_pos_site_id
 _symmetry_equiv_pos_as_xyz
  1  'x, y, z'
loop_
 _atom_site_type_symbol
 _atom_site_label
 _atom_site_symmetry_multiplicity
 _atom_site_fract_x
 _atom_site_fract_y
 _atom_site_fract_z
 _atom_site_occupancy
  Li  Li0  1  0.99998600  0.00008100  0.49999900  1
  Li  Li1  1  0.50001400  0.49991900  0.50000000  1
  Li  Li2  1  0.50002600  0.00007200  0.24387100  1
  Li  Li3  1  0.99997300  0.49992800  0.24387000  1
  Li  Li4  1  0.50002600  0.00007200  0.75612900  1
  Li  Li5  1  0.99997400  0.49992800  0.75612900  1
  Si  Si6  1  0.75000000  0.25000000  0.00000000  1
  Si  Si7  1  0.25000000  0.75000000  0.00000000  1
  Ni  Ni8  1  0.75000100  0.25000000  0.50000000  1
  Ni  Ni9  1  0.75000000  0.75000000  0.24836000  1
  Ni  Ni10  1  0.75000000  0.75000000  0.75164000  1
  Ni  Ni11  1  0.25000100  0.74999900  0.50000000  1
  Ni  Ni12  1  0.25000000  0.25000000  0.24843000  1
  Ni  Ni13  1  0.25000000  0.25000000  0.75157200  1
  O  O14  1  0.41533400  0.15137700  0.00000100  1
  O  O15  1  0.91530500  0.65152000  0.00000000  1
  O  O16  1  0.08466700  0.34862300  0.00000000  1
  O  O17  1  0.58469400  0.84847900  0.00000000  1
  O  O18  1  0.36188200  0.13739500  0.50000100  1
  O  O19  1  0.86183300  0.63758300  0.50000000  1
  O  O20  1  0.13811800  0.36260500  0.50000000  1
  O  O21  1  0.63816700  0.86241700  0.50000000  1
  O  O22  1  0.64639400  0.35760900  0.23764400  1
  O  O23  1  0.14631300  0.85741900  0.23759300  1
  O  O24  1  0.85360600  0.14239100  0.23764500  1
  O  O25  1  0.35368600  0.64258000  0.23759300  1
  O  O26  1  0.64639400  0.35761000  0.76235600  1
  O  O27  1  0.14631300  0.85741900  0.76240700  1
  O  O28  1  0.85360700  0.14239100  0.76235500  1
  O  O29  1  0.35368700  0.64258100  0.76240600  1
