# generated using pymatgen
data_Li4MnV(PO4)3
_symmetry_space_group_name_H-M   'P 1'
_cell_length_a   8.43967400
_cell_length_b   8.45104975
_cell_length_c   9.24522598
_cell_angle_alpha   90.79336992
_cell_angle_beta   116.72970348
_cell_angle_gamma   119.23999661
_symmetry_Int_Tables_number   1
_chemical_formula_structural   Li4MnV(PO4)3
_chemical_formula_sum   'Li8 Mn2 V2 P6 O24'
_cell_volume   490.28096635
_cell_formula_units_Z   2
loop_
 _symmetry_equiv_pos_site_id
 _symmetry_equiv_pos_as_xyz
  1  'x, y, z'
loop_
 _atom_site_type_symbol
 _atom_site_label
 _atom_site_symmetry_multiplicity
 _atom_site_fract_x
 _atom_site_fract_y
 _atom_site_fract_z
 _atom_site_occupancy
  Li  Li0  1  0.19084500  0.26948400  0.86053900  1
  Li  Li1  1  0.62297100  0.93251200  0.89878000  1
  Li  Li2  1  0.93721500  0.66101900  0.85373000  1
  Li  Li3  1  0.32582500  0.79102900  0.58715500  1
  Li  Li4  1  0.67417500  0.20897100  0.41284500  1
  Li  Li5  1  0.06278500  0.33898100  0.14627000  1
  Li  Li6  1  0.37702900  0.06748800  0.10122000  1
  Li  Li7  1  0.80915500  0.73051600  0.13946100  1
  Mn  Mn8  1  0.30959000  0.64875600  0.96531100  1
  Mn  Mn9  1  0.69041000  0.35124400  0.03468900  1
  V  V10  1  0.29332600  0.15020600  0.44096000  1
  V  V11  1  0.70667400  0.84979400  0.55904000  1
  P  P12  1  0.20470300  0.95310800  0.74345200  1
  P  P13  1  0.49912400  0.54409000  0.74806100  1
  P  P14  1  0.79500700  0.24218800  0.75618400  1
  P  P15  1  0.20499300  0.75781200  0.24381600  1
  P  P16  1  0.50087600  0.45591000  0.25193900  1
  P  P17  1  0.79529700  0.04689200  0.25654800  1
  O  O18  1  0.34140300  0.14153100  0.89147200  1
  O  O19  1  0.33667100  0.49705800  0.80102200  1
  O  O20  1  0.30773800  0.83613300  0.79370500  1
  O  O21  1  0.70461700  0.56912600  0.89749700  1
  O  O22  1  0.75145400  0.19614600  0.90282200  1
  O  O23  1  0.56912400  0.74205900  0.70995100  1
  O  O24  1  0.19743000  0.99069500  0.57907200  1
  O  O25  1  0.39857900  0.39000800  0.58717400  1
  O  O26  1  0.96705900  0.45410600  0.80732200  1
  O  O27  1  0.87406900  0.11685200  0.72974700  1
  O  O28  1  0.59316800  0.18754100  0.58661700  1
  O  O29  1  0.97949400  0.84200000  0.71860300  1
  O  O30  1  0.02050600  0.15800000  0.28139700  1
  O  O31  1  0.40683200  0.81245900  0.41338300  1
  O  O32  1  0.12593100  0.88314800  0.27025300  1
  O  O33  1  0.03294100  0.54589400  0.19267800  1
  O  O34  1  0.60142100  0.60999200  0.41282600  1
  O  O35  1  0.80257000  0.00930500  0.42092800  1
  O  O36  1  0.43087600  0.25794100  0.29004900  1
  O  O37  1  0.24854600  0.80385400  0.09717800  1
  O  O38  1  0.29538300  0.43087400  0.10250300  1
  O  O39  1  0.69226200  0.16386700  0.20629500  1
  O  O40  1  0.66332900  0.50294200  0.19897800  1
  O  O41  1  0.65859700  0.85846900  0.10852800  1
