# generated using pymatgen
data_NaLiV2O6
_symmetry_space_group_name_H-M   'P 1'
_cell_length_a   7.02217000
_cell_length_b   7.02562969
_cell_length_c   11.87344742
_cell_angle_alpha   74.66164395
_cell_angle_beta   74.66993963
_cell_angle_gamma   82.51460593
_symmetry_Int_Tables_number   1
_chemical_formula_structural   NaLiV2O6
_chemical_formula_sum   'Na4 Li4 V8 O24'
_cell_volume   543.66533742
_cell_formula_units_Z   4
loop_
 _symmetry_equiv_pos_site_id
 _symmetry_equiv_pos_as_xyz
  1  'x, y, z'
loop_
 _atom_site_type_symbol
 _atom_site_label
 _atom_site_symmetry_multiplicity
 _atom_site_fract_x
 _atom_site_fract_y
 _atom_site_fract_z
 _atom_site_occupancy
  Na  Na0  1  0.71903600  0.28037600  0.87543000  1
  Na  Na1  1  0.08164500  0.91605700  0.37587600  1
  Na  Na2  1  0.71442400  0.28571000  0.37455500  1
  Na  Na3  1  0.28212200  0.71422400  0.12325100  1
  Li  Li4  1  0.09263700  0.90616300  0.87465700  1
  Li  Li5  1  0.24787700  0.75326800  0.62807300  1
  Li  Li6  1  0.90721400  0.09136600  0.62845200  1
  Li  Li7  1  0.90837000  0.09346800  0.12151700  1
  V  V8  1  0.61926900  0.80139000  0.87592700  1
  V  V9  1  0.80691500  0.61198400  0.63089700  1
  V  V10  1  0.61933800  0.80088000  0.37834600  1
  V  V11  1  0.79986700  0.61988200  0.12669300  1
  V  V12  1  0.20023600  0.38536100  0.87066200  1
  V  V13  1  0.38332100  0.19382500  0.62334000  1
  V  V14  1  0.19776200  0.37659200  0.37485300  1
  V  V15  1  0.38458700  0.20002100  0.11900900  1
  O  O16  1  0.78779000  0.97543300  0.82254900  1
  O  O17  1  0.98986800  0.77058700  0.58789800  1
  O  O18  1  0.77789300  0.98273200  0.31818900  1
  O  O19  1  0.38800900  0.90464400  0.89884300  1
  O  O20  1  0.64923500  0.63807700  0.77497800  1
  O  O21  1  0.97575700  0.78624900  0.07230900  1
  O  O22  1  0.89970200  0.37751400  0.65610300  1
  O  O23  1  0.65916200  0.65162100  0.52135000  1
  O  O24  1  0.38899800  0.89985700  0.41345800  1
  O  O25  1  0.64566400  0.64341200  0.27330500  1
  O  O26  1  0.36082400  0.35700500  0.97388100  1
  O  O27  1  0.90234000  0.38826700  0.15083700  1
  O  O28  1  0.09956000  0.61761500  0.84459000  1
  O  O29  1  0.64052700  0.65022100  0.02314500  1
  O  O30  1  0.34853300  0.35535100  0.72516600  1
  O  O31  1  0.61741000  0.09887000  0.59855700  1
  O  O32  1  0.35836500  0.34838400  0.47759500  1
  O  O33  1  0.09616900  0.60604300  0.34379000  1
  O  O34  1  0.02499000  0.21826700  0.92602900  1
  O  O35  1  0.34966800  0.34755400  0.22934800  1
  O  O36  1  0.61652500  0.09871900  0.09475100  1
  O  O37  1  0.22266300  0.01094000  0.67306700  1
  O  O38  1  0.01666200  0.21723500  0.43326100  1
  O  O39  1  0.21906600  0.02483100  0.16545800  1
