# generated using pymatgen
data_Li8Sb7S19
_symmetry_space_group_name_H-M   'P 1'
_cell_length_a   8.25164844
_cell_length_b   8.25164844
_cell_length_c   22.40933081
_cell_angle_alpha   85.96615074
_cell_angle_beta   85.96615074
_cell_angle_gamma   77.39723145
_symmetry_Int_Tables_number   1
_chemical_formula_structural   Li8Sb7S19
_chemical_formula_sum   'Li16 Sb14 S38'
_cell_volume   1483.02000991
_cell_formula_units_Z   2
loop_
 _symmetry_equiv_pos_site_id
 _symmetry_equiv_pos_as_xyz
  1  'x, y, z'
loop_
 _atom_site_type_symbol
 _atom_site_label
 _atom_site_symmetry_multiplicity
 _atom_site_fract_x
 _atom_site_fract_y
 _atom_site_fract_z
 _atom_site_occupancy
  Li  Li0  1  0.76604300  0.00587000  0.00527200  1
  Li  Li1  1  0.00587000  0.76604300  0.50527200  1
  Li  Li2  1  0.55356800  0.75433600  0.90272300  1
  Li  Li3  1  0.75433600  0.55356800  0.40272300  1
  Li  Li4  1  0.61433100  0.60996100  0.56289700  1
  Li  Li5  1  0.60996100  0.61433100  0.06289700  1
  Li  Li6  1  0.86086400  0.29810700  0.63897000  1
  Li  Li7  1  0.29810700  0.86086400  0.13897000  1
  Li  Li8  1  0.70189300  0.13913600  0.86103000  1
  Li  Li9  1  0.13913600  0.70189300  0.36103000  1
  Li  Li10  1  0.39003900  0.38566900  0.93710300  1
  Li  Li11  1  0.38566900  0.39003900  0.43710300  1
  Li  Li12  1  0.24566400  0.44643200  0.59727700  1
  Li  Li13  1  0.44643200  0.24566400  0.09727700  1
  Li  Li14  1  0.99413000  0.23395700  0.49472800  1
  Li  Li15  1  0.23395700  0.99413000  0.99472800  1
  Sb  Sb16  1  0.87714300  0.70129300  0.66225000  1
  Sb  Sb17  1  0.70129300  0.87714300  0.16225000  1
  Sb  Sb18  1  0.89285400  0.39450800  0.93216900  1
  Sb  Sb19  1  0.39450800  0.89285400  0.43216900  1
  Sb  Sb20  1  0.23978400  0.89741900  0.61271700  1
  Sb  Sb21  1  0.89741900  0.23978400  0.11271700  1
  Sb  Sb22  1  0.54220400  0.45779600  0.75000000  1
  Sb  Sb23  1  0.45779600  0.54220400  0.25000000  1
  Sb  Sb24  1  0.10258100  0.76021600  0.88728300  1
  Sb  Sb25  1  0.76021600  0.10258100  0.38728300  1
  Sb  Sb26  1  0.60549200  0.10714600  0.56783100  1
  Sb  Sb27  1  0.10714600  0.60549200  0.06783100  1
  Sb  Sb28  1  0.29870700  0.12285700  0.83775000  1
  Sb  Sb29  1  0.12285700  0.29870700  0.33775000  1
  S  S30  1  0.93854900  0.00920500  0.58340600  1
  S  S31  1  0.00920500  0.93854900  0.08340600  1
  S  S32  1  0.91200100  0.84252100  0.78887700  1
  S  S33  1  0.84369800  0.68945700  0.96235000  1
  S  S34  1  0.84252100  0.91200100  0.28887700  1
  S  S35  1  0.68945700  0.84369800  0.46235000  1
  S  S36  1  0.92640200  0.53586800  0.57267700  1
  S  S37  1  0.53586800  0.92640200  0.07267700  1
  S  S38  1  0.53533100  0.84617800  0.64253600  1
  S  S39  1  0.84617800  0.53533100  0.14253600  1
  S  S40  1  0.84404300  0.45180300  0.73210700  1
  S  S41  1  0.45180300  0.84404300  0.23210700  1
  S  S42  1  0.34997400  0.81593600  0.82101600  1
  S  S43  1  0.81593600  0.34997400  0.32101600  1
  S  S44  1  0.63451200  0.45244600  0.87260400  1
  S  S45  1  0.45244600  0.63451200  0.37260400  1
  S  S46  1  0.31397400  0.70308800  0.52549600  1
  S  S47  1  0.93164700  0.06835300  0.75000000  1
  S  S48  1  0.29691200  0.68602600  0.97450400  1
  S  S49  1  0.70308800  0.31397400  0.02549600  1
  S  S50  1  0.06835300  0.93164700  0.25000000  1
  S  S51  1  0.68602600  0.29691200  0.47450400  1
  S  S52  1  0.54755400  0.36548800  0.62739600  1
  S  S53  1  0.36548800  0.54755400  0.12739600  1
  S  S54  1  0.18406400  0.65002600  0.67898400  1
  S  S55  1  0.65002600  0.18406400  0.17898400  1
  S  S56  1  0.54819700  0.15595700  0.76789300  1
  S  S57  1  0.15595700  0.54819700  0.26789300  1
  S  S58  1  0.15382200  0.46466900  0.85746400  1
  S  S59  1  0.46466900  0.15382200  0.35746400  1
  S  S60  1  0.46413200  0.07359800  0.92732300  1
  S  S61  1  0.07359800  0.46413200  0.42732300  1
  S  S62  1  0.31054300  0.15630200  0.53765000  1
  S  S63  1  0.15747900  0.08799900  0.71112300  1
  S  S64  1  0.15630200  0.31054300  0.03765000  1
  S  S65  1  0.08799900  0.15747900  0.21112300  1
  S  S66  1  0.99079500  0.06145100  0.91659400  1
  S  S67  1  0.06145100  0.99079500  0.41659400  1
