# generated using pymatgen
data_Li5Mn8(BO3)8
_symmetry_space_group_name_H-M   'P 1'
_cell_length_a   5.33516500
_cell_length_b   9.02861706
_cell_length_c   10.39833109
_cell_angle_alpha   90.45816064
_cell_angle_beta   92.27762954
_cell_angle_gamma   90.30036482
_symmetry_Int_Tables_number   1
_chemical_formula_structural   Li5Mn8(BO3)8
_chemical_formula_sum   'Li5 Mn8 B8 O24'
_cell_volume   500.45944208
_cell_formula_units_Z   1
loop_
 _symmetry_equiv_pos_site_id
 _symmetry_equiv_pos_as_xyz
  1  'x, y, z'
loop_
 _atom_site_type_symbol
 _atom_site_label
 _atom_site_symmetry_multiplicity
 _atom_site_fract_x
 _atom_site_fract_y
 _atom_site_fract_z
 _atom_site_occupancy
  Li  Li0  1  0.33344400  0.50374700  0.41339100  1
  Li  Li1  1  0.63807900  0.47428100  0.66680400  1
  Li  Li2  1  0.64159400  0.51756100  0.16683800  1
  Li  Li3  1  0.86987200  0.00048300  0.91967900  1
  Li  Li4  1  0.84699100  0.99221200  0.41706300  1
  Mn  Mn5  1  0.14067300  0.69541700  0.62808800  1
  Mn  Mn6  1  0.15079800  0.31348500  0.13432000  1
  Mn  Mn7  1  0.35208400  0.19281400  0.87322000  1
  Mn  Mn8  1  0.32814700  0.83980100  0.36695400  1
  Mn  Mn9  1  0.66417100  0.14033200  0.62901300  1
  Mn  Mn10  1  0.65628900  0.84807200  0.12442200  1
  Mn  Mn11  1  0.84033000  0.65143900  0.88333000  1
  Mn  Mn12  1  0.84017800  0.33615200  0.39026800  1
  B  B13  1  0.16504200  0.34584300  0.63127100  1
  B  B14  1  0.15560900  0.65732700  0.13092500  1
  B  B15  1  0.34147400  0.84733100  0.86918700  1
  B  B16  1  0.33085100  0.16816900  0.38387400  1
  B  B17  1  0.67510300  0.80905300  0.61804300  1
  B  B18  1  0.68123100  0.18687300  0.11885200  1
  B  B19  1  0.82589800  0.31008700  0.86984700  1
  B  B20  1  0.82020900  0.67776300  0.37594100  1
  O  O21  1  0.06447500  0.30311400  0.92699000  1
  O  O22  1  0.06700000  0.67827700  0.43062200  1
  O  O23  1  0.20922200  0.72235200  0.81550700  1
  O  O24  1  0.21966200  0.97819700  0.87861000  1
  O  O25  1  0.18319600  0.04553500  0.38217200  1
  O  O26  1  0.22895900  0.30456100  0.34408500  1
  O  O27  1  0.28860400  0.47499500  0.60492300  1
  O  O28  1  0.30254000  0.22865500  0.68796400  1
  O  O29  1  0.27827000  0.52439800  0.13776700  1
  O  O30  1  0.28786600  0.78440200  0.16813300  1
  O  O31  1  0.42642300  0.80690200  0.57472100  1
  O  O32  1  0.43823400  0.20302200  0.06512400  1
  O  O33  1  0.59125500  0.83011400  0.91397700  1
  O  O34  1  0.58552800  0.16214900  0.42338800  1
  O  O35  1  0.70307200  0.43858300  0.85200200  1
  O  O36  1  0.70994600  0.17213600  0.83697600  1
  O  O37  1  0.68547900  0.54823900  0.36431400  1
  O  O38  1  0.72111400  0.81169100  0.33280200  1
  O  O39  1  0.78225600  0.67617200  0.66461100  1
  O  O40  1  0.81811800  0.93231000  0.60637900  1
  O  O41  1  0.78677500  0.31505100  0.17631100  1
  O  O42  1  0.80796600  0.05842000  0.10960400  1
  O  O43  1  0.91089600  0.32592500  0.59778300  1
  O  O44  1  0.90218900  0.66463600  0.08918800  1
