# generated using pymatgen
data_Li2Mn(SiO3)2
_symmetry_space_group_name_H-M   'P 1'
_cell_length_a   5.90481121
_cell_length_b   9.91109987
_cell_length_c   9.29351106
_cell_angle_alpha   90.00117844
_cell_angle_beta   90.06560049
_cell_angle_gamma   90.00208275
_symmetry_Int_Tables_number   1
_chemical_formula_structural   Li2Mn(SiO3)2
_chemical_formula_sum   'Li8 Mn4 Si8 O24'
_cell_volume   543.88540463
_cell_formula_units_Z   4
loop_
 _symmetry_equiv_pos_site_id
 _symmetry_equiv_pos_as_xyz
  1  'x, y, z'
loop_
 _atom_site_type_symbol
 _atom_site_label
 _atom_site_symmetry_multiplicity
 _atom_site_fract_x
 _atom_site_fract_y
 _atom_site_fract_z
 _atom_site_occupancy
  Li  Li0  1  0.05743400  0.41104000  0.89663000  1
  Li  Li1  1  0.55743400  0.91103900  0.89662900  1
  Li  Li2  1  0.55745100  0.08895800  0.39662200  1
  Li  Li3  1  0.05745100  0.58895700  0.39662200  1
  Li  Li4  1  0.94102800  0.32617000  0.63210500  1
  Li  Li5  1  0.44102700  0.82617100  0.63210600  1
  Li  Li6  1  0.44105000  0.17383200  0.13209400  1
  Li  Li7  1  0.94105100  0.67383200  0.13209300  1
  Mn  Mn8  1  0.48751300  0.75397200  0.25562600  1
  Mn  Mn9  1  0.48748100  0.24601900  0.75561400  1
  Mn  Mn10  1  0.98751600  0.25396000  0.25562300  1
  Mn  Mn11  1  0.98748300  0.74603100  0.75561200  1
  Si  Si12  1  0.34042400  0.47058400  0.13412300  1
  Si  Si13  1  0.84042500  0.97058300  0.13412300  1
  Si  Si14  1  0.84041600  0.02941900  0.63412400  1
  Si  Si15  1  0.34041600  0.52941900  0.63412400  1
  Si  Si16  1  0.66578800  0.46934400  0.36612400  1
  Si  Si17  1  0.16578600  0.96934400  0.36612400  1
  Si  Si18  1  0.16577700  0.03066300  0.86611700  1
  Si  Si19  1  0.66577800  0.53066300  0.86611700  1
  O  O20  1  0.24093400  0.39744100  0.71828800  1
  O  O21  1  0.74094000  0.89743800  0.71828700  1
  O  O22  1  0.74094700  0.10255500  0.21829400  1
  O  O23  1  0.24094200  0.60255000  0.21829400  1
  O  O24  1  0.15019800  0.35934900  0.09181000  1
  O  O25  1  0.65020500  0.85935100  0.09180500  1
  O  O26  1  0.65018500  0.14063100  0.59180900  1
  O  O27  1  0.15017800  0.64063300  0.59181400  1
  O  O28  1  0.88957200  0.38669000  0.41932700  1
  O  O29  1  0.38956900  0.88669200  0.41933000  1
  O  O30  1  0.38957400  0.11331000  0.91932600  1
  O  O31  1  0.88957700  0.61331100  0.91932200  1
  O  O32  1  0.74613700  0.38151400  0.81070200  1
  O  O33  1  0.24613100  0.88151100  0.81070000  1
  O  O34  1  0.24615600  0.11849500  0.31070100  1
  O  O35  1  0.74616300  0.61849100  0.31070200  1
  O  O36  1  0.53819200  0.38823900  0.23009300  1
  O  O37  1  0.03819000  0.88824300  0.23009200  1
  O  O38  1  0.03817900  0.11176300  0.73009800  1
  O  O39  1  0.53818100  0.61176600  0.73009800  1
  O  O40  1  0.46870600  0.47506100  0.48934200  1
  O  O41  1  0.96870700  0.97506200  0.48934300  1
  O  O42  1  0.96870100  0.02496000  0.98934200  1
  O  O43  1  0.46869800  0.52496000  0.98934100  1
