# generated using pymatgen
data_Li24Mn5Cr7O36
_symmetry_space_group_name_H-M   'P 1'
_cell_length_a   5.02843000
_cell_length_b   9.75249497
_cell_length_c   13.25390249
_cell_angle_alpha   97.05967048
_cell_angle_beta   100.72110825
_cell_angle_gamma   95.02218094
_symmetry_Int_Tables_number   1
_chemical_formula_structural   Li24Mn5Cr7O36
_chemical_formula_sum   'Li24 Mn5 Cr7 O36'
_cell_volume   629.70510781
_cell_formula_units_Z   1
loop_
 _symmetry_equiv_pos_site_id
 _symmetry_equiv_pos_as_xyz
  1  'x, y, z'
loop_
 _atom_site_type_symbol
 _atom_site_label
 _atom_site_symmetry_multiplicity
 _atom_site_fract_x
 _atom_site_fract_y
 _atom_site_fract_z
 _atom_site_occupancy
  Li  Li0  1  0.17053800  0.00032800  0.83344200  1
  Li  Li1  1  0.04969200  0.00060100  0.61321800  1
  Li  Li2  1  0.00046900  0.75045000  0.25035400  1
  Li  Li3  1  0.33540000  0.74934800  0.91646400  1
  Li  Li4  1  0.04543000  0.49849300  0.11225000  1
  Li  Li5  1  0.38393300  0.50051900  0.77987400  1
  Li  Li6  1  0.16204600  0.50088100  0.33291300  1
  Li  Li7  1  0.50102400  0.49914600  0.00005900  1
  Li  Li8  1  0.28301800  0.49985100  0.55433900  1
  Li  Li9  1  0.33347400  0.25020300  0.41631300  1
  Li  Li10  1  0.49852100  0.99922800  0.50045600  1
  Li  Li11  1  0.28829000  0.00073700  0.05390300  1
  Li  Li12  1  0.61631700  0.00005000  0.72047000  1
  Li  Li13  1  0.38389800  0.99979700  0.27927200  1
  Li  Li14  1  0.71361900  0.99971300  0.94680000  1
  Li  Li15  1  0.66474200  0.75039400  0.58416800  1
  Li  Li16  1  0.71969100  0.49888600  0.44501600  1
  Li  Li17  1  0.83505200  0.49919900  0.66795800  1
  Li  Li18  1  0.62044700  0.49996600  0.22055200  1
  Li  Li19  1  0.94626800  0.50117700  0.88739400  1
  Li  Li20  1  0.66674900  0.24981300  0.08324400  1
  Li  Li21  1  0.83227800  0.00060500  0.16580600  1
  Li  Li22  1  0.99940000  0.24978300  0.74857700  1
  Li  Li23  1  0.94878900  0.99977000  0.38614800  1
  Mn  Mn24  1  0.11251900  0.75156100  0.47218200  1
  Mn  Mn25  1  0.55419900  0.24920400  0.86107100  1
  Mn  Mn26  1  0.77331700  0.74732500  0.80542700  1
  Mn  Mn27  1  0.77905500  0.25040900  0.30599400  1
  Mn  Mn28  1  0.89000300  0.25030700  0.52779900  1
  Cr  Cr29  1  0.10563000  0.24847100  0.97020800  1
  Cr  Cr30  1  0.21678100  0.75004800  0.69456700  1
  Cr  Cr31  1  0.22789100  0.25152200  0.19590400  1
  Cr  Cr32  1  0.44321000  0.25006100  0.63687500  1
  Cr  Cr33  1  0.44324100  0.75086600  0.14119800  1
  Cr  Cr34  1  0.56059200  0.75062400  0.36426900  1
  Cr  Cr35  1  0.89352800  0.74951700  0.02616000  1
  O  O36  1  0.99729500  0.86123500  0.92891700  1
  O  O37  1  0.06522700  0.63540300  0.78625600  1
  O  O38  1  0.00362300  0.36148500  0.42885300  1
  O  O39  1  0.13786700  0.36327100  0.64234600  1
  O  O40  1  0.26427800  0.36267900  0.88345200  1
  O  O41  1  0.33456400  0.86336400  0.59365400  1
  O  O42  1  0.06869900  0.13693900  0.28378400  1
  O  O43  1  0.18974600  0.13909700  0.52503800  1
  O  O44  1  0.40779900  0.13428700  0.95089400  1
  O  O45  1  0.15432500  0.86306700  0.14323300  1
  O  O46  1  0.25822000  0.86516300  0.38181600  1
  O  O47  1  0.47770500  0.86100100  0.80821700  1
  O  O48  1  0.33322200  0.13788300  0.73783700  1
  O  O49  1  0.18041200  0.63772100  0.02357200  1
  O  O50  1  0.40232700  0.63673100  0.45066900  1
  O  O51  1  0.52417900  0.63798400  0.68978900  1
  O  O52  1  0.33864900  0.63840400  0.23815400  1
  O  O53  1  0.65970100  0.63661400  0.90204800  1
  O  O54  1  0.32834300  0.36238900  0.09647900  1
  O  O55  1  0.66316400  0.36094500  0.76166300  1
  O  O56  1  0.47867700  0.36180000  0.30999800  1
  O  O57  1  0.59816600  0.36350100  0.54907400  1
  O  O58  1  0.80432300  0.36220300  0.97531200  1
  O  O59  1  0.66630400  0.86255800  0.26474300  1
  O  O60  1  0.52837800  0.13826600  0.19163100  1
  O  O61  1  0.74064000  0.13510200  0.61721300  1
  O  O62  1  0.85627000  0.13853200  0.85742000  1
  O  O63  1  0.60020700  0.86442900  0.04837500  1
  O  O64  1  0.81040500  0.86129000  0.47577400  1
  O  O65  1  0.93188600  0.86332800  0.71569600  1
  O  O66  1  0.66533500  0.13864100  0.40466300  1
  O  O67  1  0.73249800  0.63660400  0.11674100  1
  O  O68  1  0.86275100  0.63732000  0.35763600  1
  O  O69  1  0.00404200  0.63895200  0.57193100  1
  O  O70  1  0.92616200  0.36533400  0.21589800  1
  O  O71  1  0.00556500  0.13762200  0.07057800  1
