# generated using pymatgen
data_LiVOF2
_symmetry_space_group_name_H-M   'P 1'
_cell_length_a   5.39460200
_cell_length_b   8.95649125
_cell_length_c   9.81466134
_cell_angle_alpha   90.07649783
_cell_angle_beta   98.56395827
_cell_angle_gamma   90.01364506
_symmetry_Int_Tables_number   1
_chemical_formula_structural   LiVOF2
_chemical_formula_sum   'Li8 V8 O8 F16'
_cell_volume   468.92429285
_cell_formula_units_Z   8
loop_
 _symmetry_equiv_pos_site_id
 _symmetry_equiv_pos_as_xyz
  1  'x, y, z'
loop_
 _atom_site_type_symbol
 _atom_site_label
 _atom_site_symmetry_multiplicity
 _atom_site_fract_x
 _atom_site_fract_y
 _atom_site_fract_z
 _atom_site_occupancy
  Li  Li0  1  0.80964700  0.40787900  0.19494200  1
  Li  Li1  1  0.18658700  0.09520400  0.30441200  1
  Li  Li2  1  0.30829400  0.59005600  0.19539300  1
  Li  Li3  1  0.68738800  0.91648900  0.30388000  1
  Li  Li4  1  0.32245900  0.09208100  0.67880200  1
  Li  Li5  1  0.67177400  0.40817700  0.80960000  1
  Li  Li6  1  0.82384400  0.91572300  0.68036300  1
  Li  Li7  1  0.17526300  0.58691100  0.82192000  1
  V  V8  1  0.76560000  0.73690400  0.01278800  1
  V  V9  1  0.75279600  0.09502100  0.01348900  1
  V  V10  1  0.25240000  0.90379500  0.01478800  1
  V  V11  1  0.26613800  0.26125700  0.01259800  1
  V  V12  1  0.25308600  0.76258600  0.49032800  1
  V  V13  1  0.25910800  0.40130000  0.48734300  1
  V  V14  1  0.73709500  0.57445800  0.50115400  1
  V  V15  1  0.73224800  0.24370000  0.49110000  1
  O  O16  1  0.12286700  0.08514100  0.09676300  1
  O  O17  1  0.62337600  0.91331600  0.09744700  1
  O  O18  1  0.60326800  0.24766500  0.10181700  1
  O  O19  1  0.10132000  0.75158200  0.10374800  1
  O  O20  1  0.40368100  0.25033400  0.39161800  1
  O  O21  1  0.37826700  0.59093500  0.40277300  1
  O  O22  1  0.89181000  0.41649000  0.40321800  1
  O  O23  1  0.59943500  0.41952200  0.60701700  1
  F  F24  1  0.13124100  0.41381400  0.13053600  1
  F  F25  1  0.63312900  0.58786800  0.13505900  1
  F  F26  1  0.87220000  0.08419800  0.37360300  1
  F  F27  1  0.88911300  0.74866700  0.39846000  1
  F  F28  1  0.36380800  0.91214000  0.36957900  1
  F  F29  1  0.64902700  0.09053800  0.62867500  1
  F  F30  1  0.11267200  0.59478300  0.61572400  1
  F  F31  1  0.10375200  0.24729000  0.60924700  1
  F  F32  1  0.15112200  0.90676800  0.62697000  1
  F  F33  1  0.61102100  0.75477600  0.60353200  1
  F  F34  1  0.89570200  0.24676500  0.89060000  1
  F  F35  1  0.88887100  0.91225200  0.88334300  1
  F  F36  1  0.34498900  0.40829500  0.87204200  1
  F  F37  1  0.39405500  0.75085800  0.89099700  1
  F  F38  1  0.38829400  0.08447800  0.88353800  1
  F  F39  1  0.84325200  0.58998700  0.87079100  1
