# generated using pymatgen
data_Li5Fe5O12
_symmetry_space_group_name_H-M   'P 1'
_cell_length_a   5.09635800
_cell_length_b   5.10046960
_cell_length_c   19.71101770
_cell_angle_alpha   92.35133637
_cell_angle_beta   93.26650079
_cell_angle_gamma   119.51760116
_symmetry_Int_Tables_number   1
_chemical_formula_structural   Li5Fe5O12
_chemical_formula_sum   'Li10 Fe10 O24'
_cell_volume   443.72733043
_cell_formula_units_Z   2
loop_
 _symmetry_equiv_pos_site_id
 _symmetry_equiv_pos_as_xyz
  1  'x, y, z'
loop_
 _atom_site_type_symbol
 _atom_site_label
 _atom_site_symmetry_multiplicity
 _atom_site_fract_x
 _atom_site_fract_y
 _atom_site_fract_z
 _atom_site_occupancy
  Li  Li0  1  0.00854300  0.51188600  0.50225800  1
  Li  Li1  1  0.35076300  0.16353400  0.50218700  1
  Li  Li2  1  0.37774300  0.87368100  0.62506400  1
  Li  Li3  1  0.09504900  0.90605600  0.74736500  1
  Li  Li4  1  0.50345200  0.01620400  0.00246800  1
  Li  Li5  1  0.74582600  0.24440400  0.74770300  1
  Li  Li6  1  0.87287500  0.37579800  0.12506700  1
  Li  Li7  1  0.58728200  0.40130800  0.24755800  1
  Li  Li8  1  0.23992600  0.73765200  0.24810500  1
  Li  Li9  1  0.15520400  0.34351400  0.00261200  1
  Fe  Fe10  1  0.46104400  0.28887000  0.87518200  1
  Fe  Fe11  1  0.12733800  0.62418300  0.87493500  1
  Fe  Fe12  1  0.79276200  0.95913200  0.87498100  1
  Fe  Fe13  1  0.70876800  0.54181000  0.62497100  1
  Fe  Fe14  1  0.04517100  0.20560900  0.62510400  1
  Fe  Fe15  1  0.95983100  0.79170100  0.37483300  1
  Fe  Fe16  1  0.62830600  0.12286600  0.37497700  1
  Fe  Fe17  1  0.29012000  0.46153200  0.37499800  1
  Fe  Fe18  1  0.20720600  0.04599400  0.12493200  1
  Fe  Fe19  1  0.55439100  0.71784700  0.12478800  1
  O  O20  1  0.79648900  0.60557100  0.82223300  1
  O  O21  1  0.45720900  0.64213900  0.92810500  1
  O  O22  1  0.81176900  0.29868000  0.93216000  1
  O  O23  1  0.34051200  0.48289900  0.57284600  1
  O  O24  1  0.29752800  0.10760500  0.32038000  1
  O  O25  1  0.41170500  0.25916100  0.67818300  1
  O  O26  1  0.01673300  0.54166100  0.67944900  1
  O  O27  1  0.97466100  0.14923400  0.42819700  1
  O  O28  1  0.29822600  0.80919700  0.43258000  1
  O  O29  1  0.44290000  0.94959600  0.81787800  1
  O  O30  1  0.09858200  0.26832600  0.82003000  1
  O  O31  1  0.85777700  0.01059800  0.07353900  1
  O  O32  1  0.70888500  0.23602100  0.57066800  1
  O  O33  1  0.89403300  0.74650400  0.17565100  1
  O  O34  1  0.99033600  0.84177000  0.57225200  1
  O  O35  1  0.15532400  0.97869200  0.92955300  1
  O  O36  1  0.50902000  0.04105500  0.18041100  1
  O  O37  1  0.76928600  0.90908600  0.67716000  1
  O  O38  1  0.94100300  0.45480700  0.31735400  1
  O  O39  1  0.60134100  0.77800400  0.32176100  1
  O  O40  1  0.23320600  0.72239700  0.07147800  1
  O  O41  1  0.46969700  0.32609400  0.06954500  1
  O  O42  1  0.64485600  0.45274500  0.42940200  1
  O  O43  1  0.26956600  0.40651700  0.17862600  1
