# generated using pymatgen
data_Li4Ti4V4CoO18
_symmetry_space_group_name_H-M   'P 1'
_cell_length_a   2.97834800
_cell_length_b   9.28099900
_cell_length_c   24.36862400
_cell_angle_alpha   90.00000000
_cell_angle_beta   90.00000000
_cell_angle_gamma   90.00000000
_symmetry_Int_Tables_number   1
_chemical_formula_structural   Li4Ti4V4CoO18
_chemical_formula_sum   'Li8 Ti8 V8 Co2 O36'
_cell_volume   673.59859656
_cell_formula_units_Z   2
loop_
 _symmetry_equiv_pos_site_id
 _symmetry_equiv_pos_as_xyz
  1  'x, y, z'
loop_
 _atom_site_type_symbol
 _atom_site_label
 _atom_site_symmetry_multiplicity
 _atom_site_fract_x
 _atom_site_fract_y
 _atom_site_fract_z
 _atom_site_occupancy
  Li  Li0  1  0.00000000  0.19639900  0.49276500  1
  Li  Li1  1  0.00000000  0.18656300  0.68994600  1
  Li  Li2  1  0.00000000  0.31343700  0.18994600  1
  Li  Li3  1  0.00000000  0.30360100  0.99276500  1
  Li  Li4  1  0.00000000  0.69639900  0.00723500  1
  Li  Li5  1  0.00000000  0.68656300  0.81005400  1
  Li  Li6  1  0.00000000  0.81343700  0.31005400  1
  Li  Li7  1  0.00000000  0.80360100  0.50723500  1
  Ti  Ti8  1  0.00000000  0.98560500  0.60072600  1
  Ti  Ti9  1  0.50000000  0.16877600  0.30557900  1
  Ti  Ti10  1  0.50000000  0.33122400  0.80557900  1
  Ti  Ti11  1  0.00000000  0.51439500  0.10072600  1
  Ti  Ti12  1  0.00000000  0.48560500  0.89927400  1
  Ti  Ti13  1  0.50000000  0.66877600  0.19442100  1
  Ti  Ti14  1  0.50000000  0.83122400  0.69442100  1
  Ti  Ti15  1  0.00000000  0.01439500  0.39927400  1
  V  V16  1  0.00000000  0.98952800  0.81834100  1
  V  V17  1  0.50000000  0.16203300  0.08758600  1
  V  V18  1  0.50000000  0.33796700  0.58758600  1
  V  V19  1  0.00000000  0.51047200  0.31834100  1
  V  V20  1  0.00000000  0.48952800  0.68165900  1
  V  V21  1  0.50000000  0.66203300  0.41241400  1
  V  V22  1  0.50000000  0.83796700  0.91241400  1
  V  V23  1  0.00000000  0.01047200  0.18165900  1
  Co  Co24  1  0.00000000  0.00000000  0.00000000  1
  Co  Co25  1  0.00000000  0.50000000  0.50000000  1
  O  O26  1  0.00000000  0.97908500  0.90419100  1
  O  O27  1  0.00000000  0.02091500  0.09580900  1
  O  O28  1  0.50000000  0.06826500  0.44484900  1
  O  O29  1  0.50000000  0.02999800  0.65802500  1
  O  O30  1  0.50000000  0.16241000  0.16534900  1
  O  O31  1  0.00000000  0.12087000  0.25529800  1
  O  O32  1  0.50000000  0.14846500  0.01037900  1
  O  O33  1  0.50000000  0.12455400  0.79566300  1
  O  O34  1  0.00000000  0.19447300  0.35816200  1
  O  O35  1  0.00000000  0.19184300  0.58237800  1
  O  O36  1  0.00000000  0.30815700  0.08237800  1
  O  O37  1  0.00000000  0.30552700  0.85816200  1
  O  O38  1  0.50000000  0.37544600  0.29566300  1
  O  O39  1  0.50000000  0.35153500  0.51037900  1
  O  O40  1  0.00000000  0.37913000  0.75529800  1
  O  O41  1  0.50000000  0.33759000  0.66534900  1
  O  O42  1  0.50000000  0.47000200  0.15802500  1
  O  O43  1  0.50000000  0.43173500  0.94484900  1
  O  O44  1  0.00000000  0.47908500  0.59580900  1
  O  O45  1  0.00000000  0.52091500  0.40419100  1
  O  O46  1  0.50000000  0.56826500  0.05515100  1
  O  O47  1  0.50000000  0.52999800  0.84197500  1
  O  O48  1  0.50000000  0.66241000  0.33465100  1
  O  O49  1  0.00000000  0.62087000  0.24470200  1
  O  O50  1  0.50000000  0.64846500  0.48962100  1
  O  O51  1  0.50000000  0.62455400  0.70433700  1
  O  O52  1  0.00000000  0.69447300  0.14183800  1
  O  O53  1  0.00000000  0.69184300  0.91762200  1
  O  O54  1  0.00000000  0.80815700  0.41762200  1
  O  O55  1  0.00000000  0.80552700  0.64183800  1
  O  O56  1  0.50000000  0.87544600  0.20433700  1
  O  O57  1  0.50000000  0.85153500  0.98962100  1
  O  O58  1  0.00000000  0.87913000  0.74470200  1
  O  O59  1  0.50000000  0.83759000  0.83465100  1
  O  O60  1  0.50000000  0.97000200  0.34197500  1
  O  O61  1  0.50000000  0.93173500  0.55515100  1
