# generated using pymatgen
data_Li4Ti5Co3O16
_symmetry_space_group_name_H-M   'P 1'
_cell_length_a   5.80453662
_cell_length_b   5.80453662
_cell_length_c   9.51549190
_cell_angle_alpha   89.68334659
_cell_angle_beta   89.68334659
_cell_angle_gamma   60.57777467
_symmetry_Int_Tables_number   1
_chemical_formula_structural   Li4Ti5Co3O16
_chemical_formula_sum   'Li4 Ti5 Co3 O16'
_cell_volume   279.24618153
_cell_formula_units_Z   1
loop_
 _symmetry_equiv_pos_site_id
 _symmetry_equiv_pos_as_xyz
  1  'x, y, z'
loop_
 _atom_site_type_symbol
 _atom_site_label
 _atom_site_symmetry_multiplicity
 _atom_site_fract_x
 _atom_site_fract_y
 _atom_site_fract_z
 _atom_site_occupancy
  Li  Li0  1  0.33357100  0.33357100  0.10777100  1
  Li  Li1  1  0.01136200  0.01136200  0.00807700  1
  Li  Li2  1  0.00425500  0.00425500  0.50456600  1
  Li  Li3  1  0.66507500  0.66507500  0.59810400  1
  Ti  Ti4  1  0.82470700  0.82470700  0.27345200  1
  Ti  Ti5  1  0.65147000  0.16141800  0.77888300  1
  Ti  Ti6  1  0.33342000  0.33342000  0.49649800  1
  Ti  Ti7  1  0.16141800  0.65147000  0.77888300  1
  Ti  Ti8  1  0.65414800  0.65414800  0.00581700  1
  Co  Co9  1  0.17268900  0.17268900  0.79079300  1
  Co  Co10  1  0.82897000  0.34365500  0.28805400  1
  Co  Co11  1  0.34365500  0.82897000  0.28805400  1
  O  O12  1  0.66631800  0.17464000  0.40257900  1
  O  O13  1  0.48399500  0.48399500  0.66492300  1
  O  O14  1  0.33915600  0.33915600  0.89848000  1
  O  O15  1  0.00307500  0.00307500  0.69512300  1
  O  O16  1  0.00378700  0.00378700  0.19650500  1
  O  O17  1  0.17464000  0.66631800  0.40257900  1
  O  O18  1  0.49934800  0.03566000  0.65080500  1
  O  O19  1  0.03566000  0.49934800  0.65080500  1
  O  O20  1  0.83311600  0.83311600  0.90416100  1
  O  O21  1  0.16837100  0.16837100  0.39913900  1
  O  O22  1  0.96489600  0.51712700  0.16283500  1
  O  O23  1  0.51712700  0.96489600  0.16283500  1
  O  O24  1  0.66634700  0.66634700  0.39315600  1
  O  O25  1  0.81962200  0.33993000  0.90889300  1
  O  O26  1  0.52152100  0.52152100  0.16988700  1
  O  O27  1  0.33993000  0.81962200  0.90889300  1
