# generated using pymatgen
data_Li2Fe3CuO8
_symmetry_space_group_name_H-M   'P 1'
_cell_length_a   8.37760721
_cell_length_b   8.41644498
_cell_length_c   8.30721577
_cell_angle_alpha   89.84301275
_cell_angle_beta   90.05865225
_cell_angle_gamma   90.01071425
_symmetry_Int_Tables_number   1
_chemical_formula_structural   Li2Fe3CuO8
_chemical_formula_sum   'Li8 Fe12 Cu4 O32'
_cell_volume   585.73652792
_cell_formula_units_Z   4
loop_
 _symmetry_equiv_pos_site_id
 _symmetry_equiv_pos_as_xyz
  1  'x, y, z'
loop_
 _atom_site_type_symbol
 _atom_site_label
 _atom_site_symmetry_multiplicity
 _atom_site_fract_x
 _atom_site_fract_y
 _atom_site_fract_z
 _atom_site_occupancy
  Li  Li0  1  0.12115000  0.87624000  0.37639300  1
  Li  Li1  1  0.24934900  0.75295400  0.74768900  1
  Li  Li2  1  0.24915700  0.24999800  0.24700000  1
  Li  Li3  1  0.37799600  0.12174900  0.87856000  1
  Li  Li4  1  0.62390200  0.62313600  0.62170400  1
  Li  Li5  1  0.75087900  0.74894100  0.25018500  1
  Li  Li6  1  0.75152100  0.25212100  0.75079700  1
  Li  Li7  1  0.87698600  0.37872800  0.12299200  1
  Fe  Fe8  1  0.12216100  0.62423100  0.12227600  1
  Fe  Fe9  1  0.12161100  0.37639000  0.88002100  1
  Fe  Fe10  1  0.12362600  0.11964100  0.62421700  1
  Fe  Fe11  1  0.37551300  0.87918000  0.12192300  1
  Fe  Fe12  1  0.37594600  0.62259100  0.37828400  1
  Fe  Fe13  1  0.37901500  0.37626500  0.62393200  1
  Fe  Fe14  1  0.62068600  0.87540100  0.87767200  1
  Fe  Fe15  1  0.62254200  0.12376800  0.12049700  1
  Fe  Fe16  1  0.62540100  0.38089400  0.37658600  1
  Fe  Fe17  1  0.87798700  0.62160800  0.87760300  1
  Fe  Fe18  1  0.87809700  0.87540700  0.62087900  1
  Fe  Fe19  1  0.88019000  0.12365100  0.37556500  1
  Cu  Cu20  1  0.99682200  0.50216400  0.49911200  1
  Cu  Cu21  1  0.50544200  0.49730600  0.99564400  1
  Cu  Cu22  1  0.49493700  0.99603700  0.50420500  1
  Cu  Cu23  1  0.00278100  0.00093300  0.00348500  1
  O  O24  1  0.10357500  0.12613600  0.38607800  1
  O  O25  1  0.10685800  0.89318200  0.62864900  1
  O  O26  1  0.11282700  0.61630200  0.88383000  1
  O  O27  1  0.12598900  0.39780000  0.10672100  1
  O  O28  1  0.11987700  0.14501800  0.86963400  1
  O  O29  1  0.13275500  0.36439500  0.64012700  1
  O  O30  1  0.13857400  0.61945900  0.35617000  1
  O  O31  1  0.13884000  0.85488600  0.11850200  1
  O  O32  1  0.35732000  0.13648500  0.62007300  1
  O  O33  1  0.36153800  0.38228100  0.86124800  1
  O  O34  1  0.36154000  0.63289500  0.13772800  1
  O  O35  1  0.37836100  0.85284700  0.36366400  1
  O  O36  1  0.37166100  0.61181900  0.60063500  1
  O  O37  1  0.38214800  0.39030400  0.38289700  1
  O  O38  1  0.39316300  0.10630900  0.12960300  1
  O  O39  1  0.39527500  0.87108700  0.88779100  1
  O  O40  1  0.60903600  0.37434600  0.60423900  1
  O  O41  1  0.60348900  0.60883400  0.37161700  1
  O  O42  1  0.61586900  0.88280300  0.11329500  1
  O  O43  1  0.62700600  0.11207500  0.89652400  1
  O  O44  1  0.62391000  0.36157100  0.14101800  1
  O  O45  1  0.63850600  0.13380200  0.36192700  1
  O  O46  1  0.63983000  0.87901500  0.64295500  1
  O  O47  1  0.64768900  0.63306100  0.88226900  1
  O  O48  1  0.86064700  0.36334300  0.37757100  1
  O  O49  1  0.86079500  0.12133800  0.13916300  1
  O  O50  1  0.86385300  0.85954200  0.86481500  1
  O  O51  1  0.88004200  0.64090500  0.63994000  1
  O  O52  1  0.87276800  0.88850700  0.39643700  1
  O  O53  1  0.88537600  0.11338500  0.61656700  1
  O  O54  1  0.89012900  0.39966000  0.87345400  1
  O  O55  1  0.89705700  0.62735200  0.10771800  1
