# generated using pymatgen
data_LiVBO4
_symmetry_space_group_name_H-M   'P 1'
_cell_length_a   9.57367831
_cell_length_b   8.39991565
_cell_length_c   5.20000305
_cell_angle_alpha   89.98941775
_cell_angle_beta   90.01562597
_cell_angle_gamma   124.71617900
_symmetry_Int_Tables_number   1
_chemical_formula_structural   LiVBO4
_chemical_formula_sum   'Li4 V4 B4 O16'
_cell_volume   343.73227178
_cell_formula_units_Z   4
loop_
 _symmetry_equiv_pos_site_id
 _symmetry_equiv_pos_as_xyz
  1  'x, y, z'
loop_
 _atom_site_type_symbol
 _atom_site_label
 _atom_site_symmetry_multiplicity
 _atom_site_fract_x
 _atom_site_fract_y
 _atom_site_fract_z
 _atom_site_occupancy
  Li  Li0  1  0.23114800  0.50621900  0.77175300  1
  Li  Li1  1  0.27490500  0.50621300  0.27187500  1
  Li  Li2  1  0.72514100  0.49381300  0.27192100  1
  Li  Li3  1  0.76878600  0.49383100  0.77190600  1
  V  V4  1  0.12915700  0.80431600  0.46609400  1
  V  V5  1  0.32504400  0.19591000  0.96597800  1
  V  V6  1  0.67491100  0.80403700  0.96599000  1
  V  V7  1  0.87090200  0.19568400  0.46620400  1
  B  B8  1  0.19343600  0.77088600  0.01844900  1
  B  B9  1  0.57717400  0.77071800  0.51822400  1
  B  B10  1  0.42270000  0.22922600  0.51826200  1
  B  B11  1  0.80663400  0.22917800  0.01843600  1
  O  O12  1  0.19113700  0.92907300  0.10555400  1
  O  O13  1  0.19519800  0.72113700  0.77112000  1
  O  O14  1  0.18873500  0.66756500  0.22949900  1
  O  O15  1  0.08104700  0.31522800  0.50431700  1
  O  O16  1  0.23451000  0.31559000  0.00427800  1
  O  O17  1  0.26226300  0.07121000  0.60548400  1
  O  O18  1  0.47861100  0.66743500  0.72923900  1
  O  O19  1  0.52572100  0.72108700  0.27085800  1
  O  O20  1  0.47421600  0.27888000  0.27093100  1
  O  O21  1  0.52129900  0.33250400  0.72926700  1
  O  O22  1  0.73762900  0.92874100  0.60557200  1
  O  O23  1  0.76550500  0.68433400  0.00433200  1
  O  O24  1  0.91905400  0.68472300  0.50432200  1
  O  O25  1  0.81151300  0.33262200  0.22943000  1
  O  O26  1  0.80488300  0.27897200  0.77107400  1
  O  O27  1  0.80874100  0.07086700  0.10559300  1
