# generated using pymatgen
data_Li9Mn7V12O48
_symmetry_space_group_name_H-M   'P 1'
_cell_length_a   5.02400900
_cell_length_b   10.25294309
_cell_length_c   17.08067259
_cell_angle_alpha   90.21437543
_cell_angle_beta   90.58368619
_cell_angle_gamma   90.23750594
_symmetry_Int_Tables_number   1
_chemical_formula_structural   Li9Mn7V12O48
_chemical_formula_sum   'Li9 Mn7 V12 O48'
_cell_volume   879.78093588
_cell_formula_units_Z   1
loop_
 _symmetry_equiv_pos_site_id
 _symmetry_equiv_pos_as_xyz
  1  'x, y, z'
loop_
 _atom_site_type_symbol
 _atom_site_label
 _atom_site_symmetry_multiplicity
 _atom_site_fract_x
 _atom_site_fract_y
 _atom_site_fract_z
 _atom_site_occupancy
  Li  Li0  1  0.24523900  0.42037600  0.96556200  1
  Li  Li1  1  0.26095500  0.74395600  0.30562500  1
  Li  Li2  1  0.25482500  0.25901700  0.79887300  1
  Li  Li3  1  0.25453800  0.58344600  0.46834400  1
  Li  Li4  1  0.40111400  0.74666800  0.74919800  1
  Li  Li5  1  0.59720600  0.25123000  0.25067000  1
  Li  Li6  1  0.74767900  0.08394100  0.53282600  1
  Li  Li7  1  0.74778100  0.74271100  0.20235500  1
  Li  Li8  1  0.74585500  0.25002100  0.69703600  1
  Mn  Mn9  1  0.09651800  0.25179000  0.25331500  1
  Mn  Mn10  1  0.23947400  0.06904000  0.97418900  1
  Mn  Mn11  1  0.26605100  0.93565100  0.47606600  1
  Mn  Mn12  1  0.73169200  0.43565900  0.52374800  1
  Mn  Mn13  1  0.75696700  0.56527900  0.02614600  1
  Mn  Mn14  1  0.74424500  0.92441600  0.02823300  1
  Mn  Mn15  1  0.90122300  0.74698800  0.74586500  1
  V  V16  1  0.20892300  0.74253900  0.94267600  1
  V  V17  1  0.22055000  0.02415000  0.66009000  1
  V  V18  1  0.20758900  0.47469100  0.65182800  1
  V  V19  1  0.28060300  0.52817600  0.15559700  1
  V  V20  1  0.29174800  0.97449800  0.15791900  1
  V  V21  1  0.27040600  0.25335100  0.44455200  1
  V  V22  1  0.72817800  0.75307700  0.55471100  1
  V  V23  1  0.69873000  0.02677400  0.84142600  1
  V  V24  1  0.72643700  0.47372000  0.84202600  1
  V  V25  1  0.78471000  0.52517600  0.34223700  1
  V  V26  1  0.79062400  0.97579900  0.34660600  1
  V  V27  1  0.78416400  0.25011100  0.05757300  1
  O  O28  1  0.06305000  0.23430900  0.99484000  1
  O  O29  1  0.05483300  0.61164200  0.37037200  1
  O  O30  1  0.08215500  0.89092600  0.37876900  1
  O  O31  1  0.09932400  0.62903900  0.20786600  1
  O  O32  1  0.10308500  0.87816500  0.20981000  1
  O  O33  1  0.10135200  0.10852200  0.46680900  1
  O  O34  1  0.05012900  0.37495000  0.46755700  1
  O  O35  1  0.07883300  0.00552600  0.07138800  1
  O  O36  1  0.06914500  0.49455000  0.07282700  1
  O  O37  1  0.13033300  0.74664200  0.84545400  1
  O  O38  1  0.13416800  0.62168700  0.70381800  1
  O  O39  1  0.13663400  0.87567300  0.70898200  1
  O  O40  1  0.33246300  0.12422500  0.20558600  1
  O  O41  1  0.32331000  0.37619500  0.20375000  1
  O  O42  1  0.32730500  0.25389500  0.34212900  1
  O  O43  1  0.41840300  0.98899600  0.57348700  1
  O  O44  1  0.42398400  0.50993400  0.57138900  1
  O  O45  1  0.40209500  0.89159000  0.96611800  1
  O  O46  1  0.43571400  0.62467700  0.96647200  1
  O  O47  1  0.42351500  0.11368400  0.72041200  1
  O  O48  1  0.39010200  0.37588700  0.70598400  1
  O  O49  1  0.40916800  0.11073800  0.88083000  1
  O  O50  1  0.44779000  0.39371000  0.86909600  1
  O  O51  1  0.43917600  0.76719600  0.49416200  1
  O  O52  1  0.55833100  0.26698500  0.50556000  1
  O  O53  1  0.57796200  0.60884200  0.12097400  1
  O  O54  1  0.58142700  0.88830800  0.12447500  1
  O  O55  1  0.58695900  0.61773500  0.28518300  1
  O  O56  1  0.61219000  0.87982200  0.28748600  1
  O  O57  1  0.55841200  0.11722300  0.03623900  1
  O  O58  1  0.60204900  0.39027900  0.03516500  1
  O  O59  1  0.57431400  0.00791900  0.42728600  1
  O  O60  1  0.58082600  0.48805200  0.42682700  1
  O  O61  1  0.67247300  0.75430100  0.65693600  1
  O  O62  1  0.66670700  0.62362700  0.79021000  1
  O  O63  1  0.67184000  0.87437300  0.79654000  1
  O  O64  1  0.86619600  0.12214600  0.29589000  1
  O  O65  1  0.86365700  0.37591500  0.29099900  1
  O  O66  1  0.86846900  0.24474800  0.15483500  1
  O  O67  1  0.91912400  0.51802500  0.92992200  1
  O  O68  1  0.91306600  0.98783900  0.93114800  1
  O  O69  1  0.89854400  0.60874300  0.53322600  1
  O  O70  1  0.94845500  0.87562500  0.53187600  1
  O  O71  1  0.90929600  0.12116900  0.79652700  1
  O  O72  1  0.91634500  0.37459100  0.78854900  1
  O  O73  1  0.95189700  0.11122800  0.63278300  1
  O  O74  1  0.91391300  0.39005800  0.61962000  1
  O  O75  1  0.92745900  0.73784300  0.00854200  1
