# generated using pymatgen
data_Li9Cr4(BO3)8
_symmetry_space_group_name_H-M   'P 1'
_cell_length_a   6.03887800
_cell_length_b   8.94389014
_cell_length_c   9.46049152
_cell_angle_alpha   65.62891850
_cell_angle_beta   88.99489582
_cell_angle_gamma   89.37733692
_symmetry_Int_Tables_number   1
_chemical_formula_structural   Li9Cr4(BO3)8
_chemical_formula_sum   'Li9 Cr4 B8 O24'
_cell_volume   465.36428412
_cell_formula_units_Z   1
loop_
 _symmetry_equiv_pos_site_id
 _symmetry_equiv_pos_as_xyz
  1  'x, y, z'
loop_
 _atom_site_type_symbol
 _atom_site_label
 _atom_site_symmetry_multiplicity
 _atom_site_fract_x
 _atom_site_fract_y
 _atom_site_fract_z
 _atom_site_occupancy
  Li  Li0  1  0.25137200  0.14636700  0.08608700  1
  Li  Li1  1  0.21928200  0.12753800  0.57384000  1
  Li  Li2  1  0.42892800  0.30228000  0.67320700  1
  Li  Li3  1  0.76157300  0.38322800  0.48630200  1
  Li  Li4  1  0.25501900  0.60374700  0.01107600  1
  Li  Li5  1  0.77445400  0.37889300  0.99744900  1
  Li  Li6  1  0.54758900  0.70550800  0.34085200  1
  Li  Li7  1  0.79215000  0.86833100  0.42666600  1
  Li  Li8  1  0.91917100  0.72453100  0.83706000  1
  Cr  Cr9  1  0.53334900  0.23035800  0.28222900  1
  Cr  Cr10  1  0.96726100  0.23007500  0.78049600  1
  Cr  Cr11  1  0.04600800  0.76133600  0.22354300  1
  Cr  Cr12  1  0.46575100  0.76165600  0.72099200  1
  B  B13  1  0.71625300  0.05153200  0.08020700  1
  B  B14  1  0.78407200  0.05325400  0.57675400  1
  B  B15  1  0.33686300  0.45116500  0.31339900  1
  B  B16  1  0.84134800  0.54385200  0.18959200  1
  B  B17  1  0.15381800  0.45585300  0.80309100  1
  B  B18  1  0.67377700  0.54732000  0.68753100  1
  B  B19  1  0.22302200  0.94102500  0.42475900  1
  B  B20  1  0.27734200  0.94610400  0.91833200  1
  O  O21  1  0.59890900  0.17647600  0.09841400  1
  O  O22  1  0.28755100  0.08969200  0.30809800  1
  O  O23  1  0.72808100  0.08468900  0.42214800  1
  O  O24  1  0.90152000  0.17340500  0.59866100  1
  O  O25  1  0.24242700  0.10135300  0.79768800  1
  O  O26  1  0.76850200  0.40099800  0.19043800  1
  O  O27  1  0.77902400  0.08624900  0.92616800  1
  O  O28  1  0.33418500  0.41504800  0.18487000  1
  O  O29  1  0.43142100  0.32191600  0.44247600  1
  O  O30  1  0.96363500  0.66285800  0.07146200  1
  O  O31  1  0.71446500  0.39599900  0.68517600  1
  O  O32  1  0.81876300  0.58559900  0.31678600  1
  O  O33  1  0.15646600  0.42149200  0.67220100  1
  O  O34  1  0.28297100  0.60243200  0.30756500  1
  O  O35  1  0.06145700  0.32141200  0.92971300  1
  O  O36  1  0.59223600  0.68063700  0.56037100  1
  O  O37  1  0.68598500  0.57280100  0.82245500  1
  O  O38  1  0.20349400  0.93102100  0.06714900  1
  O  O39  1  0.21411200  0.59682500  0.81141400  1
  O  O40  1  0.76271000  0.90237100  0.19824300  1
  O  O41  1  0.10376800  0.83172400  0.38825200  1
  O  O42  1  0.26522100  0.91927900  0.57375700  1
  O  O43  1  0.73414300  0.90367100  0.68743800  1
  O  O44  1  0.37229800  0.81968100  0.89778900  1
