# generated using pymatgen
data_LiMn(PO3)3
_symmetry_space_group_name_H-M   'P 1'
_cell_length_a   11.42314300
_cell_length_b   6.57125200
_cell_length_c   10.36188950
_cell_angle_alpha   88.84439468
_cell_angle_beta   90.00000000
_cell_angle_gamma   90.00000000
_symmetry_Int_Tables_number   1
_chemical_formula_structural   LiMn(PO3)3
_chemical_formula_sum   'Li4 Mn4 P12 O36'
_cell_volume   777.65031528
_cell_formula_units_Z   4
loop_
 _symmetry_equiv_pos_site_id
 _symmetry_equiv_pos_as_xyz
  1  'x, y, z'
loop_
 _atom_site_type_symbol
 _atom_site_label
 _atom_site_symmetry_multiplicity
 _atom_site_fract_x
 _atom_site_fract_y
 _atom_site_fract_z
 _atom_site_occupancy
  Li  Li0  1  0.40646100  0.74476800  0.31087800  1
  Li  Li1  1  0.90646100  0.25523200  0.18912200  1
  Li  Li2  1  0.09353900  0.74476800  0.81087800  1
  Li  Li3  1  0.59353900  0.25523200  0.68912200  1
  Mn  Mn4  1  0.50000000  0.00000000  0.50000000  1
  Mn  Mn5  1  0.00000000  0.50000000  0.50000000  1
  Mn  Mn6  1  0.50000000  0.50000000  0.00000000  1
  Mn  Mn7  1  0.00000000  0.00000000  0.00000000  1
  P  P8  1  0.74674500  0.26937700  0.43011500  1
  P  P9  1  0.63816700  0.64374900  0.30074800  1
  P  P10  1  0.85212800  0.88048500  0.30091700  1
  P  P11  1  0.13816700  0.35625100  0.19925200  1
  P  P12  1  0.35212800  0.11951500  0.19908300  1
  P  P13  1  0.24674500  0.73062300  0.06988500  1
  P  P14  1  0.75325500  0.26937700  0.93011500  1
  P  P15  1  0.86183300  0.64374900  0.80074800  1
  P  P16  1  0.64787200  0.88048500  0.80091700  1
  P  P17  1  0.14787200  0.11951500  0.69908300  1
  P  P18  1  0.36183300  0.35625100  0.69925200  1
  P  P19  1  0.25325500  0.73062300  0.56988500  1
  O  O20  1  0.15423100  0.65821200  0.49033400  1
  O  O21  1  0.35865700  0.79683800  0.49283000  1
  O  O22  1  0.60319100  0.73510900  0.42637400  1
  O  O23  1  0.88983200  0.76528300  0.41835100  1
  O  O24  1  0.43924800  0.06006700  0.30181600  1
  O  O25  1  0.03866600  0.38551500  0.29298500  1
  O  O26  1  0.79127800  0.10156600  0.33121800  1
  O  O27  1  0.70702600  0.42981000  0.31929700  1
  O  O28  1  0.24137800  0.22681800  0.26958500  1
  O  O29  1  0.74137800  0.77318200  0.23041500  1
  O  O30  1  0.29127800  0.89843400  0.16878200  1
  O  O31  1  0.20702600  0.57019000  0.18070300  1
  O  O32  1  0.53866600  0.61448500  0.20701500  1
  O  O33  1  0.93924800  0.93993300  0.19818400  1
  O  O34  1  0.10319100  0.26489100  0.07362600  1
  O  O35  1  0.38983200  0.23471700  0.08164900  1
  O  O36  1  0.65423100  0.34178800  0.00966600  1
  O  O37  1  0.85865700  0.20316200  0.00717000  1
  O  O38  1  0.14134300  0.79683800  0.99283000  1
  O  O39  1  0.34576900  0.65821200  0.99033400  1
  O  O40  1  0.89680900  0.73510900  0.92637400  1
  O  O41  1  0.61016800  0.76528300  0.91835100  1
  O  O42  1  0.06075200  0.06006700  0.80181600  1
  O  O43  1  0.46133400  0.38551500  0.79298500  1
  O  O44  1  0.70872200  0.10156600  0.83121800  1
  O  O45  1  0.79297400  0.42981000  0.81929700  1
  O  O46  1  0.25862200  0.22681800  0.76958500  1
  O  O47  1  0.75862200  0.77318200  0.73041500  1
  O  O48  1  0.20872200  0.89843400  0.66878200  1
  O  O49  1  0.29297400  0.57019000  0.68070300  1
  O  O50  1  0.96133400  0.61448500  0.70701500  1
  O  O51  1  0.56075200  0.93993300  0.69818400  1
  O  O52  1  0.11016800  0.23471700  0.58164900  1
  O  O53  1  0.39680900  0.26489100  0.57362600  1
  O  O54  1  0.84576900  0.34178800  0.50966600  1
  O  O55  1  0.64134300  0.20316200  0.50717000  1
