# generated using pymatgen
data_Li5Mn8Fe11O32
_symmetry_space_group_name_H-M   'P 1'
_cell_length_a   5.97968937
_cell_length_b   5.97968937
_cell_length_c   20.06146588
_cell_angle_alpha   79.97203698
_cell_angle_beta   79.97203698
_cell_angle_gamma   60.80862702
_symmetry_Int_Tables_number   1
_chemical_formula_structural   Li5Mn8Fe11O32
_chemical_formula_sum   'Li5 Mn8 Fe11 O32'
_cell_volume   613.33152110
_cell_formula_units_Z   1
loop_
 _symmetry_equiv_pos_site_id
 _symmetry_equiv_pos_as_xyz
  1  'x, y, z'
loop_
 _atom_site_type_symbol
 _atom_site_label
 _atom_site_symmetry_multiplicity
 _atom_site_fract_x
 _atom_site_fract_y
 _atom_site_fract_z
 _atom_site_occupancy
  Li  Li0  1  0.33830000  0.33830000  0.96540300  1
  Li  Li1  1  0.41256600  0.41256600  0.78169900  1
  Li  Li2  1  0.16365900  0.16365900  0.52669300  1
  Li  Li3  1  0.84259300  0.84259300  0.47309300  1
  Li  Li4  1  0.59203900  0.59203900  0.22610400  1
  Mn  Mn5  1  0.87578700  0.87578700  0.87369900  1
  Mn  Mn6  1  0.99790700  0.99790700  0.99700200  1
  Mn  Mn7  1  0.62167700  0.62167700  0.62247500  1
  Mn  Mn8  1  0.75036700  0.75036700  0.74995200  1
  Mn  Mn9  1  0.37750100  0.37750100  0.37810700  1
  Mn  Mn10  1  0.50361700  0.50361700  0.49984200  1
  Mn  Mn11  1  0.24934300  0.24934300  0.25111200  1
  Mn  Mn12  1  0.12752100  0.12752100  0.12562900  1
  Fe  Fe13  1  0.87518200  0.37361900  0.87343100  1
  Fe  Fe14  1  0.37361900  0.87518200  0.87343100  1
  Fe  Fe15  1  0.09048800  0.09048800  0.71463200  1
  Fe  Fe16  1  0.87415100  0.37772200  0.37847000  1
  Fe  Fe17  1  0.37772200  0.87415100  0.37847000  1
  Fe  Fe18  1  0.62051100  0.12502600  0.62173400  1
  Fe  Fe19  1  0.12502600  0.62051100  0.62173400  1
  Fe  Fe20  1  0.90745100  0.90745100  0.28045700  1
  Fe  Fe21  1  0.12989400  0.61570300  0.12770200  1
  Fe  Fe22  1  0.61570300  0.12989400  0.12770200  1
  Fe  Fe23  1  0.65921200  0.65921200  0.03061700  1
  O  O24  1  0.16071700  0.71649700  0.92984800  1
  O  O25  1  0.71649700  0.16071700  0.92984800  1
  O  O26  1  0.91629900  0.91629900  0.68339600  1
  O  O27  1  0.05649500  0.05649500  0.81936700  1
  O  O28  1  0.16438200  0.16438200  0.93544300  1
  O  O29  1  0.44112700  0.44112700  0.67651400  1
  O  O30  1  0.69211800  0.69211800  0.93195000  1
  O  O31  1  0.58411600  0.58411600  0.81412500  1
  O  O32  1  0.77438900  0.34372300  0.56357000  1
  O  O33  1  0.03162400  0.58794900  0.81882500  1
  O  O34  1  0.34372300  0.77438900  0.56357000  1
  O  O35  1  0.58794900  0.03162400  0.81882500  1
  O  O36  1  0.90674400  0.46472400  0.68049900  1
  O  O37  1  0.46472400  0.90674400  0.68049900  1
  O  O38  1  0.67477600  0.67477600  0.43712000  1
  O  O39  1  0.80315000  0.80315000  0.57215000  1
  O  O40  1  0.19709000  0.19709000  0.42728900  1
  O  O41  1  0.33200800  0.33200800  0.56192700  1
  O  O42  1  0.52617300  0.08388900  0.31077600  1
  O  O43  1  0.08388900  0.52617300  0.31077600  1
  O  O44  1  0.42019300  0.97453600  0.19081200  1
  O  O45  1  0.67284700  0.22674700  0.44256700  1
  O  O46  1  0.22674700  0.67284700  0.44256700  1
  O  O47  1  0.97453600  0.42019300  0.19081200  1
  O  O48  1  0.42049000  0.42049000  0.18770100  1
  O  O49  1  0.30571000  0.30571000  0.07296700  1
  O  O50  1  0.55605200  0.55605200  0.32575000  1
  O  O51  1  0.94483200  0.94483200  0.17507000  1
  O  O52  1  0.82451600  0.82451600  0.06368200  1
  O  O53  1  0.07893800  0.07893800  0.31563200  1
  O  O54  1  0.30132400  0.81396000  0.06346700  1
  O  O55  1  0.81396000  0.30132400  0.06346700  1
