# generated using pymatgen
data_Li2MnVP2(O4F)2
_symmetry_space_group_name_H-M   'P 1'
_cell_length_a   5.23497700
_cell_length_b   7.49181085
_cell_length_c   14.94234695
_cell_angle_alpha   94.48574625
_cell_angle_beta   92.00840111
_cell_angle_gamma   109.55851571
_symmetry_Int_Tables_number   1
_chemical_formula_structural   Li2MnVP2(O4F)2
_chemical_formula_sum   'Li6 Mn3 V3 P6 O24 F6'
_cell_volume   549.35468587
_cell_formula_units_Z   3
loop_
 _symmetry_equiv_pos_site_id
 _symmetry_equiv_pos_as_xyz
  1  'x, y, z'
loop_
 _atom_site_type_symbol
 _atom_site_label
 _atom_site_symmetry_multiplicity
 _atom_site_fract_x
 _atom_site_fract_y
 _atom_site_fract_z
 _atom_site_occupancy
  Li  Li0  1  0.93647800  0.01807500  0.20543200  1
  Li  Li1  1  0.73093300  0.64952500  0.46145000  1
  Li  Li2  1  0.39728200  0.31858600  0.12786000  1
  Li  Li3  1  0.60271800  0.68141400  0.87214000  1
  Li  Li4  1  0.26906700  0.35047500  0.53855000  1
  Li  Li5  1  0.06352200  0.98192500  0.79456800  1
  Mn  Mn6  1  0.00000000  0.00000000  0.00000000  1
  Mn  Mn7  1  0.66680600  0.16638000  0.66664200  1
  Mn  Mn8  1  0.33319400  0.83362000  0.33335800  1
  V  V9  1  0.00000000  0.50000000  0.00000000  1
  V  V10  1  0.66684900  0.66662500  0.66655200  1
  V  V11  1  0.33315100  0.33337500  0.33344800  1
  P  P12  1  0.89430300  0.45174200  0.21361600  1
  P  P13  1  0.76998000  0.21417500  0.45386700  1
  P  P14  1  0.55782300  0.11762400  0.88071600  1
  P  P15  1  0.44217700  0.88237600  0.11928400  1
  P  P16  1  0.23002000  0.78582500  0.54613300  1
  P  P17  1  0.10569700  0.54825800  0.78638400  1
  O  O18  1  0.98618500  0.34661400  0.73697300  1
  O  O19  1  0.85922400  0.20982100  0.55448900  1
  O  O20  1  0.75838900  0.00183900  0.88880200  1
  O  O21  1  0.65235400  0.01315900  0.40411300  1
  O  O22  1  0.80629900  0.45908700  0.11408200  1
  O  O23  1  0.95413100  0.67267600  0.58278400  1
  O  O24  1  0.90643000  0.66270400  0.77971900  1
  O  O25  1  0.61910200  0.33735200  0.25063700  1
  O  O26  1  0.67434500  0.31646800  0.92898700  1
  O  O27  1  0.57203200  0.32908100  0.44710000  1
  O  O28  1  0.47301400  0.11984200  0.77968800  1
  O  O29  1  0.72006900  0.99896300  0.08288200  1
  O  O30  1  0.27993100  0.00103700  0.91711800  1
  O  O31  1  0.52698600  0.88015800  0.22031200  1
  O  O32  1  0.42796800  0.67091900  0.55290000  1
  O  O33  1  0.32565500  0.68353200  0.07101300  1
  O  O34  1  0.38089800  0.66264800  0.74936300  1
  O  O35  1  0.09357000  0.33729600  0.22028100  1
  O  O36  1  0.04586900  0.32732400  0.41721600  1
  O  O37  1  0.19370100  0.54091300  0.88591800  1
  O  O38  1  0.34764600  0.98684200  0.59588700  1
  O  O39  1  0.24161100  0.99816100  0.11119800  1
  O  O40  1  0.14077600  0.79017900  0.44551100  1
  O  O41  1  0.01381500  0.65338600  0.26302700  1
  F  F42  1  0.83926400  0.70353200  0.97470100  1
  F  F43  1  0.82580900  0.94597300  0.69206700  1
  F  F44  1  0.50808600  0.38749200  0.64150500  1
  F  F45  1  0.49191400  0.61250800  0.35849500  1
  F  F46  1  0.17419100  0.05402700  0.30793300  1
  F  F47  1  0.16073600  0.29646800  0.02529900  1
