# generated using pymatgen
data_Li5Ti2V3O10
_symmetry_space_group_name_H-M   'P 1'
_cell_length_a   5.19145906
_cell_length_b   7.83357501
_cell_length_c   10.29392490
_cell_angle_alpha   107.94885760
_cell_angle_beta   98.99223930
_cell_angle_gamma   71.37246961
_symmetry_Int_Tables_number   1
_chemical_formula_structural   Li5Ti2V3O10
_chemical_formula_sum   'Li10 Ti4 V6 O20'
_cell_volume   376.61524084
_cell_formula_units_Z   2
loop_
 _symmetry_equiv_pos_site_id
 _symmetry_equiv_pos_as_xyz
  1  'x, y, z'
loop_
 _atom_site_type_symbol
 _atom_site_label
 _atom_site_symmetry_multiplicity
 _atom_site_fract_x
 _atom_site_fract_y
 _atom_site_fract_z
 _atom_site_occupancy
  Li  Li0  1  0.49981800  0.49660900  0.49777300  1
  Li  Li1  1  0.49981900  0.49662900  0.99777100  1
  Li  Li2  1  0.21837400  0.59108800  0.24625400  1
  Li  Li3  1  0.21837300  0.59108500  0.74625300  1
  Li  Li4  1  0.77912700  0.40315900  0.24952800  1
  Li  Li5  1  0.77912800  0.40316200  0.74952800  1
  Li  Li6  1  0.39708300  0.21749000  0.25947800  1
  Li  Li7  1  0.39707300  0.21749600  0.75947900  1
  Li  Li8  1  0.60066600  0.77706400  0.23679600  1
  Li  Li9  1  0.60068600  0.77705800  0.73679600  1
  Ti  Ti10  1  0.10591000  0.30411600  0.00758400  1
  Ti  Ti11  1  0.10590200  0.30409900  0.50758100  1
  Ti  Ti12  1  0.89254400  0.68942800  0.48848600  1
  Ti  Ti13  1  0.89255600  0.68945000  0.98849100  1
  V  V14  1  0.99891300  0.99702300  0.74798400  1
  V  V15  1  0.69553900  0.09345900  0.99560800  1
  V  V16  1  0.30235000  0.90033000  0.50020200  1
  V  V17  1  0.99890400  0.99702600  0.24798500  1
  V  V18  1  0.69551300  0.09342900  0.49561400  1
  V  V19  1  0.30237600  0.90035900  0.00019600  1
  O  O20  1  0.04160600  0.15149100  0.12288000  1
  O  O21  1  0.04158200  0.15147100  0.62287000  1
  O  O22  1  0.95619200  0.84233500  0.37304000  1
  O  O23  1  0.95621900  0.84235600  0.87304800  1
  O  O24  1  0.13713600  0.45665300  0.38899900  1
  O  O25  1  0.13714600  0.45668400  0.88900100  1
  O  O26  1  0.86142600  0.53706300  0.10708700  1
  O  O27  1  0.86141600  0.53703300  0.60708600  1
  O  O28  1  0.32985000  0.06533800  0.37573300  1
  O  O29  1  0.32986200  0.06537700  0.87573100  1
  O  O30  1  0.66801400  0.92845400  0.12006500  1
  O  O31  1  0.66801300  0.92841200  0.62006900  1
  O  O32  1  0.22051000  0.75422100  0.12155400  1
  O  O33  1  0.22051000  0.75419100  0.62155400  1
  O  O34  1  0.77734700  0.23987600  0.37448800  1
  O  O35  1  0.77736500  0.23990000  0.87448200  1
  O  O36  1  0.42632500  0.33794900  0.11578300  1
  O  O37  1  0.42630900  0.33792700  0.61578000  1
  O  O38  1  0.57195800  0.65588400  0.38031400  1
  O  O39  1  0.57197100  0.65590400  0.88031700  1
