# generated using pymatgen
data_Li2Fe3F8
_symmetry_space_group_name_H-M   'P 1'
_cell_length_a   9.24911306
_cell_length_b   9.24911306
_cell_length_c   9.24911306
_cell_angle_alpha   107.27835011
_cell_angle_beta   107.27835011
_cell_angle_gamma   113.95204134
_symmetry_Int_Tables_number   1
_chemical_formula_structural   Li2Fe3F8
_chemical_formula_sum   'Li8 Fe12 F32'
_cell_volume   606.26906184
_cell_formula_units_Z   4
loop_
 _symmetry_equiv_pos_site_id
 _symmetry_equiv_pos_as_xyz
  1  'x, y, z'
loop_
 _atom_site_type_symbol
 _atom_site_label
 _atom_site_symmetry_multiplicity
 _atom_site_fract_x
 _atom_site_fract_y
 _atom_site_fract_z
 _atom_site_occupancy
  Li  Li0  1  0.33673600  0.43878300  0.28567500  1
  Li  Li1  1  0.09689200  0.69893900  0.78567500  1
  Li  Li2  1  0.94893900  0.66326400  0.10204700  1
  Li  Li3  1  0.68878300  0.90310800  0.60204700  1
  Li  Li4  1  0.30106100  0.08673600  0.39795300  1
  Li  Li5  1  0.56121700  0.84689200  0.89795300  1
  Li  Li6  1  0.91326400  0.31121700  0.21432500  1
  Li  Li7  1  0.15310800  0.05106100  0.71432500  1
  Fe  Fe8  1  0.78423800  0.61338300  0.44038100  1
  Fe  Fe9  1  0.75000000  0.25000000  0.50000000  1
  Fe  Fe10  1  0.25000000  0.75000000  0.50000000  1
  Fe  Fe11  1  0.65614300  0.21576200  0.82914500  1
  Fe  Fe12  1  0.86338300  0.92300200  0.32914500  1
  Fe  Fe13  1  0.17300200  0.34385700  0.55961900  1
  Fe  Fe14  1  0.07699800  0.40614300  0.94038100  1
  Fe  Fe15  1  0.38661700  0.82699800  0.17085500  1
  Fe  Fe16  1  0.59385700  0.53423800  0.67085500  1
  Fe  Fe17  1  0.50000000  0.50000000  0.00000000  1
  Fe  Fe18  1  0.00000000  0.00000000  0.00000000  1
  Fe  Fe19  1  0.46576200  0.13661700  0.05961900  1
  F  F20  1  0.81447900  0.66102000  0.24524400  1
  F  F21  1  0.24547500  0.83511300  0.32803300  1
  F  F22  1  0.74291900  0.83255800  0.82803300  1
  F  F23  1  0.76486500  0.36621700  0.33645100  1
  F  F24  1  0.81923500  0.56447900  0.65345900  1
  F  F25  1  0.08255800  0.75452500  0.58963900  1
  F  F26  1  0.16488700  0.49291900  0.41036100  1
  F  F27  1  0.67841400  0.51486500  0.89864800  1
  F  F28  1  0.63378300  0.97023300  0.39864800  1
  F  F29  1  0.91102000  0.16577600  0.34654100  1
  F  F30  1  0.02976700  0.42841400  0.66354900  1
  F  F31  1  0.57271100  0.62997100  0.48370100  1
  F  F32  1  0.10373000  0.66099000  0.98370100  1
  F  F33  1  0.83422400  0.18076500  0.74524400  1
  F  F34  1  0.33901000  0.32271100  0.44274000  1
  F  F35  1  0.37002900  0.85373000  0.94274000  1
  F  F36  1  0.87997100  0.89627000  0.55726000  1
  F  F37  1  0.91099000  0.42728900  0.05726000  1
  F  F38  1  0.41577600  0.56923500  0.75475600  1
  F  F39  1  0.14627000  0.08901000  0.51629900  1
  F  F40  1  0.67728900  0.12002900  0.01629900  1
  F  F41  1  0.22023300  0.32158600  0.83645100  1
  F  F42  1  0.33898000  0.58422400  0.15345900  1
  F  F43  1  0.57158600  0.23513500  0.60135200  1
  F  F44  1  0.61621700  0.77976700  0.10135200  1
  F  F45  1  0.08511300  0.25708100  0.08963900  1
  F  F46  1  0.16744200  0.99547500  0.91036100  1
  F  F47  1  0.43076500  0.18552100  0.84654100  1
  F  F48  1  0.48513500  0.38378300  0.16354900  1
  F  F49  1  0.50708100  0.91744200  0.67196700  1
  F  F50  1  0.00452500  0.91488700  0.17196700  1
  F  F51  1  0.43552100  0.08898000  0.25475600  1
