# generated using pymatgen
data_Li3Mn(BO3)2
_symmetry_space_group_name_H-M   'P 1'
_cell_length_a   8.13463044
_cell_length_b   8.24442236
_cell_length_c   8.29018371
_cell_angle_alpha   111.15410899
_cell_angle_beta   77.96419911
_cell_angle_gamma   110.48705804
_symmetry_Int_Tables_number   1
_chemical_formula_structural   Li3Mn(BO3)2
_chemical_formula_sum   'Li12 Mn4 B8 O24'
_cell_volume   483.56655591
_cell_formula_units_Z   4
loop_
 _symmetry_equiv_pos_site_id
 _symmetry_equiv_pos_as_xyz
  1  'x, y, z'
loop_
 _atom_site_type_symbol
 _atom_site_label
 _atom_site_symmetry_multiplicity
 _atom_site_fract_x
 _atom_site_fract_y
 _atom_site_fract_z
 _atom_site_occupancy
  Li  Li0  1  0.82331900  0.89349700  0.00354100  1
  Li  Li1  1  0.32332400  0.89352700  0.50352800  1
  Li  Li2  1  0.67667000  0.10646400  0.49647100  1
  Li  Li3  1  0.17668500  0.10655700  0.99648300  1
  Li  Li4  1  0.00706700  0.24397100  0.30971500  1
  Li  Li5  1  0.50708700  0.24395600  0.80973700  1
  Li  Li6  1  0.49292500  0.75604400  0.19028700  1
  Li  Li7  1  0.99293700  0.75605000  0.69028100  1
  Li  Li8  1  0.47299300  0.55302400  0.85381800  1
  Li  Li9  1  0.97301600  0.55305400  0.35376600  1
  Li  Li10  1  0.02698100  0.44696800  0.64620800  1
  Li  Li11  1  0.52700100  0.44697000  0.14621200  1
  Mn  Mn12  1  0.86062400  0.22746200  0.94771500  1
  Mn  Mn13  1  0.63947200  0.77247200  0.55244600  1
  Mn  Mn14  1  0.36062200  0.22760800  0.44767500  1
  Mn  Mn15  1  0.13934700  0.77225000  0.05210000  1
  B  B16  1  0.28298900  0.55897200  0.44697400  1
  B  B17  1  0.78297500  0.55890900  0.94700900  1
  B  B18  1  0.21701100  0.44108200  0.05300400  1
  B  B19  1  0.71701900  0.44100500  0.55299400  1
  B  B20  1  0.42828700  0.87775300  0.78604300  1
  B  B21  1  0.92828400  0.87775000  0.28606800  1
  B  B22  1  0.07167500  0.12234000  0.71394600  1
  B  B23  1  0.57171400  0.12224700  0.21391900  1
  O  O24  1  0.55161800  0.36738400  0.62997500  1
  O  O25  1  0.05161400  0.36740100  0.12998300  1
  O  O26  1  0.94836900  0.63260300  0.87002800  1
  O  O27  1  0.44839100  0.63260300  0.37003600  1
  O  O28  1  0.48106100  0.72453600  0.74614300  1
  O  O29  1  0.98114400  0.72455200  0.24608500  1
  O  O30  1  0.01883500  0.27561000  0.75393100  1
  O  O31  1  0.51886700  0.27547800  0.25391800  1
  O  O32  1  0.51905300  0.98311600  0.67516400  1
  O  O33  1  0.01901200  0.98316500  0.17523400  1
  O  O34  1  0.98099500  0.01689600  0.82478100  1
  O  O35  1  0.48097100  0.01687700  0.32480000  1
  O  O36  1  0.22238000  0.37732800  0.45116000  1
  O  O37  1  0.72242900  0.37723700  0.95118100  1
  O  O38  1  0.27758800  0.62271800  0.04885200  1
  O  O39  1  0.77765200  0.62264000  0.54884000  1
  O  O40  1  0.16671200  0.65868800  0.51933800  1
  O  O41  1  0.66672400  0.65864800  0.01935400  1
  O  O42  1  0.33329100  0.34133500  0.98064000  1
  O  O43  1  0.83329000  0.34127400  0.48063000  1
  O  O44  1  0.19875100  0.07897500  0.58597900  1
  O  O45  1  0.69885700  0.07891300  0.08593100  1
  O  O46  1  0.30122400  0.92109500  0.91402700  1
  O  O47  1  0.80114800  0.92099400  0.41405200  1
