# generated using pymatgen
data_Li2AlVO4
_symmetry_space_group_name_H-M   'P 1'
_cell_length_a   5.10981611
_cell_length_b   10.48965972
_cell_length_c   8.76111889
_cell_angle_alpha   74.74051710
_cell_angle_beta   74.12045218
_cell_angle_gamma   76.50594585
_symmetry_Int_Tables_number   1
_chemical_formula_structural   Li2AlVO4
_chemical_formula_sum   'Li12 Al6 V6 O24'
_cell_volume   429.11675430
_cell_formula_units_Z   6
loop_
 _symmetry_equiv_pos_site_id
 _symmetry_equiv_pos_as_xyz
  1  'x, y, z'
loop_
 _atom_site_type_symbol
 _atom_site_label
 _atom_site_symmetry_multiplicity
 _atom_site_fract_x
 _atom_site_fract_y
 _atom_site_fract_z
 _atom_site_occupancy
  Li  Li0  1  0.99973800  0.75183600  0.24751800  1
  Li  Li1  1  0.99995900  0.25202300  0.74766500  1
  Li  Li2  1  0.99943400  0.49803400  0.83519800  1
  Li  Li3  1  0.99977000  0.99816500  0.33533700  1
  Li  Li4  1  0.00312300  0.50312800  0.15788600  1
  Li  Li5  1  0.00301900  0.00279700  0.65812500  1
  Li  Li6  1  0.99697600  0.74748700  0.92498900  1
  Li  Li7  1  0.99691400  0.24718900  0.42522200  1
  Li  Li8  1  0.00188300  0.99240900  0.00679300  1
  Li  Li9  1  0.00172200  0.49258400  0.50733100  1
  Li  Li10  1  0.99845900  0.25743400  0.07690900  1
  Li  Li11  1  0.99833900  0.75751100  0.57746800  1
  Al  Al12  1  0.50033900  0.62511900  0.04151600  1
  Al  Al13  1  0.50030600  0.12515100  0.54144500  1
  Al  Al14  1  0.49783600  0.87117300  0.12796600  1
  Al  Al15  1  0.49760200  0.37133000  0.62822600  1
  Al  Al16  1  0.50261700  0.37857900  0.95539300  1
  Al  Al17  1  0.50233400  0.87879800  0.45560200  1
  V  V18  1  0.49975500  0.37490600  0.29161900  1
  V  V19  1  0.50113200  0.62495000  0.37664000  1
  V  V20  1  0.49881700  0.12478300  0.20669800  1
  V  V21  1  0.49963700  0.87497700  0.79146100  1
  V  V22  1  0.50118400  0.12499700  0.87656100  1
  V  V23  1  0.49854900  0.62483700  0.70659700  1
  O  O24  1  0.27234500  0.55050000  0.60338900  1
  O  O25  1  0.27277800  0.05047900  0.10293100  1
  O  O26  1  0.72700000  0.19903400  0.98067800  1
  O  O27  1  0.72674000  0.69906800  0.48112600  1
  O  O28  1  0.28508800  0.31661000  0.84812800  1
  O  O29  1  0.28565400  0.81648000  0.34799000  1
  O  O30  1  0.71531900  0.43281900  0.73550300  1
  O  O31  1  0.71493600  0.93295800  0.23564500  1
  O  O32  1  0.27695000  0.31535000  0.17160200  1
  O  O33  1  0.27652400  0.81573800  0.67148400  1
  O  O34  1  0.72232100  0.43492000  0.41183900  1
  O  O35  1  0.72268800  0.93458200  0.91179900  1
  O  O36  1  0.28379500  0.55860800  0.93879900  1
  O  O37  1  0.28328700  0.05881400  0.43897500  1
  O  O38  1  0.71737600  0.69127800  0.14388300  1
  O  O39  1  0.71692800  0.19145600  0.64399100  1
  O  O40  1  0.27821000  0.56307100  0.25861400  1
  O  O41  1  0.27830500  0.06306800  0.75849300  1
  O  O42  1  0.72193000  0.68732800  0.82431300  1
  O  O43  1  0.72217700  0.18731200  0.32431700  1
  O  O44  1  0.28130900  0.80389300  0.02700000  1
  O  O45  1  0.28142500  0.30407100  0.52686400  1
  O  O46  1  0.71869100  0.44608800  0.05634400  1
  O  O47  1  0.71878500  0.94628300  0.55613100  1
