# generated using pymatgen
data_Li2Mn4OF8
_symmetry_space_group_name_H-M   'P 1'
_cell_length_a   5.46300000
_cell_length_b   9.45643900
_cell_length_c   14.59456800
_cell_angle_alpha   90.00000000
_cell_angle_beta   90.00000000
_cell_angle_gamma   90.00000000
_symmetry_Int_Tables_number   1
_chemical_formula_structural   Li2Mn4OF8
_chemical_formula_sum   'Li8 Mn16 O4 F32'
_cell_volume   753.96306337
_cell_formula_units_Z   4
loop_
 _symmetry_equiv_pos_site_id
 _symmetry_equiv_pos_as_xyz
  1  'x, y, z'
loop_
 _atom_site_type_symbol
 _atom_site_label
 _atom_site_symmetry_multiplicity
 _atom_site_fract_x
 _atom_site_fract_y
 _atom_site_fract_z
 _atom_site_occupancy
  Li  Li0  1  0.75246700  0.00413700  0.89802200  1
  Li  Li1  1  0.75246700  0.99586300  0.10197800  1
  Li  Li2  1  0.24753300  0.49586300  0.39802200  1
  Li  Li3  1  0.24753300  0.50413700  0.60197800  1
  Li  Li4  1  0.26684100  0.52418600  0.09749400  1
  Li  Li5  1  0.26684100  0.47581400  0.90250600  1
  Li  Li6  1  0.73315900  0.02418600  0.40250600  1
  Li  Li7  1  0.73315900  0.97581400  0.59749400  1
  Mn  Mn8  1  0.77115500  0.33058400  0.05883400  1
  Mn  Mn9  1  0.77115500  0.66941600  0.94116600  1
  Mn  Mn10  1  0.76921200  0.66614300  0.23820800  1
  Mn  Mn11  1  0.76921200  0.33385700  0.76179200  1
  Mn  Mn12  1  0.23078800  0.16614300  0.26179200  1
  Mn  Mn13  1  0.23078800  0.83385700  0.73820800  1
  Mn  Mn14  1  0.22884500  0.83058400  0.44116600  1
  Mn  Mn15  1  0.22884500  0.16941600  0.55883400  1
  Mn  Mn16  1  0.23808200  0.83989000  0.93698500  1
  Mn  Mn17  1  0.23808200  0.16011000  0.06301500  1
  Mn  Mn18  1  0.23454600  0.17404200  0.75916600  1
  Mn  Mn19  1  0.23454600  0.82595800  0.24083400  1
  Mn  Mn20  1  0.76545400  0.67404200  0.74083400  1
  Mn  Mn21  1  0.76545400  0.32595800  0.25916600  1
  Mn  Mn22  1  0.76191800  0.66011000  0.43698500  1
  Mn  Mn23  1  0.76191800  0.33989000  0.56301500  1
  O  O24  1  0.95287700  0.19415600  0.15910700  1
  O  O25  1  0.95287700  0.80584400  0.84089300  1
  O  O26  1  0.04712300  0.30584400  0.65910700  1
  O  O27  1  0.04712300  0.69415600  0.34089300  1
  F  F28  1  0.88087500  0.14908100  0.49674200  1
  F  F29  1  0.88087500  0.85091900  0.50325800  1
  F  F30  1  0.90797200  0.83885500  0.16457900  1
  F  F31  1  0.90797200  0.16114500  0.83542100  1
  F  F32  1  0.91230100  0.49573700  0.16045300  1
  F  F33  1  0.91230100  0.50426300  0.83954700  1
  F  F34  1  0.96864600  0.50000000  0.50000000  1
  F  F35  1  0.03135400  0.00000000  0.00000000  1
  F  F36  1  0.08769900  0.99573700  0.33954700  1
  F  F37  1  0.08769900  0.00426300  0.66045300  1
  F  F38  1  0.09202800  0.33885500  0.33542100  1
  F  F39  1  0.09202800  0.66114500  0.66457900  1
  F  F40  1  0.11912500  0.35091900  0.99674200  1
  F  F41  1  0.11912500  0.64908100  0.00325800  1
  F  F42  1  0.41294200  0.64931400  0.49507200  1
  F  F43  1  0.41294200  0.35068600  0.50492800  1
  F  F44  1  0.42662900  0.66554200  0.17293800  1
  F  F45  1  0.42662900  0.33445800  0.82706200  1
  F  F46  1  0.39470200  0.00471100  0.16687200  1
  F  F47  1  0.39470200  0.99528900  0.83312800  1
  F  F48  1  0.45367400  0.32599500  0.15846100  1
  F  F49  1  0.45367400  0.67400500  0.84153900  1
  F  F50  1  0.43060600  0.00000000  0.50000000  1
  F  F51  1  0.56939400  0.50000000  0.00000000  1
  F  F52  1  0.54632600  0.17400500  0.65846100  1
  F  F53  1  0.54632600  0.82599500  0.34153900  1
  F  F54  1  0.60529800  0.49528900  0.66687200  1
  F  F55  1  0.60529800  0.50471100  0.33312800  1
  F  F56  1  0.57337100  0.16554200  0.32706200  1
  F  F57  1  0.57337100  0.83445800  0.67293800  1
  F  F58  1  0.58705800  0.14931400  0.00492800  1
  F  F59  1  0.58705800  0.85068600  0.99507200  1
