# generated using pymatgen
data_LiMnPO4
_symmetry_space_group_name_H-M   'P 1'
_cell_length_a   5.05845615
_cell_length_b   8.86791358
_cell_length_c   8.65109831
_cell_angle_alpha   81.49655662
_cell_angle_beta   74.94809759
_cell_angle_gamma   91.25156822
_symmetry_Int_Tables_number   1
_chemical_formula_structural   LiMnPO4
_chemical_formula_sum   'Li4 Mn4 P4 O16'
_cell_volume   369.89847387
_cell_formula_units_Z   4
loop_
 _symmetry_equiv_pos_site_id
 _symmetry_equiv_pos_as_xyz
  1  'x, y, z'
loop_
 _atom_site_type_symbol
 _atom_site_label
 _atom_site_symmetry_multiplicity
 _atom_site_fract_x
 _atom_site_fract_y
 _atom_site_fract_z
 _atom_site_occupancy
  Li  Li0  1  0.71399700  0.27985200  0.50343200  1
  Li  Li1  1  0.21397100  0.78027900  0.50341700  1
  Li  Li2  1  0.52772200  0.46637100  0.00320400  1
  Li  Li3  1  0.02776900  0.96634900  0.00326500  1
  Mn  Mn4  1  0.90640300  0.59819100  0.24792700  1
  Mn  Mn5  1  0.60072700  0.90299500  0.74876800  1
  Mn  Mn6  1  0.40480500  0.09851200  0.24826200  1
  Mn  Mn7  1  0.10206400  0.40375900  0.74785100  1
  P  P8  1  0.96350000  0.28655300  0.12578700  1
  P  P9  1  0.46404300  0.78666900  0.12598800  1
  P  P10  1  0.16252900  0.08823300  0.62606800  1
  P  P11  1  0.66308400  0.58819100  0.62566100  1
  O  O12  1  0.06706100  0.12306200  0.15087200  1
  O  O13  1  0.56764800  0.62321600  0.15125800  1
  O  O14  1  0.96944400  0.22181100  0.65131800  1
  O  O15  1  0.46922000  0.72151700  0.65107200  1
  O  O16  1  0.67618900  0.27316900  0.09298800  1
  O  O17  1  0.17709100  0.77298600  0.09268600  1
  O  O18  1  0.49935000  0.45114600  0.59282500  1
  O  O19  1  0.99828000  0.95124900  0.59334200  1
  O  O20  1  0.94606300  0.36113300  0.27998700  1
  O  O21  1  0.44572300  0.86153600  0.28000400  1
  O  O22  1  0.26619300  0.04198000  0.77996100  1
  O  O23  1  0.76634300  0.54216800  0.77977000  1
  O  O24  1  0.41919800  0.13460500  0.47956800  1
  O  O25  1  0.91977500  0.63479400  0.47930700  1
  O  O26  1  0.16169400  0.39192400  0.97963000  1
  O  O27  1  0.66241800  0.89187700  0.97976200  1
