# generated using pymatgen
data_Li2Fe2Ni(PO4)3
_symmetry_space_group_name_H-M   'P 1'
_cell_length_a   8.35191735
_cell_length_b   8.44370947
_cell_length_c   8.44370917
_cell_angle_alpha   63.70482115
_cell_angle_beta   63.94258678
_cell_angle_gamma   63.94258440
_symmetry_Int_Tables_number   1
_chemical_formula_structural   Li2Fe2Ni(PO4)3
_chemical_formula_sum   'Li4 Fe4 Ni2 P6 O24'
_cell_volume   456.91481595
_cell_formula_units_Z   2
loop_
 _symmetry_equiv_pos_site_id
 _symmetry_equiv_pos_as_xyz
  1  'x, y, z'
loop_
 _atom_site_type_symbol
 _atom_site_label
 _atom_site_symmetry_multiplicity
 _atom_site_fract_x
 _atom_site_fract_y
 _atom_site_fract_z
 _atom_site_occupancy
  Li  Li0  1  0.75000000  0.14192000  0.35808000  1
  Li  Li1  1  0.25000000  0.84781900  0.65218100  1
  Li  Li2  1  0.64947600  0.24946200  0.84974300  1
  Li  Li3  1  0.85052400  0.65025700  0.25053800  1
  Fe  Fe4  1  0.14697800  0.14640000  0.14192400  1
  Fe  Fe5  1  0.35302200  0.35807600  0.35360000  1
  Fe  Fe6  1  0.65192800  0.65242800  0.65418600  1
  Fe  Fe7  1  0.84807200  0.84581400  0.84757200  1
  Ni  Ni8  1  0.00587100  0.99831500  0.99552500  1
  Ni  Ni9  1  0.49412900  0.50447500  0.50168500  1
  P  P10  1  0.06128600  0.74770100  0.44086100  1
  P  P11  1  0.43871400  0.05913900  0.75229900  1
  P  P12  1  0.75000000  0.44192400  0.05807600  1
  P  P13  1  0.25000000  0.54598600  0.95401400  1
  P  P14  1  0.55280400  0.95557500  0.25202700  1
  P  P15  1  0.94719600  0.24797300  0.54442500  1
  O  O16  1  0.11293600  0.31440500  0.48741200  1
  O  O17  1  0.32542200  0.50159200  0.10867500  1
  O  O18  1  0.06367300  0.91068200  0.25220700  1
  O  O19  1  0.53172800  0.10730300  0.32006400  1
  O  O20  1  0.03293100  0.81305800  0.59722100  1
  O  O21  1  0.25591700  0.59424500  0.42351400  1
  O  O22  1  0.24408300  0.07648600  0.90575500  1
  O  O23  1  0.43632700  0.24779300  0.58931800  1
  O  O24  1  0.17457800  0.39132500  0.99840800  1
  O  O25  1  0.60038300  0.41909200  0.25760600  1
  O  O26  1  0.10066700  0.74308600  0.93624800  1
  O  O27  1  0.38706400  0.01258800  0.18559500  1
  O  O28  1  0.59580300  0.02836300  0.81971600  1
  O  O29  1  0.89961700  0.24239400  0.08090800  1
  O  O30  1  0.39933300  0.56375200  0.75691400  1
  O  O31  1  0.81641000  0.59581000  0.03127100  1
  O  O32  1  0.56242200  0.76000000  0.40182800  1
  O  O33  1  0.74885600  0.93140000  0.09954200  1
  O  O34  1  0.75114400  0.40045800  0.56860000  1
  O  O35  1  0.96827200  0.17993600  0.39269700  1
  O  O36  1  0.46706900  0.90277900  0.68694200  1
  O  O37  1  0.93757800  0.09817200  0.74000000  1
  O  O38  1  0.68359000  0.46872900  0.90419000  1
  O  O39  1  0.90419700  0.68028400  0.47163700  1
