# generated using pymatgen
data_Li2FePCO7
_symmetry_space_group_name_H-M   'P 1'
_cell_length_a   6.49422300
_cell_length_b   9.38609900
_cell_length_c   10.16284447
_cell_angle_alpha   62.19374046
_cell_angle_beta   90.00000000
_cell_angle_gamma   90.00000000
_symmetry_Int_Tables_number   1
_chemical_formula_structural   Li2FePCO7
_chemical_formula_sum   'Li8 Fe4 P4 C4 O28'
_cell_volume   547.94905623
_cell_formula_units_Z   4
loop_
 _symmetry_equiv_pos_site_id
 _symmetry_equiv_pos_as_xyz
  1  'x, y, z'
loop_
 _atom_site_type_symbol
 _atom_site_label
 _atom_site_symmetry_multiplicity
 _atom_site_fract_x
 _atom_site_fract_y
 _atom_site_fract_z
 _atom_site_occupancy
  Li  Li0  1  0.25768400  0.09571100  0.57111500  1
  Li  Li1  1  0.24231600  0.09571100  0.07111500  1
  Li  Li2  1  0.46680800  0.27511500  0.73571700  1
  Li  Li3  1  0.03319200  0.27511500  0.23571700  1
  Li  Li4  1  0.96680800  0.72488500  0.76428300  1
  Li  Li5  1  0.53319200  0.72488500  0.26428300  1
  Li  Li6  1  0.75768400  0.90428900  0.92888500  1
  Li  Li7  1  0.74231600  0.90428900  0.42888500  1
  Fe  Fe8  1  0.75631600  0.32951800  0.93530000  1
  Fe  Fe9  1  0.74368400  0.32951800  0.43530000  1
  Fe  Fe10  1  0.25631600  0.67048200  0.56470000  1
  Fe  Fe11  1  0.24368400  0.67048200  0.06470000  1
  P  P12  1  0.24590200  0.42015600  0.92928700  1
  P  P13  1  0.25409800  0.42015600  0.42928700  1
  P  P14  1  0.74590200  0.57984400  0.57071300  1
  P  P15  1  0.75409800  0.57984400  0.07071300  1
  C  C16  1  0.75788600  0.03938100  0.62919400  1
  C  C17  1  0.74211400  0.03938100  0.12919400  1
  C  C18  1  0.25788600  0.96061900  0.87080600  1
  C  C19  1  0.24211400  0.96061900  0.37080600  1
  O  O20  1  0.73644700  0.07766700  0.98698100  1
  O  O21  1  0.76355300  0.07766700  0.48698100  1
  O  O22  1  0.27668800  0.10300000  0.76627500  1
  O  O23  1  0.73353400  0.16183700  0.65641000  1
  O  O24  1  0.22331200  0.10300000  0.26627500  1
  O  O25  1  0.76646600  0.16183700  0.15641000  1
  O  O26  1  0.06299500  0.30504800  0.94944300  1
  O  O27  1  0.43664300  0.31740700  0.93485300  1
  O  O28  1  0.06335700  0.31740700  0.43485300  1
  O  O29  1  0.43700500  0.30504800  0.44944300  1
  O  O30  1  0.72830800  0.42026200  0.71643900  1
  O  O31  1  0.25956800  0.46075600  0.56159100  1
  O  O32  1  0.77169200  0.42026200  0.21643900  1
  O  O33  1  0.24043200  0.46075600  0.06159100  1
  O  O34  1  0.75956800  0.53924400  0.93840900  1
  O  O35  1  0.22830800  0.57973800  0.78356100  1
  O  O36  1  0.74043200  0.53924400  0.43840900  1
  O  O37  1  0.27169200  0.57973800  0.28356100  1
  O  O38  1  0.56299500  0.69495200  0.55055700  1
  O  O39  1  0.93664300  0.68259300  0.56514700  1
  O  O40  1  0.93700500  0.69495200  0.05055700  1
  O  O41  1  0.56335700  0.68259300  0.06514700  1
  O  O42  1  0.23353400  0.83816300  0.84359000  1
  O  O43  1  0.77668800  0.89700000  0.73372500  1
  O  O44  1  0.26646600  0.83816300  0.34359000  1
  O  O45  1  0.72331200  0.89700000  0.23372500  1
  O  O46  1  0.23644700  0.92233300  0.51301900  1
  O  O47  1  0.26355300  0.92233300  0.01301900  1
