# generated using pymatgen
data_LiP3(WO6)2
_symmetry_space_group_name_H-M   'P 1'
_cell_length_a   8.85683563
_cell_length_b   8.85683563
_cell_length_c   8.91294899
_cell_angle_alpha   60.37371149
_cell_angle_beta   60.37371149
_cell_angle_gamma   60.37125986
_symmetry_Int_Tables_number   1
_chemical_formula_structural   LiP3(WO6)2
_chemical_formula_sum   'Li2 P6 W4 O24'
_cell_volume   498.55286682
_cell_formula_units_Z   2
loop_
 _symmetry_equiv_pos_site_id
 _symmetry_equiv_pos_as_xyz
  1  'x, y, z'
loop_
 _atom_site_type_symbol
 _atom_site_label
 _atom_site_symmetry_multiplicity
 _atom_site_fract_x
 _atom_site_fract_y
 _atom_site_fract_z
 _atom_site_occupancy
  Li  Li0  1  0.60314700  0.92741200  0.24244300  1
  Li  Li1  1  0.07258800  0.39685300  0.75755700  1
  P  P2  1  0.54016000  0.74862600  0.00132400  1
  P  P3  1  0.75287400  0.53929700  0.49923900  1
  P  P4  1  0.03784500  0.96215500  0.50000000  1
  P  P5  1  0.96024800  0.03975200  0.00000000  1
  P  P6  1  0.25137400  0.45984000  0.99867600  1
  P  P7  1  0.46070300  0.24712600  0.50076100  1
  W  W8  1  0.85798700  0.35983700  0.17520000  1
  W  W9  1  0.64016300  0.14201300  0.82480000  1
  W  W10  1  0.35770800  0.85905200  0.67446600  1
  W  W11  1  0.14094800  0.64229200  0.32553400  1
  O  O12  1  0.87588400  0.99515500  0.67345600  1
  O  O13  1  0.48667600  0.20230700  0.67668100  1
  O  O14  1  0.72065400  0.58287300  0.00469800  1
  O  O15  1  0.37785700  0.70344600  0.17455500  1
  O  O16  1  0.06078600  0.77927800  0.49603100  1
  O  O17  1  0.70236100  0.38084900  0.67269400  1
  O  O18  1  0.79769300  0.51332400  0.32331900  1
  O  O19  1  0.56485100  0.90918000  0.00416500  1
  O  O20  1  0.59460700  0.72714900  0.49350700  1
  O  O21  1  0.92027800  0.55227700  0.50270100  1
  O  O22  1  0.00484500  0.12411600  0.32654400  1
  O  O23  1  0.22072200  0.93921400  0.50396900  1
  O  O24  1  0.77351400  0.05553600  0.00846200  1
  O  O25  1  0.99000400  0.88402700  0.17543000  1
  O  O26  1  0.09082000  0.43514900  0.99583500  1
  O  O27  1  0.41712700  0.27934600  0.99530200  1
  O  O28  1  0.44772300  0.07972200  0.49729900  1
  O  O29  1  0.29655400  0.62214300  0.82544500  1
  O  O30  1  0.20467100  0.49251400  0.17294200  1
  O  O31  1  0.94446400  0.22648600  0.99153800  1
  O  O32  1  0.61915100  0.29763900  0.32730600  1
  O  O33  1  0.27285100  0.40539300  0.50649300  1
  O  O34  1  0.50748600  0.79532900  0.82705800  1
  O  O35  1  0.11597300  0.00999600  0.82457000  1
