# generated using pymatgen
data_Li5BiO4
_symmetry_space_group_name_H-M   'P 1'
_cell_length_a   9.32720600
_cell_length_b   9.70163800
_cell_length_c   9.95823100
_cell_angle_alpha   90.00000000
_cell_angle_beta   90.00000000
_cell_angle_gamma   90.00000000
_symmetry_Int_Tables_number   1
_chemical_formula_structural   Li5BiO4
_chemical_formula_sum   'Li40 Bi8 O32'
_cell_volume   901.11211924
_cell_formula_units_Z   8
loop_
 _symmetry_equiv_pos_site_id
 _symmetry_equiv_pos_as_xyz
  1  'x, y, z'
loop_
 _atom_site_type_symbol
 _atom_site_label
 _atom_site_symmetry_multiplicity
 _atom_site_fract_x
 _atom_site_fract_y
 _atom_site_fract_z
 _atom_site_occupancy
  Li  Li0  1  0.11534000  0.58178500  0.14131800  1
  Li  Li1  1  0.11534000  0.91821500  0.64131800  1
  Li  Li2  1  0.11969500  0.13512300  0.84938000  1
  Li  Li3  1  0.11969500  0.36487700  0.34938000  1
  Li  Li4  1  0.12494900  0.85486500  0.40503100  1
  Li  Li5  1  0.12494900  0.64513500  0.90503100  1
  Li  Li6  1  0.13615800  0.84440000  0.14579200  1
  Li  Li7  1  0.13615800  0.65560000  0.64579200  1
  Li  Li8  1  0.17016500  0.11072000  0.41390200  1
  Li  Li9  1  0.17016500  0.38928000  0.91390200  1
  Li  Li10  1  0.32983500  0.88928000  0.91390200  1
  Li  Li11  1  0.32983500  0.61072000  0.41390200  1
  Li  Li12  1  0.36384200  0.15560000  0.64579200  1
  Li  Li13  1  0.36384200  0.34440000  0.14579200  1
  Li  Li14  1  0.37505100  0.14513500  0.90503100  1
  Li  Li15  1  0.37505100  0.35486500  0.40503100  1
  Li  Li16  1  0.38030500  0.63512300  0.84938000  1
  Li  Li17  1  0.38030500  0.86487700  0.34938000  1
  Li  Li18  1  0.38466000  0.08178500  0.14131800  1
  Li  Li19  1  0.38466000  0.41821500  0.64131800  1
  Li  Li20  1  0.61534000  0.58178500  0.35868200  1
  Li  Li21  1  0.61534000  0.91821500  0.85868200  1
  Li  Li22  1  0.61969500  0.13512300  0.65062000  1
  Li  Li23  1  0.61969500  0.36487700  0.15062000  1
  Li  Li24  1  0.62494900  0.64513500  0.59496900  1
  Li  Li25  1  0.62494900  0.85486500  0.09496900  1
  Li  Li26  1  0.63615800  0.65560000  0.85420800  1
  Li  Li27  1  0.63615800  0.84440000  0.35420800  1
  Li  Li28  1  0.67016500  0.11072000  0.08609800  1
  Li  Li29  1  0.67016500  0.38928000  0.58609800  1
  Li  Li30  1  0.82983500  0.61072000  0.08609800  1
  Li  Li31  1  0.82983500  0.88928000  0.58609800  1
  Li  Li32  1  0.86384200  0.34440000  0.35420800  1
  Li  Li33  1  0.86384200  0.15560000  0.85420800  1
  Li  Li34  1  0.87505100  0.14513500  0.59496900  1
  Li  Li35  1  0.87505100  0.35486500  0.09496900  1
  Li  Li36  1  0.88030500  0.63512300  0.65062000  1
  Li  Li37  1  0.88030500  0.86487700  0.15062000  1
  Li  Li38  1  0.88466000  0.08178500  0.35868200  1
  Li  Li39  1  0.88466000  0.41821500  0.85868200  1
  Bi  Bi40  1  0.07654000  0.14813300  0.14234300  1
  Bi  Bi41  1  0.07654000  0.35186700  0.64234300  1
  Bi  Bi42  1  0.42346000  0.64813300  0.14234300  1
  Bi  Bi43  1  0.42346000  0.85186700  0.64234300  1
  Bi  Bi44  1  0.57654000  0.14813300  0.35765700  1
  Bi  Bi45  1  0.57654000  0.35186700  0.85765700  1
  Bi  Bi46  1  0.92346000  0.64813300  0.35765700  1
  Bi  Bi47  1  0.92346000  0.85186700  0.85765700  1
  O  O48  1  0.99955100  0.22523600  0.44989700  1
  O  O49  1  0.99955100  0.27476400  0.94989700  1
  O  O50  1  0.02229500  0.96014400  0.26668600  1
  O  O51  1  0.02229500  0.53985600  0.76668600  1
  O  O52  1  0.22414500  0.03345100  0.01175700  1
  O  O53  1  0.22414500  0.46654900  0.51175700  1
  O  O54  1  0.25918500  0.22385800  0.26700100  1
  O  O55  1  0.25918500  0.27614200  0.76700100  1
  O  O56  1  0.24081500  0.72385800  0.26700100  1
  O  O57  1  0.24081500  0.77614200  0.76700100  1
  O  O58  1  0.27585500  0.53345100  0.01175700  1
  O  O59  1  0.27585500  0.96654900  0.51175700  1
  O  O60  1  0.47770500  0.46014400  0.26668600  1
  O  O61  1  0.47770500  0.03985600  0.76668600  1
  O  O62  1  0.50044900  0.72523600  0.44989700  1
  O  O63  1  0.50044900  0.77476400  0.94989700  1
  O  O64  1  0.49955100  0.22523600  0.05010300  1
  O  O65  1  0.49955100  0.27476400  0.55010300  1
  O  O66  1  0.52229500  0.96014400  0.23331400  1
  O  O67  1  0.52229500  0.53985600  0.73331400  1
  O  O68  1  0.72414500  0.03345100  0.48824300  1
  O  O69  1  0.72414500  0.46654900  0.98824300  1
  O  O70  1  0.75918500  0.22385800  0.23299900  1
  O  O71  1  0.75918500  0.27614200  0.73299900  1
  O  O72  1  0.74081500  0.72385800  0.23299900  1
  O  O73  1  0.74081500  0.77614200  0.73299900  1
  O  O74  1  0.77585500  0.53345100  0.48824300  1
  O  O75  1  0.77585500  0.96654900  0.98824300  1
  O  O76  1  0.97770500  0.03985600  0.73331400  1
  O  O77  1  0.97770500  0.46014400  0.23331400  1
  O  O78  1  0.00044900  0.72523600  0.05010300  1
  O  O79  1  0.00044900  0.77476400  0.55010300  1
