# generated using pymatgen
data_LiFeSiO4
_symmetry_space_group_name_H-M   'P 1'
_cell_length_a   8.78220917
_cell_length_b   8.78220917
_cell_length_c   8.30091800
_cell_angle_alpha   90.00000000
_cell_angle_beta   90.00000000
_cell_angle_gamma   119.99999373
_symmetry_Int_Tables_number   1
_chemical_formula_structural   LiFeSiO4
_chemical_formula_sum   'Li6 Fe6 Si6 O24'
_cell_volume   554.45248720
_cell_formula_units_Z   6
loop_
 _symmetry_equiv_pos_site_id
 _symmetry_equiv_pos_as_xyz
  1  'x, y, z'
loop_
 _atom_site_type_symbol
 _atom_site_label
 _atom_site_symmetry_multiplicity
 _atom_site_fract_x
 _atom_site_fract_y
 _atom_site_fract_z
 _atom_site_occupancy
  Li  Li0  1  0.33333300  0.66666700  0.98498600  1
  Li  Li1  1  0.33333300  0.66666700  0.55072900  1
  Li  Li2  1  0.00000000  0.00000000  0.81586000  1
  Li  Li3  1  0.00000000  0.00000000  0.31586000  1
  Li  Li4  1  0.66666700  0.33333300  0.48498600  1
  Li  Li5  1  0.66666700  0.33333300  0.05072900  1
  Fe  Fe6  1  0.04463300  0.68671400  0.26374600  1
  Fe  Fe7  1  0.31328600  0.35791900  0.26374600  1
  Fe  Fe8  1  0.64208100  0.95536700  0.26374600  1
  Fe  Fe9  1  0.35791900  0.04463300  0.76374600  1
  Fe  Fe10  1  0.68671400  0.64208100  0.76374600  1
  Fe  Fe11  1  0.95536700  0.31328600  0.76374600  1
  Si  Si12  1  0.03979700  0.68381800  0.88176000  1
  Si  Si13  1  0.31618200  0.35597900  0.88176000  1
  Si  Si14  1  0.64402100  0.96020300  0.88176000  1
  Si  Si15  1  0.35597900  0.03979700  0.38176000  1
  Si  Si16  1  0.68381800  0.64402100  0.38176000  1
  Si  Si17  1  0.96020300  0.31618200  0.38176000  1
  O  O18  1  0.11218800  0.87323900  0.78747400  1
  O  O19  1  0.14318800  0.72447400  0.05601700  1
  O  O20  1  0.09838500  0.55883600  0.78330600  1
  O  O21  1  0.24075900  0.82377900  0.40444000  1
  O  O22  1  0.17622100  0.41698100  0.40444000  1
  O  O23  1  0.12676100  0.23894800  0.78747400  1
  O  O24  1  0.46045100  0.90161500  0.78330600  1
  O  O25  1  0.27552600  0.41871400  0.05601700  1
  O  O26  1  0.58128600  0.85681200  0.05601700  1
  O  O27  1  0.23894800  0.11218800  0.28747400  1
  O  O28  1  0.44116400  0.53954900  0.78330600  1
  O  O29  1  0.58301900  0.75924100  0.40444000  1
  O  O30  1  0.41698100  0.24075900  0.90444000  1
  O  O31  1  0.55883600  0.46045100  0.28330600  1
  O  O32  1  0.76105200  0.88781200  0.78747400  1
  O  O33  1  0.41871400  0.14318800  0.55601700  1
  O  O34  1  0.72447400  0.58128600  0.55601700  1
  O  O35  1  0.53954900  0.09838500  0.28330600  1
  O  O36  1  0.87323900  0.76105200  0.28747400  1
  O  O37  1  0.82377900  0.58301900  0.90444000  1
  O  O38  1  0.75924100  0.17622100  0.90444000  1
  O  O39  1  0.90161500  0.44116400  0.28330600  1
  O  O40  1  0.85681200  0.27552600  0.55601700  1
  O  O41  1  0.88781200  0.12676100  0.28747400  1
