# generated using pymatgen
data_Li2VF5
_symmetry_space_group_name_H-M   'P 1'
_cell_length_a   5.51411000
_cell_length_b   7.49037200
_cell_length_c   9.65349700
_cell_angle_alpha   90.00000000
_cell_angle_beta   90.00000000
_cell_angle_gamma   90.00000000
_symmetry_Int_Tables_number   1
_chemical_formula_structural   Li2VF5
_chemical_formula_sum   'Li8 V4 F20'
_cell_volume   398.71582985
_cell_formula_units_Z   4
loop_
 _symmetry_equiv_pos_site_id
 _symmetry_equiv_pos_as_xyz
  1  'x, y, z'
loop_
 _atom_site_type_symbol
 _atom_site_label
 _atom_site_symmetry_multiplicity
 _atom_site_fract_x
 _atom_site_fract_y
 _atom_site_fract_z
 _atom_site_occupancy
  Li  Li0  1  0.75000000  0.93112900  0.28326400  1
  Li  Li1  1  0.25000000  0.08373400  0.42954400  1
  Li  Li2  1  0.75000000  0.41626600  0.92954400  1
  Li  Li3  1  0.25000000  0.56887100  0.78326400  1
  Li  Li4  1  0.75000000  0.43112900  0.21673600  1
  Li  Li5  1  0.25000000  0.58373400  0.07045600  1
  Li  Li6  1  0.75000000  0.91626600  0.57045600  1
  Li  Li7  1  0.25000000  0.06887100  0.71673600  1
  V  V8  1  0.25000000  0.18263800  0.04746800  1
  V  V9  1  0.75000000  0.31736200  0.54746800  1
  V  V10  1  0.25000000  0.68263800  0.45253200  1
  V  V11  1  0.75000000  0.81736200  0.95253200  1
  F  F12  1  0.00000000  0.00000000  0.00000000  1
  F  F13  1  0.50000000  0.00000000  0.00000000  1
  F  F14  1  0.25000000  0.11292300  0.23826700  1
  F  F15  1  0.49565600  0.13479800  0.58272000  1
  F  F16  1  0.00434400  0.13479800  0.58272000  1
  F  F17  1  0.75000000  0.23927000  0.35236800  1
  F  F18  1  0.25000000  0.26073000  0.85236800  1
  F  F19  1  0.99565600  0.36520200  0.08272000  1
  F  F20  1  0.50434400  0.36520200  0.08272000  1
  F  F21  1  0.75000000  0.38707700  0.73826700  1
  F  F22  1  0.00000000  0.50000000  0.50000000  1
  F  F23  1  0.50000000  0.50000000  0.50000000  1
  F  F24  1  0.25000000  0.61292300  0.26173300  1
  F  F25  1  0.49565600  0.63479800  0.91728000  1
  F  F26  1  0.00434400  0.63479800  0.91728000  1
  F  F27  1  0.75000000  0.73927000  0.14763200  1
  F  F28  1  0.25000000  0.76073000  0.64763200  1
  F  F29  1  0.99565600  0.86520200  0.41728000  1
  F  F30  1  0.50434400  0.86520200  0.41728000  1
  F  F31  1  0.75000000  0.88707700  0.76173300  1
