# generated using pymatgen
data_Li4V3P8O29
_symmetry_space_group_name_H-M   'P 1'
_cell_length_a   9.78690990
_cell_length_b   9.78690990
_cell_length_c   14.07521796
_cell_angle_alpha   89.88035974
_cell_angle_beta   89.88035974
_cell_angle_gamma   60.10848771
_symmetry_Int_Tables_number   1
_chemical_formula_structural   Li4V3P8O29
_chemical_formula_sum   'Li8 V6 P16 O58'
_cell_volume   1168.82477300
_cell_formula_units_Z   2
loop_
 _symmetry_equiv_pos_site_id
 _symmetry_equiv_pos_as_xyz
  1  'x, y, z'
loop_
 _atom_site_type_symbol
 _atom_site_label
 _atom_site_symmetry_multiplicity
 _atom_site_fract_x
 _atom_site_fract_y
 _atom_site_fract_z
 _atom_site_occupancy
  Li  Li0  1  0.09169900  0.68009400  0.56072800  1
  Li  Li1  1  0.32068500  0.77651500  0.44196300  1
  Li  Li2  1  0.68009400  0.09169900  0.06072800  1
  Li  Li3  1  0.31400500  0.91135100  0.94273300  1
  Li  Li4  1  0.77651400  0.32068500  0.94196300  1
  Li  Li5  1  0.91135100  0.31400500  0.44273300  1
  Li  Li6  1  0.76931500  0.91425300  0.44025400  1
  Li  Li7  1  0.91425300  0.76931500  0.94025400  1
  V  V8  1  0.99977500  0.56675200  0.75248500  1
  V  V9  1  0.43040100  0.00122300  0.74708700  1
  V  V10  1  0.43164000  0.56695900  0.24694300  1
  V  V11  1  0.56695900  0.43164000  0.74694300  1
  V  V12  1  0.56675200  0.99977500  0.25248500  1
  V  V13  1  0.00122300  0.43040100  0.24708700  1
  P  P14  1  0.08707600  0.22957000  0.84050500  1
  P  P15  1  0.22957000  0.08707600  0.34050500  1
  P  P16  1  0.08779400  0.68052500  0.34050700  1
  P  P17  1  0.33266500  0.33453500  0.62857800  1
  P  P18  1  0.33453500  0.33266500  0.12857800  1
  P  P19  1  0.23249800  0.68205000  0.84238200  1
  P  P20  1  0.31787000  0.76863500  0.65864500  1
  P  P21  1  0.68052500  0.08779400  0.84050700  1
  P  P22  1  0.31973200  0.91338100  0.15801800  1
  P  P23  1  0.68205000  0.23249800  0.34238200  1
  P  P24  1  0.76863500  0.31787000  0.15864500  1
  P  P25  1  0.66360500  0.66850800  0.87119700  1
  P  P26  1  0.66850800  0.66360500  0.37119700  1
  P  P27  1  0.91338100  0.31973200  0.65801800  1
  P  P28  1  0.76918200  0.91237200  0.65726500  1
  P  P29  1  0.91237200  0.76918200  0.15726500  1
  O  O30  1  0.98770500  0.24855600  0.56590700  1
  O  O31  1  0.08077500  0.25607100  0.33792700  1
  O  O32  1  0.20600300  0.00839900  0.24491800  1
  O  O33  1  0.24855600  0.98770500  0.06590700  1
  O  O34  1  0.10021800  0.37852700  0.82461900  1
  O  O35  1  0.25607100  0.08077500  0.83792700  1
  O  O36  1  0.18467600  0.33567900  0.17506800  1
  O  O37  1  0.09666600  0.52042100  0.32304400  1
  O  O38  1  0.99587600  0.75412900  0.06645000  1
  O  O39  1  0.08554300  0.66118700  0.84146200  1
  O  O40  1  0.33567900  0.18467600  0.67506800  1
  O  O41  1  0.18550200  0.48597400  0.66720500  1
  O  O42  1  0.37852700  0.10021800  0.32461900  1
  O  O43  1  0.34070800  0.32960700  0.52347100  1
  O  O44  1  0.32960700  0.34070800  0.02347100  1
  O  O45  1  0.52042100  0.09666600  0.82304400  1
  O  O46  1  0.33367700  0.48259400  0.17556700  1
  O  O47  1  0.48597400  0.18550200  0.16720500  1
  O  O48  1  0.25494400  0.66165200  0.34016100  1
  O  O49  1  0.20596000  0.78690500  0.74609700  1
  O  O50  1  0.24334000  0.76617100  0.92661900  1
  O  O51  1  0.24514500  0.75591600  0.56798700  1
  O  O52  1  0.38302100  0.52203300  0.82199400  1
  O  O53  1  0.48259400  0.33367700  0.67556700  1
  O  O54  1  0.66118700  0.08554300  0.34146200  1
  O  O55  1  0.34225100  0.74426700  0.17052000  1
  O  O56  1  0.52203300  0.38302100  0.32199400  1
  O  O57  1  0.23254700  0.99520500  0.42525600  1
  O  O58  1  0.75412900  0.99587600  0.56645000  1
  O  O59  1  0.47944600  0.61689200  0.67620300  1
  O  O60  1  0.66165200  0.25494400  0.84016100  1
  O  O61  1  0.78928700  0.00116600  0.74908600  1
  O  O62  1  0.34119800  0.91327800  0.66425000  1
  O  O63  1  0.51656000  0.66742200  0.32893300  1
  O  O64  1  0.61689200  0.47944600  0.17620300  1
  O  O65  1  0.75591600  0.24514500  0.06798700  1
  O  O66  1  0.76617100  0.24334000  0.42661900  1
  O  O67  1  0.78690500  0.20596000  0.24609700  1
  O  O68  1  0.74426700  0.34225100  0.67052000  1
  O  O69  1  0.51184400  0.81826800  0.82846200  1
  O  O70  1  0.48076200  0.90234200  0.17825400  1
  O  O71  1  0.66742200  0.51656000  0.82893300  1
  O  O72  1  0.66846600  0.65677100  0.47727200  1
  O  O73  1  0.65677100  0.66846600  0.97727200  1
  O  O74  1  0.61781200  0.90211300  0.67957000  1
  O  O75  1  0.81826800  0.51184400  0.32846200  1
  O  O76  1  0.67550700  0.81089600  0.33323500  1
  O  O77  1  0.91327800  0.34119800  0.16425000  1
  O  O78  1  0.00839900  0.20600300  0.74491800  1
  O  O79  1  0.99520500  0.23254700  0.92525600  1
  O  O80  1  0.90234200  0.48076200  0.67825400  1
  O  O81  1  0.81089600  0.67550700  0.83323500  1
  O  O82  1  0.74696000  0.91689400  0.16092300  1
  O  O83  1  0.90211300  0.61781200  0.17957000  1
  O  O84  1  0.75766900  0.00021100  0.93043500  1
  O  O85  1  0.91689400  0.74696000  0.66092300  1
  O  O86  1  0.00021100  0.75766900  0.43043500  1
  O  O87  1  0.00116600  0.78928700  0.24908600  1
