# generated using pymatgen
data_Li3Cr3(PO4)4
_symmetry_space_group_name_H-M   'P 1'
_cell_length_a   8.20593700
_cell_length_b   9.08073324
_cell_length_c   13.12398939
_cell_angle_alpha   86.26038137
_cell_angle_beta   89.93810268
_cell_angle_gamma   89.90591123
_symmetry_Int_Tables_number   1
_chemical_formula_structural   Li3Cr3(PO4)4
_chemical_formula_sum   'Li9 Cr9 P12 O48'
_cell_volume   975.86214299
_cell_formula_units_Z   3
loop_
 _symmetry_equiv_pos_site_id
 _symmetry_equiv_pos_as_xyz
  1  'x, y, z'
loop_
 _atom_site_type_symbol
 _atom_site_label
 _atom_site_symmetry_multiplicity
 _atom_site_fract_x
 _atom_site_fract_y
 _atom_site_fract_z
 _atom_site_occupancy
  Li  Li0  1  0.47571800  0.34083000  0.16659100  1
  Li  Li1  1  0.52043000  0.98931300  0.49982700  1
  Li  Li2  1  0.14647900  0.43858100  0.17120600  1
  Li  Li3  1  0.01019400  0.81794500  0.16341000  1
  Li  Li4  1  0.99827500  0.51531900  0.51055900  1
  Li  Li5  1  0.02562500  0.17779300  0.83456000  1
  Li  Li6  1  0.35468500  0.27596100  0.84129300  1
  Li  Li7  1  0.85552500  0.89282900  0.49448800  1
  Li  Li8  1  0.49115900  0.64868000  0.82866500  1
  Cr  Cr9  1  0.85474200  0.22813700  0.16881300  1
  Cr  Cr10  1  0.14605100  0.10586300  0.50010100  1
  Cr  Cr11  1  0.64265200  0.72595900  0.16690700  1
  Cr  Cr12  1  0.64690800  0.39390100  0.50607400  1
  Cr  Cr13  1  0.64312300  0.06339100  0.83305400  1
  Cr  Cr14  1  0.34895800  0.94174700  0.16107800  1
  Cr  Cr15  1  0.35394100  0.60809400  0.50297400  1
  Cr  Cr16  1  0.85613400  0.55750000  0.83121900  1
  Cr  Cr17  1  0.15020500  0.77308200  0.83204600  1
  P  P18  1  0.19077400  0.14491500  0.05225800  1
  P  P19  1  0.69977400  0.02475000  0.27904600  1
  P  P20  1  0.29344500  0.63686600  0.05497100  1
  P  P21  1  0.29934700  0.30836000  0.38818900  1
  P  P22  1  0.79276700  0.52147900  0.27868500  1
  P  P23  1  0.80425900  0.18922200  0.61259100  1
  P  P24  1  0.20647600  0.81270700  0.38950900  1
  P  P25  1  0.20627500  0.46943000  0.72201200  1
  P  P26  1  0.70657100  0.69698000  0.61200300  1
  P  P27  1  0.70651200  0.35424300  0.94387100  1
  P  P28  1  0.30340800  0.97676700  0.72157800  1
  P  P29  1  0.79397400  0.85836300  0.94357100  1
  O  O30  1  0.86932800  0.02036300  0.22156500  1
  O  O31  1  0.36206900  0.14609300  0.11073900  1
  O  O32  1  0.07100200  0.24662400  0.10600700  1
  O  O33  1  0.71895800  0.31439500  0.05837100  1
  O  O34  1  0.64948100  0.18872000  0.25162200  1
  O  O35  1  0.36479600  0.48400000  0.07156000  1
  O  O36  1  0.34947800  0.14434100  0.41563500  1
  O  O37  1  0.29705400  0.35600900  0.27707600  1
  O  O38  1  0.91095100  0.41534500  0.22874100  1
  O  O39  1  0.28516400  0.01696500  0.60741300  1
  O  O40  1  0.92911000  0.08655400  0.56639700  1
  O  O41  1  0.62132600  0.52285300  0.22308800  1
  O  O42  1  0.12962100  0.65169300  0.10727800  1
  O  O43  1  0.63553600  0.18574200  0.55412300  1
  O  O44  1  0.12866000  0.31185400  0.44430200  1
  O  O45  1  0.41963500  0.75201500  0.10609600  1
  O  O46  1  0.78459300  0.81161500  0.05736600  1
  O  O47  1  0.41786200  0.41280700  0.44801900  1
  O  O48  1  0.77975900  0.48140800  0.39324100  1
  O  O49  1  0.42882800  0.08058000  0.76637200  1
  O  O50  1  0.84349400  0.68565900  0.25338600  1
  O  O51  1  0.78604300  0.14780400  0.72672300  1
  O  O52  1  0.84598400  0.35654800  0.58989100  1
  O  O53  1  0.84536300  0.02154400  0.92133500  1
  O  O54  1  0.14824500  0.97691000  0.07916700  1
  O  O55  1  0.15471200  0.64914400  0.41398300  1
  O  O56  1  0.21895300  0.85156100  0.27459400  1
  O  O57  1  0.13509200  0.31625900  0.73574700  1
  O  O58  1  0.57950900  0.92063300  0.22014500  1
  O  O59  1  0.20720000  0.52467300  0.60637600  1
  O  O60  1  0.57920800  0.58331500  0.56130400  1
  O  O61  1  0.20526300  0.18595800  0.94033000  1
  O  O62  1  0.58643100  0.24794300  0.89515900  1
  O  O63  1  0.86909000  0.68210600  0.55852800  1
  O  O64  1  0.37686800  0.81207400  0.44556300  1
  O  O65  1  0.87553100  0.35254500  0.88600100  1
  O  O66  1  0.37040200  0.48263700  0.77331300  1
  O  O67  1  0.08801900  0.92030500  0.43851500  1
  O  O68  1  0.70437400  0.97713800  0.39007900  1
  O  O69  1  0.08151800  0.58377000  0.77475700  1
  O  O70  1  0.71038500  0.64253800  0.72761400  1
  O  O71  1  0.63637200  0.85080300  0.59744200  1
  O  O72  1  0.65745800  0.51881900  0.92001200  1
  O  O73  1  0.34594500  0.80971300  0.74428100  1
  O  O74  1  0.29205100  0.69173100  0.93961600  1
  O  O75  1  0.91726600  0.75316600  0.89106200  1
  O  O76  1  0.62566000  0.85442800  0.88768600  1
  O  O77  1  0.13596700  0.98129600  0.78123200  1
