# generated using pymatgen
data_Li3MnV(PO4)3
_symmetry_space_group_name_H-M   'P 1'
_cell_length_a   8.68524895
_cell_length_b   8.68524895
_cell_length_c   8.79068914
_cell_angle_alpha   61.14780456
_cell_angle_beta   61.14780456
_cell_angle_gamma   59.59702643
_symmetry_Int_Tables_number   1
_chemical_formula_structural   Li3MnV(PO4)3
_chemical_formula_sum   'Li6 Mn2 V2 P6 O24'
_cell_volume   475.34564076
_cell_formula_units_Z   2
loop_
 _symmetry_equiv_pos_site_id
 _symmetry_equiv_pos_as_xyz
  1  'x, y, z'
loop_
 _atom_site_type_symbol
 _atom_site_label
 _atom_site_symmetry_multiplicity
 _atom_site_fract_x
 _atom_site_fract_y
 _atom_site_fract_z
 _atom_site_occupancy
  Li  Li0  1  0.89048700  0.73910700  0.70668600  1
  Li  Li1  1  0.34814500  0.03622000  0.67693500  1
  Li  Li2  1  0.73910700  0.89048700  0.20668600  1
  Li  Li3  1  0.36247000  0.62424800  0.74552900  1
  Li  Li4  1  0.62424800  0.36247000  0.24552900  1
  Li  Li5  1  0.03622000  0.34814500  0.17693500  1
  Mn  Mn6  1  0.85201000  0.35889800  0.85589400  1
  Mn  Mn7  1  0.35889800  0.85201000  0.35589400  1
  V  V8  1  0.64259000  0.15245300  0.64059500  1
  V  V9  1  0.15245300  0.64259000  0.14059500  1
  P  P10  1  0.53073300  0.74850700  0.95429100  1
  P  P11  1  0.74850700  0.53073300  0.45429100  1
  P  P12  1  0.95440500  0.04322800  0.25807700  1
  P  P13  1  0.24950000  0.47417600  0.53887100  1
  P  P14  1  0.04322800  0.95440500  0.75807700  1
  P  P15  1  0.47417600  0.24950000  0.03887100  1
  O  O16  1  0.73093100  0.59212400  0.91291700  1
  O  O17  1  0.37915400  0.71282700  0.94298000  1
  O  O18  1  0.74756700  0.48953500  0.64225700  1
  O  O19  1  0.71282700  0.37915400  0.44298000  1
  O  O20  1  0.54975200  0.93075900  0.79377100  1
  O  O21  1  0.92674400  0.24017000  0.10994000  1
  O  O22  1  0.93075900  0.54975200  0.29377100  1
  O  O23  1  0.00582100  0.12085200  0.80927300  1
  O  O24  1  0.88897200  0.98495600  0.69496200  1
  O  O25  1  0.59212400  0.73093100  0.41291700  1
  O  O26  1  0.24017000  0.92674400  0.60994000  1
  O  O27  1  0.52077300  0.26189200  0.84170600  1
  O  O28  1  0.48953500  0.74756700  0.14225700  1
  O  O29  1  0.76985000  0.05284100  0.42328100  1
  O  O30  1  0.39765000  0.27217500  0.58474200  1
  O  O31  1  0.12085200  0.00582100  0.30927300  1
  O  O32  1  0.98495600  0.88897200  0.19496200  1
  O  O33  1  0.05427200  0.48053600  0.68026700  1
  O  O34  1  0.05284100  0.76985000  0.92328100  1
  O  O35  1  0.48053600  0.05427200  0.18026700  1
  O  O36  1  0.29451200  0.61917600  0.55148400  1
  O  O37  1  0.26189200  0.52077300  0.34170600  1
  O  O38  1  0.61917600  0.29451200  0.05148400  1
  O  O39  1  0.27217500  0.39765000  0.08474200  1
