# generated using pymatgen
data_Li3V4(OF3)3
_symmetry_space_group_name_H-M   'P 1'
_cell_length_a   10.38874800
_cell_length_b   10.40781420
_cell_length_c   11.09478544
_cell_angle_alpha   62.37298572
_cell_angle_beta   62.30875309
_cell_angle_gamma   60.40593340
_symmetry_Int_Tables_number   1
_chemical_formula_structural   Li3V4(OF3)3
_chemical_formula_sum   'Li12 V16 O12 F36'
_cell_volume   879.87331825
_cell_formula_units_Z   4
loop_
 _symmetry_equiv_pos_site_id
 _symmetry_equiv_pos_as_xyz
  1  'x, y, z'
loop_
 _atom_site_type_symbol
 _atom_site_label
 _atom_site_symmetry_multiplicity
 _atom_site_fract_x
 _atom_site_fract_y
 _atom_site_fract_z
 _atom_site_occupancy
  Li  Li0  1  0.37580800  0.37948700  0.36806300  1
  Li  Li1  1  0.60149500  0.61133700  0.18765200  1
  Li  Li2  1  0.37006900  0.87679300  0.88076300  1
  Li  Li3  1  0.60823800  0.10499700  0.69367700  1
  Li  Li4  1  0.14514100  0.64125300  0.05738000  1
  Li  Li5  1  0.88200700  0.37329700  0.36679800  1
  Li  Li6  1  0.87637800  0.87851100  0.36950800  1
  Li  Li7  1  0.14423500  0.13977200  0.55886600  1
  Li  Li8  1  0.87321400  0.37436400  0.88138700  1
  Li  Li9  1  0.10605700  0.60725800  0.69229000  1
  Li  Li10  1  0.64235100  0.14353400  0.05881200  1
  Li  Li11  1  0.63881900  0.64591600  0.56204200  1
  V  V12  1  0.25763700  0.74273600  0.25701900  1
  V  V13  1  0.26072800  0.23779500  0.75783800  1
  V  V14  1  0.01595000  0.48806900  0.49403700  1
  V  V15  1  0.76434400  0.23430200  0.25472400  1
  V  V16  1  0.99666000  0.01532400  0.48318600  1
  V  V17  1  0.23509100  0.25125400  0.26134100  1
  V  V18  1  0.01331900  0.98774200  0.99346200  1
  V  V19  1  0.75991800  0.73949300  0.75524400  1
  V  V20  1  0.99354100  0.51618500  0.98693600  1
  V  V21  1  0.23381700  0.75583500  0.76095500  1
  V  V22  1  0.51192700  0.99014900  0.49327600  1
  V  V23  1  0.49228700  0.51669100  0.48834200  1
  V  V24  1  0.73291700  0.75781600  0.26117100  1
  V  V25  1  0.51219800  0.49000200  0.99376800  1
  V  V26  1  0.49175500  0.01783700  0.99007100  1
  V  V27  1  0.73416700  0.25515900  0.76350100  1
  O  O28  1  0.38187100  0.56386700  0.36425800  1
  O  O29  1  0.37834900  0.06301000  0.86890400  1
  O  O30  1  0.87182800  0.06137900  0.37505700  1
  O  O31  1  0.18908200  0.37186800  0.37914000  1
  O  O32  1  0.05993400  0.19027600  0.38484700  1
  O  O33  1  0.87844200  0.56410900  0.86568400  1
  O  O34  1  0.18760300  0.87304700  0.87829300  1
  O  O35  1  0.07608800  0.67360600  0.87543300  1
  O  O36  1  0.68836900  0.87008400  0.38276400  1
  O  O37  1  0.57760700  0.67248900  0.37631300  1
  O  O38  1  0.68820100  0.37229100  0.88191200  1
  O  O39  1  0.57644000  0.17423100  0.87507700  1
  F  F40  1  0.44647500  0.80997200  0.11778700  1
  F  F41  1  0.31227000  0.62430500  0.12197400  1
  F  F42  1  0.44835000  0.30803200  0.61794700  1
  F  F43  1  0.94156000  0.80023800  0.13108500  1
  F  F44  1  0.80070300  0.63165000  0.12644300  1
  F  F45  1  0.31178000  0.12510100  0.62076700  1
  F  F46  1  0.62314100  0.43798700  0.13204600  1
  F  F47  1  0.86927800  0.55366400  0.38580300  1
  F  F48  1  0.69592400  0.38106100  0.36470000  1
  F  F49  1  0.55874200  0.19239200  0.37342400  1
  F  F50  1  0.94282900  0.30540600  0.62955800  1
  F  F51  1  0.93140700  0.32292100  0.11764200  1
  F  F52  1  0.80319300  0.14018400  0.61880900  1
  F  F53  1  0.10655400  0.44728800  0.13374800  1
  F  F54  1  0.62448900  0.93916100  0.62859000  1
  F  F55  1  0.81159100  0.12105600  0.12161100  1
  F  F56  1  0.86525000  0.06584100  0.88944300  1
  F  F57  1  0.68239700  0.88644600  0.86026900  1
  F  F58  1  0.55729100  0.69293100  0.87461300  1
  F  F59  1  0.94647300  0.80844700  0.61756700  1
  F  F60  1  0.44294700  0.30530900  0.13374000  1
  F  F61  1  0.11534800  0.94634000  0.62440700  1
  F  F62  1  0.31348000  0.13684900  0.12540600  1
  F  F63  1  0.81228100  0.62509100  0.61794000  1
  F  F64  1  0.12524300  0.92490300  0.12926200  1
  F  F65  1  0.36240800  0.06353200  0.39171900  1
  F  F66  1  0.18795800  0.87620300  0.36994900  1
  F  F67  1  0.05678000  0.69038800  0.37668000  1
  F  F68  1  0.44220500  0.80367000  0.63088700  1
  F  F69  1  0.30215700  0.63412500  0.62289700  1
  F  F70  1  0.61676800  0.94791100  0.12726900  1
  F  F71  1  0.12884600  0.43890000  0.62738500  1
  F  F72  1  0.36403700  0.56592500  0.89014900  1
  F  F73  1  0.18436300  0.38715200  0.85949800  1
  F  F74  1  0.05812300  0.19211800  0.87421100  1
  F  F75  1  0.62022200  0.44730400  0.62358800  1
