# generated using pymatgen
data_LiMnSiO4
_symmetry_space_group_name_H-M   'P 1'
_cell_length_a   4.79866600
_cell_length_b   6.30390700
_cell_length_c   10.20357100
_cell_angle_alpha   90.00014571
_cell_angle_beta   89.99954853
_cell_angle_gamma   89.99981359
_symmetry_Int_Tables_number   1
_chemical_formula_structural   LiMnSiO4
_chemical_formula_sum   'Li4 Mn4 Si4 O16'
_cell_volume   308.66153469
_cell_formula_units_Z   4
loop_
 _symmetry_equiv_pos_site_id
 _symmetry_equiv_pos_as_xyz
  1  'x, y, z'
loop_
 _atom_site_type_symbol
 _atom_site_label
 _atom_site_symmetry_multiplicity
 _atom_site_fract_x
 _atom_site_fract_y
 _atom_site_fract_z
 _atom_site_occupancy
  Li  Li0  1  0.04192400  0.00452000  0.21897000  1
  Li  Li1  1  0.45806600  0.00452200  0.71896800  1
  Li  Li2  1  0.54193500  0.50452100  0.28103100  1
  Li  Li3  1  0.95807300  0.50451900  0.78103100  1
  Mn  Mn4  1  0.50009600  0.25680700  0.00020800  1
  Mn  Mn5  1  0.49988400  0.75681100  0.99978700  1
  Mn  Mn6  1  0.99992800  0.25676800  0.50020100  1
  Mn  Mn7  1  0.00009000  0.75676500  0.49979500  1
  Si  Si8  1  0.09270800  0.50683000  0.09091800  1
  Si  Si9  1  0.40729700  0.50682200  0.59091200  1
  Si  Si10  1  0.59272000  0.00682400  0.40907600  1
  Si  Si11  1  0.90728200  0.00682900  0.90907200  1
  O  O12  1  0.25711500  0.50655800  0.94170500  1
  O  O13  1  0.24290000  0.50653500  0.44170100  1
  O  O14  1  0.75713100  0.00653300  0.55830300  1
  O  O15  1  0.74285300  0.00655400  0.05830100  1
  O  O16  1  0.25726100  0.00675600  0.40834100  1
  O  O17  1  0.24275000  0.00677300  0.90833500  1
  O  O18  1  0.75723600  0.50676900  0.09166800  1
  O  O19  1  0.74275200  0.50675700  0.59166500  1
  O  O20  1  0.24160400  0.28845100  0.14816000  1
  O  O21  1  0.24088000  0.72582200  0.14757200  1
  O  O22  1  0.25912000  0.72579600  0.64756300  1
  O  O23  1  0.25841200  0.28845100  0.64816200  1
  O  O24  1  0.74159900  0.78845500  0.35184400  1
  O  O25  1  0.74089000  0.22579100  0.35243900  1
  O  O26  1  0.75910600  0.22580600  0.85242900  1
  O  O27  1  0.75838900  0.78846000  0.85184100  1
