# generated using pymatgen
data_Li4V3P8O29
_symmetry_space_group_name_H-M   'P 1'
_cell_length_a   9.75828700
_cell_length_b   9.77469152
_cell_length_c   14.17003139
_cell_angle_alpha   89.92144197
_cell_angle_beta   90.18259432
_cell_angle_gamma   119.85570161
_symmetry_Int_Tables_number   1
_chemical_formula_structural   Li4V3P8O29
_chemical_formula_sum   'Li8 V6 P16 O58'
_cell_volume   1172.21027022
_cell_formula_units_Z   2
loop_
 _symmetry_equiv_pos_site_id
 _symmetry_equiv_pos_as_xyz
  1  'x, y, z'
loop_
 _atom_site_type_symbol
 _atom_site_label
 _atom_site_symmetry_multiplicity
 _atom_site_fract_x
 _atom_site_fract_y
 _atom_site_fract_z
 _atom_site_occupancy
  Li  Li0  1  0.66599200  0.90195200  0.55892300  1
  Li  Li1  1  0.23557400  0.33451900  0.56087300  1
  Li  Li2  1  0.09226300  0.31739800  0.05507200  1
  Li  Li3  1  0.22638000  0.91609000  0.05962800  1
  Li  Li4  1  0.09764500  0.76922800  0.56065900  1
  Li  Li5  1  0.77709700  0.08479700  0.93858700  1
  Li  Li6  1  0.90911000  0.68123300  0.94069500  1
  Li  Li7  1  0.00576400  0.00647200  0.50351600  1
  V  V8  1  0.99753400  0.43237600  0.25593000  1
  V  V9  1  0.00161600  0.56774900  0.74556300  1
  V  V10  1  0.56493100  0.99807000  0.74919300  1
  V  V11  1  0.43856800  0.00501200  0.25309900  1
  V  V12  1  0.56589300  0.56625000  0.24732000  1
  V  V13  1  0.43456400  0.43398300  0.75157900  1
  P  P14  1  0.68586200  0.76933500  0.84294300  1
  P  P15  1  0.68910000  0.91131200  0.33941400  1
  P  P16  1  0.22903500  0.31248200  0.34427500  1
  P  P17  1  0.32833800  0.66624700  0.13207200  1
  P  P18  1  0.33466700  0.66484600  0.62815800  1
  P  P19  1  0.08920700  0.32132900  0.84049300  1
  P  P20  1  0.91461900  0.22280600  0.65949400  1
  P  P21  1  0.23174200  0.91189000  0.84339500  1
  P  P22  1  0.77328300  0.09089200  0.15790100  1
  P  P23  1  0.08930400  0.77662200  0.34177700  1
  P  P24  1  0.91060700  0.68097900  0.16058400  1
  P  P25  1  0.66589400  0.33577100  0.36870000  1
  P  P26  1  0.67074200  0.33571300  0.86812400  1
  P  P27  1  0.77305300  0.69243600  0.65748700  1
  P  P28  1  0.30597900  0.08484400  0.66167500  1
  P  P29  1  0.31272700  0.22660700  0.16083300  1
  O  O30  1  0.78524600  0.79329100  0.57505000  1
  O  O31  1  0.65644000  0.74029100  0.32887600  1
  O  O32  1  0.76548200  0.01243100  0.06720500  1
  O  O33  1  0.66335800  0.91521300  0.84066700  1
  O  O34  1  0.52343200  0.61780400  0.82183300  1
  O  O35  1  0.47279900  0.65893600  0.17797800  1
  O  O36  1  0.38500500  0.46847000  0.32858200  1
  O  O37  1  0.22232000  0.23162600  0.07841800  1
  O  O38  1  0.25667300  0.34201000  0.83305200  1
  O  O39  1  0.49027000  0.80912600  0.66623100  1
  O  O40  1  0.53020700  0.91179800  0.32529400  1
  O  O41  1  0.32381700  0.50991300  0.67270400  1
  O  O42  1  0.32408700  0.65998300  0.02746800  1
  O  O43  1  0.33178500  0.65267400  0.52294700  1
  O  O44  1  0.17852500  0.51932800  0.17547300  1
  O  O45  1  0.38177400  0.90071700  0.81892800  1
  O  O46  1  0.33442200  0.81936800  0.17217400  1
  O  O47  1  0.08775100  0.34357500  0.32996500  1
  O  O48  1  0.98806000  0.20149500  0.75809600  1
  O  O49  1  0.00537800  0.20554400  0.58028900  1
  O  O50  1  0.00631700  0.24938800  0.93144400  1
  O  O51  1  0.09924300  0.48123200  0.81990400  1
  O  O52  1  0.19068000  0.67867700  0.66618100  1
  O  O53  1  0.91954900  0.25999800  0.16338600  1
  O  O54  1  0.08815000  0.61799700  0.32875000  1
  O  O55  1  0.26063800  0.91531100  0.32986700  1
  O  O56  1  0.79516600  0.00198200  0.24856400  1
  O  O57  1  0.76999800  0.98419700  0.42992400  1
  O  O58  1  0.19588400  0.99565300  0.58213700  1
  O  O59  1  0.74145000  0.08266600  0.66169800  1
  O  O60  1  0.91663100  0.38024300  0.66754700  1
  O  O61  1  0.08304000  0.74542600  0.83511400  1
  O  O62  1  0.81402300  0.33169500  0.32508900  1
  O  O63  1  0.90354200  0.52215500  0.18018400  1
  O  O64  1  0.99940700  0.75761600  0.07223000  1
  O  O65  1  0.01912500  0.78901300  0.43216100  1
  O  O66  1  0.99869900  0.79308300  0.25083200  1
  O  O67  1  0.91347700  0.65890400  0.65874300  1
  O  O68  1  0.67105900  0.18532000  0.82978900  1
  O  O69  1  0.62035600  0.09746700  0.17970100  1
  O  O70  1  0.81835000  0.48662900  0.82762400  1
  O  O71  1  0.66450900  0.33992000  0.97266500  1
  O  O72  1  0.66566100  0.33135100  0.47276900  1
  O  O73  1  0.66706100  0.48146700  0.32257800  1
  O  O74  1  0.46085500  0.08150900  0.66819000  1
  O  O75  1  0.51679000  0.18587800  0.32377300  1
  O  O76  1  0.74178300  0.65673200  0.16411400  1
  O  O77  1  0.79494800  0.79193100  0.75228700  1
  O  O78  1  0.76472000  0.75590100  0.92891500  1
  O  O79  1  0.61477900  0.53610200  0.66958500  1
  O  O80  1  0.52406100  0.33827900  0.81847900  1
  O  O81  1  0.47291900  0.38063200  0.17621900  1
  O  O82  1  0.34026500  0.08286900  0.16031300  1
  O  O83  1  0.24411500  0.98731300  0.93570800  1
  O  O84  1  0.21294300  0.01256300  0.75992000  1
  O  O85  1  0.33954400  0.25900900  0.66245200  1
  O  O86  1  0.21304700  0.23156700  0.43589800  1
  O  O87  1  0.21308700  0.19950000  0.25776100  1
