# generated using pymatgen
data_Li3V3P8O29
_symmetry_space_group_name_H-M   'P 1'
_cell_length_a   9.72103000
_cell_length_b   9.73752292
_cell_length_c   14.36266481
_cell_angle_alpha   89.69745190
_cell_angle_beta   89.43499412
_cell_angle_gamma   60.29453425
_symmetry_Int_Tables_number   1
_chemical_formula_structural   Li3V3P8O29
_chemical_formula_sum   'Li6 V6 P16 O58'
_cell_volume   1180.82785197
_cell_formula_units_Z   2
loop_
 _symmetry_equiv_pos_site_id
 _symmetry_equiv_pos_as_xyz
  1  'x, y, z'
loop_
 _atom_site_type_symbol
 _atom_site_label
 _atom_site_symmetry_multiplicity
 _atom_site_fract_x
 _atom_site_fract_y
 _atom_site_fract_z
 _atom_site_occupancy
  Li  Li0  1  0.23146100  0.67633200  0.05381900  1
  Li  Li1  1  0.67852900  0.09214300  0.05584700  1
  Li  Li2  1  0.67205600  0.22917900  0.56197800  1
  Li  Li3  1  0.91427400  0.32017000  0.44377300  1
  Li  Li4  1  0.01988800  0.03633300  0.99414900  1
  Li  Li5  1  0.04961600  0.92464800  0.50343700  1
  V  V6  1  0.43375300  0.56750200  0.25200900  1
  V  V7  1  0.56336000  0.43863700  0.75296700  1
  V  V8  1  0.43393400  0.00223400  0.74884100  1
  V  V9  1  0.55972600  0.99745300  0.25315000  1
  V  V10  1  0.00325600  0.43659500  0.24524500  1
  V  V11  1  0.99919200  0.56491200  0.74806700  1
  P  P12  1  0.08328300  0.21974500  0.83506200  1
  P  P13  1  0.21541100  0.08454700  0.34157000  1
  P  P14  1  0.08184000  0.69388300  0.34297400  1
  P  P15  1  0.33873900  0.33412100  0.13290700  1
  P  P16  1  0.33570600  0.33263800  0.63223300  1
  P  P17  1  0.22050800  0.68858600  0.84207900  1
  P  P18  1  0.30878400  0.77877300  0.66307300  1
  P  P19  1  0.68815200  0.08747400  0.84390800  1
  P  P20  1  0.30254300  0.91734400  0.15741900  1
  P  P21  1  0.68113300  0.22758900  0.34224200  1
  P  P22  1  0.77773400  0.30877500  0.16261200  1
  P  P23  1  0.66978000  0.66155300  0.36598600  1
  P  P24  1  0.66570500  0.67016100  0.86561000  1
  P  P25  1  0.91079600  0.31282700  0.65547700  1
  P  P26  1  0.78313000  0.91508800  0.66369600  1
  P  P27  1  0.91371200  0.78114700  0.16132300  1
  O  O28  1  0.97989500  0.23524600  0.56442100  1
  O  O29  1  0.08159600  0.26103500  0.33418200  1
  O  O30  1  0.20889700  0.99299800  0.07332600  1
  O  O31  1  0.25915300  0.08529300  0.82872700  1
  O  O32  1  0.07666200  0.38146300  0.82588000  1
  O  O33  1  0.18881700  0.33507800  0.17953000  1
  O  O34  1  0.07788500  0.53798600  0.32783300  1
  O  O35  1  0.00734000  0.78513700  0.08021200  1
  O  O36  1  0.08287400  0.65375900  0.83011400  1
  O  O37  1  0.33671600  0.18524700  0.67894600  1
  O  O38  1  0.37919500  0.08026600  0.32712200  1
  O  O39  1  0.18669500  0.47665500  0.67779100  1
  O  O40  1  0.33834500  0.33620900  0.02963700  1
  O  O41  1  0.34020000  0.32775600  0.52883500  1
  O  O42  1  0.33061800  0.48766400  0.17301000  1
  O  O43  1  0.53258700  0.08461000  0.82957800  1
  O  O44  1  0.48646200  0.18587000  0.17524100  1
  O  O45  1  0.25718300  0.65510000  0.32727000  1
  O  O46  1  0.20625600  0.80261200  0.75783500  1
  O  O47  1  0.21350700  0.79058600  0.58106700  1
  O  O48  1  0.21096700  0.76680300  0.93270700  1
  O  O49  1  0.37902100  0.53055500  0.82647700  1
  O  O50  1  0.48663000  0.33140600  0.67198700  1
  O  O51  1  0.34371800  0.74058500  0.16453600  1
  O  O52  1  0.52232100  0.38219500  0.32436200  1
  O  O53  1  0.65358200  0.08467300  0.33192800  1
  O  O54  1  0.19848000  0.00127400  0.24924900  1
  O  O55  1  0.19751200  0.00684900  0.42556400  1
  O  O56  1  0.80195900  0.00450400  0.58429600  1
  O  O57  1  0.35036600  0.91316200  0.66837300  1
  O  O58  1  0.46350500  0.61811500  0.67464700  1
  O  O59  1  0.65348800  0.26057400  0.82789400  1
  O  O60  1  0.52160900  0.66284900  0.31971800  1
  O  O61  1  0.61774600  0.46387900  0.17270400  1
  O  O62  1  0.79364200  0.20508200  0.08283700  1
  O  O63  1  0.75653500  0.23121000  0.43192100  1
  O  O64  1  0.79893800  0.21114200  0.25878700  1
  O  O65  1  0.73718900  0.34439000  0.66336900  1
  O  O66  1  0.52170100  0.81612600  0.82028300  1
  O  O67  1  0.45954200  0.92250200  0.17276600  1
  O  O68  1  0.66206400  0.52274000  0.81990600  1
  O  O69  1  0.66557300  0.66566000  0.96857700  1
  O  O70  1  0.66652500  0.66062100  0.46889300  1
  O  O71  1  0.81693200  0.51181400  0.32465400  1
  O  O72  1  0.62047100  0.92347300  0.67131100  1
  O  O73  1  0.66712300  0.81105100  0.31897000  1
  O  O74  1  0.91489300  0.34733200  0.16742500  1
  O  O75  1  0.00428600  0.19833000  0.74056800  1
  O  O76  1  0.00181600  0.19979300  0.91710500  1
  O  O77  1  0.91256700  0.46884400  0.67202800  1
  O  O78  1  0.81485600  0.66569600  0.81984000  1
  O  O79  1  0.91489900  0.62034200  0.17410400  1
  O  O80  1  0.73919600  0.91826300  0.16159100  1
  O  O81  1  0.76729800  0.02626100  0.93510000  1
  O  O82  1  0.80604300  0.98737900  0.76060200  1
  O  O83  1  0.91659300  0.73969500  0.66578000  1
  O  O84  1  0.01361400  0.78327900  0.42947900  1
  O  O85  1  0.98804900  0.80439600  0.25544200  1
