# generated using pymatgen
data_Li2MnBO4
_symmetry_space_group_name_H-M   'P 1'
_cell_length_a   5.16350900
_cell_length_b   6.66194100
_cell_length_c   10.50619572
_cell_angle_alpha   85.23138421
_cell_angle_beta   90.00000000
_cell_angle_gamma   90.00000000
_symmetry_Int_Tables_number   1
_chemical_formula_structural   Li2MnBO4
_chemical_formula_sum   'Li8 Mn4 B4 O16'
_cell_volume   360.15156727
_cell_formula_units_Z   4
loop_
 _symmetry_equiv_pos_site_id
 _symmetry_equiv_pos_as_xyz
  1  'x, y, z'
loop_
 _atom_site_type_symbol
 _atom_site_label
 _atom_site_symmetry_multiplicity
 _atom_site_fract_x
 _atom_site_fract_y
 _atom_site_fract_z
 _atom_site_occupancy
  Li  Li0  1  0.65377200  0.90318700  0.79242200  1
  Li  Li1  1  0.84622800  0.90318700  0.29242200  1
  Li  Li2  1  0.82698700  0.79133200  0.56874000  1
  Li  Li3  1  0.67301300  0.79133200  0.06874000  1
  Li  Li4  1  0.32698700  0.20866800  0.93126000  1
  Li  Li5  1  0.17301300  0.20866800  0.43126000  1
  Li  Li6  1  0.15377200  0.09681300  0.70757800  1
  Li  Li7  1  0.34622800  0.09681300  0.20757800  1
  Mn  Mn8  1  0.84711700  0.49270500  0.84652400  1
  Mn  Mn9  1  0.34711700  0.50729500  0.65347600  1
  Mn  Mn10  1  0.65288300  0.49270500  0.34652400  1
  Mn  Mn11  1  0.15288300  0.50729500  0.15347600  1
  B  B12  1  0.17599600  0.81128900  0.93787200  1
  B  B13  1  0.32400400  0.81128900  0.43787200  1
  B  B14  1  0.67599600  0.18871100  0.56212800  1
  B  B15  1  0.82400400  0.18871100  0.06212800  1
  O  O16  1  0.30537300  0.94594200  0.85766600  1
  O  O17  1  0.19462700  0.94594200  0.35766600  1
  O  O18  1  0.91496400  0.76009800  0.91978200  1
  O  O19  1  0.58503600  0.76009800  0.41978200  1
  O  O20  1  0.19343400  0.71822300  0.54437400  1
  O  O21  1  0.64779900  0.62363000  0.71042300  1
  O  O22  1  0.30656600  0.71822300  0.04437400  1
  O  O23  1  0.85220100  0.62363000  0.21042300  1
  O  O24  1  0.14779900  0.37637000  0.78957700  1
  O  O25  1  0.69343400  0.28177700  0.95562600  1
  O  O26  1  0.35220100  0.37637000  0.28957700  1
  O  O27  1  0.80656600  0.28177700  0.45562600  1
  O  O28  1  0.41496400  0.23990200  0.58021800  1
  O  O29  1  0.08503600  0.23990200  0.08021800  1
  O  O30  1  0.80537300  0.05405800  0.64233400  1
  O  O31  1  0.69462700  0.05405800  0.14233400  1
