# generated using pymatgen
data_LiMn3F10
_symmetry_space_group_name_H-M   'P 1'
_cell_length_a   6.16727100
_cell_length_b   8.07584374
_cell_length_c   9.62386981
_cell_angle_alpha   110.20013990
_cell_angle_beta   108.62224546
_cell_angle_gamma   91.60914305
_symmetry_Int_Tables_number   1
_chemical_formula_structural   LiMn3F10
_chemical_formula_sum   'Li2 Mn6 F20'
_cell_volume   421.10237707
_cell_formula_units_Z   2
loop_
 _symmetry_equiv_pos_site_id
 _symmetry_equiv_pos_as_xyz
  1  'x, y, z'
loop_
 _atom_site_type_symbol
 _atom_site_label
 _atom_site_symmetry_multiplicity
 _atom_site_fract_x
 _atom_site_fract_y
 _atom_site_fract_z
 _atom_site_occupancy
  Li  Li0  1  0.69101600  0.52096600  0.38157500  1
  Li  Li1  1  0.30898400  0.47903400  0.61842500  1
  Mn  Mn2  1  0.91918900  0.51060500  0.83590600  1
  Mn  Mn3  1  0.81441000  0.98670800  0.62985600  1
  Mn  Mn4  1  0.25294000  0.99758400  0.99934500  1
  Mn  Mn5  1  0.18559000  0.01329200  0.37014400  1
  Mn  Mn6  1  0.08081100  0.48939500  0.16409400  1
  Mn  Mn7  1  0.74706000  0.00241600  0.00065500  1
  F  F8  1  0.34417900  0.02541700  0.21254200  1
  F  F9  1  0.36558100  0.47273100  0.29460900  1
  F  F10  1  0.99718600  0.81684000  0.95342800  1
  F  F11  1  0.86693600  0.23474700  0.73025900  1
  F  F12  1  0.50191300  0.17364900  0.04513700  1
  F  F13  1  0.76707800  0.74249900  0.54091300  1
  F  F14  1  0.92697200  0.47172500  0.29586500  1
  F  F15  1  0.13148800  0.97901300  0.78858900  1
  F  F16  1  0.19892600  0.50082500  0.00096200  1
  F  F17  1  0.00000000  0.00000000  0.50000000  1
  F  F18  1  0.86851200  0.02098700  0.21141100  1
  F  F19  1  0.07302800  0.52827500  0.70413500  1
  F  F20  1  0.23292200  0.25750100  0.45908700  1
  F  F21  1  0.49808700  0.82635100  0.95486300  1
  F  F22  1  0.13306400  0.76525300  0.26974100  1
  F  F23  1  0.00281400  0.18316000  0.04657200  1
  F  F24  1  0.63441900  0.52726900  0.70539100  1
  F  F25  1  0.50000000  0.00000000  0.50000000  1
  F  F26  1  0.80107400  0.49917500  0.99903800  1
  F  F27  1  0.65582100  0.97458300  0.78745800  1
