# generated using pymatgen
data_LiV(PO3)4
_symmetry_space_group_name_H-M   'P 1'
_cell_length_a   8.87910300
_cell_length_b   7.14700700
_cell_length_c   15.86398703
_cell_angle_alpha   64.71297704
_cell_angle_beta   90.00000000
_cell_angle_gamma   90.00000000
_symmetry_Int_Tables_number   1
_chemical_formula_structural   LiV(PO3)4
_chemical_formula_sum   'Li4 V4 P16 O48'
_cell_volume   910.24901406
_cell_formula_units_Z   4
loop_
 _symmetry_equiv_pos_site_id
 _symmetry_equiv_pos_as_xyz
  1  'x, y, z'
loop_
 _atom_site_type_symbol
 _atom_site_label
 _atom_site_symmetry_multiplicity
 _atom_site_fract_x
 _atom_site_fract_y
 _atom_site_fract_z
 _atom_site_occupancy
  Li  Li0  1  0.46656400  0.40698100  0.11988100  1
  Li  Li1  1  0.96656400  0.59301900  0.38011900  1
  Li  Li2  1  0.03343600  0.40698100  0.61988100  1
  Li  Li3  1  0.53343600  0.59301900  0.88011900  1
  V  V4  1  0.25062500  0.84627600  0.15763700  1
  V  V5  1  0.75062500  0.15372400  0.34236300  1
  V  V6  1  0.24937500  0.84627600  0.65763700  1
  V  V7  1  0.74937500  0.15372400  0.84236300  1
  P  P8  1  0.74407100  0.21430400  0.04133800  1
  P  P9  1  0.66920100  0.80460700  0.05887500  1
  P  P10  1  0.92401200  0.57541000  0.18074500  1
  P  P11  1  0.99591400  0.18165200  0.17654100  1
  P  P12  1  0.42401200  0.42459000  0.31925500  1
  P  P13  1  0.49591400  0.81834800  0.32345900  1
  P  P14  1  0.16920100  0.19539300  0.44112500  1
  P  P15  1  0.24407100  0.78569600  0.45866200  1
  P  P16  1  0.75592900  0.21430400  0.54133800  1
  P  P17  1  0.83079900  0.80460700  0.55887500  1
  P  P18  1  0.50408600  0.18165200  0.67654100  1
  P  P19  1  0.57598800  0.57541000  0.68074500  1
  P  P20  1  0.00408600  0.81834800  0.82345900  1
  P  P21  1  0.07598800  0.42459000  0.81925500  1
  P  P22  1  0.33079900  0.19539300  0.94112500  1
  P  P23  1  0.25592900  0.78569600  0.95866200  1
  O  O24  1  0.33773200  0.09719000  0.04662500  1
  O  O25  1  0.22325900  0.74088300  0.05892100  1
  O  O26  1  0.64360500  0.35734600  0.06042800  1
  O  O27  1  0.83420600  0.69563200  0.08427100  1
  O  O28  1  0.90970800  0.20035500  0.08488500  1
  O  O29  1  0.68362000  0.98096800  0.09687100  1
  O  O30  1  0.54316000  0.66889500  0.11086200  1
  O  O31  1  0.02534000  0.41983900  0.15581100  1
  O  O32  1  0.14614900  0.08920100  0.17573600  1
  O  O33  1  0.02687400  0.72419600  0.19766300  1
  O  O34  1  0.31227800  0.54020500  0.24289000  1
  O  O35  1  0.40031500  0.91805500  0.23731600  1
  O  O36  1  0.81227800  0.45979500  0.25711000  1
  O  O37  1  0.90031400  0.08194500  0.26268400  1
  O  O38  1  0.52687400  0.27580400  0.30233700  1
  O  O39  1  0.52534000  0.58016100  0.34418900  1
  O  O40  1  0.64614900  0.91079900  0.32426400  1
  O  O41  1  0.04316000  0.33110500  0.38913800  1
  O  O42  1  0.18362000  0.01903200  0.40312900  1
  O  O43  1  0.33420600  0.30436800  0.41572900  1
  O  O44  1  0.40970800  0.79964500  0.41511500  1
  O  O45  1  0.14360500  0.64265400  0.43957200  1
  O  O46  1  0.72325900  0.25911700  0.44107900  1
  O  O47  1  0.83773200  0.90281000  0.45337500  1
  O  O48  1  0.16226800  0.09719000  0.54662500  1
  O  O49  1  0.27674100  0.74088300  0.55892100  1
  O  O50  1  0.85639500  0.35734600  0.56042800  1
  O  O51  1  0.59029200  0.20035500  0.58488500  1
  O  O52  1  0.66579400  0.69563200  0.58427100  1
  O  O53  1  0.81638000  0.98096800  0.59687100  1
  O  O54  1  0.95684000  0.66889500  0.61086200  1
  O  O55  1  0.35385100  0.08920100  0.67573600  1
  O  O56  1  0.47466000  0.41983900  0.65581100  1
  O  O57  1  0.47312600  0.72419600  0.69766300  1
  O  O58  1  0.09968500  0.91805500  0.73731600  1
  O  O59  1  0.18772200  0.54020500  0.74289000  1
  O  O60  1  0.59968500  0.08194500  0.76268400  1
  O  O61  1  0.68772200  0.45979500  0.75711000  1
  O  O62  1  0.97312600  0.27580400  0.80233700  1
  O  O63  1  0.85385100  0.91079900  0.82426400  1
  O  O64  1  0.97466000  0.58016100  0.84418900  1
  O  O65  1  0.45684000  0.33110500  0.88913800  1
  O  O66  1  0.31638000  0.01903200  0.90312900  1
  O  O67  1  0.09029200  0.79964500  0.91511500  1
  O  O68  1  0.16579400  0.30436800  0.91572900  1
  O  O69  1  0.35639500  0.64265400  0.93957200  1
  O  O70  1  0.77674100  0.25911700  0.94107900  1
  O  O71  1  0.66226800  0.90281000  0.95337500  1
