# generated using pymatgen
data_LiMnPO4F
_symmetry_space_group_name_H-M   'P 1'
_cell_length_a   7.31735829
_cell_length_b   7.31735829
_cell_length_c   9.98017075
_cell_angle_alpha   62.60508860
_cell_angle_beta   62.60508860
_cell_angle_gamma   50.26793458
_symmetry_Int_Tables_number   1
_chemical_formula_structural   LiMnPO4F
_chemical_formula_sum   'Li4 Mn4 P4 O16 F4'
_cell_volume   353.92206095
_cell_formula_units_Z   4
loop_
 _symmetry_equiv_pos_site_id
 _symmetry_equiv_pos_as_xyz
  1  'x, y, z'
loop_
 _atom_site_type_symbol
 _atom_site_label
 _atom_site_symmetry_multiplicity
 _atom_site_fract_x
 _atom_site_fract_y
 _atom_site_fract_z
 _atom_site_occupancy
  Li  Li0  1  0.96412500  0.46031800  0.35378300  1
  Li  Li1  1  0.18298200  0.41989200  0.01592200  1
  Li  Li2  1  0.46031800  0.96412500  0.85378300  1
  Li  Li3  1  0.41989200  0.18298200  0.51592200  1
  Mn  Mn4  1  0.09650100  0.89133800  0.73287100  1
  Mn  Mn5  1  0.36844400  0.81235400  0.37491400  1
  Mn  Mn6  1  0.89133800  0.09650100  0.23287100  1
  Mn  Mn7  1  0.81235400  0.36844400  0.87491400  1
  P  P8  1  0.69379300  0.95269900  0.04552000  1
  P  P9  1  0.56344700  0.37810600  0.65938300  1
  P  P10  1  0.37810600  0.56344700  0.15938300  1
  P  P11  1  0.95269900  0.69379300  0.54552000  1
  O  O12  1  0.76191900  0.11571100  0.05080600  1
  O  O13  1  0.21531100  0.49803700  0.16746600  1
  O  O14  1  0.66442200  0.79580900  0.21553500  1
  O  O15  1  0.80463600  0.22964900  0.71486500  1
  O  O16  1  0.61769300  0.52362100  0.48795700  1
  O  O17  1  0.37386900  0.55767700  0.77030900  1
  O  O18  1  0.92218400  0.77895100  0.93661000  1
  O  O19  1  0.46810200  0.09873900  0.98777600  1
  O  O20  1  0.11571100  0.76191900  0.55080600  1
  O  O21  1  0.49803700  0.21531100  0.66746600  1
  O  O22  1  0.22964900  0.80463600  0.21486500  1
  O  O23  1  0.52362100  0.61769300  0.98795700  1
  O  O24  1  0.55767700  0.37386900  0.27030900  1
  O  O25  1  0.77895100  0.92218400  0.43661000  1
  O  O26  1  0.79580900  0.66442200  0.71553500  1
  O  O27  1  0.09873900  0.46810200  0.48777600  1
  F  F28  1  0.29580000  0.98297000  0.54160800  1
  F  F29  1  0.08962300  0.14991400  0.31215400  1
  F  F30  1  0.98297000  0.29580000  0.04160800  1
  F  F31  1  0.14991400  0.08962300  0.81215400  1
