# generated using pymatgen
data_Li9V12Cr7O48
_symmetry_space_group_name_H-M   'P 1'
_cell_length_a   5.03389500
_cell_length_b   10.21616999
_cell_length_c   17.13602200
_cell_angle_alpha   89.90253172
_cell_angle_beta   89.48523783
_cell_angle_gamma   89.91595335
_symmetry_Int_Tables_number   1
_chemical_formula_structural   Li9V12Cr7O48
_chemical_formula_sum   'Li9 V12 Cr7 O48'
_cell_volume   881.21861042
_cell_formula_units_Z   1
loop_
 _symmetry_equiv_pos_site_id
 _symmetry_equiv_pos_as_xyz
  1  'x, y, z'
loop_
 _atom_site_type_symbol
 _atom_site_label
 _atom_site_symmetry_multiplicity
 _atom_site_fract_x
 _atom_site_fract_y
 _atom_site_fract_z
 _atom_site_occupancy
  Li  Li0  1  0.09735500  0.25050900  0.25033900  1
  Li  Li1  1  0.25023300  0.41833000  0.96957100  1
  Li  Li2  1  0.25250800  0.58160200  0.47189100  1
  Li  Li3  1  0.25371400  0.91877800  0.47233800  1
  Li  Li4  1  0.24394100  0.25410800  0.80339000  1
  Li  Li5  1  0.75310300  0.75115000  0.19274800  1
  Li  Li6  1  0.75203400  0.91917000  0.02855600  1
  Li  Li7  1  0.75021600  0.25128100  0.70073200  1
  Li  Li8  1  0.90116300  0.75047800  0.74884700  1
  V  V9  1  0.22403300  0.74900300  0.94396500  1
  V  V10  1  0.22496200  0.02866900  0.65498600  1
  V  V11  1  0.22364400  0.47188500  0.65466500  1
  V  V12  1  0.28667700  0.52661800  0.15424300  1
  V  V13  1  0.28554100  0.97372900  0.15747100  1
  V  V14  1  0.28723300  0.25069800  0.44384800  1
  V  V15  1  0.71470500  0.75016500  0.55829800  1
  V  V16  1  0.71583900  0.47298800  0.84259000  1
  V  V17  1  0.71605300  0.02565400  0.84612700  1
  V  V18  1  0.77257200  0.52919000  0.34305600  1
  V  V19  1  0.77422700  0.97066000  0.34372400  1
  V  V20  1  0.77563700  0.24890600  0.05611200  1
  Cr  Cr21  1  0.23747100  0.75347800  0.29775300  1
  Cr  Cr22  1  0.24447800  0.06886500  0.97465900  1
  Cr  Cr23  1  0.40433300  0.74926200  0.75072500  1
  Cr  Cr24  1  0.59713200  0.24892600  0.24855900  1
  Cr  Cr25  1  0.76302400  0.06727600  0.52711500  1
  Cr  Cr26  1  0.76059700  0.43282600  0.52792600  1
  Cr  Cr27  1  0.76013300  0.56847400  0.02310000  1
  O  O28  1  0.06553900  0.23601000  0.99608800  1
  O  O29  1  0.05998100  0.61663500  0.36620000  1
  O  O30  1  0.06070900  0.88281600  0.36865300  1
  O  O31  1  0.09922200  0.62766900  0.21322400  1
  O  O32  1  0.08420800  0.87433400  0.21733300  1
  O  O33  1  0.08216800  0.11850300  0.46564400  1
  O  O34  1  0.08032500  0.38201600  0.46575300  1
  O  O35  1  0.09244500  0.00970400  0.07381700  1
  O  O36  1  0.07356100  0.49592800  0.07680600  1
  O  O37  1  0.16700700  0.74739500  0.84349800  1
  O  O38  1  0.17191800  0.62084800  0.70425100  1
  O  O39  1  0.17612600  0.87830400  0.70601900  1
  O  O40  1  0.36923800  0.12281200  0.20775000  1
  O  O41  1  0.36601900  0.38143400  0.20401200  1
  O  O42  1  0.36547800  0.25106100  0.34482500  1
  O  O43  1  0.43692600  0.49687800  0.57370700  1
  O  O44  1  0.43656000  0.00293400  0.57474400  1
  O  O45  1  0.40035000  0.89146800  0.96631600  1
  O  O46  1  0.44058700  0.62305400  0.96611400  1
  O  O47  1  0.39932000  0.12569100  0.71227700  1
  O  O48  1  0.40813800  0.37551500  0.70953900  1
  O  O49  1  0.41408700  0.11087500  0.88074400  1
  O  O50  1  0.45179300  0.38344100  0.87144300  1
  O  O51  1  0.45287800  0.75016200  0.49791900  1
  O  O52  1  0.58165300  0.24960300  0.50779300  1
  O  O53  1  0.57974000  0.60971100  0.12046300  1
  O  O54  1  0.55415700  0.88834100  0.13004100  1
  O  O55  1  0.55980100  0.62668600  0.29128500  1
  O  O56  1  0.55389900  0.87461100  0.29362200  1
  O  O57  1  0.56110700  0.12315000  0.03367400  1
  O  O58  1  0.60180500  0.39259200  0.03408800  1
  O  O59  1  0.60268600  0.01459700  0.42985200  1
  O  O60  1  0.60238400  0.48552800  0.42886000  1
  O  O61  1  0.62873800  0.75157600  0.65755000  1
  O  O62  1  0.62845900  0.62372800  0.79276200  1
  O  O63  1  0.63288200  0.88117200  0.79673700  1
  O  O64  1  0.82900500  0.11874000  0.29266400  1
  O  O65  1  0.82494000  0.37996400  0.29090800  1
  O  O66  1  0.83121100  0.24746600  0.15708800  1
  O  O67  1  0.91354700  0.51117300  0.92927400  1
  O  O68  1  0.92858700  0.99423800  0.92573600  1
  O  O69  1  0.90977900  0.60745700  0.53803500  1
  O  O70  1  0.91004700  0.89328900  0.53745600  1
  O  O71  1  0.89510500  0.12198600  0.78757700  1
  O  O72  1  0.91580900  0.38148700  0.78506200  1
  O  O73  1  0.92221000  0.11346500  0.62053000  1
  O  O74  1  0.92160600  0.38475400  0.61926200  1
  O  O75  1  0.93370500  0.73652300  0.00566700  1
