# generated using pymatgen
data_Li2Ti4VO8
_symmetry_space_group_name_H-M   'P 1'
_cell_length_a   5.93547482
_cell_length_b   5.93547482
_cell_length_c   5.92734349
_cell_angle_alpha   60.10089930
_cell_angle_beta   60.10089930
_cell_angle_gamma   59.25681651
_symmetry_Int_Tables_number   1
_chemical_formula_structural   Li2Ti4VO8
_chemical_formula_sum   'Li2 Ti4 V1 O8'
_cell_volume   147.03157835
_cell_formula_units_Z   1
loop_
 _symmetry_equiv_pos_site_id
 _symmetry_equiv_pos_as_xyz
  1  'x, y, z'
loop_
 _atom_site_type_symbol
 _atom_site_label
 _atom_site_symmetry_multiplicity
 _atom_site_fract_x
 _atom_site_fract_y
 _atom_site_fract_z
 _atom_site_occupancy
  Li  Li0  1  0.00000000  0.50000000  0.00000000  1
  Li  Li1  1  0.50000000  0.00000000  0.00000000  1
  Ti  Ti2  1  0.00000000  0.00000000  0.00000000  1
  Ti  Ti3  1  0.50000000  0.00000000  0.50000000  1
  Ti  Ti4  1  0.00000000  0.50000000  0.50000000  1
  Ti  Ti5  1  0.50000000  0.50000000  0.50000000  1
  V  V6  1  0.50000000  0.50000000  0.00000000  1
  O  O7  1  0.25226000  0.75043900  0.74900500  1
  O  O8  1  0.74428400  0.74428400  0.73411300  1
  O  O9  1  0.24961400  0.24961400  0.75598900  1
  O  O10  1  0.75043900  0.25226000  0.74900500  1
  O  O11  1  0.24956100  0.74774000  0.25099500  1
  O  O12  1  0.75038600  0.75038600  0.24401100  1
  O  O13  1  0.25571600  0.25571600  0.26588700  1
  O  O14  1  0.74774000  0.24956100  0.25099500  1
