# generated using pymatgen
data_Li5Fe3Sb2(PO4)6
_symmetry_space_group_name_H-M   'P 1'
_cell_length_a   8.82099344
_cell_length_b   9.04188742
_cell_length_c   8.99465226
_cell_angle_alpha   59.26533071
_cell_angle_beta   60.27035962
_cell_angle_gamma   60.02008318
_symmetry_Int_Tables_number   1
_chemical_formula_structural   Li5Fe3Sb2(PO4)6
_chemical_formula_sum   'Li5 Fe3 Sb2 P6 O24'
_cell_volume   505.48899513
_cell_formula_units_Z   1
loop_
 _symmetry_equiv_pos_site_id
 _symmetry_equiv_pos_as_xyz
  1  'x, y, z'
loop_
 _atom_site_type_symbol
 _atom_site_label
 _atom_site_symmetry_multiplicity
 _atom_site_fract_x
 _atom_site_fract_y
 _atom_site_fract_z
 _atom_site_occupancy
  Li  Li0  1  0.76818344  0.12209658  0.33751414  1
  Li  Li1  1  0.18378022  0.83746154  0.66501356  1
  Li  Li2  1  0.67570882  0.16264156  0.84112685  1
  Li  Li3  1  0.83431434  0.68124198  0.17220020  1
  Li  Li4  1  0.83332552  0.81423661  0.81964549  1
  Fe  Fe5  1  0.15013962  0.16354110  0.15040441  1
  Fe  Fe6  1  0.35244844  0.33352179  0.34678402  1
  Fe  Fe7  1  0.63852653  0.65289515  0.65796949  1
  Sb  Sb8  1  0.01751307  0.99127740  0.97910351  1
  Sb  Sb9  1  0.47084946  0.48919051  0.48599249  1
  P  P10  1  0.04660606  0.75322661  0.45449467  1
  P  P11  1  0.44657943  0.05197380  0.76407623  1
  P  P12  1  0.75519234  0.45522099  0.05487520  1
  P  P13  1  0.25383687  0.54914479  0.96484161  1
  P  P14  1  0.56173089  0.97021821  0.25231527  1
  P  P15  1  0.95542606  0.24631226  0.54299030  1
  O  O16  1  0.09513246  0.33128709  0.48238504  1
  O  O17  1  0.34017870  0.50128095  0.09773933  1
  O  O18  1  0.04750388  0.92914528  0.27432162  1
  O  O19  1  0.56006518  0.09095807  0.32596537  1
  O  O20  1  0.04120408  0.78903241  0.60586956  1
  O  O21  1  0.24116205  0.59891638  0.40684394  1
  O  O22  1  0.26675253  0.08124107  0.93086284  1
  O  O23  1  0.41974238  0.24454004  0.59545301  1
  O  O24  1  0.18969702  0.39923764  0.00276490  1
  O  O25  1  0.60000422  0.41032348  0.25682338  1
  O  O26  1  0.07300505  0.72959665  0.97858800  1
  O  O27  1  0.38364866  0.03688600  0.21131870  1
  O  O28  1  0.61661154  0.01947893  0.79572446  1
  O  O29  1  0.91422036  0.26468771  0.08360009  1
  O  O30  1  0.37652959  0.60759361  0.76113226  1
  O  O31  1  0.79851640  0.60791383  0.03497050  1
  O  O32  1  0.60402953  0.76607255  0.37813215  1
  O  O33  1  0.73540852  0.97604855  0.06724233  1
  O  O34  1  0.75098494  0.36381040  0.61408375  1
  O  O35  1  0.97472350  0.19540660  0.39194078  1
  O  O36  1  0.45567692  0.90901605  0.71522586  1
  O  O37  1  0.98666118  0.06235960  0.71788258  1
  O  O38  1  0.69540450  0.48939407  0.90591058  1
  O  O39  1  0.88897369  0.69857416  0.49887449  1
