# generated using pymatgen
data_Li3Mn4(BO3)4
_symmetry_space_group_name_H-M   'P 1'
_cell_length_a   5.27113100
_cell_length_b   9.14699248
_cell_length_c   11.45714743
_cell_angle_alpha   111.37359649
_cell_angle_beta   102.43228921
_cell_angle_gamma   89.95776883
_symmetry_Int_Tables_number   1
_chemical_formula_structural   Li3Mn4(BO3)4
_chemical_formula_sum   'Li6 Mn8 B8 O24'
_cell_volume   500.51336943
_cell_formula_units_Z   2
loop_
 _symmetry_equiv_pos_site_id
 _symmetry_equiv_pos_as_xyz
  1  'x, y, z'
loop_
 _atom_site_type_symbol
 _atom_site_label
 _atom_site_symmetry_multiplicity
 _atom_site_fract_x
 _atom_site_fract_y
 _atom_site_fract_z
 _atom_site_occupancy
  Li  Li0  1  0.01000100  0.99099800  0.83884300  1
  Li  Li1  1  0.20996800  0.21733000  0.58788600  1
  Li  Li2  1  0.23574600  0.25888800  0.34147700  1
  Li  Li3  1  0.51538300  0.49015800  0.83278100  1
  Li  Li4  1  0.46206100  0.46751500  0.10463100  1
  Li  Li5  1  0.72842400  0.74845600  0.33203400  1
  Mn  Mn6  1  0.02109200  0.34308200  0.87159300  1
  Mn  Mn7  1  0.23152900  0.57396600  0.61630800  1
  Mn  Mn8  1  0.26164700  0.93457400  0.36566900  1
  Mn  Mn9  1  0.51985200  0.84711500  0.86874700  1
  Mn  Mn10  1  0.46590100  0.13189500  0.12073600  1
  Mn  Mn11  1  0.73711200  0.04915600  0.61868500  1
  Mn  Mn12  1  0.75725300  0.42629800  0.36920200  1
  Mn  Mn13  1  0.96979600  0.65825000  0.11106800  1
  B  B14  1  0.01341000  0.68201000  0.86517400  1
  B  B15  1  0.25342100  0.90739900  0.63897400  1
  B  B16  1  0.25539200  0.60121900  0.36371800  1
  B  B17  1  0.52961600  0.18676800  0.88035400  1
  B  B18  1  0.46055300  0.80522400  0.11385500  1
  B  B19  1  0.72997700  0.38250500  0.61586900  1
  B  B20  1  0.77760100  0.10397100  0.37878700  1
  B  B21  1  0.98040000  0.32971600  0.13830400  1
  O  O22  1  0.04175300  0.13018100  0.39653400  1
  O  O23  1  0.25223900  0.65365200  0.82660000  1
  O  O24  1  0.09634100  0.70791600  0.33073800  1
  O  O25  1  0.40322300  0.07505500  0.91206000  1
  O  O26  1  0.15042000  0.49552900  0.40876600  1
  O  O27  1  0.42423300  0.32863700  0.89474700  1
  O  O28  1  0.12478400  0.21604500  0.15957600  1
  O  O29  1  0.34172800  0.00232100  0.58198100  1
  O  O30  1  0.06397200  0.42709600  0.08255200  1
  O  O31  1  0.42418600  0.80670700  0.68129500  1
  O  O32  1  0.24042200  0.84803200  0.16018300  1
  O  O33  1  0.48085900  0.39653900  0.63538100  1
  O  O34  1  0.51067500  0.59483600  0.35473700  1
  O  O35  1  0.75814300  0.15152900  0.83864600  1
  O  O36  1  0.60577500  0.20057300  0.33462100  1
  O  O37  1  0.90082600  0.57107000  0.90027000  1
  O  O38  1  0.67337000  0.98318300  0.40602200  1
  O  O39  1  0.89575400  0.81556700  0.86960000  1
  O  O40  1  0.59197700  0.68203800  0.13058200  1
  O  O41  1  0.83470900  0.47065900  0.55620800  1
  O  O42  1  0.55400200  0.89730600  0.05408800  1
  O  O43  1  0.89374800  0.28178600  0.65716100  1
  O  O44  1  0.73556000  0.35173200  0.17688700  1
  O  O45  1  0.00782000  0.90817100  0.65541700  1
