# generated using pymatgen
data_Li8CrO6
_symmetry_space_group_name_H-M   'P 1'
_cell_length_a   5.57253263
_cell_length_b   5.57253263
_cell_length_c   10.86769200
_cell_angle_alpha   90.00000000
_cell_angle_beta   90.00000000
_cell_angle_gamma   120.00000745
_symmetry_Int_Tables_number   1
_chemical_formula_structural   Li8CrO6
_chemical_formula_sum   'Li16 Cr2 O12'
_cell_volume   292.26254427
_cell_formula_units_Z   2
loop_
 _symmetry_equiv_pos_site_id
 _symmetry_equiv_pos_as_xyz
  1  'x, y, z'
loop_
 _atom_site_type_symbol
 _atom_site_label
 _atom_site_symmetry_multiplicity
 _atom_site_fract_x
 _atom_site_fract_y
 _atom_site_fract_z
 _atom_site_occupancy
  Li  Li0  1  0.00000000  0.68544200  0.76707500  1
  Li  Li1  1  0.00000000  0.60968300  0.12865100  1
  Li  Li2  1  0.00000000  0.39031700  0.62865100  1
  Li  Li3  1  0.00000000  0.31455800  0.26707500  1
  Li  Li4  1  0.33333300  0.66666700  0.40738200  1
  Li  Li5  1  0.33333300  0.66666700  0.90738200  1
  Li  Li6  1  0.31455800  0.31455800  0.76707500  1
  Li  Li7  1  0.39031700  0.39031700  0.12865100  1
  Li  Li8  1  0.60968300  0.60968300  0.62865100  1
  Li  Li9  1  0.31455800  0.00000000  0.26707500  1
  Li  Li10  1  0.68544200  0.68544200  0.26707500  1
  Li  Li11  1  0.39031700  0.00000000  0.62865100  1
  Li  Li12  1  0.66666700  0.33333300  0.90738200  1
  Li  Li13  1  0.66666700  0.33333300  0.40738200  1
  Li  Li14  1  0.60968300  0.00000000  0.12865100  1
  Li  Li15  1  0.68544200  0.00000000  0.76707500  1
  Cr  Cr16  1  0.00000000  0.00000000  0.99458100  1
  Cr  Cr17  1  0.00000000  0.00000000  0.49458100  1
  O  O18  1  0.00000000  0.69038200  0.94985900  1
  O  O19  1  0.00000000  0.30961800  0.44985900  1
  O  O20  1  0.33333300  0.66666700  0.21716000  1
  O  O21  1  0.00000000  0.00000000  0.16523600  1
  O  O22  1  0.00000000  0.00000000  0.66523600  1
  O  O23  1  0.33333300  0.66666700  0.71716000  1
  O  O24  1  0.30961800  0.30961800  0.94985900  1
  O  O25  1  0.30961800  0.00000000  0.44985900  1
  O  O26  1  0.69038200  0.69038200  0.44985900  1
  O  O27  1  0.66666700  0.33333300  0.71716000  1
  O  O28  1  0.66666700  0.33333300  0.21716000  1
  O  O29  1  0.69038200  0.00000000  0.94985900  1
