# generated using pymatgen
data_Li4Ti2V3O10
_symmetry_space_group_name_H-M   'P 1'
_cell_length_a   6.72627800
_cell_length_b   7.84511951
_cell_length_c   7.94786135
_cell_angle_alpha   95.97435073
_cell_angle_beta   114.52268037
_cell_angle_gamma   90.87724157
_symmetry_Int_Tables_number   1
_chemical_formula_structural   Li4Ti2V3O10
_chemical_formula_sum   'Li8 Ti4 V6 O20'
_cell_volume   378.69892334
_cell_formula_units_Z   2
loop_
 _symmetry_equiv_pos_site_id
 _symmetry_equiv_pos_as_xyz
  1  'x, y, z'
loop_
 _atom_site_type_symbol
 _atom_site_label
 _atom_site_symmetry_multiplicity
 _atom_site_fract_x
 _atom_site_fract_y
 _atom_site_fract_z
 _atom_site_occupancy
  Li  Li0  1  0.09568700  0.70360300  0.77842800  1
  Li  Li1  1  0.81130000  0.59413400  0.40616800  1
  Li  Li2  1  0.24986300  0.75619900  0.49014800  1
  Li  Li3  1  0.75013700  0.24380100  0.50985200  1
  Li  Li4  1  0.18870000  0.40586600  0.59383200  1
  Li  Li5  1  0.90431300  0.29639700  0.22157200  1
  Li  Li6  1  0.32084200  0.08546400  0.40428900  1
  Li  Li7  1  0.67915800  0.91453600  0.59571100  1
  Ti  Ti8  1  0.34842900  0.46044300  0.30926300  1
  Ti  Ti9  1  0.65157100  0.53955700  0.69073700  1
  Ti  Ti10  1  0.83428900  0.94112400  0.31278600  1
  Ti  Ti11  1  0.16571100  0.05887600  0.68721400  1
  V  V12  1  0.97109300  0.65201700  0.09987000  1
  V  V13  1  0.02890700  0.34798300  0.90013000  1
  V  V14  1  0.50000000  0.50000000  0.00000000  1
  V  V15  1  0.00000000  0.00000000  0.00000000  1
  V  V16  1  0.46044000  0.14429800  0.09655100  1
  V  V17  1  0.53956000  0.85570200  0.90344900  1
  O  O18  1  0.76540400  0.44096900  0.94058600  1
  O  O19  1  0.90707300  0.47949900  0.66025300  1
  O  O20  1  0.09292700  0.52050100  0.33974700  1
  O  O21  1  0.39792800  0.61741100  0.76426000  1
  O  O22  1  0.23459600  0.55903100  0.05941400  1
  O  O23  1  0.52884100  0.65374500  0.46724900  1
  O  O24  1  0.90749000  0.11248100  0.76157500  1
  O  O25  1  0.69498500  0.72133700  0.14787500  1
  O  O26  1  0.30501500  0.27866300  0.85212500  1
  O  O27  1  0.02740100  0.15916400  0.46212100  1
  O  O28  1  0.47115900  0.34625500  0.53275100  1
  O  O29  1  0.18536800  0.22347800  0.14632000  1
  O  O30  1  0.81463200  0.77652200  0.85368000  1
  O  O31  1  0.60207200  0.38258900  0.23574000  1
  O  O32  1  0.97259900  0.84083600  0.53787900  1
  O  O33  1  0.25981400  0.93453900  0.92636600  1
  O  O34  1  0.09251000  0.88751900  0.23842500  1
  O  O35  1  0.40473300  0.97142500  0.65576000  1
  O  O36  1  0.59526700  0.02857500  0.34424000  1
  O  O37  1  0.74018600  0.06546100  0.07363400  1
