# generated using pymatgen
data_Li4V(PO3)6
_symmetry_space_group_name_H-M   'P 1'
_cell_length_a   7.35708671
_cell_length_b   7.35708671
_cell_length_c   13.99525098
_cell_angle_alpha   86.65661346
_cell_angle_beta   86.65661346
_cell_angle_gamma   64.17949224
_symmetry_Int_Tables_number   1
_chemical_formula_structural   Li4V(PO3)6
_chemical_formula_sum   'Li8 V2 P12 O36'
_cell_volume   680.27131288
_cell_formula_units_Z   2
loop_
 _symmetry_equiv_pos_site_id
 _symmetry_equiv_pos_as_xyz
  1  'x, y, z'
loop_
 _atom_site_type_symbol
 _atom_site_label
 _atom_site_symmetry_multiplicity
 _atom_site_fract_x
 _atom_site_fract_y
 _atom_site_fract_z
 _atom_site_occupancy
  Li  Li0  1  0.96026200  0.69975100  0.92486300  1
  Li  Li1  1  0.69975100  0.96026200  0.42486300  1
  Li  Li2  1  0.78266800  0.55991500  0.54736400  1
  Li  Li3  1  0.55991500  0.78266800  0.04736400  1
  Li  Li4  1  0.44008500  0.21733200  0.95263600  1
  Li  Li5  1  0.21733200  0.44008500  0.45263600  1
  Li  Li6  1  0.30024900  0.03973800  0.57513700  1
  Li  Li7  1  0.03973800  0.30024900  0.07513700  1
  V  V8  1  0.37223200  0.62776800  0.75000000  1
  V  V9  1  0.62776800  0.37223200  0.25000000  1
  P  P10  1  0.96356700  0.85297300  0.61356400  1
  P  P11  1  0.85297300  0.96356700  0.11356400  1
  P  P12  1  0.63060100  0.90739900  0.75115700  1
  P  P13  1  0.90739900  0.63060100  0.25115700  1
  P  P14  1  0.76969300  0.39981300  0.88978500  1
  P  P15  1  0.39981300  0.76969300  0.38978500  1
  P  P16  1  0.60018700  0.23030700  0.61021500  1
  P  P17  1  0.23030700  0.60018700  0.11021500  1
  P  P18  1  0.09260100  0.36939900  0.74884300  1
  P  P19  1  0.36939900  0.09260100  0.24884300  1
  P  P20  1  0.14702700  0.03643300  0.88643600  1
  P  P21  1  0.03643300  0.14702700  0.38643600  1
  O  O22  1  0.86574800  0.81549400  0.71433000  1
  O  O23  1  0.91330500  0.75405900  0.53484500  1
  O  O24  1  0.81549400  0.86574800  0.21433000  1
  O  O25  1  0.75405900  0.91330500  0.03484500  1
  O  O26  1  0.63008500  0.90165000  0.85743300  1
  O  O27  1  0.90165000  0.63008500  0.35743300  1
  O  O28  1  0.81252000  0.50435800  0.96876000  1
  O  O29  1  0.52357200  0.81185700  0.69804200  1
  O  O30  1  0.85956300  0.44850000  0.78832200  1
  O  O31  1  0.50435800  0.81252000  0.46876000  1
  O  O32  1  0.81185700  0.52357200  0.19804200  1
  O  O33  1  0.44850000  0.85956300  0.28832200  1
  O  O34  1  0.90332400  0.15726300  0.90192400  1
  O  O35  1  0.18904000  0.82212100  0.86854100  1
  O  O36  1  0.55775200  0.43147700  0.87256900  1
  O  O37  1  0.15726300  0.90332400  0.40192400  1
  O  O38  1  0.56852300  0.44224800  0.62743100  1
  O  O39  1  0.82212100  0.18904000  0.36854100  1
  O  O40  1  0.17787900  0.81096000  0.63145900  1
  O  O41  1  0.43147700  0.55775200  0.37256900  1
  O  O42  1  0.84273700  0.09667600  0.59807600  1
  O  O43  1  0.44224800  0.56852300  0.12743100  1
  O  O44  1  0.81096000  0.17787900  0.13145900  1
  O  O45  1  0.09667600  0.84273700  0.09807600  1
  O  O46  1  0.55150000  0.14043700  0.71167800  1
  O  O47  1  0.18814300  0.47642800  0.80195800  1
  O  O48  1  0.49564200  0.18748000  0.53124000  1
  O  O49  1  0.14043700  0.55150000  0.21167800  1
  O  O50  1  0.47642800  0.18814300  0.30195800  1
  O  O51  1  0.18748000  0.49564200  0.03124000  1
  O  O52  1  0.09835000  0.36991500  0.64256700  1
  O  O53  1  0.36991500  0.09835000  0.14256700  1
  O  O54  1  0.24594100  0.08669500  0.96515500  1
  O  O55  1  0.18450600  0.13425200  0.78567000  1
  O  O56  1  0.08669500  0.24594100  0.46515500  1
  O  O57  1  0.13425200  0.18450600  0.28567000  1
