# generated using pymatgen
data_Li12MnV7(PO4)12
_symmetry_space_group_name_H-M   'P 1'
_cell_length_a   8.73467500
_cell_length_b   8.74860814
_cell_length_c   12.16786729
_cell_angle_alpha   89.82786113
_cell_angle_beta   89.15237501
_cell_angle_gamma   89.66432238
_symmetry_Int_Tables_number   1
_chemical_formula_structural   Li12MnV7(PO4)12
_chemical_formula_sum   'Li12 Mn1 V7 P12 O48'
_cell_volume   929.70111301
_cell_formula_units_Z   1
loop_
 _symmetry_equiv_pos_site_id
 _symmetry_equiv_pos_as_xyz
  1  'x, y, z'
loop_
 _atom_site_type_symbol
 _atom_site_label
 _atom_site_symmetry_multiplicity
 _atom_site_fract_x
 _atom_site_fract_y
 _atom_site_fract_z
 _atom_site_occupancy
  Li  Li0  1  0.07317700  0.08126100  0.30254600  1
  Li  Li1  1  0.08069500  0.69765400  0.23656200  1
  Li  Li2  1  0.20684500  0.78366000  0.82551400  1
  Li  Li3  1  0.29203700  0.28171400  0.67416400  1
  Li  Li4  1  0.41639400  0.19775600  0.26206300  1
  Li  Li5  1  0.42717400  0.58065000  0.19743400  1
  Li  Li6  1  0.57425900  0.41779400  0.80350600  1
  Li  Li7  1  0.58399800  0.80256100  0.73736600  1
  Li  Li8  1  0.70898300  0.71765300  0.32427200  1
  Li  Li9  1  0.79198500  0.21842700  0.17338700  1
  Li  Li10  1  0.91623400  0.30256300  0.76312100  1
  Li  Li11  1  0.92659600  0.91924600  0.69751400  1
  Mn  Mn12  1  0.75299300  0.53896100  0.10837500  1
  V  V13  1  0.24694100  0.53015100  0.39004200  1
  V  V14  1  0.25334300  0.02927800  0.10977600  1
  V  V15  1  0.24692700  0.46211300  0.89094300  1
  V  V16  1  0.25288400  0.96203600  0.61047100  1
  V  V17  1  0.74730400  0.03792000  0.38971800  1
  V  V18  1  0.74662600  0.96967200  0.89103100  1
  V  V19  1  0.75319700  0.47009200  0.60939700  1
  P  P20  1  0.03637400  0.24791700  0.50695400  1
  P  P21  1  0.10341700  0.38280900  0.14872200  1
  P  P22  1  0.10514400  0.10480200  0.85124400  1
  P  P23  1  0.39413700  0.60477600  0.64863000  1
  P  P24  1  0.39735200  0.88261300  0.35199300  1
  P  P25  1  0.46291300  0.74767700  0.99194400  1
  P  P26  1  0.53558200  0.24863100  0.00698200  1
  P  P27  1  0.60272300  0.11722800  0.64806600  1
  P  P28  1  0.60585100  0.39571500  0.35075600  1
  P  P29  1  0.89566800  0.89731300  0.15015500  1
  P  P30  1  0.89654400  0.61681600  0.85222900  1
  P  P31  1  0.96432000  0.75249100  0.49317400  1
  O  O32  1  0.04935200  0.86708000  0.56613100  1
  O  O33  1  0.07436800  0.88870700  0.14788800  1
  O  O34  1  0.06998100  0.68176300  0.40303600  1
  O  O35  1  0.07051300  0.59458200  0.83066400  1
  O  O36  1  0.10802500  0.36564900  0.42824400  1
  O  O37  1  0.14358400  0.21535400  0.18194200  1
  O  O38  1  0.14585900  0.41171200  0.02793000  1
  O  O39  1  0.14495600  0.98272900  0.76075500  1
  O  O40  1  0.15958900  0.26581300  0.81263000  1
  O  O41  1  0.16941200  0.16861200  0.56855500  1
  O  O42  1  0.17293200  0.05096900  0.95753300  1
  O  O43  1  0.19437900  0.50107900  0.21847200  1
  O  O44  1  0.30518100  0.00109000  0.28146200  1
  O  O45  1  0.32690600  0.55181200  0.54192700  1
  O  O46  1  0.32984500  0.66941500  0.93075900  1
  O  O47  1  0.33909000  0.76585000  0.68654400  1
  O  O48  1  0.35539800  0.91066600  0.47267400  1
  O  O49  1  0.35848400  0.71480400  0.31864000  1
  O  O50  1  0.35444400  0.48265000  0.73934000  1
  O  O51  1  0.39240200  0.86529400  0.07084200  1
  O  O52  1  0.42757000  0.17875400  0.09623400  1
  O  O53  1  0.42741300  0.38644000  0.35197200  1
  O  O54  1  0.42939300  0.09538600  0.66908200  1
  O  O55  1  0.45001900  0.36627100  0.93426400  1
  O  O56  1  0.54692300  0.63122500  0.06617200  1
  O  O57  1  0.57056600  0.90399400  0.33050500  1
  O  O58  1  0.57274200  0.61469200  0.64741500  1
  O  O59  1  0.56933200  0.81770600  0.90237900  1
  O  O60  1  0.60378200  0.13146900  0.92528800  1
  O  O61  1  0.64551600  0.51906200  0.26023800  1
  O  O62  1  0.64115800  0.28518200  0.68140200  1
  O  O63  1  0.64469600  0.08870100  0.52747300  1
  O  O64  1  0.65997600  0.23442000  0.31350700  1
  O  O65  1  0.66825200  0.32278600  0.06774000  1
  O  O66  1  0.67290000  0.44803900  0.45803400  1
  O  O67  1  0.69504200  0.99902900  0.71872200  1
  O  O68  1  0.80495800  0.49934000  0.78202900  1
  O  O69  1  0.82738100  0.94888500  0.04230200  1
  O  O70  1  0.83077500  0.83226100  0.43193300  1
  O  O71  1  0.84386600  0.73873100  0.19153000  1
  O  O72  1  0.85627400  0.02170300  0.23920500  1
  O  O73  1  0.85985600  0.59176100  0.97459400  1
  O  O74  1  0.85787200  0.78465800  0.81756400  1
  O  O75  1  0.89254600  0.63472000  0.57215700  1
  O  O76  1  0.92939500  0.40315200  0.17030800  1
  O  O77  1  0.93014900  0.31873500  0.59734300  1
  O  O78  1  0.92644000  0.11434700  0.85220200  1
  O  O79  1  0.95188900  0.13297900  0.43438700  1
