# generated using pymatgen
data_Li2AgF4
_symmetry_space_group_name_H-M   'P 1'
_cell_length_a   8.94437916
_cell_length_b   8.94437916
_cell_length_c   8.94437880
_cell_angle_alpha   105.18632209
_cell_angle_beta   105.18632209
_cell_angle_gamma   105.18632045
_symmetry_Int_Tables_number   1
_chemical_formula_structural   Li2AgF4
_chemical_formula_sum   'Li12 Ag6 F24'
_cell_volume   623.06998669
_cell_formula_units_Z   6
loop_
 _symmetry_equiv_pos_site_id
 _symmetry_equiv_pos_as_xyz
  1  'x, y, z'
loop_
 _atom_site_type_symbol
 _atom_site_label
 _atom_site_symmetry_multiplicity
 _atom_site_fract_x
 _atom_site_fract_y
 _atom_site_fract_z
 _atom_site_occupancy
  Li  Li0  1  0.28554500  0.09887700  0.85430000  1
  Li  Li1  1  0.14570000  0.71445500  0.90112300  1
  Li  Li2  1  0.38923600  0.54973000  0.81106200  1
  Li  Li3  1  0.45027000  0.18893800  0.61076400  1
  Li  Li4  1  0.90112300  0.14570000  0.71445500  1
  Li  Li5  1  0.18893800  0.61076400  0.45027000  1
  Li  Li6  1  0.81106200  0.38923600  0.54973000  1
  Li  Li7  1  0.09887700  0.85430000  0.28554500  1
  Li  Li8  1  0.54973000  0.81106200  0.38923600  1
  Li  Li9  1  0.61076400  0.45027000  0.18893800  1
  Li  Li10  1  0.85430000  0.28554500  0.09887700  1
  Li  Li11  1  0.71445500  0.90112300  0.14570000  1
  Ag  Ag12  1  0.81684600  0.53130200  0.88586800  1
  Ag  Ag13  1  0.53130200  0.88586800  0.81684600  1
  Ag  Ag14  1  0.11413200  0.18315400  0.46869800  1
  Ag  Ag15  1  0.88586800  0.81684600  0.53130200  1
  Ag  Ag16  1  0.46869800  0.11413200  0.18315400  1
  Ag  Ag17  1  0.18315400  0.46869800  0.11413200  1
  F  F18  1  0.26115000  0.56777000  0.94550400  1
  F  F19  1  0.06899500  0.04369200  0.71344100  1
  F  F20  1  0.28655900  0.93100500  0.95630800  1
  F  F21  1  0.43223000  0.05449600  0.73885000  1
  F  F22  1  0.95630800  0.28655900  0.93100500  1
  F  F23  1  0.61519000  0.71886900  0.92308000  1
  F  F24  1  0.33670200  0.33315500  0.67838700  1
  F  F25  1  0.32161300  0.66329800  0.66684500  1
  F  F26  1  0.66684500  0.32161300  0.66329800  1
  F  F27  1  0.92308000  0.61519000  0.71886900  1
  F  F28  1  0.28113100  0.07692000  0.38481000  1
  F  F29  1  0.94550400  0.26115000  0.56777000  1
  F  F30  1  0.05449600  0.73885000  0.43223000  1
  F  F31  1  0.71886900  0.92308000  0.61519000  1
  F  F32  1  0.07692000  0.38481000  0.28113100  1
  F  F33  1  0.33315500  0.67838700  0.33670200  1
  F  F34  1  0.67838700  0.33670200  0.33315500  1
  F  F35  1  0.66329800  0.66684500  0.32161300  1
  F  F36  1  0.38481000  0.28113100  0.07692000  1
  F  F37  1  0.04369200  0.71344100  0.06899500  1
  F  F38  1  0.56777000  0.94550400  0.26115000  1
  F  F39  1  0.71344100  0.06899500  0.04369200  1
  F  F40  1  0.93100500  0.95630800  0.28655900  1
  F  F41  1  0.73885000  0.43223000  0.05449600  1
