# generated using pymatgen
data_Li5Fe7O3F13
_symmetry_space_group_name_H-M   'P 1'
_cell_length_a   6.18342775
_cell_length_b   6.18342775
_cell_length_c   10.78780747
_cell_angle_alpha   73.38585589
_cell_angle_beta   73.38585589
_cell_angle_gamma   60.85311613
_symmetry_Int_Tables_number   1
_chemical_formula_structural   Li5Fe7O3F13
_chemical_formula_sum   'Li5 Fe7 O3 F13'
_cell_volume   339.85870762
_cell_formula_units_Z   1
loop_
 _symmetry_equiv_pos_site_id
 _symmetry_equiv_pos_as_xyz
  1  'x, y, z'
loop_
 _atom_site_type_symbol
 _atom_site_label
 _atom_site_symmetry_multiplicity
 _atom_site_fract_x
 _atom_site_fract_y
 _atom_site_fract_z
 _atom_site_occupancy
  Li  Li0  1  0.63314000  0.63314000  0.11104000  1
  Li  Li1  1  0.99648200  0.99648200  0.01819800  1
  Li  Li2  1  0.12282100  0.12282100  0.61133100  1
  Li  Li3  1  0.50252400  0.50252400  0.51186300  1
  Li  Li4  1  0.56938700  0.56938700  0.80864200  1
  Fe  Fe5  1  0.06450100  0.56795200  0.31341600  1
  Fe  Fe6  1  0.32008600  0.32008600  0.05867200  1
  Fe  Fe7  1  0.06471200  0.06471200  0.31227100  1
  Fe  Fe8  1  0.56795200  0.06450100  0.31341600  1
  Fe  Fe9  1  0.58222800  0.06279600  0.80462800  1
  Fe  Fe10  1  0.81973300  0.81973300  0.57174200  1
  Fe  Fe11  1  0.06279600  0.58222800  0.80462800  1
  O  O12  1  0.20265900  0.20265900  0.40050600  1
  O  O13  1  0.92786900  0.92786900  0.22064300  1
  O  O14  1  0.92464000  0.92464000  0.69424400  1
  F  F15  1  0.44318100  0.44318100  0.17666300  1
  F  F16  1  0.95077300  0.44303300  0.17242200  1
  F  F17  1  0.44303300  0.95077300  0.17242200  1
  F  F18  1  0.68501600  0.19384600  0.44348400  1
  F  F19  1  0.69666400  0.69666400  0.45426100  1
  F  F20  1  0.19384600  0.68501600  0.44348400  1
  F  F21  1  0.44763000  0.92686500  0.69265500  1
  F  F22  1  0.92686500  0.44763000  0.69265500  1
  F  F23  1  0.68833600  0.68833600  0.92290400  1
  F  F24  1  0.43843000  0.43843000  0.70515900  1
  F  F25  1  0.20218800  0.66963900  0.94060900  1
  F  F26  1  0.20450400  0.20450400  0.92703000  1
  F  F27  1  0.66963900  0.20218800  0.94060900  1
