# generated using pymatgen
data_Li2V3SbO8
_symmetry_space_group_name_H-M   'P 1'
_cell_length_a   6.00090345
_cell_length_b   9.77255661
_cell_length_c   6.01212813
_cell_angle_alpha   89.83178507
_cell_angle_beta   60.09704462
_cell_angle_gamma   89.91359168
_symmetry_Int_Tables_number   1
_chemical_formula_structural   Li2V3SbO8
_chemical_formula_sum   'Li4 V6 Sb2 O16'
_cell_volume   305.63682653
_cell_formula_units_Z   2
loop_
 _symmetry_equiv_pos_site_id
 _symmetry_equiv_pos_as_xyz
  1  'x, y, z'
loop_
 _atom_site_type_symbol
 _atom_site_label
 _atom_site_symmetry_multiplicity
 _atom_site_fract_x
 _atom_site_fract_y
 _atom_site_fract_z
 _atom_site_occupancy
  Li  Li0  1  0.33315100  0.90346000  0.33337200  1
  Li  Li1  1  0.66665600  0.40316900  0.66603900  1
  Li  Li2  1  0.00025600  0.99144400  0.99866900  1
  Li  Li3  1  0.00037600  0.49021900  0.00001800  1
  V  V4  1  0.17038000  0.21380400  0.65755700  1
  V  V5  1  0.82929900  0.71421600  0.82980900  1
  V  V6  1  0.34102400  0.71421000  0.82984000  1
  V  V7  1  0.65829200  0.21461400  0.17102900  1
  V  V8  1  0.17126200  0.21425900  0.16979900  1
  V  V9  1  0.82939000  0.71452500  0.34133900  1
  Sb  Sb10  1  0.33309900  0.48774400  0.33570700  1
  Sb  Sb11  1  0.66657500  0.98781800  0.66689100  1
  O  O12  1  0.33372100  0.10752200  0.33336900  1
  O  O13  1  0.66680500  0.60807600  0.66697000  1
  O  O14  1  0.00083400  0.30452000  0.99884500  1
  O  O15  1  0.99993300  0.80708800  0.00006800  1
  O  O16  1  0.66823400  0.59296500  0.16586100  1
  O  O17  1  0.16578900  0.59245600  0.16660000  1
  O  O18  1  0.83537500  0.09321400  0.33090700  1
  O  O19  1  0.16581400  0.59288100  0.66894700  1
  O  O20  1  0.83161700  0.09253200  0.83488800  1
  O  O21  1  0.33156000  0.09288500  0.83112800  1
  O  O22  1  0.47929200  0.34527500  0.03767700  1
  O  O23  1  0.48500400  0.34729700  0.47945600  1
  O  O24  1  0.03688000  0.34551600  0.48563400  1
  O  O25  1  0.96326700  0.84537600  0.51833100  1
  O  O26  1  0.51843600  0.84583500  0.51831700  1
  O  O27  1  0.51797400  0.84491800  0.96293400  1
