# generated using pymatgen
data_Li2VF4
_symmetry_space_group_name_H-M   'P 1'
_cell_length_a   5.41575500
_cell_length_b   6.04925500
_cell_length_c   9.84083200
_cell_angle_alpha   90.00000000
_cell_angle_beta   90.00000000
_cell_angle_gamma   90.00000000
_symmetry_Int_Tables_number   1
_chemical_formula_structural   Li2VF4
_chemical_formula_sum   'Li8 V4 F16'
_cell_volume   322.39828223
_cell_formula_units_Z   4
loop_
 _symmetry_equiv_pos_site_id
 _symmetry_equiv_pos_as_xyz
  1  'x, y, z'
loop_
 _atom_site_type_symbol
 _atom_site_label
 _atom_site_symmetry_multiplicity
 _atom_site_fract_x
 _atom_site_fract_y
 _atom_site_fract_z
 _atom_site_occupancy
  Li  Li0  1  0.20247800  0.02500800  0.78306800  1
  Li  Li1  1  0.81421600  0.85910000  0.90907200  1
  Li  Li2  1  0.31421600  0.64090000  0.40907200  1
  Li  Li3  1  0.70247800  0.47499200  0.28306800  1
  Li  Li4  1  0.20247800  0.52500800  0.71693200  1
  Li  Li5  1  0.81421600  0.35910000  0.59092800  1
  Li  Li6  1  0.31421600  0.14090000  0.09092800  1
  Li  Li7  1  0.70247800  0.97499200  0.21693200  1
  V  V8  1  0.67030100  0.84115000  0.60963400  1
  V  V9  1  0.17030100  0.65885000  0.10963400  1
  V  V10  1  0.67030100  0.34115000  0.89036600  1
  V  V11  1  0.17030100  0.15885000  0.39036600  1
  F  F12  1  0.82956900  0.09398400  0.49076200  1
  F  F13  1  0.04953500  0.93085200  0.23681500  1
  F  F14  1  0.20019000  0.91770200  0.96770000  1
  F  F15  1  0.48971200  0.71564800  0.23145300  1
  F  F16  1  0.98971200  0.78435200  0.73145300  1
  F  F17  1  0.70019000  0.58229800  0.46770000  1
  F  F18  1  0.54953500  0.56914800  0.73681500  1
  F  F19  1  0.32956900  0.40601600  0.99076200  1
  F  F20  1  0.82956900  0.59398400  0.00923800  1
  F  F21  1  0.04953500  0.43085200  0.26318500  1
  F  F22  1  0.20019000  0.41770200  0.53230000  1
  F  F23  1  0.48971200  0.21564800  0.26854700  1
  F  F24  1  0.98971200  0.28435200  0.76854700  1
  F  F25  1  0.70019000  0.08229800  0.03230000  1
  F  F26  1  0.54953500  0.06914800  0.76318500  1
  F  F27  1  0.32956900  0.90601600  0.50923800  1
