# generated using pymatgen
data_LiCoPO4
_symmetry_space_group_name_H-M   'P 1'
_cell_length_a   9.62934500
_cell_length_b   4.78507600
_cell_length_c   6.99269061
_cell_angle_alpha   87.21272618
_cell_angle_beta   90.00000000
_cell_angle_gamma   90.00000000
_symmetry_Int_Tables_number   1
_chemical_formula_structural   LiCoPO4
_chemical_formula_sum   'Li4 Co4 P4 O16'
_cell_volume   321.82205947
_cell_formula_units_Z   4
loop_
 _symmetry_equiv_pos_site_id
 _symmetry_equiv_pos_as_xyz
  1  'x, y, z'
loop_
 _atom_site_type_symbol
 _atom_site_label
 _atom_site_symmetry_multiplicity
 _atom_site_fract_x
 _atom_site_fract_y
 _atom_site_fract_z
 _atom_site_occupancy
  Li  Li0  1  0.31597700  0.77868000  0.26306600  1
  Li  Li1  1  0.72580100  0.27952700  0.27664400  1
  Li  Li2  1  0.22580100  0.72047300  0.72335600  1
  Li  Li3  1  0.81597700  0.22132000  0.73693400  1
  Co  Co4  1  0.01856500  0.75934000  0.05307200  1
  Co  Co5  1  0.07174000  0.28183700  0.42881900  1
  Co  Co6  1  0.57174000  0.71816300  0.57118100  1
  Co  Co7  1  0.51856500  0.24066000  0.94692800  1
  P  P8  1  0.20024000  0.20163800  0.01233200  1
  P  P9  1  0.90600700  0.71843100  0.49144200  1
  P  P10  1  0.40600700  0.28156900  0.50855800  1
  P  P11  1  0.70024000  0.79836200  0.98766800  1
  O  O12  1  0.34931000  0.10042000  0.06571700  1
  O  O13  1  0.18839900  0.52625800  0.00299000  1
  O  O14  1  0.64386600  0.93050200  0.16704800  1
  O  O15  1  0.11021600  0.07461100  0.18670200  1
  O  O16  1  0.92026200  0.58603400  0.28960900  1
  O  O17  1  0.27498000  0.41475200  0.41350800  1
  O  O18  1  0.89382900  0.04318100  0.48192400  1
  O  O19  1  0.53972600  0.38342600  0.40130400  1
  O  O20  1  0.03972600  0.61657400  0.59869600  1
  O  O21  1  0.39382900  0.95681900  0.51807600  1
  O  O22  1  0.77498000  0.58524800  0.58649200  1
  O  O23  1  0.42026200  0.41396600  0.71039100  1
  O  O24  1  0.61021600  0.92538900  0.81329800  1
  O  O25  1  0.14386600  0.06949800  0.83295200  1
  O  O26  1  0.68839900  0.47374200  0.99701000  1
  O  O27  1  0.84931000  0.89958000  0.93428300  1
