# generated using pymatgen
data_Li3Bi3P8O29
_symmetry_space_group_name_H-M   'P 1'
_cell_length_a   10.09480935
_cell_length_b   10.09480935
_cell_length_c   14.36756196
_cell_angle_alpha   89.38601063
_cell_angle_beta   89.38601063
_cell_angle_gamma   60.27172797
_symmetry_Int_Tables_number   1
_chemical_formula_structural   Li3Bi3P8O29
_chemical_formula_sum   'Li6 Bi6 P16 O58'
_cell_volume   1271.33282045
_cell_formula_units_Z   2
loop_
 _symmetry_equiv_pos_site_id
 _symmetry_equiv_pos_as_xyz
  1  'x, y, z'
loop_
 _atom_site_type_symbol
 _atom_site_label
 _atom_site_symmetry_multiplicity
 _atom_site_fract_x
 _atom_site_fract_y
 _atom_site_fract_z
 _atom_site_occupancy
  Li  Li0  1  0.00000000  0.00000000  0.00000000  1
  Li  Li1  1  0.00000000  0.00000000  0.50000000  1
  Li  Li2  1  0.91267300  0.32121300  0.44616000  1
  Li  Li3  1  0.32121300  0.91267300  0.94616000  1
  Li  Li4  1  0.67878700  0.08732700  0.05384000  1
  Li  Li5  1  0.08732700  0.67878700  0.55384000  1
  Bi  Bi6  1  0.99928700  0.56497700  0.75973700  1
  Bi  Bi7  1  0.00071300  0.43502300  0.24026300  1
  Bi  Bi8  1  0.56497700  0.99928700  0.25973700  1
  Bi  Bi9  1  0.43502300  0.00071300  0.74026300  1
  Bi  Bi10  1  0.56114600  0.43885400  0.75000000  1
  Bi  Bi11  1  0.43885400  0.56114600  0.25000000  1
  P  P12  1  0.92110500  0.78795200  0.15632300  1
  P  P13  1  0.78795200  0.92110500  0.65632300  1
  P  P14  1  0.91630700  0.30968400  0.65539800  1
  P  P15  1  0.67042300  0.66110300  0.37684500  1
  P  P16  1  0.66110300  0.67042300  0.87684500  1
  P  P17  1  0.78001400  0.29704900  0.15298500  1
  P  P18  1  0.70295100  0.21998600  0.34701500  1
  P  P19  1  0.30968400  0.91630700  0.15539800  1
  P  P20  1  0.69031600  0.08369300  0.84460200  1
  P  P21  1  0.29704900  0.78001400  0.65298500  1
  P  P22  1  0.21998600  0.70295100  0.84701500  1
  P  P23  1  0.32957700  0.33889700  0.62315500  1
  P  P24  1  0.33889700  0.32957700  0.12315500  1
  P  P25  1  0.08369300  0.69031600  0.34460200  1
  P  P26  1  0.21204800  0.07889500  0.34367700  1
  P  P27  1  0.07889500  0.21204800  0.84367700  1
  O  O28  1  0.98916100  0.79177700  0.25683400  1
  O  O29  1  0.00833900  0.77350700  0.43268800  1
  O  O30  1  0.92533800  0.75334000  0.65767600  1
  O  O31  1  0.79177700  0.98916100  0.75683400  1
  O  O32  1  0.77350700  0.00833900  0.93268800  1
  O  O33  1  0.75334000  0.92533800  0.15767600  1
  O  O34  1  0.91466100  0.63723800  0.15018800  1
  O  O35  1  0.79211800  0.69936800  0.84013800  1
  O  O36  1  0.90278200  0.46906700  0.66289600  1
  O  O37  1  0.99517400  0.18206600  0.91941400  1
  O  O38  1  0.01083900  0.20822300  0.74316600  1
  O  O39  1  0.92357800  0.31612700  0.14886300  1
  O  O40  1  0.69936800  0.79211800  0.34013800  1
  O  O41  1  0.63723800  0.91466100  0.65018800  1
  O  O42  1  0.80740300  0.50401700  0.33995000  1
  O  O43  1  0.67218100  0.64993500  0.48072500  1
  O  O44  1  0.64993500  0.67218100  0.98072500  1
  O  O45  1  0.68967700  0.51803600  0.83107300  1
  O  O46  1  0.46906700  0.90278200  0.16289600  1
  O  O47  1  0.50401700  0.80740300  0.83995000  1
  O  O48  1  0.75516800  0.32488300  0.65875900  1
  O  O49  1  0.78757900  0.21242100  0.25000000  1
  O  O50  1  0.80591200  0.21127700  0.42361100  1
  O  O51  1  0.78872300  0.19408800  0.07638900  1
  O  O52  1  0.63528500  0.45809100  0.15552000  1
  O  O53  1  0.51803600  0.68967700  0.33107300  1
  O  O54  1  0.67511700  0.24483200  0.84124100  1
  O  O55  1  0.45809100  0.63528500  0.65552000  1
  O  O56  1  0.31612700  0.92357800  0.64886300  1
  O  O57  1  0.81793400  0.00482600  0.58058600  1
  O  O58  1  0.18206600  0.99517400  0.41941400  1
  O  O59  1  0.20822300  0.01083900  0.24316600  1
  O  O60  1  0.68387300  0.07642200  0.35113700  1
  O  O61  1  0.54190900  0.36471500  0.34448000  1
  O  O62  1  0.32488300  0.75516800  0.15875900  1
  O  O63  1  0.48196400  0.31032300  0.66892700  1
  O  O64  1  0.36471500  0.54190900  0.84448000  1
  O  O65  1  0.21127700  0.80591200  0.92361100  1
  O  O66  1  0.19408800  0.78872300  0.57638900  1
  O  O67  1  0.21242100  0.78757900  0.75000000  1
  O  O68  1  0.24483200  0.67511700  0.34124100  1
  O  O69  1  0.49598300  0.19259700  0.16005000  1
  O  O70  1  0.53093300  0.09721800  0.83710400  1
  O  O71  1  0.31032300  0.48196400  0.16892700  1
  O  O72  1  0.32781900  0.35006500  0.51927500  1
  O  O73  1  0.35006500  0.32781900  0.01927500  1
  O  O74  1  0.19259700  0.49598300  0.66005000  1
  O  O75  1  0.36276200  0.08533900  0.34981200  1
  O  O76  1  0.30063200  0.20788200  0.65986200  1
  O  O77  1  0.07642200  0.68387300  0.85113700  1
  O  O78  1  0.00482600  0.81793400  0.08058600  1
  O  O79  1  0.09721800  0.53093300  0.33710400  1
  O  O80  1  0.20788200  0.30063200  0.15986200  1
  O  O81  1  0.08533900  0.36276200  0.84981200  1
  O  O82  1  0.24666000  0.07466200  0.84232400  1
  O  O83  1  0.22649300  0.99166100  0.06731200  1
  O  O84  1  0.07466200  0.24666000  0.34232400  1
  O  O85  1  0.99166100  0.22649300  0.56731200  1
