# generated using pymatgen
data_Li2Ti2VO6
_symmetry_space_group_name_H-M   'P 1'
_cell_length_a   6.71013100
_cell_length_b   6.76629030
_cell_length_c   8.52215393
_cell_angle_alpha   71.06125786
_cell_angle_beta   70.75770101
_cell_angle_gamma   83.06608275
_symmetry_Int_Tables_number   1
_chemical_formula_structural   Li2Ti2VO6
_chemical_formula_sum   'Li6 Ti6 V3 O18'
_cell_volume   345.49551819
_cell_formula_units_Z   3
loop_
 _symmetry_equiv_pos_site_id
 _symmetry_equiv_pos_as_xyz
  1  'x, y, z'
loop_
 _atom_site_type_symbol
 _atom_site_label
 _atom_site_symmetry_multiplicity
 _atom_site_fract_x
 _atom_site_fract_y
 _atom_site_fract_z
 _atom_site_occupancy
  Li  Li0  1  0.67183000  0.99825000  0.82958600  1
  Li  Li1  1  0.67279400  0.32812900  0.49637700  1
  Li  Li2  1  0.99688600  0.33610800  0.16563600  1
  Li  Li3  1  0.00311400  0.66389200  0.83436400  1
  Li  Li4  1  0.32817000  0.00175000  0.17041400  1
  Li  Li5  1  0.32720600  0.67187100  0.50362300  1
  Ti  Ti6  1  0.68086300  0.99492600  0.32722100  1
  Ti  Ti7  1  0.67568600  0.33236700  0.99553700  1
  Ti  Ti8  1  0.32431400  0.66763300  0.00446300  1
  Ti  Ti9  1  0.31913700  0.00507400  0.67277900  1
  Ti  Ti10  1  0.68270200  0.66414900  0.66079200  1
  Ti  Ti11  1  0.31729800  0.33585100  0.33920800  1
  V  V12  1  0.00000000  0.00000000  0.00000000  1
  V  V13  1  0.00681000  0.32770900  0.66587300  1
  V  V14  1  0.99319000  0.67229100  0.33412700  1
  O  O15  1  0.01784400  0.99930500  0.75271900  1
  O  O16  1  0.34532400  0.69427000  0.75299400  1
  O  O17  1  0.98200100  0.65456000  0.59022800  1
  O  O18  1  0.98215600  0.00069500  0.24728100  1
  O  O19  1  0.97113400  0.33286700  0.92433400  1
  O  O20  1  0.33674800  0.97465200  0.91116200  1
  O  O21  1  0.01799900  0.34544000  0.40977200  1
  O  O22  1  0.02886600  0.66713300  0.07566600  1
  O  O23  1  0.35249600  0.01984200  0.42067200  1
  O  O24  1  0.34822700  0.35156700  0.09544800  1
  O  O25  1  0.66025100  0.68252800  0.43282500  1
  O  O26  1  0.66325200  0.02534800  0.08883800  1
  O  O27  1  0.67643400  0.34969000  0.75661000  1
  O  O28  1  0.33974900  0.31747200  0.56717500  1
  O  O29  1  0.32356600  0.65031000  0.24339000  1
  O  O30  1  0.64750400  0.98015800  0.57932800  1
  O  O31  1  0.65467600  0.30573000  0.24700600  1
  O  O32  1  0.65177300  0.64843300  0.90455200  1
