# generated using pymatgen
data_Li4FeO3
_symmetry_space_group_name_H-M   'P 1'
_cell_length_a   5.66837707
_cell_length_b   6.94423510
_cell_length_c   9.21363683
_cell_angle_alpha   78.73490877
_cell_angle_beta   83.63782873
_cell_angle_gamma   71.47076892
_symmetry_Int_Tables_number   1
_chemical_formula_structural   Li4FeO3
_chemical_formula_sum   'Li16 Fe4 O12'
_cell_volume   336.78331971
_cell_formula_units_Z   4
loop_
 _symmetry_equiv_pos_site_id
 _symmetry_equiv_pos_as_xyz
  1  'x, y, z'
loop_
 _atom_site_type_symbol
 _atom_site_label
 _atom_site_symmetry_multiplicity
 _atom_site_fract_x
 _atom_site_fract_y
 _atom_site_fract_z
 _atom_site_occupancy
  Li  Li0  1  0.90175300  0.93218800  0.86665100  1
  Li  Li1  1  0.40174400  0.93219600  0.36665200  1
  Li  Li2  1  0.25205500  0.43372200  0.51705500  1
  Li  Li3  1  0.75206700  0.43374600  0.01705500  1
  Li  Li4  1  0.83799300  0.64217100  0.71465300  1
  Li  Li5  1  0.33801000  0.64216000  0.21466000  1
  Li  Li6  1  0.99316000  0.14188400  0.56087100  1
  Li  Li7  1  0.49317100  0.14190700  0.06086000  1
  Li  Li8  1  0.94232800  0.83771200  0.45927400  1
  Li  Li9  1  0.44234200  0.83771900  0.95927500  1
  Li  Li10  1  0.16210100  0.33711700  0.24126000  1
  Li  Li11  1  0.66209000  0.33711900  0.74126800  1
  Li  Li12  1  0.77705200  0.52802700  0.49144000  1
  Li  Li13  1  0.27705500  0.52804200  0.99144200  1
  Li  Li14  1  0.12601000  0.02853600  0.14187800  1
  Li  Li15  1  0.62600700  0.02851500  0.64188700  1
  Fe  Fe16  1  0.34841700  0.75012900  0.68831700  1
  Fe  Fe17  1  0.70761800  0.25060300  0.32962300  1
  Fe  Fe18  1  0.84849500  0.75014200  0.18835200  1
  Fe  Fe19  1  0.20763800  0.25066500  0.82962700  1
  O  O20  1  0.99900900  0.86159300  0.66970900  1
  O  O21  1  0.49907100  0.86158300  0.16967900  1
  O  O22  1  0.00570200  0.36158100  0.66359100  1
  O  O23  1  0.50573000  0.36157300  0.16360200  1
  O  O24  1  0.05282500  0.59053000  0.35125300  1
  O  O25  1  0.55281100  0.59062200  0.85125500  1
  O  O26  1  0.05391600  0.09073300  0.34970800  1
  O  O27  1  0.55392600  0.09073000  0.84971200  1
  O  O28  1  0.59248000  0.80744200  0.53763000  1
  O  O29  1  0.09247000  0.80743400  0.03776000  1
  O  O30  1  0.60280700  0.30744200  0.52739500  1
  O  O31  1  0.10287800  0.30749400  0.02738500  1
