# generated using pymatgen
data_Li2CrF4
_symmetry_space_group_name_H-M   'P 1'
_cell_length_a   4.08069500
_cell_length_b   8.85254700
_cell_length_c   8.94242350
_cell_angle_alpha   87.69929134
_cell_angle_beta   90.00000000
_cell_angle_gamma   90.00000000
_symmetry_Int_Tables_number   1
_chemical_formula_structural   Li2CrF4
_chemical_formula_sum   'Li8 Cr4 F16'
_cell_volume   322.78056992
_cell_formula_units_Z   4
loop_
 _symmetry_equiv_pos_site_id
 _symmetry_equiv_pos_as_xyz
  1  'x, y, z'
loop_
 _atom_site_type_symbol
 _atom_site_label
 _atom_site_symmetry_multiplicity
 _atom_site_fract_x
 _atom_site_fract_y
 _atom_site_fract_z
 _atom_site_occupancy
  Li  Li0  1  0.00000000  0.07459600  0.37201400  1
  Li  Li1  1  0.50000000  0.10509200  0.57811900  1
  Li  Li2  1  0.00000000  0.38294500  0.13250800  1
  Li  Li3  1  0.50000000  0.35972200  0.88417500  1
  Li  Li4  1  0.50000000  0.61943400  0.09670800  1
  Li  Li5  1  0.00000000  0.61537800  0.87571600  1
  Li  Li6  1  0.50000000  0.65741400  0.63309000  1
  Li  Li7  1  0.00000000  0.88194400  0.61716800  1
  Cr  Cr8  1  0.50000000  0.11749800  0.13837400  1
  Cr  Cr9  1  0.00000000  0.37186500  0.62021100  1
  Cr  Cr10  1  0.00000000  0.64887800  0.36480200  1
  Cr  Cr11  1  0.50000000  0.88425000  0.87950400  1
  F  F12  1  0.50000000  0.13652200  0.91318800  1
  F  F13  1  0.50000000  0.11172200  0.36380900  1
  F  F14  1  0.00000000  0.15241000  0.15897600  1
  F  F15  1  0.00000000  0.11083800  0.58674800  1
  F  F16  1  0.50000000  0.38605800  0.09995700  1
  F  F17  1  0.50000000  0.35747100  0.63953400  1
  F  F18  1  0.00000000  0.38657100  0.84749300  1
  F  F19  1  0.00000000  0.41603600  0.39454400  1
  F  F20  1  0.00000000  0.64665600  0.64056600  1
  F  F21  1  0.00000000  0.59925900  0.10427000  1
  F  F22  1  0.50000000  0.63958400  0.39434500  1
  F  F23  1  0.50000000  0.61343000  0.86182300  1
  F  F24  1  0.00000000  0.86769200  0.40116600  1
  F  F25  1  0.00000000  0.85777600  0.85712000  1
  F  F26  1  0.50000000  0.88849000  0.65093900  1
  F  F27  1  0.50000000  0.85102100  0.09956100  1
