# generated using pymatgen
data_Li2Ti(TeO4)3
_symmetry_space_group_name_H-M   'P 1'
_cell_length_a   8.52090700
_cell_length_b   7.07970600
_cell_length_c   7.29606655
_cell_angle_alpha   87.35303227
_cell_angle_beta   90.00000000
_cell_angle_gamma   90.00000000
_symmetry_Int_Tables_number   1
_chemical_formula_structural   Li2Ti(TeO4)3
_chemical_formula_sum   'Li4 Ti2 Te6 O24'
_cell_volume   439.66937542
_cell_formula_units_Z   2
loop_
 _symmetry_equiv_pos_site_id
 _symmetry_equiv_pos_as_xyz
  1  'x, y, z'
loop_
 _atom_site_type_symbol
 _atom_site_label
 _atom_site_symmetry_multiplicity
 _atom_site_fract_x
 _atom_site_fract_y
 _atom_site_fract_z
 _atom_site_occupancy
  Li  Li0  1  0.17673700  0.73447400  0.75674000  1
  Li  Li1  1  0.17673700  0.26552600  0.24326000  1
  Li  Li2  1  0.85045100  0.00000000  0.00000000  1
  Li  Li3  1  0.29859200  0.00000000  0.50000000  1
  Ti  Ti4  1  0.09920300  0.25950000  0.74674600  1
  Ti  Ti5  1  0.09920300  0.74050000  0.25325400  1
  Te  Te6  1  0.60380500  0.75115900  0.75016800  1
  Te  Te7  1  0.91813500  0.50000000  0.00000000  1
  Te  Te8  1  0.60380500  0.24884100  0.24983200  1
  Te  Te9  1  0.40912400  0.00000000  0.00000000  1
  Te  Te10  1  0.41204700  0.50000000  0.50000000  1
  Te  Te11  1  0.91662600  0.00000000  0.50000000  1
  O  O12  1  0.75601900  0.29761400  0.05455300  1
  O  O13  1  0.07170300  0.29436600  0.01276900  1
  O  O14  1  0.43032700  0.26743500  0.06200900  1
  O  O15  1  0.43032700  0.73256500  0.93799100  1
  O  O16  1  0.07170300  0.70563400  0.98723100  1
  O  O17  1  0.75601900  0.70238600  0.94544700  1
  O  O18  1  0.93290000  0.05630000  0.75318100  1
  O  O19  1  0.58507200  0.01645100  0.81018200  1
  O  O20  1  0.93547200  0.54699100  0.25435800  1
  O  O21  1  0.25865500  0.05341000  0.80898400  1
  O  O22  1  0.58011700  0.51341200  0.30794200  1
  O  O23  1  0.25615600  0.54920100  0.31702500  1
  O  O24  1  0.25865500  0.94659000  0.19101600  1
  O  O25  1  0.58507200  0.98354900  0.18981800  1
  O  O26  1  0.25615600  0.45079900  0.68297500  1
  O  O27  1  0.93290000  0.94370000  0.24681900  1
  O  O28  1  0.58011700  0.48658800  0.69205800  1
  O  O29  1  0.93547200  0.45300900  0.74564200  1
  O  O30  1  0.75413800  0.80438100  0.55512400  1
  O  O31  1  0.08505800  0.80955300  0.51484000  1
  O  O32  1  0.43144400  0.77125600  0.55715300  1
  O  O33  1  0.43144400  0.22874400  0.44284700  1
  O  O34  1  0.08505800  0.19044700  0.48516000  1
  O  O35  1  0.75413800  0.19561900  0.44487600  1
