# generated using pymatgen
data_Li3(CoO2)4
_symmetry_space_group_name_H-M   'P 1'
_cell_length_a   5.74022808
_cell_length_b   5.66820615
_cell_length_c   5.88786395
_cell_angle_alpha   119.71591425
_cell_angle_beta   58.67582776
_cell_angle_gamma   91.59198861
_symmetry_Int_Tables_number   1
_chemical_formula_structural   Li3(CoO2)4
_chemical_formula_sum   'Li3 Co4 O8'
_cell_volume   135.13027938
_cell_formula_units_Z   1
loop_
 _symmetry_equiv_pos_site_id
 _symmetry_equiv_pos_as_xyz
  1  'x, y, z'
loop_
 _atom_site_type_symbol
 _atom_site_label
 _atom_site_symmetry_multiplicity
 _atom_site_fract_x
 _atom_site_fract_y
 _atom_site_fract_z
 _atom_site_occupancy
  Li  Li0  1  0.99712841  0.50211056  0.00432128  1
  Li  Li1  1  0.49852384  0.00212192  0.00388350  1
  Li  Li2  1  0.49259482  0.50783233  0.51466841  1
  Co  Co3  1  0.99930801  0.00089677  0.50171251  1
  Co  Co4  1  0.99703912  0.00247281  0.00350199  1
  Co  Co5  1  0.99929097  0.50095996  0.50186845  1
  Co  Co6  1  0.49921731  0.50073391  0.00197885  1
  O  O7  1  0.21743299  0.25638839  0.49835438  1
  O  O8  1  0.22830542  0.28181752  0.05368644  1
  O  O9  1  0.24136419  0.74077287  0.47605665  1
  O  O10  1  0.23595785  0.76424458  0.04437158  1
  O  O11  1  0.76314631  0.23669490  0.95738722  1
  O  O12  1  0.75718075  0.26096060  0.52755080  1
  O  O13  1  0.76968676  0.72009235  0.95037892  1
  O  O14  1  0.78090924  0.74572454  0.50575101  1
