# generated using pymatgen
data_Li2V(CO3)2
_symmetry_space_group_name_H-M   'P 1'
_cell_length_a   5.22994329
_cell_length_b   7.54656978
_cell_length_c   15.32814402
_cell_angle_alpha   89.99610900
_cell_angle_beta   90.00386818
_cell_angle_gamma   107.71832124
_symmetry_Int_Tables_number   1
_chemical_formula_structural   Li2V(CO3)2
_chemical_formula_sum   'Li8 V4 C8 O24'
_cell_volume   576.27582848
_cell_formula_units_Z   4
loop_
 _symmetry_equiv_pos_site_id
 _symmetry_equiv_pos_as_xyz
  1  'x, y, z'
loop_
 _atom_site_type_symbol
 _atom_site_label
 _atom_site_symmetry_multiplicity
 _atom_site_fract_x
 _atom_site_fract_y
 _atom_site_fract_z
 _atom_site_occupancy
  Li  Li0  1  0.10556300  0.68836500  0.30750200  1
  Li  Li1  1  0.10548100  0.68838800  0.80766200  1
  Li  Li2  1  0.39431400  0.81150100  0.05748300  1
  Li  Li3  1  0.39441400  0.81185900  0.55756700  1
  Li  Li4  1  0.60555900  0.18834300  0.44231100  1
  Li  Li5  1  0.60548800  0.18842500  0.94251900  1
  Li  Li6  1  0.89437400  0.31143100  0.19252500  1
  Li  Li7  1  0.89438600  0.31190100  0.69240000  1
  V  V8  1  0.49962000  0.49985200  0.75011300  1
  V  V9  1  0.00012500  0.00003000  0.49999700  1
  V  V10  1  0.50011800  0.50010400  0.24987500  1
  V  V11  1  0.99995300  0.99999500  0.99999000  1
  C  C12  1  0.67103800  0.82314100  0.37927900  1
  C  C13  1  0.67118600  0.82313000  0.87944100  1
  C  C14  1  0.82916100  0.67666900  0.12914600  1
  C  C15  1  0.82881600  0.67707700  0.62946600  1
  C  C16  1  0.17127600  0.32309800  0.37053800  1
  C  C17  1  0.17084600  0.32319800  0.87078800  1
  C  C18  1  0.32908500  0.17662400  0.12080900  1
  C  C19  1  0.32886600  0.17713200  0.62053900  1
  O  O20  1  0.92254900  0.83163500  0.37725600  1
  O  O21  1  0.92285700  0.83210300  0.87739600  1
  O  O22  1  0.57768700  0.66821400  0.12711800  1
  O  O23  1  0.57724800  0.66841400  0.62740800  1
  O  O24  1  0.42294500  0.33205200  0.37257400  1
  O  O25  1  0.42232300  0.33164000  0.87281100  1
  O  O26  1  0.07760800  0.16822500  0.12282700  1
  O  O27  1  0.07730900  0.16841300  0.62258900  1
  O  O28  1  0.59447300  0.90485500  0.44581400  1
  O  O29  1  0.59449500  0.90495500  0.94587900  1
  O  O30  1  0.09456200  0.40494800  0.30410300  1
  O  O31  1  0.09432400  0.40484400  0.80421000  1
  O  O32  1  0.90563300  0.59517700  0.19577800  1
  O  O33  1  0.90537500  0.59514000  0.69590000  1
  O  O34  1  0.40555500  0.09512000  0.05418700  1
  O  O35  1  0.40550800  0.09517800  0.55411700  1
  O  O36  1  0.50049400  0.74256300  0.32056100  1
  O  O37  1  0.50036400  0.74210400  0.82086800  1
  O  O38  1  0.99952200  0.75687500  0.07031200  1
  O  O39  1  0.99961600  0.75789100  0.57085200  1
  O  O40  1  0.00045900  0.24210000  0.42912500  1
  O  O41  1  0.00042100  0.24261800  0.92952100  1
  O  O42  1  0.49949400  0.25683100  0.17964900  1
  O  O43  1  0.49963000  0.25792500  0.67915900  1
