# generated using pymatgen
data_Li2Mn3SbO8
_symmetry_space_group_name_H-M   'P 1'
_cell_length_a   8.64592100
_cell_length_b   8.64592100
_cell_length_c   8.64592100
_cell_angle_alpha   90.00000000
_cell_angle_beta   90.00000000
_cell_angle_gamma   90.00000000
_symmetry_Int_Tables_number   1
_chemical_formula_structural   Li2Mn3SbO8
_chemical_formula_sum   'Li8 Mn12 Sb4 O32'
_cell_volume   646.29945376
_cell_formula_units_Z   4
loop_
 _symmetry_equiv_pos_site_id
 _symmetry_equiv_pos_as_xyz
  1  'x, y, z'
loop_
 _atom_site_type_symbol
 _atom_site_label
 _atom_site_symmetry_multiplicity
 _atom_site_fract_x
 _atom_site_fract_y
 _atom_site_fract_z
 _atom_site_occupancy
  Li  Li0  1  0.00747000  0.00747000  0.00747000  1
  Li  Li1  1  0.24253000  0.24253000  0.24253000  1
  Li  Li2  1  0.25747000  0.75747000  0.74253000  1
  Li  Li3  1  0.49253000  0.99253000  0.50747000  1
  Li  Li4  1  0.50747000  0.49253000  0.99253000  1
  Li  Li5  1  0.74253000  0.25747000  0.75747000  1
  Li  Li6  1  0.75747000  0.74253000  0.25747000  1
  Li  Li7  1  0.99253000  0.50747000  0.49253000  1
  Mn  Mn8  1  0.12386400  0.12613600  0.62500000  1
  Mn  Mn9  1  0.12500000  0.37613600  0.87386400  1
  Mn  Mn10  1  0.12613600  0.62500000  0.12386400  1
  Mn  Mn11  1  0.37386400  0.37500000  0.62386400  1
  Mn  Mn12  1  0.37500000  0.62386400  0.37386400  1
  Mn  Mn13  1  0.37613600  0.87386400  0.12500000  1
  Mn  Mn14  1  0.62386400  0.37386400  0.37500000  1
  Mn  Mn15  1  0.62500000  0.12386400  0.12613600  1
  Mn  Mn16  1  0.62613600  0.87500000  0.87613600  1
  Mn  Mn17  1  0.87386400  0.12500000  0.37613600  1
  Mn  Mn18  1  0.87500000  0.87613600  0.62613600  1
  Mn  Mn19  1  0.87613600  0.62613600  0.87500000  1
  Sb  Sb20  1  0.12500000  0.87500000  0.37500000  1
  Sb  Sb21  1  0.37500000  0.12500000  0.87500000  1
  Sb  Sb22  1  0.62500000  0.62500000  0.62500000  1
  Sb  Sb23  1  0.87500000  0.37500000  0.12500000  1
  O  O24  1  0.10611100  0.10859900  0.37474700  1
  O  O25  1  0.12525300  0.89388900  0.60859900  1
  O  O26  1  0.10769600  0.60769600  0.89230400  1
  O  O27  1  0.14140100  0.14388900  0.87525300  1
  O  O28  1  0.10859900  0.37474700  0.10611100  1
  O  O29  1  0.14230400  0.35769600  0.64230400  1
  O  O30  1  0.12474700  0.64140100  0.35611100  1
  O  O31  1  0.14388900  0.87525300  0.14140100  1
  O  O32  1  0.35611100  0.12474700  0.64140100  1
  O  O33  1  0.37525300  0.35859900  0.85611100  1
  O  O34  1  0.35769600  0.64230400  0.14230400  1
  O  O35  1  0.39140100  0.62525300  0.60611100  1
  O  O36  1  0.35859900  0.85611100  0.37525300  1
  O  O37  1  0.39230400  0.39230400  0.39230400  1
  O  O38  1  0.37474700  0.10611100  0.10859900  1
  O  O39  1  0.39388900  0.89140100  0.87474700  1
  O  O40  1  0.60611100  0.39140100  0.62525300  1
  O  O41  1  0.62525300  0.60611100  0.39140100  1
  O  O42  1  0.60769600  0.89230400  0.10769600  1
  O  O43  1  0.64140100  0.35611100  0.12474700  1
  O  O44  1  0.60859900  0.12525300  0.89388900  1
  O  O45  1  0.64230400  0.14230400  0.35769600  1
  O  O46  1  0.62474700  0.85859900  0.64388900  1
  O  O47  1  0.64388900  0.62474700  0.85859900  1
  O  O48  1  0.85611100  0.37525300  0.35859900  1
  O  O49  1  0.87525300  0.14140100  0.14388900  1
  O  O50  1  0.85769600  0.85769600  0.85769600  1
  O  O51  1  0.89140100  0.87474700  0.39388900  1
  O  O52  1  0.85859900  0.64388900  0.62474700  1
  O  O53  1  0.89230400  0.10769600  0.60769600  1
  O  O54  1  0.87474700  0.39388900  0.89140100  1
  O  O55  1  0.89388900  0.60859900  0.12525300  1
