# generated using pymatgen
data_Li4MnV(PO4)3
_symmetry_space_group_name_H-M   'P 1'
_cell_length_a   9.30093259
_cell_length_b   8.41544872
_cell_length_c   8.43679734
_cell_angle_alpha   60.59734037
_cell_angle_beta   63.27214585
_cell_angle_gamma   90.37341048
_symmetry_Int_Tables_number   1
_chemical_formula_structural   Li4MnV(PO4)3
_chemical_formula_sum   'Li8 Mn2 V2 P6 O24'
_cell_volume   491.41474035
_cell_formula_units_Z   2
loop_
 _symmetry_equiv_pos_site_id
 _symmetry_equiv_pos_as_xyz
  1  'x, y, z'
loop_
 _atom_site_type_symbol
 _atom_site_label
 _atom_site_symmetry_multiplicity
 _atom_site_fract_x
 _atom_site_fract_y
 _atom_site_fract_z
 _atom_site_occupancy
  Li  Li0  1  0.86461156  0.26449369  0.80353259  1
  Li  Li1  1  0.90262057  0.94348302  0.36415069  1
  Li  Li2  1  0.85293888  0.65855607  0.07499212  1
  Li  Li3  1  0.59062761  0.79833292  0.66872143  1
  Li  Li4  1  0.40937239  0.20166708  0.33127857  1
  Li  Li5  1  0.14706112  0.34144393  0.92500788  1
  Li  Li6  1  0.09737943  0.05651698  0.63584931  1
  Li  Li7  1  0.13538844  0.73550631  0.19646741  1
  Mn  Mn8  1  0.43822197  0.15005940  0.71276219  1
  Mn  Mn9  1  0.56177803  0.84994060  0.28723781  1
  V  V10  1  0.96509974  0.64834273  0.69129207  1
  V  V11  1  0.03490026  0.35165727  0.30870793  1
  P  P12  1  0.75409002  0.94937437  0.78499170  1
  P  P13  1  0.75363519  0.54697604  0.50660697  1
  P  P14  1  0.76193114  0.25457877  0.19136485  1
  P  P15  1  0.23806886  0.74542123  0.80863515  1
  P  P16  1  0.24636481  0.45302396  0.49339303  1
  P  P17  1  0.24590998  0.05062563  0.21500830  1
  O  O18  1  0.89309126  0.15049311  0.63782708  1
  O  O19  1  0.82115311  0.50323562  0.65963938  1
  O  O20  1  0.81702764  0.83222322  0.68024272  1
  O  O21  1  0.89924941  0.55426208  0.30620883  1
  O  O22  1  0.89922949  0.20973721  0.25769542  1
  O  O23  1  0.73227989  0.75105036  0.42586117  1
  O  O24  1  0.58792905  0.96729434  0.79580342  1
  O  O25  1  0.59287966  0.39777758  0.61699338  1
  O  O26  1  0.82313009  0.47234395  0.01330227  1
  O  O27  1  0.75530773  0.13373787  0.10386137  1
  O  O28  1  0.59136443  0.20815559  0.38101666  1
  O  O29  1  0.74580562  0.85215002  0.99917382  1
  O  O30  1  0.25419438  0.14784998  0.00082618  1
  O  O31  1  0.40863557  0.79184441  0.61898334  1
  O  O32  1  0.24469227  0.86626213  0.89613863  1
  O  O33  1  0.17686991  0.52765605  0.98669773  1
  O  O34  1  0.40712034  0.60222242  0.38300662  1
  O  O35  1  0.41207095  0.03270566  0.20419658  1
  O  O36  1  0.26772011  0.24894964  0.57413883  1
  O  O37  1  0.10077051  0.79026279  0.74230458  1
  O  O38  1  0.10075059  0.44573792  0.69379117  1
  O  O39  1  0.18297236  0.16777678  0.31975728  1
  O  O40  1  0.17884689  0.49676438  0.34036062  1
  O  O41  1  0.10690874  0.84950689  0.36217292  1
