# generated using pymatgen
data_Li(Fe2O3)4
_symmetry_space_group_name_H-M   'P 1'
_cell_length_a   6.03700014
_cell_length_b   6.03700014
_cell_length_c   13.40769268
_cell_angle_alpha   77.14554243
_cell_angle_beta   77.14554243
_cell_angle_gamma   89.87029000
_symmetry_Int_Tables_number   1
_chemical_formula_structural   Li(Fe2O3)4
_chemical_formula_sum   'Li2 Fe16 O24'
_cell_volume   463.88879148
_cell_formula_units_Z   2
loop_
 _symmetry_equiv_pos_site_id
 _symmetry_equiv_pos_as_xyz
  1  'x, y, z'
loop_
 _atom_site_type_symbol
 _atom_site_label
 _atom_site_symmetry_multiplicity
 _atom_site_fract_x
 _atom_site_fract_y
 _atom_site_fract_z
 _atom_site_occupancy
  Li  Li0  1  0.95797800  0.45938300  0.58341300  1
  Li  Li1  1  0.45938300  0.95797800  0.08341300  1
  Fe  Fe2  1  0.00091900  0.25658400  0.00150800  1
  Fe  Fe3  1  0.29220800  0.79901900  0.91906700  1
  Fe  Fe4  1  0.78597900  0.79731500  0.92106400  1
  Fe  Fe5  1  0.58303600  0.33144300  0.83263100  1
  Fe  Fe6  1  0.11724000  0.62549000  0.74757500  1
  Fe  Fe7  1  0.11745400  0.12750000  0.74786300  1
  Fe  Fe8  1  0.66063600  0.91819900  0.66488500  1
  Fe  Fe9  1  0.45933800  0.46094300  0.58172100  1
  Fe  Fe10  1  0.25658400  0.00091900  0.50150800  1
  Fe  Fe11  1  0.79731500  0.78597900  0.42106400  1
  Fe  Fe12  1  0.79901900  0.29220800  0.41906700  1
  Fe  Fe13  1  0.33144300  0.58303600  0.33263100  1
  Fe  Fe14  1  0.12750000  0.11745400  0.24786300  1
  Fe  Fe15  1  0.62549000  0.11724000  0.24757500  1
  Fe  Fe16  1  0.91819900  0.66063600  0.16488500  1
  Fe  Fe17  1  0.46094300  0.45933800  0.08172100  1
  O  O18  1  0.53548400  0.03017700  0.91373200  1
  O  O19  1  0.52825400  0.54812200  0.92133300  1
  O  O20  1  0.05481500  0.03997700  0.91130900  1
  O  O21  1  0.05090400  0.56064500  0.90941100  1
  O  O22  1  0.35158800  0.87095000  0.75706200  1
  O  O23  1  0.89077800  0.87595600  0.74905200  1
  O  O24  1  0.89286500  0.37436100  0.75115700  1
  O  O25  1  0.35978200  0.37827300  0.74355000  1
  O  O26  1  0.21490700  0.69566400  0.58899500  1
  O  O27  1  0.21560000  0.21481300  0.59080800  1
  O  O28  1  0.69454400  0.69658700  0.58446400  1
  O  O29  1  0.70067400  0.22076900  0.57758800  1
  O  O30  1  0.03017700  0.53548400  0.41373200  1
  O  O31  1  0.54812200  0.52825400  0.42133300  1
  O  O32  1  0.56064500  0.05090400  0.40941100  1
  O  O33  1  0.03997700  0.05481500  0.41130900  1
  O  O34  1  0.87095000  0.35158800  0.25706200  1
  O  O35  1  0.87595600  0.89077800  0.24905200  1
  O  O36  1  0.37827300  0.35978200  0.24355000  1
  O  O37  1  0.37436100  0.89286500  0.25115700  1
  O  O38  1  0.69566400  0.21490700  0.08899500  1
  O  O39  1  0.21481300  0.21560000  0.09080800  1
  O  O40  1  0.22076900  0.70067400  0.07758800  1
  O  O41  1  0.69658700  0.69454400  0.08446400  1
