# generated using pymatgen
data_Li3FePCO7
_symmetry_space_group_name_H-M   'P 1'
_cell_length_a   5.28731300
_cell_length_b   6.53186500
_cell_length_c   8.33234500
_cell_angle_alpha   90.00000000
_cell_angle_beta   90.00000000
_cell_angle_gamma   90.00000000
_symmetry_Int_Tables_number   1
_chemical_formula_structural   Li3FePCO7
_chemical_formula_sum   'Li6 Fe2 P2 C2 O14'
_cell_volume   287.76598964
_cell_formula_units_Z   2
loop_
 _symmetry_equiv_pos_site_id
 _symmetry_equiv_pos_as_xyz
  1  'x, y, z'
loop_
 _atom_site_type_symbol
 _atom_site_label
 _atom_site_symmetry_multiplicity
 _atom_site_fract_x
 _atom_site_fract_y
 _atom_site_fract_z
 _atom_site_occupancy
  Li  Li0  1  0.39984200  0.26771100  0.71807000  1
  Li  Li1  1  0.39984200  0.73228900  0.71807000  1
  Li  Li2  1  0.96827600  0.50000000  0.92277800  1
  Li  Li3  1  0.46827600  0.00000000  0.07722200  1
  Li  Li4  1  0.89984200  0.76771100  0.28193000  1
  Li  Li5  1  0.89984200  0.23228900  0.28193000  1
  Fe  Fe6  1  0.47805200  0.50000000  0.32332800  1
  Fe  Fe7  1  0.97805200  0.00000000  0.67667200  1
  P  P8  1  0.53148700  0.00000000  0.40999200  1
  P  P9  1  0.03148700  0.50000000  0.59000800  1
  C  C10  1  0.98985800  0.00000000  0.98745800  1
  C  C11  1  0.48985800  0.50000000  0.01254200  1
  O  O12  1  0.98846800  0.31213500  0.70192100  1
  O  O13  1  0.98846800  0.68786500  0.70192100  1
  O  O14  1  0.20099900  0.00000000  0.90416700  1
  O  O15  1  0.77433400  0.00000000  0.91157900  1
  O  O16  1  0.50323400  0.50000000  0.85835100  1
  O  O17  1  0.00323400  0.00000000  0.14164900  1
  O  O18  1  0.27433400  0.50000000  0.08842100  1
  O  O19  1  0.70099900  0.50000000  0.09583300  1
  O  O20  1  0.48846800  0.18786500  0.29807900  1
  O  O21  1  0.48846800  0.81213500  0.29807900  1
  O  O22  1  0.32046900  0.50000000  0.54861700  1
  O  O23  1  0.87481900  0.50000000  0.43410200  1
  O  O24  1  0.37481900  0.00000000  0.56589800  1
  O  O25  1  0.82046900  0.00000000  0.45138300  1
