# generated using pymatgen
data_Li2Mn2(CO3)3
_symmetry_space_group_name_H-M   'P 1'
_cell_length_a   6.17627466
_cell_length_b   7.86876646
_cell_length_c   7.86876855
_cell_angle_alpha   76.56361298
_cell_angle_beta   106.53931324
_cell_angle_gamma   106.53960778
_symmetry_Int_Tables_number   1
_chemical_formula_structural   Li2Mn2(CO3)3
_chemical_formula_sum   'Li4 Mn4 C6 O18'
_cell_volume   346.63067506
_cell_formula_units_Z   2
loop_
 _symmetry_equiv_pos_site_id
 _symmetry_equiv_pos_as_xyz
  1  'x, y, z'
loop_
 _atom_site_type_symbol
 _atom_site_label
 _atom_site_symmetry_multiplicity
 _atom_site_fract_x
 _atom_site_fract_y
 _atom_site_fract_z
 _atom_site_occupancy
  Li  Li0  1  0.84388200  0.42194600  0.42194000  1
  Li  Li1  1  0.84388900  0.92194700  0.92195600  1
  Li  Li2  1  0.57814600  0.03907400  0.53907600  1
  Li  Li3  1  0.57819800  0.53908600  0.03908000  1
  Mn  Mn4  1  0.18673200  0.62845200  0.12844400  1
  Mn  Mn5  1  0.75690100  0.34331900  0.84332900  1
  Mn  Mn6  1  0.18655100  0.12842400  0.62842600  1
  Mn  Mn7  1  0.75707100  0.84337300  0.34337400  1
  C  C8  1  0.20497600  0.85241800  0.35241900  1
  C  C9  1  0.20490800  0.35243100  0.85242800  1
  C  C10  1  0.42270200  0.41304500  0.41306500  1
  C  C11  1  0.42269200  0.91306300  0.91304400  1
  C  C12  1  0.82623200  0.21145000  0.21146700  1
  C  C13  1  0.82622900  0.71146600  0.71144900  1
  O  O14  1  0.01553100  0.75771100  0.25771200  1
  O  O15  1  0.01547900  0.25772000  0.75771800  1
  O  O16  1  0.22093100  0.42114600  0.42117300  1
  O  O17  1  0.22092200  0.92117500  0.92114600  1
  O  O18  1  0.84230000  0.11052300  0.11057700  1
  O  O19  1  0.84230300  0.61057900  0.61052300  1
  O  O20  1  0.18297000  0.95166400  0.45166100  1
  O  O21  1  0.18294800  0.45168300  0.95168600  1
  O  O22  1  0.40353300  0.84144900  0.34144800  1
  O  O23  1  0.40343800  0.34143300  0.84143200  1
  O  O24  1  0.52421700  0.29229100  0.52354300  1
  O  O25  1  0.52419900  0.79228700  0.02351200  1
  O  O26  1  0.81594600  0.14656900  0.37784100  1
  O  O27  1  0.81589700  0.64656500  0.87781100  1
  O  O28  1  0.52421400  0.02354000  0.79229400  1
  O  O29  1  0.52421300  0.52351300  0.29229200  1
  O  O30  1  0.81594500  0.87784300  0.64657100  1
  O  O31  1  0.81590100  0.37781100  0.14656100  1
