# generated using pymatgen
data_LiCu5(PO4)2
_symmetry_space_group_name_H-M   'P 1'
_cell_length_a   5.62092700
_cell_length_b   6.23277164
_cell_length_c   10.30148568
_cell_angle_alpha   89.48498812
_cell_angle_beta   88.27299265
_cell_angle_gamma   88.19528264
_symmetry_Int_Tables_number   1
_chemical_formula_structural   LiCu5(PO4)2
_chemical_formula_sum   'Li2 Cu10 P4 O16'
_cell_volume   360.54723462
_cell_formula_units_Z   2
loop_
 _symmetry_equiv_pos_site_id
 _symmetry_equiv_pos_as_xyz
  1  'x, y, z'
loop_
 _atom_site_type_symbol
 _atom_site_label
 _atom_site_symmetry_multiplicity
 _atom_site_fract_x
 _atom_site_fract_y
 _atom_site_fract_z
 _atom_site_occupancy
  Li  Li0  1  0.13867200  0.00406100  0.25336900  1
  Li  Li1  1  0.68916800  0.24430900  0.75725300  1
  Cu  Cu2  1  0.25511700  0.99553700  0.77071400  1
  Cu  Cu3  1  0.37752300  0.27386000  0.48893500  1
  Cu  Cu4  1  0.33248500  0.21712600  0.99028700  1
  Cu  Cu5  1  0.64881900  0.28751300  0.27733800  1
  Cu  Cu6  1  0.74339900  0.51314900  0.01622400  1
  Cu  Cu7  1  0.74589700  0.49800800  0.50338900  1
  Cu  Cu8  1  0.63425900  0.69870300  0.27772900  1
  Cu  Cu9  1  0.64833000  0.75517500  0.77310200  1
  Cu  Cu10  1  0.37217300  0.73425700  0.50068400  1
  Cu  Cu11  1  0.36561500  0.76349200  0.98722900  1
  P  P12  1  0.83261000  0.00743100  0.00337300  1
  P  P13  1  0.85350000  0.00110300  0.50265600  1
  P  P14  1  0.15723000  0.48840700  0.73979300  1
  P  P15  1  0.17419100  0.50495100  0.23660400  1
  O  O16  1  0.83165600  0.00873700  0.35278100  1
  O  O17  1  0.11666800  0.99734600  0.54188800  1
  O  O18  1  0.84429200  0.99742600  0.85315200  1
  O  O19  1  0.08209500  0.00716400  0.06335200  1
  O  O20  1  0.71499500  0.19697400  0.56795800  1
  O  O21  1  0.68546300  0.21221100  0.04958200  1
  O  O22  1  0.32153100  0.29471400  0.78630700  1
  O  O23  1  0.29213300  0.29006200  0.28819200  1
  O  O24  1  0.17704700  0.50643700  0.08690800  1
  O  O25  1  0.91809500  0.50722300  0.29622800  1
  O  O26  1  0.15776900  0.49737300  0.58942700  1
  O  O27  1  0.90102800  0.47902500  0.79666900  1
  O  O28  1  0.28788400  0.71377300  0.28793200  1
  O  O29  1  0.28287000  0.68921600  0.79311000  1
  O  O30  1  0.72084900  0.80204700  0.56088800  1
  O  O31  1  0.69663800  0.81319000  0.06435200  1
