# generated using pymatgen
data_Li2Fe2Si2O7
_symmetry_space_group_name_H-M   'P 1'
_cell_length_a   13.37143900
_cell_length_b   5.53153600
_cell_length_c   10.00005277
_cell_angle_alpha   56.90368933
_cell_angle_beta   90.00000000
_cell_angle_gamma   90.00000000
_symmetry_Int_Tables_number   1
_chemical_formula_structural   Li2Fe2Si2O7
_chemical_formula_sum   'Li8 Fe8 Si8 O28'
_cell_volume   619.64454373
_cell_formula_units_Z   4
loop_
 _symmetry_equiv_pos_site_id
 _symmetry_equiv_pos_as_xyz
  1  'x, y, z'
loop_
 _atom_site_type_symbol
 _atom_site_label
 _atom_site_symmetry_multiplicity
 _atom_site_fract_x
 _atom_site_fract_y
 _atom_site_fract_z
 _atom_site_occupancy
  Li  Li0  1  0.37364300  0.76059100  0.10561900  1
  Li  Li1  1  0.75357100  0.02810500  0.16743500  1
  Li  Li2  1  0.25357100  0.97189500  0.33256500  1
  Li  Li3  1  0.87364300  0.23940900  0.39438100  1
  Li  Li4  1  0.12635700  0.76059100  0.60561900  1
  Li  Li5  1  0.74642900  0.02810500  0.66743500  1
  Li  Li6  1  0.24642900  0.97189500  0.83256500  1
  Li  Li7  1  0.62635700  0.23940900  0.89438100  1
  Fe  Fe8  1  0.08665300  0.55148400  0.11780100  1
  Fe  Fe9  1  0.49195600  0.17137900  0.20497700  1
  Fe  Fe10  1  0.99195600  0.82862100  0.29502300  1
  Fe  Fe11  1  0.58665300  0.44851600  0.38219900  1
  Fe  Fe12  1  0.41334700  0.55148400  0.61780100  1
  Fe  Fe13  1  0.00804400  0.17137900  0.70497700  1
  Fe  Fe14  1  0.50804400  0.82862100  0.79502300  1
  Fe  Fe15  1  0.91334700  0.44851600  0.88219900  1
  Si  Si16  1  0.88261000  0.76617200  0.03432500  1
  Si  Si17  1  0.67068200  0.63180000  0.03560300  1
  Si  Si18  1  0.17068200  0.36820000  0.46439700  1
  Si  Si19  1  0.38261000  0.23382800  0.46567400  1
  Si  Si20  1  0.61739000  0.76617200  0.53432600  1
  Si  Si21  1  0.82931800  0.63180000  0.53560300  1
  Si  Si22  1  0.32931800  0.36820000  0.96439700  1
  Si  Si23  1  0.11739000  0.23382800  0.96567400  1
  O  O24  1  0.79238300  0.56184600  0.02935500  1
  O  O25  1  0.16238700  0.92764500  0.00871700  1
  O  O26  1  0.03489800  0.20946800  0.09497200  1
  O  O27  1  0.61626700  0.33723500  0.06769500  1
  O  O28  1  0.36009900  0.08392700  0.14073200  1
  O  O29  1  0.65596400  0.70637800  0.17103200  1
  O  O30  1  0.93815800  0.58449400  0.20992700  1
  O  O31  1  0.43815800  0.41550600  0.29007300  1
  O  O32  1  0.15596400  0.29362200  0.32896800  1
  O  O33  1  0.86009900  0.91607300  0.35926800  1
  O  O34  1  0.11626700  0.66276500  0.43230500  1
  O  O35  1  0.53489800  0.79053200  0.40502800  1
  O  O36  1  0.66238700  0.07235500  0.49128300  1
  O  O37  1  0.29238300  0.43815400  0.47064500  1
  O  O38  1  0.70761700  0.56184600  0.52935500  1
  O  O39  1  0.33761300  0.92764500  0.50871700  1
  O  O40  1  0.46510200  0.20946800  0.59497200  1
  O  O41  1  0.88373300  0.33723500  0.56769500  1
  O  O42  1  0.13990100  0.08392700  0.64073200  1
  O  O43  1  0.84403600  0.70637800  0.67103200  1
  O  O44  1  0.56184200  0.58449400  0.70992700  1
  O  O45  1  0.06184200  0.41550600  0.79007300  1
  O  O46  1  0.34403600  0.29362200  0.82896800  1
  O  O47  1  0.63990100  0.91607300  0.85926800  1
  O  O48  1  0.38373300  0.66276500  0.93230500  1
  O  O49  1  0.96510200  0.79053200  0.90502800  1
  O  O50  1  0.83761300  0.07235500  0.99128300  1
  O  O51  1  0.20761700  0.43815400  0.97064500  1
