# generated using pymatgen
data_Li2MnV2(PO4)3
_symmetry_space_group_name_H-M   'P 1'
_cell_length_a   8.63518666
_cell_length_b   8.63518666
_cell_length_c   8.55595903
_cell_angle_alpha   63.07424387
_cell_angle_beta   63.07424387
_cell_angle_gamma   62.40330578
_symmetry_Int_Tables_number   1
_chemical_formula_structural   Li2MnV2(PO4)3
_chemical_formula_sum   'Li4 Mn2 V4 P6 O24'
_cell_volume   479.66736366
_cell_formula_units_Z   2
loop_
 _symmetry_equiv_pos_site_id
 _symmetry_equiv_pos_as_xyz
  1  'x, y, z'
loop_
 _atom_site_type_symbol
 _atom_site_label
 _atom_site_symmetry_multiplicity
 _atom_site_fract_x
 _atom_site_fract_y
 _atom_site_fract_z
 _atom_site_occupancy
  Li  Li0  1  0.85876700  0.14123300  0.00000000  1
  Li  Li1  1  0.15283100  0.84716900  0.50000000  1
  Li  Li2  1  0.75160100  0.65248100  0.09720300  1
  Li  Li3  1  0.34751900  0.24839900  0.90279700  1
  Mn  Mn4  1  0.00001800  0.50767300  0.73715400  1
  Mn  Mn5  1  0.49232700  0.99998200  0.26284600  1
  V  V6  1  0.85442000  0.35549900  0.60451000  1
  V  V7  1  0.64450100  0.14558000  0.39549000  1
  V  V8  1  0.35161000  0.84877000  0.10277500  1
  V  V9  1  0.15123000  0.64839000  0.89722500  1
  P  P10  1  0.25216500  0.05742900  0.69100400  1
  P  P11  1  0.94257100  0.74783500  0.30899600  1
  P  P12  1  0.55810900  0.44189100  0.00000000  1
  P  P13  1  0.45845100  0.54154900  0.50000000  1
  P  P14  1  0.04124700  0.24829600  0.20004900  1
  P  P15  1  0.75170400  0.95875300  0.79995100  1
  O  O16  1  0.69048100  0.01465400  0.63553700  1
  O  O17  1  0.50032500  0.39132400  0.42547100  1
  O  O18  1  0.08617900  0.24442000  0.68256900  1
  O  O19  1  0.89387300  0.18387800  0.21681700  1
  O  O20  1  0.19565800  0.90259600  0.71309300  1
  O  O21  1  0.40630300  0.08241700  0.50056600  1
  O  O22  1  0.91758300  0.59369700  0.49943400  1
  O  O23  1  0.75558000  0.91382100  0.31743100  1
  O  O24  1  0.60867600  0.49967500  0.57452900  1
  O  O25  1  0.58437700  0.24603400  0.15162500  1
  O  O26  1  0.26334200  0.56148700  0.64953700  1
  O  O27  1  0.98534600  0.30951900  0.36446300  1
  O  O28  1  0.96908900  0.69000500  0.15124700  1
  O  O29  1  0.75396600  0.41562300  0.84837500  1
  O  O30  1  0.43851300  0.73665800  0.35046300  1
  O  O31  1  0.40408100  0.46650900  0.94062700  1
  O  O32  1  0.23572600  0.09601900  0.18835500  1
  O  O33  1  0.06652200  0.40268200  0.00901500  1
  O  O34  1  0.59731800  0.93347800  0.99098500  1
  O  O35  1  0.81612200  0.10612700  0.78318300  1
  O  O36  1  0.09740400  0.80434200  0.28690700  1
  O  O37  1  0.90398100  0.76427400  0.81164500  1
  O  O38  1  0.53349100  0.59591900  0.05937300  1
  O  O39  1  0.30999500  0.03091100  0.84875300  1
