# generated using pymatgen
data_Li5Mn8(BO3)8
_symmetry_space_group_name_H-M   'P 1'
_cell_length_a   5.26743700
_cell_length_b   9.14694200
_cell_length_c   11.46483197
_cell_angle_alpha   112.02228118
_cell_angle_beta   102.65716734
_cell_angle_gamma   89.83485133
_symmetry_Int_Tables_number   1
_chemical_formula_structural   Li5Mn8(BO3)8
_chemical_formula_sum   'Li5 Mn8 B8 O24'
_cell_volume   497.71601165
_cell_formula_units_Z   1
loop_
 _symmetry_equiv_pos_site_id
 _symmetry_equiv_pos_as_xyz
  1  'x, y, z'
loop_
 _atom_site_type_symbol
 _atom_site_label
 _atom_site_symmetry_multiplicity
 _atom_site_fract_x
 _atom_site_fract_y
 _atom_site_fract_z
 _atom_site_occupancy
  Li  Li0  1  0.99839800  0.97269600  0.82725000  1
  Li  Li1  1  0.71882300  0.73478000  0.31466700  1
  Li  Li2  1  0.52070900  0.49647300  0.84375300  1
  Li  Li3  1  0.23255600  0.26457700  0.34695900  1
  Li  Li4  1  0.21845000  0.22421600  0.60192400  1
  Mn  Mn5  1  0.75833600  0.42963800  0.37827500  1
  Mn  Mn6  1  0.73583800  0.04014500  0.61177200  1
  Mn  Mn7  1  0.45498400  0.15390900  0.11928800  1
  Mn  Mn8  1  0.52479400  0.86130100  0.87407300  1
  Mn  Mn9  1  0.25562200  0.93837900  0.36218400  1
  Mn  Mn10  1  0.01256500  0.64212100  0.11462200  1
  Mn  Mn11  1  0.23698000  0.58047400  0.62331200  1
  Mn  Mn12  1  0.02105700  0.32957600  0.87093300  1
  B  B13  1  0.95370700  0.32931300  0.14260500  1
  B  B14  1  0.77341700  0.10848500  0.38116700  1
  B  B15  1  0.73174900  0.38494800  0.62069700  1
  B  B16  1  0.48178200  0.81372300  0.11289900  1
  B  B17  1  0.51770800  0.17538500  0.86344800  1
  B  B18  1  0.26249900  0.60102700  0.36307000  1
  B  B19  1  0.25337100  0.90222400  0.63496900  1
  B  B20  1  0.02950100  0.68386000  0.87665200  1
  O  O21  1  0.72661400  0.35751600  0.19126300  1
  O  O22  1  0.64206900  0.70591000  0.13221400  1
  O  O23  1  0.84405600  0.47293300  0.56385400  1
  O  O24  1  0.88736600  0.28096300  0.66122900  1
  O  O25  1  0.54509800  0.91891000  0.05775500  1
  O  O26  1  0.93653700  0.57436100  0.92168700  1
  O  O27  1  0.66872800  0.98302800  0.40199500  1
  O  O28  1  0.88782000  0.80563700  0.87064500  1
  O  O29  1  0.60001600  0.20944400  0.34392200  1
  O  O30  1  0.75492800  0.13470600  0.83234300  1
  O  O31  1  0.52194000  0.60607700  0.37038300  1
  O  O32  1  0.48374100  0.40410500  0.63967800  1
  O  O33  1  0.24382100  0.83278000  0.15249800  1
  O  O34  1  0.43285800  0.81209900  0.68623700  1
  O  O35  1  0.33643700  0.99287200  0.57407900  1
  O  O36  1  0.11350200  0.22260700  0.16487900  1
  O  O37  1  0.40170400  0.30492500  0.85488400  1
  O  O38  1  0.00391200  0.41383200  0.07036100  1
  O  O39  1  0.09906100  0.69386300  0.30777100  1
  O  O40  1  0.38650400  0.07539800  0.90590000  1
  O  O41  1  0.14637800  0.50747800  0.41344300  1
  O  O42  1  0.26360000  0.65975700  0.83596700  1
  O  O43  1  0.03825700  0.13503800  0.39912300  1
  O  O44  1  0.00443300  0.89458400  0.64609000  1
