# generated using pymatgen
data_Li4V3P4O15
_symmetry_space_group_name_H-M   'P 1'
_cell_length_a   6.65454900
_cell_length_b   10.68133100
_cell_length_c   17.44770900
_cell_angle_alpha   90.00000000
_cell_angle_beta   90.00000000
_cell_angle_gamma   90.00000000
_symmetry_Int_Tables_number   1
_chemical_formula_structural   Li4V3P4O15
_chemical_formula_sum   'Li16 V12 P16 O60'
_cell_volume   1240.17339416
_cell_formula_units_Z   4
loop_
 _symmetry_equiv_pos_site_id
 _symmetry_equiv_pos_as_xyz
  1  'x, y, z'
loop_
 _atom_site_type_symbol
 _atom_site_label
 _atom_site_symmetry_multiplicity
 _atom_site_fract_x
 _atom_site_fract_y
 _atom_site_fract_z
 _atom_site_occupancy
  Li  Li0  1  0.82224200  0.51794600  0.00390700  1
  Li  Li1  1  0.69685000  0.95185100  0.03380400  1
  Li  Li2  1  0.42513700  0.17827800  0.09412900  1
  Li  Li3  1  0.85371900  0.75571400  0.20705300  1
  Li  Li4  1  0.35371900  0.25571400  0.29294700  1
  Li  Li5  1  0.92513700  0.67827800  0.40587100  1
  Li  Li6  1  0.19685000  0.45185100  0.46619600  1
  Li  Li7  1  0.32224200  0.01794600  0.49609300  1
  Li  Li8  1  0.82224200  0.98205400  0.50390700  1
  Li  Li9  1  0.69685000  0.54814900  0.53380400  1
  Li  Li10  1  0.42513700  0.32172200  0.59412900  1
  Li  Li11  1  0.85371900  0.74428600  0.70705300  1
  Li  Li12  1  0.35371900  0.24428600  0.79294700  1
  Li  Li13  1  0.92513700  0.82172200  0.90587100  1
  Li  Li14  1  0.19685000  0.04814900  0.96619600  1
  Li  Li15  1  0.32224200  0.48205400  0.99609300  1
  V  V16  1  0.08889100  0.50778500  0.13500600  1
  V  V17  1  0.09907000  0.00165600  0.16709400  1
  V  V18  1  0.82104500  0.26009100  0.24600600  1
  V  V19  1  0.32104500  0.76009100  0.25399400  1
  V  V20  1  0.59907000  0.50165600  0.33290600  1
  V  V21  1  0.58889100  0.00778500  0.36499400  1
  V  V22  1  0.08889100  0.99221500  0.63500600  1
  V  V23  1  0.09907000  0.49834400  0.66709400  1
  V  V24  1  0.82104500  0.23990900  0.74600600  1
  V  V25  1  0.32104500  0.73990900  0.75399400  1
  V  V26  1  0.59907000  0.99834400  0.83290600  1
  V  V27  1  0.58889100  0.49221500  0.86499400  1
  P  P28  1  0.14206000  0.77265900  0.04996700  1
  P  P29  1  0.96874900  0.24253400  0.06042100  1
  P  P30  1  0.58376700  0.51628000  0.17006800  1
  P  P31  1  0.59585500  0.99600300  0.20264700  1
  P  P32  1  0.09585500  0.49600300  0.29735300  1
  P  P33  1  0.08376700  0.01628000  0.32993200  1
  P  P34  1  0.46874900  0.74253400  0.43957900  1
  P  P35  1  0.64206000  0.27265900  0.45003300  1
  P  P36  1  0.14206000  0.72734100  0.54996700  1
  P  P37  1  0.96874900  0.25746600  0.56042100  1
  P  P38  1  0.58376700  0.98372000  0.67006800  1
  P  P39  1  0.59585500  0.50399700  0.70264700  1
  P  P40  1  0.09585500  0.00399700  0.79735300  1
  P  P41  1  0.08376700  0.48372000  0.82993200  1
  P  P42  1  0.46874900  0.75746600  0.93957900  1
  P  P43  1  0.64206000  0.22734100  0.95003300  1
  O  O44  1  0.00775800  0.86577300  0.00682400  1
  O  O45  1  0.37147900  0.80332000  0.02109600  1
  O  O46  1  0.09874800  0.63422200  0.03397300  1
  O  O47  1  0.06112600  0.37165100  0.04461900  1
  O  O48  1  0.13188800  0.14100800  0.07283300  1
  O  O49  1  0.80549000  0.23912600  0.12126200  1
  O  O50  1  0.40283600  0.50035900  0.11690500  1
  O  O51  1  0.14573300  0.80287700  0.13628000  1
  O  O52  1  0.77536600  0.53818500  0.12258800  1
  O  O53  1  0.41657900  0.01711400  0.14886100  1
  O  O54  1  0.78060400  0.96412200  0.15212000  1
  O  O55  1  0.59513500  0.39993400  0.22567300  1
  O  O56  1  0.56714700  0.62988300  0.22887800  1
  O  O57  1  0.06750700  0.38748200  0.23821800  1
  O  O58  1  0.11090000  0.61412900  0.24395600  1
  O  O59  1  0.61090000  0.11412900  0.25604400  1
  O  O60  1  0.56750700  0.88748200  0.26178200  1
  O  O61  1  0.06714700  0.12988300  0.27112200  1
  O  O62  1  0.09513500  0.89993400  0.27432700  1
  O  O63  1  0.28060400  0.46412200  0.34788000  1
  O  O64  1  0.91657900  0.51711400  0.35113900  1
  O  O65  1  0.27536600  0.03818500  0.37741200  1
  O  O66  1  0.64573300  0.30287700  0.36371900  1
  O  O67  1  0.90283600  0.00035900  0.38309500  1
  O  O68  1  0.30549000  0.73912600  0.37873800  1
  O  O69  1  0.63188800  0.64100800  0.42716700  1
  O  O70  1  0.56112600  0.87165100  0.45538100  1
  O  O71  1  0.59874800  0.13422200  0.46602700  1
  O  O72  1  0.87147900  0.30332000  0.47890400  1
  O  O73  1  0.50775800  0.36577300  0.49317600  1
  O  O74  1  0.00775800  0.63422700  0.50682400  1
  O  O75  1  0.37147900  0.69668000  0.52109600  1
  O  O76  1  0.09874800  0.86577800  0.53397300  1
  O  O77  1  0.06112600  0.12834900  0.54461900  1
  O  O78  1  0.13188800  0.35899200  0.57283300  1
  O  O79  1  0.80549000  0.26087400  0.62126200  1
  O  O80  1  0.40283600  0.99964100  0.61690500  1
  O  O81  1  0.14573300  0.69712300  0.63628100  1
  O  O82  1  0.77536600  0.96181500  0.62258800  1
  O  O83  1  0.41657900  0.48288600  0.64886100  1
  O  O84  1  0.78060400  0.53587800  0.65212000  1
  O  O85  1  0.59513500  0.10006600  0.72567300  1
  O  O86  1  0.56714700  0.87011700  0.72887800  1
  O  O87  1  0.06750700  0.11251800  0.73821800  1
  O  O88  1  0.11090000  0.88587100  0.74395600  1
  O  O89  1  0.61090000  0.38587100  0.75604400  1
  O  O90  1  0.56750700  0.61251800  0.76178200  1
  O  O91  1  0.06714700  0.37011700  0.77112200  1
  O  O92  1  0.09513500  0.60006600  0.77432700  1
  O  O93  1  0.28060400  0.03587800  0.84788000  1
  O  O94  1  0.91657900  0.98288600  0.85113900  1
  O  O95  1  0.27536600  0.46181500  0.87741200  1
  O  O96  1  0.64573300  0.19712300  0.86371900  1
  O  O97  1  0.90283600  0.49964100  0.88309500  1
  O  O98  1  0.30549000  0.76087400  0.87873800  1
  O  O99  1  0.63188800  0.85899200  0.92716700  1
  O  O100  1  0.56112600  0.62834900  0.95538100  1
  O  O101  1  0.59874800  0.36577800  0.96602700  1
  O  O102  1  0.87147900  0.19668000  0.97890400  1
  O  O103  1  0.50775800  0.13422700  0.99317600  1
