# generated using pymatgen
data_NaLi2FePCO7
_symmetry_space_group_name_H-M   'P 1'
_cell_length_a   6.59100200
_cell_length_b   8.62895659
_cell_length_c   10.13978393
_cell_angle_alpha   92.42096238
_cell_angle_beta   90.01850569
_cell_angle_gamma   90.70304152
_symmetry_Int_Tables_number   1
_chemical_formula_structural   NaLi2FePCO7
_chemical_formula_sum   'Na4 Li8 Fe4 P4 C4 O28'
_cell_volume   576.12639597
_cell_formula_units_Z   4
loop_
 _symmetry_equiv_pos_site_id
 _symmetry_equiv_pos_as_xyz
  1  'x, y, z'
loop_
 _atom_site_type_symbol
 _atom_site_label
 _atom_site_symmetry_multiplicity
 _atom_site_fract_x
 _atom_site_fract_y
 _atom_site_fract_z
 _atom_site_occupancy
  Na  Na0  1  0.25608300  0.08361900  0.62095600  1
  Na  Na1  1  0.99972200  0.25576100  0.37318800  1
  Na  Na2  1  0.99979300  0.25821300  0.87540100  1
  Na  Na3  1  0.50285000  0.74359900  0.62670400  1
  Li  Li4  1  0.26387600  0.07867900  0.12492900  1
  Li  Li5  1  0.48082900  0.27402800  0.37824900  1
  Li  Li6  1  0.48109600  0.27496100  0.88164600  1
  Li  Li7  1  0.51137600  0.73309300  0.12112100  1
  Li  Li8  1  0.98351900  0.73175800  0.11961200  1
  Li  Li9  1  0.98192100  0.72657800  0.62109000  1
  Li  Li10  1  0.74355600  0.91279900  0.37192300  1
  Li  Li11  1  0.74927600  0.91007700  0.87874800  1
  Fe  Fe12  1  0.74634200  0.34523800  0.10921500  1
  Fe  Fe13  1  0.74344000  0.35104200  0.60733400  1
  Fe  Fe14  1  0.24605000  0.65189700  0.38848800  1
  Fe  Fe15  1  0.25071200  0.65577300  0.89576700  1
  P  P16  1  0.25479800  0.40980300  0.14796400  1
  P  P17  1  0.24664800  0.41737200  0.64748100  1
  P  P18  1  0.74510800  0.59205400  0.34977900  1
  P  P19  1  0.75022300  0.59192800  0.85712700  1
  C  C20  1  0.74703900  0.03875700  0.13725900  1
  C  C21  1  0.75613700  0.04549100  0.63948900  1
  C  C22  1  0.25812500  0.94858200  0.35269000  1
  C  C23  1  0.25837600  0.95560500  0.86779800  1
  O  O24  1  0.27654600  0.09705200  0.33780400  1
  O  O25  1  0.27712400  0.10279500  0.85078600  1
  O  O26  1  0.75274300  0.08609000  0.01678800  1
  O  O27  1  0.75118200  0.08694100  0.51711300  1
  O  O28  1  0.73963800  0.14101200  0.23584100  1
  O  O29  1  0.73277000  0.15076600  0.73468700  1
  O  O30  1  0.05963900  0.31352000  0.11147000  1
  O  O31  1  0.43250800  0.30851400  0.09220600  1
  O  O32  1  0.05611500  0.31395000  0.61319600  1
  O  O33  1  0.43033400  0.32544300  0.58753400  1
  O  O34  1  0.27337900  0.42733700  0.30155000  1
  O  O35  1  0.73168600  0.42922600  0.40808900  1
  O  O36  1  0.27187100  0.43345000  0.80035300  1
  O  O37  1  0.72962600  0.42846200  0.91321200  1
  O  O38  1  0.25467200  0.57416700  0.09190100  1
  O  O39  1  0.75491900  0.57368600  0.19575500  1
  O  O40  1  0.22882900  0.57931000  0.58996300  1
  O  O41  1  0.76831400  0.57436600  0.70363600  1
  O  O42  1  0.56102800  0.69581900  0.38992200  1
  O  O43  1  0.93238400  0.68716900  0.40323000  1
  O  O44  1  0.56638800  0.69797800  0.89501000  1
  O  O45  1  0.93681300  0.68486800  0.91446000  1
  O  O46  1  0.24229900  0.85464800  0.24914600  1
  O  O47  1  0.24407500  0.85794200  0.76589900  1
  O  O48  1  0.25445900  0.89146200  0.46941400  1
  O  O49  1  0.25313900  0.90267100  0.98622400  1
  O  O50  1  0.74794900  0.89218400  0.16165300  1
  O  O51  1  0.78267300  0.90246200  0.66920200  1
