# generated using pymatgen
data_Li4Mn2Nb3Co3O16
_symmetry_space_group_name_H-M   'P 1'
_cell_length_a   5.97626721
_cell_length_b   5.97626721
_cell_length_c   9.84991410
_cell_angle_alpha   88.31668221
_cell_angle_beta   88.31668221
_cell_angle_gamma   60.47132598
_symmetry_Int_Tables_number   1
_chemical_formula_structural   Li4Mn2Nb3Co3O16
_chemical_formula_sum   'Li4 Mn2 Nb3 Co3 O16'
_cell_volume   305.92503412
_cell_formula_units_Z   1
loop_
 _symmetry_equiv_pos_site_id
 _symmetry_equiv_pos_as_xyz
  1  'x, y, z'
loop_
 _atom_site_type_symbol
 _atom_site_label
 _atom_site_symmetry_multiplicity
 _atom_site_fract_x
 _atom_site_fract_y
 _atom_site_fract_z
 _atom_site_occupancy
  Li  Li0  1  0.33943000  0.33943000  0.09802400  1
  Li  Li1  1  0.98112500  0.98112500  0.99821800  1
  Li  Li2  1  0.96724300  0.96724300  0.51142500  1
  Li  Li3  1  0.67148800  0.67148800  0.62056900  1
  Mn  Mn4  1  0.34854300  0.34854300  0.52246300  1
  Mn  Mn5  1  0.66930400  0.66930400  0.99074700  1
  Nb  Nb6  1  0.17471100  0.17471100  0.79133500  1
  Nb  Nb7  1  0.83761100  0.34041500  0.28775500  1
  Nb  Nb8  1  0.34041500  0.83761100  0.28775500  1
  Co  Co9  1  0.66723900  0.17064100  0.78091500  1
  Co  Co10  1  0.17064100  0.66723900  0.78091500  1
  Co  Co11  1  0.82733900  0.82733900  0.28713000  1
  O  O12  1  0.66597000  0.16890700  0.40159100  1
  O  O13  1  0.49027500  0.49027500  0.67770800  1
  O  O14  1  0.33781200  0.33781200  0.89260400  1
  O  O15  1  0.00232600  0.00232600  0.68734500  1
  O  O16  1  0.00607500  0.00607500  0.18434600  1
  O  O17  1  0.16890700  0.66597000  0.40159100  1
  O  O18  1  0.48939700  0.05127800  0.65725700  1
  O  O19  1  0.05127800  0.48939700  0.65725700  1
  O  O20  1  0.84227400  0.84227400  0.88084900  1
  O  O21  1  0.15457600  0.15457600  0.40168400  1
  O  O22  1  0.97366800  0.50314600  0.16441700  1
  O  O23  1  0.50314600  0.97366800  0.16441700  1
  O  O24  1  0.65183700  0.65183700  0.40722700  1
  O  O25  1  0.84360900  0.30964300  0.89123900  1
  O  O26  1  0.51479700  0.51479700  0.17429200  1
  O  O27  1  0.30964300  0.84360900  0.89123900  1
