# generated using pymatgen
data_Li4V3P8O29
_symmetry_space_group_name_H-M   'P 1'
_cell_length_a   9.74857700
_cell_length_b   9.78095912
_cell_length_c   14.25203878
_cell_angle_alpha   89.99042450
_cell_angle_beta   90.16006373
_cell_angle_gamma   119.83857333
_symmetry_Int_Tables_number   1
_chemical_formula_structural   Li4V3P8O29
_chemical_formula_sum   'Li8 V6 P16 O58'
_cell_volume   1178.77880018
_cell_formula_units_Z   2
loop_
 _symmetry_equiv_pos_site_id
 _symmetry_equiv_pos_as_xyz
  1  'x, y, z'
loop_
 _atom_site_type_symbol
 _atom_site_label
 _atom_site_symmetry_multiplicity
 _atom_site_fract_x
 _atom_site_fract_y
 _atom_site_fract_z
 _atom_site_occupancy
  Li  Li0  1  0.90428000  0.66502500  0.44286700  1
  Li  Li1  1  0.33009800  0.23804700  0.43962700  1
  Li  Li2  1  0.32796200  0.09470600  0.94062900  1
  Li  Li3  1  0.90219400  0.23101900  0.94107300  1
  Li  Li4  1  0.76547700  0.09427800  0.43836300  1
  Li  Li5  1  0.33593700  0.66735000  0.89693800  1
  Li  Li6  1  0.96829800  0.94217700  0.99615700  1
  Li  Li7  1  0.00055000  0.00419700  0.50235500  1
  V  V8  1  0.43331600  0.00209200  0.74815100  1
  V  V9  1  0.56454300  0.00057000  0.25234000  1
  V  V10  1  0.99918600  0.56360100  0.24796800  1
  V  V11  1  0.00141000  0.43425600  0.74812500  1
  V  V12  1  0.57073900  0.56776900  0.75074000  1
  V  V13  1  0.43818200  0.43805300  0.24609200  1
  P  P14  1  0.77796500  0.69588700  0.15763600  1
  P  P15  1  0.91744600  0.69183300  0.65888900  1
  P  P16  1  0.31057100  0.22859400  0.65608700  1
  P  P17  1  0.66642000  0.33177900  0.87017300  1
  P  P18  1  0.66862900  0.33715200  0.36940900  1
  P  P19  1  0.31207900  0.08654200  0.15537900  1
  P  P20  1  0.21931700  0.91657000  0.33681500  1
  P  P21  1  0.91131800  0.22498600  0.15673900  1
  P  P22  1  0.08836000  0.77947100  0.84183600  1
  P  P23  1  0.77491900  0.08566900  0.65608400  1
  P  P24  1  0.69272000  0.91206500  0.83683000  1
  P  P25  1  0.33514800  0.66650300  0.63348900  1
  P  P26  1  0.33399000  0.66765400  0.13382300  1
  P  P27  1  0.69350500  0.77688900  0.34203500  1
  P  P28  1  0.08703900  0.30640600  0.33695400  1
  P  P29  1  0.22190100  0.30963200  0.83831300  1
  O  O30  1  0.79354300  0.78472700  0.42363700  1
  O  O31  1  0.74496500  0.65922200  0.67167300  1
  O  O32  1  0.99897400  0.79000700  0.92197700  1
  O  O33  1  0.91281100  0.65500300  0.17106600  1
  O  O34  1  0.61800800  0.53757000  0.17069800  1
  O  O35  1  0.65820000  0.47419600  0.82292200  1
  O  O36  1  0.46688900  0.38482200  0.67363900  1
  O  O37  1  0.21549500  0.20646900  0.91626600  1
  O  O38  1  0.34263600  0.25856000  0.17272800  1
  O  O39  1  0.81685300  0.48867800  0.32756600  1
  O  O40  1  0.91592300  0.53346400  0.67596400  1
  O  O41  1  0.51756300  0.33082900  0.32398100  1
  O  O42  1  0.67188600  0.33514600  0.97418600  1
  O  O43  1  0.66786500  0.35008100  0.47370700  1
  O  O44  1  0.51636600  0.18231300  0.83250800  1
  O  O45  1  0.90815300  0.38160000  0.17578300  1
  O  O46  1  0.81722400  0.33542500  0.82703200  1
  O  O47  1  0.34111200  0.08936900  0.67218100  1
  O  O48  1  0.19265400  0.98356200  0.23844100  1
  O  O49  1  0.20521000  0.00872600  0.41603700  1
  O  O50  1  0.23219500  0.02404700  0.06369000  1
  O  O51  1  0.46788600  0.08892500  0.17108500  1
  O  O52  1  0.67558700  0.18927000  0.33558500  1
  O  O53  1  0.26240100  0.91754200  0.84131100  1
  O  O54  1  0.62162000  0.08807900  0.67100000  1
  O  O55  1  0.91750000  0.25658800  0.67422200  1
  O  O56  1  0.01548400  0.80368100  0.74392900  1
  O  O57  1  0.98328900  0.76762100  0.56707300  1
  O  O58  1  0.99487000  0.20070300  0.41592600  1
  O  O59  1  0.08413200  0.74092200  0.33885100  1
  O  O60  1  0.38037900  0.92277300  0.32871900  1
  O  O61  1  0.74343500  0.08680100  0.17431600  1
  O  O62  1  0.33317700  0.81031000  0.67631600  1
  O  O63  1  0.53066600  0.90511000  0.82981500  1
  O  O64  1  0.79783800  0.00495300  0.91602700  1
  O  O65  1  0.79537500  0.02629300  0.56383900  1
  O  O66  1  0.78786400  0.98132400  0.73914500  1
  O  O67  1  0.65721500  0.91357800  0.34297100  1
  O  O68  1  0.18186900  0.66159400  0.17836900  1
  O  O69  1  0.09576100  0.62412900  0.83096000  1
  O  O70  1  0.47744800  0.81108700  0.17611500  1
  O  O71  1  0.32563700  0.65965700  0.02952900  1
  O  O72  1  0.32977700  0.65352100  0.53029500  1
  O  O73  1  0.48030400  0.66283500  0.68101600  1
  O  O74  1  0.07925300  0.46072400  0.32746500  1
  O  O75  1  0.18531500  0.51922300  0.68231400  1
  O  O76  1  0.65595800  0.73751900  0.83701300  1
  O  O77  1  0.79483300  0.80207100  0.24738600  1
  O  O78  1  0.79348700  0.78456300  0.07122400  1
  O  O79  1  0.53820700  0.61711000  0.32729300  1
  O  O80  1  0.33295300  0.51847100  0.17809700  1
  O  O81  1  0.37471500  0.47338700  0.83025800  1
  O  O82  1  0.08091300  0.34345700  0.84259300  1
  O  O83  1  0.97653500  0.22109100  0.06383300  1
  O  O84  1  0.01924200  0.21393200  0.23839300  1
  O  O85  1  0.26223600  0.34592500  0.33920800  1
  O  O86  1  0.23201500  0.21328600  0.56380800  1
  O  O87  1  0.19477500  0.21757200  0.73947100  1
