# generated using pymatgen
data_LiFeF3
_symmetry_space_group_name_H-M   'P 1'
_cell_length_a   10.57564346
_cell_length_b   10.57564346
_cell_length_c   10.57564346
_cell_angle_alpha   108.72611642
_cell_angle_beta   108.72611642
_cell_angle_gamma   110.97193262
_symmetry_Int_Tables_number   1
_chemical_formula_structural   LiFeF3
_chemical_formula_sum   'Li16 Fe16 F48'
_cell_volume   910.06902748
_cell_formula_units_Z   16
loop_
 _symmetry_equiv_pos_site_id
 _symmetry_equiv_pos_as_xyz
  1  'x, y, z'
loop_
 _atom_site_type_symbol
 _atom_site_label
 _atom_site_symmetry_multiplicity
 _atom_site_fract_x
 _atom_site_fract_y
 _atom_site_fract_z
 _atom_site_occupancy
  Li  Li0  1  0.88009700  0.75267500  0.37391600  1
  Li  Li1  1  0.62500000  0.37500000  0.25000000  1
  Li  Li2  1  0.75618100  0.63009700  0.62742200  1
  Li  Li3  1  0.25000000  0.75000000  0.50000000  1
  Li  Li4  1  0.62500000  0.87500000  0.25000000  1
  Li  Li5  1  0.62500000  0.37500000  0.75000000  1
  Li  Li6  1  0.75000000  0.25000000  0.50000000  1
  Li  Li7  1  0.00267500  0.12875900  0.37257800  1
  Li  Li8  1  0.87124100  0.24381900  0.87391600  1
  Li  Li9  1  0.12500000  0.37500000  0.75000000  1
  Li  Li10  1  0.37875900  0.50618100  0.62608400  1
  Li  Li11  1  0.24732500  0.62124100  0.12742200  1
  Li  Li12  1  0.00000000  0.00000000  0.00000000  1
  Li  Li13  1  0.50000000  0.50000000  0.00000000  1
  Li  Li14  1  0.49381900  0.11990300  0.87257800  1
  Li  Li15  1  0.36990300  0.99732500  0.12608400  1
  Fe  Fe16  1  0.74446000  0.74446000  0.00000000  1
  Fe  Fe17  1  0.12500000  0.37500000  0.25000000  1
  Fe  Fe18  1  0.99446000  0.49446000  0.50000000  1
  Fe  Fe19  1  0.52314500  0.63605400  0.37547200  1
  Fe  Fe20  1  0.98941800  0.60232600  0.87547200  1
  Fe  Fe21  1  0.36394600  0.73941800  0.88709200  1
  Fe  Fe22  1  0.39767400  0.27314500  0.38709200  1
  Fe  Fe23  1  0.12500000  0.87500000  0.25000000  1
  Fe  Fe24  1  0.62500000  0.87500000  0.75000000  1
  Fe  Fe25  1  0.85232600  0.47685500  0.11290800  1
  Fe  Fe26  1  0.88605400  0.01058200  0.61290800  1
  Fe  Fe27  1  0.72685500  0.11394600  0.12452800  1
  Fe  Fe28  1  0.26058200  0.14767400  0.62452800  1
  Fe  Fe29  1  0.50554000  0.00554000  0.50000000  1
  Fe  Fe30  1  0.25554000  0.25554000  0.00000000  1
  Fe  Fe31  1  0.12500000  0.87500000  0.75000000  1
  F  F32  1  0.73687900  0.80158900  0.39634600  1
  F  F33  1  0.72972400  0.80327400  0.63435400  1
  F  F34  1  0.76412900  0.29031100  0.34148700  1
  F  F35  1  0.07703800  0.55293600  0.34232000  1
  F  F36  1  0.77345300  0.57219200  0.77397600  1
  F  F37  1  0.93328700  0.65175400  0.61610100  1
  F  F38  1  0.03565200  0.31718500  0.38389900  1
  F  F39  1  0.70968900  0.05117600  0.47381800  1
  F  F40  1  0.67264100  0.51412900  0.97381800  1
  F  F41  1  0.79821600  0.99947800  0.22602400  1
  F  F42  1  0.21061600  0.73471800  0.65768000  1
  F  F43  1  0.98471800  0.82703800  0.02410200  1
  F  F44  1  0.44706400  0.78938400  0.52410200  1
  F  F45  1  0.94882400  0.42264100  0.65851300  1
  F  F46  1  0.84475700  0.40946800  0.89634600  1
  F  F47  1  0.34537000  0.47972400  0.42645000  1
  F  F48  1  0.19672600  0.83108000  0.92645000  1
  F  F49  1  0.90175400  0.78565200  0.21846700  1
  F  F50  1  0.68281500  0.06671300  0.71846700  1
  F  F51  1  0.82219200  0.54821600  0.29873900  1
  F  F52  1  0.00052200  0.22654700  0.79873900  1
  F  F53  1  0.16892000  0.09537000  0.36564600  1
  F  F54  1  0.65946800  0.26312100  0.06471100  1
  F  F55  1  0.05158900  0.15524300  0.56471100  1
  F  F56  1  0.19841100  0.59475700  0.93528900  1
  F  F57  1  0.59053200  0.48687900  0.43528900  1
  F  F58  1  0.08108000  0.65463000  0.13435400  1
  F  F59  1  0.42780800  0.20178400  0.20126100  1
  F  F60  1  0.24947800  0.52345300  0.70126100  1
  F  F61  1  0.34824600  0.96434800  0.28153300  1
  F  F62  1  0.56718500  0.68328700  0.78153300  1
  F  F63  1  0.05327400  0.91892000  0.57355000  1
  F  F64  1  0.90463000  0.27027600  0.07355000  1
  F  F65  1  0.40524300  0.34053200  0.60365400  1
  F  F66  1  0.30117600  0.32735900  0.84148700  1
  F  F67  1  0.26528200  0.92296200  0.47589800  1
  F  F68  1  0.80293600  0.96061600  0.97589800  1
  F  F69  1  0.03938400  0.01528200  0.84232000  1
  F  F70  1  0.45178400  0.75052300  0.27397600  1
  F  F71  1  0.57735900  0.23587100  0.52618200  1
  F  F72  1  0.54031100  0.69882400  0.02618200  1
  F  F73  1  0.21434800  0.43281500  0.11610100  1
  F  F74  1  0.31671300  0.09824600  0.88389900  1
  F  F75  1  0.47654700  0.17780800  0.72602400  1
  F  F76  1  0.17296200  0.19706400  0.15768000  1
  F  F77  1  0.48587100  0.45968900  0.15851300  1
  F  F78  1  0.52027600  0.94672600  0.86564600  1
  F  F79  1  0.51312100  0.94841100  0.10365400  1
