# generated using pymatgen
data_LiMnPH2O5
_symmetry_space_group_name_H-M   'P 1'
_cell_length_a   5.15638900
_cell_length_b   8.29690400
_cell_length_c   11.19159500
_cell_angle_alpha   90.00000000
_cell_angle_beta   90.00000000
_cell_angle_gamma   90.00000000
_symmetry_Int_Tables_number   1
_chemical_formula_structural   LiMnPH2O5
_chemical_formula_sum   'Li4 Mn4 P4 H8 O20'
_cell_volume   478.79953937
_cell_formula_units_Z   4
loop_
 _symmetry_equiv_pos_site_id
 _symmetry_equiv_pos_as_xyz
  1  'x, y, z'
loop_
 _atom_site_type_symbol
 _atom_site_label
 _atom_site_symmetry_multiplicity
 _atom_site_fract_x
 _atom_site_fract_y
 _atom_site_fract_z
 _atom_site_occupancy
  Li  Li0  1  0.70027000  0.31665500  0.18955900  1
  Li  Li1  1  0.20027000  0.81665500  0.31044100  1
  Li  Li2  1  0.70027000  0.18334500  0.68955900  1
  Li  Li3  1  0.20027000  0.68334500  0.81044100  1
  Mn  Mn4  1  0.19454600  0.12605500  0.12306100  1
  Mn  Mn5  1  0.69454600  0.62605500  0.37693900  1
  Mn  Mn6  1  0.19454600  0.37394500  0.62306100  1
  Mn  Mn7  1  0.69454600  0.87394500  0.87693900  1
  P  P8  1  0.69409400  0.91728600  0.17177700  1
  P  P9  1  0.19409400  0.41728600  0.32822300  1
  P  P10  1  0.69409400  0.58271400  0.67177700  1
  P  P11  1  0.19409400  0.08271400  0.82822300  1
  H  H12  1  0.36292200  0.55849000  0.00145600  1
  H  H13  1  0.15177900  0.68195200  0.03982600  1
  H  H14  1  0.65177900  0.18195200  0.46017400  1
  H  H15  1  0.86292200  0.05849000  0.49854400  1
  H  H16  1  0.36292200  0.94151000  0.50145600  1
  H  H17  1  0.15177900  0.81804800  0.53982600  1
  H  H18  1  0.65177900  0.31804800  0.96017400  1
  H  H19  1  0.86292200  0.44151000  0.99854400  1
  O  O20  1  0.68745900  0.40254000  0.01858300  1
  O  O21  1  0.62729200  0.83203700  0.05319500  1
  O  O22  1  0.58158800  0.09253900  0.17074300  1
  O  O23  1  0.99420000  0.92709400  0.18973400  1
  O  O24  1  0.07212000  0.32254200  0.22244800  1
  O  O25  1  0.57212000  0.82254200  0.27755200  1
  O  O26  1  0.49420000  0.42709400  0.31026600  1
  O  O27  1  0.08158800  0.59253900  0.32925700  1
  O  O28  1  0.12729200  0.33203700  0.44680500  1
  O  O29  1  0.18745900  0.90254000  0.48141700  1
  O  O30  1  0.68745900  0.09746000  0.51858300  1
  O  O31  1  0.62729200  0.66796300  0.55319500  1
  O  O32  1  0.58158800  0.40746100  0.67074300  1
  O  O33  1  0.99420000  0.57290600  0.68973400  1
  O  O34  1  0.07212000  0.17745800  0.72244800  1
  O  O35  1  0.57212000  0.67745800  0.77755200  1
  O  O36  1  0.49420000  0.07290600  0.81026600  1
  O  O37  1  0.08158800  0.90746100  0.82925700  1
  O  O38  1  0.12729200  0.16796300  0.94680500  1
  O  O39  1  0.18745900  0.59746000  0.98141700  1
