# generated using pymatgen
data_Li3TiSiO5
_symmetry_space_group_name_H-M   'P 1'
_cell_length_a   5.01078700
_cell_length_b   5.45107900
_cell_length_c   15.85208000
_cell_angle_alpha   90.00000000
_cell_angle_beta   90.00000000
_cell_angle_gamma   90.00000000
_symmetry_Int_Tables_number   1
_chemical_formula_structural   Li3TiSiO5
_chemical_formula_sum   'Li12 Ti4 Si4 O20'
_cell_volume   432.98681679
_cell_formula_units_Z   4
loop_
 _symmetry_equiv_pos_site_id
 _symmetry_equiv_pos_as_xyz
  1  'x, y, z'
loop_
 _atom_site_type_symbol
 _atom_site_label
 _atom_site_symmetry_multiplicity
 _atom_site_fract_x
 _atom_site_fract_y
 _atom_site_fract_z
 _atom_site_occupancy
  Li  Li0  1  0.99914400  0.66660200  0.59024700  1
  Li  Li1  1  0.99914400  0.16660200  0.90975300  1
  Li  Li2  1  0.50197900  0.33615900  0.99320700  1
  Li  Li3  1  0.50197900  0.83615900  0.50679300  1
  Li  Li4  1  0.49894700  0.32646500  0.80552800  1
  Li  Li5  1  0.49894700  0.82646500  0.69447200  1
  Li  Li6  1  0.49914400  0.33339800  0.40975300  1
  Li  Li7  1  0.49914400  0.83339800  0.09024700  1
  Li  Li8  1  0.00197900  0.66384100  0.00679300  1
  Li  Li9  1  0.00197900  0.16384100  0.49320700  1
  Li  Li10  1  0.99894700  0.17353500  0.30552800  1
  Li  Li11  1  0.99894700  0.67353500  0.19447200  1
  Ti  Ti12  1  0.99613100  0.17932100  0.69831400  1
  Ti  Ti13  1  0.99613100  0.67932100  0.80168600  1
  Ti  Ti14  1  0.49613100  0.32067900  0.19831400  1
  Ti  Ti15  1  0.49613100  0.82067900  0.30168600  1
  Si  Si16  1  0.00621300  0.16134400  0.09697500  1
  Si  Si17  1  0.00621300  0.66134400  0.40302500  1
  Si  Si18  1  0.50621300  0.33865600  0.59697500  1
  Si  Si19  1  0.50621300  0.83865600  0.90302500  1
  O  O20  1  0.09944400  0.34302100  0.80024100  1
  O  O21  1  0.09944400  0.84302100  0.69975900  1
  O  O22  1  0.10911000  0.37927600  0.39785800  1
  O  O23  1  0.10911000  0.87927600  0.10214200  1
  O  O24  1  0.11052900  0.31485300  0.01559900  1
  O  O25  1  0.11052900  0.81485300  0.48440100  1
  O  O26  1  0.10202500  0.30912500  0.18673400  1
  O  O27  1  0.10202500  0.80912500  0.31326600  1
  O  O28  1  0.17147600  0.32772600  0.60088400  1
  O  O29  1  0.17147600  0.82772600  0.89911600  1
  O  O30  1  0.59944400  0.65697900  0.19975900  1
  O  O31  1  0.59944400  0.15697900  0.30024100  1
  O  O32  1  0.60911000  0.62072400  0.60214200  1
  O  O33  1  0.60911000  0.12072400  0.89785800  1
  O  O34  1  0.61052900  0.18514700  0.51559900  1
  O  O35  1  0.61052900  0.68514700  0.98440100  1
  O  O36  1  0.60202500  0.19087500  0.68673400  1
  O  O37  1  0.60202500  0.69087500  0.81326600  1
  O  O38  1  0.67147600  0.17227400  0.10088400  1
  O  O39  1  0.67147600  0.67227400  0.39911600  1
