# generated using pymatgen
data_Li2V(PO3)4
_symmetry_space_group_name_H-M   'P 1'
_cell_length_a   11.22816800
_cell_length_b   7.57060000
_cell_length_c   12.99941054
_cell_angle_alpha   73.65599207
_cell_angle_beta   90.00000000
_cell_angle_gamma   90.00000000
_symmetry_Int_Tables_number   1
_chemical_formula_structural   Li2V(PO3)4
_chemical_formula_sum   'Li8 V4 P16 O48'
_cell_volume   1060.34775046
_cell_formula_units_Z   4
loop_
 _symmetry_equiv_pos_site_id
 _symmetry_equiv_pos_as_xyz
  1  'x, y, z'
loop_
 _atom_site_type_symbol
 _atom_site_label
 _atom_site_symmetry_multiplicity
 _atom_site_fract_x
 _atom_site_fract_y
 _atom_site_fract_z
 _atom_site_occupancy
  Li  Li0  1  0.90402000  0.63996100  0.25426500  1
  Li  Li1  1  0.40402000  0.36003900  0.24573500  1
  Li  Li2  1  0.03519000  0.33001200  0.48789600  1
  Li  Li3  1  0.53519000  0.66998800  0.01210400  1
  Li  Li4  1  0.46481000  0.33001200  0.98789600  1
  Li  Li5  1  0.96481000  0.66998800  0.51210400  1
  Li  Li6  1  0.59598000  0.63996100  0.75426500  1
  Li  Li7  1  0.09598000  0.36003900  0.74573500  1
  V  V8  1  0.74557800  0.01619500  0.66701400  1
  V  V9  1  0.24557800  0.98380500  0.83298600  1
  V  V10  1  0.75442200  0.01619500  0.16701400  1
  V  V11  1  0.25442200  0.98380500  0.33298600  1
  P  P12  1  0.27195700  0.95071200  0.08638100  1
  P  P13  1  0.61311900  0.63740700  0.29859300  1
  P  P14  1  0.25646300  0.60103400  0.02817700  1
  P  P15  1  0.75646300  0.39896600  0.47182300  1
  P  P16  1  0.72804300  0.04928800  0.91361900  1
  P  P17  1  0.11311900  0.36259300  0.20140700  1
  P  P18  1  0.95819600  0.99969800  0.82099000  1
  P  P19  1  0.45819600  0.00030200  0.67901000  1
  P  P20  1  0.77195700  0.04928800  0.41361900  1
  P  P21  1  0.22804300  0.95071200  0.58638100  1
  P  P22  1  0.54180400  0.99969800  0.32099000  1
  P  P23  1  0.04180400  0.00030200  0.17901000  1
  P  P24  1  0.88688100  0.63740700  0.79859300  1
  P  P25  1  0.24353700  0.60103400  0.52817700  1
  P  P26  1  0.74353700  0.39896600  0.97182300  1
  P  P27  1  0.38688100  0.36259300  0.70140700  1
  O  O28  1  0.25112300  0.73176500  0.10718100  1
  O  O29  1  0.65018100  0.53858600  0.42273900  1
  O  O30  1  0.54222600  0.51621700  0.24881100  1
  O  O31  1  0.87821800  0.49492400  0.45086600  1
  O  O32  1  0.72364200  0.30245900  0.58454600  1
  O  O33  1  0.37821800  0.50507600  0.04913400  1
  O  O34  1  0.27320900  0.27746200  0.75751800  1
  O  O35  1  0.47642900  0.21084300  0.68010800  1
  O  O36  1  0.04222600  0.48378300  0.25118900  1
  O  O37  1  0.66499900  0.02297700  0.81757800  1
  O  O38  1  0.32880500  0.03091700  0.97811200  1
  O  O39  1  0.15018100  0.46141400  0.07726100  1
  O  O40  1  0.75112300  0.26823500  0.39281900  1
  O  O41  1  0.07040000  0.07285500  0.85779200  1
  O  O42  1  0.86245200  0.97273800  0.91793200  1
  O  O43  1  0.90951300  0.11149300  0.71525100  1
  O  O44  1  0.40951300  0.88850700  0.78474900  1
  O  O45  1  0.77635800  0.30245900  0.08454600  1
  O  O46  1  0.36245200  0.02726200  0.58206800  1
  O  O47  1  0.57040000  0.92714500  0.64220800  1
  O  O48  1  0.22679100  0.27746200  0.25751800  1
  O  O49  1  0.02357100  0.21084300  0.18010800  1
  O  O50  1  0.82880500  0.96908300  0.52188800  1
  O  O51  1  0.16499900  0.97702300  0.68242200  1
  O  O52  1  0.83500100  0.02297700  0.31757800  1
  O  O53  1  0.17119500  0.03091700  0.47811200  1
  O  O54  1  0.97642900  0.78915700  0.81989200  1
  O  O55  1  0.77320900  0.72253800  0.74248200  1
  O  O56  1  0.42960000  0.07285500  0.35779200  1
  O  O57  1  0.63754800  0.97273800  0.41793200  1
  O  O58  1  0.22364200  0.69754100  0.91545400  1
  O  O59  1  0.59048700  0.11149300  0.21525100  1
  O  O60  1  0.09048700  0.88850700  0.28474900  1
  O  O61  1  0.13754800  0.02726200  0.08206800  1
  O  O62  1  0.92960000  0.92714500  0.14220800  1
  O  O63  1  0.24887700  0.73176500  0.60718100  1
  O  O64  1  0.84981900  0.53858600  0.92273900  1
  O  O65  1  0.67119500  0.96908300  0.02188800  1
  O  O66  1  0.33500100  0.97702300  0.18242200  1
  O  O67  1  0.95777400  0.51621700  0.74881100  1
  O  O68  1  0.52357100  0.78915700  0.31989200  1
  O  O69  1  0.72679100  0.72253800  0.24248200  1
  O  O70  1  0.62178200  0.49492400  0.95086600  1
  O  O71  1  0.27635800  0.69754100  0.41545400  1
  O  O72  1  0.12178200  0.50507600  0.54913400  1
  O  O73  1  0.45777400  0.48378300  0.75118900  1
  O  O74  1  0.34981900  0.46141400  0.57726100  1
  O  O75  1  0.74887700  0.26823500  0.89281900  1
