# generated using pymatgen
data_Li5GaO4
_symmetry_space_group_name_H-M   'P 1'
_cell_length_a   9.09880200
_cell_length_b   9.11079700
_cell_length_c   9.61796800
_cell_angle_alpha   90.00000000
_cell_angle_beta   90.00000000
_cell_angle_gamma   90.00000000
_symmetry_Int_Tables_number   1
_chemical_formula_structural   Li5GaO4
_chemical_formula_sum   'Li40 Ga8 O32'
_cell_volume   797.30394383
_cell_formula_units_Z   8
loop_
 _symmetry_equiv_pos_site_id
 _symmetry_equiv_pos_as_xyz
  1  'x, y, z'
loop_
 _atom_site_type_symbol
 _atom_site_label
 _atom_site_symmetry_multiplicity
 _atom_site_fract_x
 _atom_site_fract_y
 _atom_site_fract_z
 _atom_site_occupancy
  Li  Li0  1  0.39322800  0.16777100  0.12900500  1
  Li  Li1  1  0.89322800  0.16777100  0.37099500  1
  Li  Li2  1  0.10571100  0.11763200  0.86759900  1
  Li  Li3  1  0.60571100  0.11763200  0.63240100  1
  Li  Li4  1  0.37451000  0.15121100  0.86682500  1
  Li  Li5  1  0.87451000  0.15121100  0.63317500  1
  Li  Li6  1  0.16791900  0.11705600  0.39400400  1
  Li  Li7  1  0.66791900  0.11705600  0.10599600  1
  Li  Li8  1  0.14391100  0.09660600  0.62870400  1
  Li  Li9  1  0.64391100  0.09660600  0.87129600  1
  Li  Li10  1  0.14391100  0.40339400  0.12870400  1
  Li  Li11  1  0.64391100  0.40339400  0.37129600  1
  Li  Li12  1  0.16791900  0.38294400  0.89400400  1
  Li  Li13  1  0.66791900  0.38294400  0.60599600  1
  Li  Li14  1  0.37451000  0.34878900  0.36682500  1
  Li  Li15  1  0.87451000  0.34878900  0.13317500  1
  Li  Li16  1  0.10571100  0.38236800  0.36759900  1
  Li  Li17  1  0.60571100  0.38236800  0.13240100  1
  Li  Li18  1  0.39322800  0.33222900  0.62900500  1
  Li  Li19  1  0.89322800  0.33222900  0.87099500  1
  Li  Li20  1  0.10677200  0.66777100  0.12900500  1
  Li  Li21  1  0.60677200  0.66777100  0.37099500  1
  Li  Li22  1  0.89428900  0.61763200  0.63240100  1
  Li  Li23  1  0.39428900  0.61763200  0.86759900  1
  Li  Li24  1  0.62549000  0.65121100  0.63317500  1
  Li  Li25  1  0.12549000  0.65121100  0.86682500  1
  Li  Li26  1  0.33208100  0.61705600  0.39400400  1
  Li  Li27  1  0.83208100  0.61705600  0.10599600  1
  Li  Li28  1  0.35608900  0.59660600  0.62870400  1
  Li  Li29  1  0.85608900  0.59660600  0.87129600  1
  Li  Li30  1  0.35608900  0.90339400  0.12870400  1
  Li  Li31  1  0.85608900  0.90339400  0.37129600  1
  Li  Li32  1  0.83208100  0.88294400  0.60599600  1
  Li  Li33  1  0.33208100  0.88294400  0.89400400  1
  Li  Li34  1  0.62549000  0.84878900  0.13317500  1
  Li  Li35  1  0.12549000  0.84878900  0.36682500  1
  Li  Li36  1  0.89428900  0.88236800  0.13240100  1
  Li  Li37  1  0.39428900  0.88236800  0.36759900  1
  Li  Li38  1  0.10677200  0.83222900  0.62900500  1
  Li  Li39  1  0.60677200  0.83222900  0.87099500  1
  Ga  Ga40  1  0.11424600  0.12176400  0.13102700  1
  Ga  Ga41  1  0.61424600  0.12176400  0.36897300  1
  Ga  Ga42  1  0.11424600  0.37823600  0.63102700  1
  Ga  Ga43  1  0.61424600  0.37823600  0.86897300  1
  Ga  Ga44  1  0.38575400  0.62176400  0.13102700  1
  Ga  Ga45  1  0.88575400  0.62176400  0.36897300  1
  Ga  Ga46  1  0.38575400  0.87823600  0.63102700  1
  Ga  Ga47  1  0.88575400  0.87823600  0.86897300  1
  O  O48  1  0.01124300  0.00883200  0.26015900  1
  O  O49  1  0.51124300  0.00883200  0.23984100  1
  O  O50  1  0.25242300  0.03706300  0.00938000  1
  O  O51  1  0.75242300  0.03706300  0.49062000  1
  O  O52  1  0.22942400  0.24975500  0.24704800  1
  O  O53  1  0.72942400  0.24975500  0.25295200  1
  O  O54  1  0.52628300  0.24106800  0.98835800  1
  O  O55  1  0.02628300  0.24106800  0.51164200  1
  O  O56  1  0.02628300  0.25893200  0.01164200  1
  O  O57  1  0.52628300  0.25893200  0.48835800  1
  O  O58  1  0.22942400  0.25024500  0.74704800  1
  O  O59  1  0.72942400  0.25024500  0.75295200  1
  O  O60  1  0.25242300  0.46293700  0.50938000  1
  O  O61  1  0.75242300  0.46293700  0.99062000  1
  O  O62  1  0.01124300  0.49116800  0.76015900  1
  O  O63  1  0.51124300  0.49116800  0.73984100  1
  O  O64  1  0.48875700  0.50883200  0.26015900  1
  O  O65  1  0.98875700  0.50883200  0.23984100  1
  O  O66  1  0.24757700  0.53706300  0.00938000  1
  O  O67  1  0.74757700  0.53706300  0.49062000  1
  O  O68  1  0.27057600  0.74975500  0.24704800  1
  O  O69  1  0.77057600  0.74975500  0.25295200  1
  O  O70  1  0.47371700  0.74106800  0.51164200  1
  O  O71  1  0.97371700  0.74106800  0.98835800  1
  O  O72  1  0.97371700  0.75893200  0.48835800  1
  O  O73  1  0.47371700  0.75893200  0.01164200  1
  O  O74  1  0.27057600  0.75024500  0.74704800  1
  O  O75  1  0.77057600  0.75024500  0.75295200  1
  O  O76  1  0.24757700  0.96293700  0.50938000  1
  O  O77  1  0.74757700  0.96293700  0.99062000  1
  O  O78  1  0.48875700  0.99116800  0.76015900  1
  O  O79  1  0.98875700  0.99116800  0.73984100  1
