# generated using pymatgen
data_Li2MnV(P2O7)2
_symmetry_space_group_name_H-M   'P 1'
_cell_length_a   4.86700300
_cell_length_b   8.34328137
_cell_length_c   20.10676132
_cell_angle_alpha   89.58161762
_cell_angle_beta   84.41791525
_cell_angle_gamma   89.77318637
_symmetry_Int_Tables_number   1
_chemical_formula_structural   Li2MnV(P2O7)2
_chemical_formula_sum   'Li6 Mn3 V3 P12 O42'
_cell_volume   812.57293400
_cell_formula_units_Z   3
loop_
 _symmetry_equiv_pos_site_id
 _symmetry_equiv_pos_as_xyz
  1  'x, y, z'
loop_
 _atom_site_type_symbol
 _atom_site_label
 _atom_site_symmetry_multiplicity
 _atom_site_fract_x
 _atom_site_fract_y
 _atom_site_fract_z
 _atom_site_occupancy
  Li  Li0  1  0.95329700  0.64147400  0.77564900  1
  Li  Li1  1  0.71512800  0.14048500  0.89089100  1
  Li  Li2  1  0.61938700  0.64033200  0.44201200  1
  Li  Li3  1  0.38265200  0.14027000  0.55779300  1
  Li  Li4  1  0.28555400  0.64163600  0.10935500  1
  Li  Li5  1  0.04745600  0.13976900  0.22447500  1
  Mn  Mn6  1  0.97116500  0.00161900  0.75589900  1
  Mn  Mn7  1  0.63860000  0.99892100  0.42417300  1
  Mn  Mn8  1  0.02834300  0.49918900  0.24280600  1
  V  V9  1  0.69459800  0.50258500  0.90949000  1
  V  V10  1  0.36189600  0.50033800  0.57531500  1
  V  V11  1  0.30454800  0.00194600  0.09053100  1
  P  P12  1  0.84976300  0.71224600  0.63769500  1
  P  P13  1  0.89267500  0.31887700  0.49380200  1
  P  P14  1  0.77466300  0.82048900  0.17278400  1
  P  P15  1  0.81335300  0.21726700  0.02883200  1
  P  P16  1  0.44022100  0.82316900  0.84006800  1
  P  P17  1  0.48100300  0.21634200  0.69626000  1
  P  P18  1  0.51615200  0.71063100  0.30348900  1
  P  P19  1  0.55932900  0.32123800  0.15978100  1
  P  P20  1  0.18528900  0.71759300  0.97125900  1
  P  P21  1  0.22429700  0.32032200  0.82794900  1
  P  P22  1  0.10597800  0.82166800  0.50746800  1
  P  P23  1  0.15054400  0.20964600  0.36346000  1
  O  O24  1  0.90206500  0.67595400  0.95052900  1
  O  O25  1  0.98579100  0.84655600  0.58434500  1
  O  O26  1  0.82601200  0.30502900  0.96193600  1
  O  O27  1  0.83146600  0.79465300  0.70508600  1
  O  O28  1  0.96353800  0.06132400  0.36403400  1
  O  O29  1  0.77229900  0.17457800  0.71432200  1
  O  O30  1  0.86141400  0.82481700  0.46401700  1
  O  O31  1  0.97163700  0.96341900  0.16148600  1
  O  O32  1  0.92050200  0.65859000  0.16470700  1
  O  O33  1  0.64013500  0.96456000  0.82651000  1
  O  O34  1  0.74807200  0.15818400  0.50247300  1
  O  O35  1  0.58695300  0.66052200  0.83507500  1
  O  O36  1  0.69502300  0.46268700  0.50481500  1
  O  O37  1  0.80487300  0.32367800  0.20285400  1
  O  O38  1  0.70545100  0.56131900  0.30304400  1
  O  O39  1  0.47452000  0.32701100  0.86885400  1
  O  O40  1  0.56885900  0.67273800  0.61491200  1
  O  O41  1  0.65439700  0.84185200  0.25042800  1
  O  O42  1  0.37285800  0.56897200  0.97168400  1
  O  O43  1  0.49394500  0.30532200  0.62955800  1
  O  O44  1  0.67784000  0.34868900  0.08273100  1
  O  O45  1  0.32007100  0.84894000  0.91692700  1
  O  O46  1  0.49879400  0.79342900  0.37068100  1
  O  O47  1  0.62771800  0.06910200  0.02837100  1
  O  O48  1  0.34367600  0.34368600  0.75019000  1
  O  O49  1  0.43909900  0.16928100  0.38344400  1
  O  O50  1  0.52503300  0.82658200  0.13153700  1
  O  O51  1  0.29712300  0.06688700  0.69490300  1
  O  O52  1  0.19540000  0.82612100  0.79663100  1
  O  O53  1  0.30707100  0.96241600  0.49404200  1
  O  O54  1  0.41280200  0.15927100  0.16500300  1
  O  O55  1  0.25281700  0.65883000  0.50150100  1
  O  O56  1  0.35731500  0.46267000  0.17341800  1
  O  O57  1  0.07993700  0.15924900  0.83544200  1
  O  O58  1  0.02658700  0.46421600  0.83906500  1
  O  O59  1  0.14320000  0.32518100  0.53484800  1
  O  O60  1  0.22831400  0.67014100  0.28326500  1
  O  O61  1  0.03928400  0.56438100  0.63697000  1
  O  O62  1  0.16821300  0.29274500  0.29562100  1
  O  O63  1  0.17398200  0.80481100  0.03778800  1
  O  O64  1  0.01248500  0.34064700  0.41607400  1
  O  O65  1  0.09753400  0.17617200  0.04964300  1
