# generated using pymatgen
data_Li4Ti3Co3(WO8)2
_symmetry_space_group_name_H-M   'P 1'
_cell_length_a   5.97627261
_cell_length_b   5.99135580
_cell_length_c   9.82758275
_cell_angle_alpha   89.98780672
_cell_angle_beta   90.82016653
_cell_angle_gamma   120.05184452
_symmetry_Int_Tables_number   1
_chemical_formula_structural   Li4Ti3Co3(WO8)2
_chemical_formula_sum   'Li4 Ti3 Co3 W2 O16'
_cell_volume   304.54200941
_cell_formula_units_Z   1
loop_
 _symmetry_equiv_pos_site_id
 _symmetry_equiv_pos_as_xyz
  1  'x, y, z'
loop_
 _atom_site_type_symbol
 _atom_site_label
 _atom_site_symmetry_multiplicity
 _atom_site_fract_x
 _atom_site_fract_y
 _atom_site_fract_z
 _atom_site_occupancy
  Li  Li0  1  0.32864500  0.66416900  0.90489100  1
  Li  Li1  1  0.98813500  0.99401100  0.98335600  1
  Li  Li2  1  0.00834300  0.00473300  0.49160300  1
  Li  Li3  1  0.66797000  0.33347700  0.40728500  1
  Ti  Ti4  1  0.18064400  0.84030100  0.21564200  1
  Ti  Ti5  1  0.18290300  0.34124700  0.21628200  1
  Ti  Ti6  1  0.35936600  0.17867600  0.73256600  1
  Co  Co7  1  0.64261900  0.82088300  0.21093800  1
  Co  Co8  1  0.83298000  0.65575400  0.71162100  1
  Co  Co9  1  0.83363200  0.17814400  0.71160300  1
  W  W10  1  0.34060800  0.67065100  0.49033300  1
  W  W11  1  0.68987600  0.34444400  0.98958200  1
  O  O12  1  0.18220900  0.82834600  0.58621500  1
  O  O13  1  0.04370600  0.52194700  0.34004700  1
  O  O14  1  0.29512000  0.64738300  0.10575100  1
  O  O15  1  0.00717700  0.00407300  0.30239600  1
  O  O16  1  0.01423400  0.00715500  0.79335100  1
  O  O17  1  0.18187500  0.35449900  0.58603800  1
  O  O18  1  0.46686900  0.95961400  0.35001700  1
  O  O19  1  0.46754800  0.50736600  0.35014800  1
  O  O20  1  0.33997400  0.17019100  0.10674200  1
  O  O21  1  0.66182400  0.83084100  0.57954600  1
  O  O22  1  0.50300800  0.46704500  0.85246100  1
  O  O23  1  0.50363100  0.03460200  0.85167300  1
  O  O24  1  0.63792000  0.31920500  0.60826600  1
  O  O25  1  0.83682100  0.66878300  0.08973800  1
  O  O26  1  0.96663200  0.48383000  0.85044200  1
  O  O27  1  0.83573100  0.16892800  0.08930900  1
