# generated using pymatgen
data_Li2VNi(PO4)2
_symmetry_space_group_name_H-M   'P 1'
_cell_length_a   10.35393693
_cell_length_b   6.03529800
_cell_length_c   4.75579650
_cell_angle_alpha   90.00000000
_cell_angle_beta   90.05053914
_cell_angle_gamma   90.00000000
_symmetry_Int_Tables_number   1
_chemical_formula_structural   Li2VNi(PO4)2
_chemical_formula_sum   'Li4 V2 Ni2 P4 O16'
_cell_volume   297.18530290
_cell_formula_units_Z   2
loop_
 _symmetry_equiv_pos_site_id
 _symmetry_equiv_pos_as_xyz
  1  'x, y, z'
loop_
 _atom_site_type_symbol
 _atom_site_label
 _atom_site_symmetry_multiplicity
 _atom_site_fract_x
 _atom_site_fract_y
 _atom_site_fract_z
 _atom_site_occupancy
  Li  Li0  1  0.00000000  0.00000000  0.00000000  1
  Li  Li1  1  0.00000000  0.50000000  0.00000000  1
  Li  Li2  1  0.50000000  0.00000000  0.50000000  1
  Li  Li3  1  0.50000000  0.50000000  0.50000000  1
  V  V4  1  0.22622800  0.75000000  0.48345500  1
  V  V5  1  0.77377200  0.25000000  0.51654500  1
  Ni  Ni6  1  0.27667100  0.25000000  0.98415600  1
  Ni  Ni7  1  0.72332900  0.75000000  0.01584400  1
  P  P8  1  0.09562300  0.25000000  0.41081400  1
  P  P9  1  0.40947900  0.75000000  0.92040000  1
  P  P10  1  0.59052100  0.25000000  0.07960000  1
  P  P11  1  0.90437700  0.75000000  0.58918600  1
  O  O12  1  0.04472400  0.75000000  0.70536300  1
  O  O13  1  0.10290800  0.25000000  0.73460700  1
  O  O14  1  0.16541400  0.04720700  0.26779000  1
  O  O15  1  0.16541400  0.45279300  0.26779000  1
  O  O16  1  0.33830000  0.54384900  0.78518500  1
  O  O17  1  0.33830000  0.95615100  0.78518500  1
  O  O18  1  0.40750200  0.75000000  0.24355000  1
  O  O19  1  0.45110500  0.25000000  0.20297400  1
  O  O20  1  0.54889500  0.75000000  0.79702600  1
  O  O21  1  0.59249800  0.25000000  0.75645000  1
  O  O22  1  0.66170000  0.04384900  0.21481500  1
  O  O23  1  0.66170000  0.45615100  0.21481500  1
  O  O24  1  0.83458600  0.54720700  0.73221000  1
  O  O25  1  0.83458600  0.95279300  0.73221000  1
  O  O26  1  0.89709200  0.75000000  0.26539300  1
  O  O27  1  0.95527600  0.25000000  0.29463700  1
