# generated using pymatgen
data_Li2NbCr3O8
_symmetry_space_group_name_H-M   'P 1'
_cell_length_a   8.53033000
_cell_length_b   8.53033000
_cell_length_c   8.53033000
_cell_angle_alpha   90.00000000
_cell_angle_beta   90.00000000
_cell_angle_gamma   90.00000000
_symmetry_Int_Tables_number   1
_chemical_formula_structural   Li2NbCr3O8
_chemical_formula_sum   'Li8 Nb4 Cr12 O32'
_cell_volume   620.72251308
_cell_formula_units_Z   4
loop_
 _symmetry_equiv_pos_site_id
 _symmetry_equiv_pos_as_xyz
  1  'x, y, z'
loop_
 _atom_site_type_symbol
 _atom_site_label
 _atom_site_symmetry_multiplicity
 _atom_site_fract_x
 _atom_site_fract_y
 _atom_site_fract_z
 _atom_site_occupancy
  Li  Li0  1  0.99551300  0.99551300  0.99551300  1
  Li  Li1  1  0.25448700  0.25448700  0.25448700  1
  Li  Li2  1  0.24551300  0.74551300  0.75448700  1
  Li  Li3  1  0.50448700  0.00448700  0.49551300  1
  Li  Li4  1  0.49551300  0.50448700  0.00448700  1
  Li  Li5  1  0.75448700  0.24551300  0.74551300  1
  Li  Li6  1  0.74551300  0.75448700  0.24551300  1
  Li  Li7  1  0.00448700  0.49551300  0.50448700  1
  Nb  Nb8  1  0.12500000  0.87500000  0.37500000  1
  Nb  Nb9  1  0.37500000  0.12500000  0.87500000  1
  Nb  Nb10  1  0.62500000  0.62500000  0.62500000  1
  Nb  Nb11  1  0.87500000  0.37500000  0.12500000  1
  Cr  Cr12  1  0.12146600  0.12853400  0.62500000  1
  Cr  Cr13  1  0.12500000  0.37853400  0.87146600  1
  Cr  Cr14  1  0.12853400  0.62500000  0.12146600  1
  Cr  Cr15  1  0.37146600  0.37500000  0.62146600  1
  Cr  Cr16  1  0.37500000  0.62146600  0.37146600  1
  Cr  Cr17  1  0.37853400  0.87146600  0.12500000  1
  Cr  Cr18  1  0.62146600  0.37146600  0.37500000  1
  Cr  Cr19  1  0.62500000  0.12146600  0.12853400  1
  Cr  Cr20  1  0.62853400  0.87500000  0.87853400  1
  Cr  Cr21  1  0.87146600  0.12500000  0.37853400  1
  Cr  Cr22  1  0.87500000  0.87853400  0.62853400  1
  Cr  Cr23  1  0.87853400  0.62853400  0.87500000  1
  O  O24  1  0.11359500  0.11164100  0.38577400  1
  O  O25  1  0.11422600  0.88640500  0.61164100  1
  O  O26  1  0.11123900  0.61123900  0.88876100  1
  O  O27  1  0.13835900  0.13640500  0.86422600  1
  O  O28  1  0.11164100  0.38577400  0.11359500  1
  O  O29  1  0.13876100  0.36123900  0.63876100  1
  O  O30  1  0.13577400  0.63835900  0.36359500  1
  O  O31  1  0.13640500  0.86422600  0.13835900  1
  O  O32  1  0.36359500  0.13577400  0.63835900  1
  O  O33  1  0.36422600  0.36164100  0.86359500  1
  O  O34  1  0.36123900  0.63876100  0.13876100  1
  O  O35  1  0.38835900  0.61422600  0.61359500  1
  O  O36  1  0.36164100  0.86359500  0.36422600  1
  O  O37  1  0.38876100  0.38876100  0.38876100  1
  O  O38  1  0.38577400  0.11359500  0.11164100  1
  O  O39  1  0.38640500  0.88835900  0.88577400  1
  O  O40  1  0.61359500  0.38835900  0.61422600  1
  O  O41  1  0.61422600  0.61359500  0.38835900  1
  O  O42  1  0.61123900  0.88876100  0.11123900  1
  O  O43  1  0.63835900  0.36359500  0.13577400  1
  O  O44  1  0.61164100  0.11422600  0.88640500  1
  O  O45  1  0.63876100  0.13876100  0.36123900  1
  O  O46  1  0.63577400  0.86164100  0.63640500  1
  O  O47  1  0.63640500  0.63577400  0.86164100  1
  O  O48  1  0.86359500  0.36422600  0.36164100  1
  O  O49  1  0.86422600  0.13835900  0.13640500  1
  O  O50  1  0.86123900  0.86123900  0.86123900  1
  O  O51  1  0.88835900  0.88577400  0.38640500  1
  O  O52  1  0.86164100  0.63640500  0.63577400  1
  O  O53  1  0.88876100  0.11123900  0.61123900  1
  O  O54  1  0.88577400  0.38640500  0.88835900  1
  O  O55  1  0.88640500  0.61164100  0.11422600  1
