# generated using pymatgen
data_Li2Fe3F8
_symmetry_space_group_name_H-M   'P 1'
_cell_length_a   10.25179700
_cell_length_b   6.05287900
_cell_length_c   10.72676458
_cell_angle_alpha   87.56399521
_cell_angle_beta   90.00000000
_cell_angle_gamma   90.00000000
_symmetry_Int_Tables_number   1
_chemical_formula_structural   Li2Fe3F8
_chemical_formula_sum   'Li8 Fe12 F32'
_cell_volume   665.02519331
_cell_formula_units_Z   4
loop_
 _symmetry_equiv_pos_site_id
 _symmetry_equiv_pos_as_xyz
  1  'x, y, z'
loop_
 _atom_site_type_symbol
 _atom_site_label
 _atom_site_symmetry_multiplicity
 _atom_site_fract_x
 _atom_site_fract_y
 _atom_site_fract_z
 _atom_site_occupancy
  Li  Li0  1  0.05293300  0.87913000  0.79079100  1
  Li  Li1  1  0.44706700  0.87913000  0.29079100  1
  Li  Li2  1  0.64289700  0.63744100  0.88577400  1
  Li  Li3  1  0.85710300  0.63744100  0.38577400  1
  Li  Li4  1  0.14289700  0.36255900  0.61422600  1
  Li  Li5  1  0.35710300  0.36255900  0.11422600  1
  Li  Li6  1  0.55293300  0.12087000  0.70920900  1
  Li  Li7  1  0.94706700  0.12087000  0.20920900  1
  Fe  Fe8  1  0.36267100  0.88954400  0.96290700  1
  Fe  Fe9  1  0.13732900  0.88954400  0.46290700  1
  Fe  Fe10  1  0.35717600  0.64625200  0.71337100  1
  Fe  Fe11  1  0.62851000  0.63114000  0.55769900  1
  Fe  Fe12  1  0.14282400  0.64625200  0.21337100  1
  Fe  Fe13  1  0.87149000  0.63114000  0.05769900  1
  Fe  Fe14  1  0.12851000  0.36886000  0.94230100  1
  Fe  Fe15  1  0.85717600  0.35374800  0.78662900  1
  Fe  Fe16  1  0.37149000  0.36886000  0.44230100  1
  Fe  Fe17  1  0.64282400  0.35374800  0.28662900  1
  Fe  Fe18  1  0.86267100  0.11045600  0.53709300  1
  Fe  Fe19  1  0.63732900  0.11045600  0.03709300  1
  F  F20  1  0.49296900  0.84879900  0.63378800  1
  F  F21  1  0.23984400  0.87287000  0.80588500  1
  F  F22  1  0.01193200  0.89851000  0.61631900  1
  F  F23  1  0.73977000  0.84811000  0.97466700  1
  F  F24  1  0.00703100  0.84879900  0.13378800  1
  F  F25  1  0.26015600  0.87287000  0.30588500  1
  F  F26  1  0.48806800  0.89851000  0.11631900  1
  F  F27  1  0.76023000  0.84811000  0.47466700  1
  F  F28  1  0.46290200  0.63701200  0.87964600  1
  F  F29  1  0.97806300  0.61012500  0.88599700  1
  F  F30  1  0.72068100  0.58476000  0.72406300  1
  F  F31  1  0.03709800  0.63701200  0.37964600  1
  F  F32  1  0.52193700  0.61012500  0.38599700  1
  F  F33  1  0.25217600  0.61035900  0.54256900  1
  F  F34  1  0.77931900  0.58476000  0.22406300  1
  F  F35  1  0.24782400  0.61035900  0.04256900  1
  F  F36  1  0.75217600  0.38964100  0.95743100  1
  F  F37  1  0.22068100  0.41524000  0.77593700  1
  F  F38  1  0.74782400  0.38964100  0.45743100  1
  F  F39  1  0.47806300  0.38987500  0.61400300  1
  F  F40  1  0.96290200  0.36298800  0.62035400  1
  F  F41  1  0.27931900  0.41524000  0.27593700  1
  F  F42  1  0.02193700  0.38987500  0.11400300  1
  F  F43  1  0.53709800  0.36298800  0.12035400  1
  F  F44  1  0.23977000  0.15189000  0.52533300  1
  F  F45  1  0.51193200  0.10149000  0.88368100  1
  F  F46  1  0.73984400  0.12713000  0.69411500  1
  F  F47  1  0.99296900  0.15120100  0.86621200  1
  F  F48  1  0.26023000  0.15189000  0.02533300  1
  F  F49  1  0.98806800  0.10149000  0.38368100  1
  F  F50  1  0.76015600  0.12713000  0.19411500  1
  F  F51  1  0.50703100  0.15120100  0.36621200  1
