# generated using pymatgen
data_Li2Cr5O12
_symmetry_space_group_name_H-M   'P 1'
_cell_length_a   9.06043800
_cell_length_b   9.10772400
_cell_length_c   12.53342000
_cell_angle_alpha   90.00000000
_cell_angle_beta   90.00000000
_cell_angle_gamma   90.00000000
_symmetry_Int_Tables_number   1
_chemical_formula_structural   Li2Cr5O12
_chemical_formula_sum   'Li8 Cr20 O48'
_cell_volume   1034.25742514
_cell_formula_units_Z   4
loop_
 _symmetry_equiv_pos_site_id
 _symmetry_equiv_pos_as_xyz
  1  'x, y, z'
loop_
 _atom_site_type_symbol
 _atom_site_label
 _atom_site_symmetry_multiplicity
 _atom_site_fract_x
 _atom_site_fract_y
 _atom_site_fract_z
 _atom_site_occupancy
  Li  Li0  1  0.27284600  0.21767500  0.18900000  1
  Li  Li1  1  0.77284600  0.78232500  0.18900000  1
  Li  Li2  1  0.77284600  0.28232500  0.31100000  1
  Li  Li3  1  0.27284600  0.71767500  0.31100000  1
  Li  Li4  1  0.72715400  0.28232500  0.68900000  1
  Li  Li5  1  0.22715400  0.71767500  0.68900000  1
  Li  Li6  1  0.22715400  0.21767500  0.81100000  1
  Li  Li7  1  0.72715400  0.78232500  0.81100000  1
  Cr  Cr8  1  0.25000000  0.46268400  0.00000000  1
  Cr  Cr9  1  0.75000000  0.53731600  0.00000000  1
  Cr  Cr10  1  0.96679400  0.24878100  0.12044500  1
  Cr  Cr11  1  0.46679400  0.75121900  0.12044500  1
  Cr  Cr12  1  0.60425500  0.09965200  0.14244900  1
  Cr  Cr13  1  0.10425500  0.90034800  0.14244900  1
  Cr  Cr14  1  0.10425500  0.40034800  0.35755100  1
  Cr  Cr15  1  0.60425500  0.59965200  0.35755100  1
  Cr  Cr16  1  0.46679400  0.25121900  0.37955500  1
  Cr  Cr17  1  0.96679400  0.74878100  0.37955500  1
  Cr  Cr18  1  0.75000000  0.03731600  0.50000000  1
  Cr  Cr19  1  0.25000000  0.96268400  0.50000000  1
  Cr  Cr20  1  0.03320600  0.25121900  0.62044500  1
  Cr  Cr21  1  0.53320600  0.74878100  0.62044500  1
  Cr  Cr22  1  0.39574500  0.40034800  0.64244900  1
  Cr  Cr23  1  0.89574500  0.59965200  0.64244900  1
  Cr  Cr24  1  0.89574500  0.09965200  0.85755100  1
  Cr  Cr25  1  0.39574500  0.90034800  0.85755100  1
  Cr  Cr26  1  0.53320600  0.24878100  0.87955500  1
  Cr  Cr27  1  0.03320600  0.75121900  0.87955500  1
  O  O28  1  0.56507600  0.14585900  0.01532300  1
  O  O29  1  0.06507600  0.85414100  0.01532300  1
  O  O30  1  0.36899000  0.56479400  0.06555400  1
  O  O31  1  0.86899000  0.43520600  0.06555400  1
  O  O32  1  0.16256100  0.35254700  0.08786800  1
  O  O33  1  0.66256100  0.64745300  0.08786800  1
  O  O34  1  0.10328200  0.08844400  0.16298800  1
  O  O35  1  0.60328200  0.91155600  0.16298800  1
  O  O36  1  0.77529000  0.17358000  0.17470000  1
  O  O37  1  0.27529000  0.82642000  0.17470000  1
  O  O38  1  0.47536000  0.17452400  0.22870000  1
  O  O39  1  0.97536000  0.82547600  0.22870000  1
  O  O40  1  0.97536000  0.32547600  0.27130000  1
  O  O41  1  0.47536000  0.67452400  0.27130000  1
  O  O42  1  0.77529000  0.67358000  0.32530000  1
  O  O43  1  0.27529000  0.32642000  0.32530000  1
  O  O44  1  0.60328200  0.41155600  0.33701200  1
  O  O45  1  0.10328200  0.58844400  0.33701200  1
  O  O46  1  0.66256100  0.14745300  0.41213200  1
  O  O47  1  0.16256100  0.85254700  0.41213200  1
  O  O48  1  0.36899000  0.06479400  0.43444600  1
  O  O49  1  0.86899000  0.93520600  0.43444600  1
  O  O50  1  0.56507600  0.64585900  0.48467700  1
  O  O51  1  0.06507600  0.35414100  0.48467700  1
  O  O52  1  0.43492400  0.35414100  0.51532300  1
  O  O53  1  0.93492400  0.64585900  0.51532300  1
  O  O54  1  0.13101000  0.06479400  0.56555400  1
  O  O55  1  0.63101000  0.93520600  0.56555400  1
  O  O56  1  0.83743900  0.14745300  0.58786800  1
  O  O57  1  0.33743900  0.85254700  0.58786800  1
  O  O58  1  0.89671800  0.41155600  0.66298800  1
  O  O59  1  0.39671800  0.58844400  0.66298800  1
  O  O60  1  0.22471000  0.32642000  0.67470000  1
  O  O61  1  0.72471000  0.67358000  0.67470000  1
  O  O62  1  0.52464000  0.32547600  0.72870000  1
  O  O63  1  0.02464000  0.67452400  0.72870000  1
  O  O64  1  0.02464000  0.17452400  0.77130000  1
  O  O65  1  0.52464000  0.82547600  0.77130000  1
  O  O66  1  0.72471000  0.17358000  0.82530000  1
  O  O67  1  0.22471000  0.82642000  0.82530000  1
  O  O68  1  0.39671800  0.08844400  0.83701200  1
  O  O69  1  0.89671800  0.91155600  0.83701200  1
  O  O70  1  0.33743900  0.35254700  0.91213200  1
  O  O71  1  0.83743900  0.64745300  0.91213200  1
  O  O72  1  0.63101000  0.43520600  0.93444600  1
  O  O73  1  0.13101000  0.56479400  0.93444600  1
  O  O74  1  0.93492400  0.14585900  0.98467700  1
  O  O75  1  0.43492400  0.85414100  0.98467700  1
