# generated using pymatgen
data_Li4CrP6(H4O11)2
_symmetry_space_group_name_H-M   'P 1'
_cell_length_a   15.38047000
_cell_length_b   7.48544900
_cell_length_c   8.15866127
_cell_angle_alpha   85.83253606
_cell_angle_beta   90.00000000
_cell_angle_gamma   90.00000000
_symmetry_Int_Tables_number   1
_chemical_formula_structural   Li4CrP6(H4O11)2
_chemical_formula_sum   'Li8 Cr2 P12 H16 O44'
_cell_volume   936.82080895
_cell_formula_units_Z   2
loop_
 _symmetry_equiv_pos_site_id
 _symmetry_equiv_pos_as_xyz
  1  'x, y, z'
loop_
 _atom_site_type_symbol
 _atom_site_label
 _atom_site_symmetry_multiplicity
 _atom_site_fract_x
 _atom_site_fract_y
 _atom_site_fract_z
 _atom_site_occupancy
  Li  Li0  1  0.27572500  0.46736700  0.65750900  1
  Li  Li1  1  0.38677900  0.35942700  0.11036200  1
  Li  Li2  1  0.88677900  0.14057300  0.88963800  1
  Li  Li3  1  0.77572500  0.03263300  0.34249100  1
  Li  Li4  1  0.22427500  0.96736700  0.65750900  1
  Li  Li5  1  0.11322100  0.85942700  0.11036200  1
  Li  Li6  1  0.61322100  0.64057300  0.88963800  1
  Li  Li7  1  0.72427500  0.53263300  0.34249100  1
  Cr  Cr8  1  0.50000000  0.50000000  0.50000000  1
  Cr  Cr9  1  0.00000000  0.00000000  0.50000000  1
  P  P10  1  0.06329600  0.43626200  0.19172100  1
  P  P11  1  0.67774600  0.26012000  0.02743500  1
  P  P12  1  0.68335200  0.33601800  0.68149800  1
  P  P13  1  0.18335200  0.16398200  0.31850200  1
  P  P14  1  0.17774600  0.23988000  0.97256500  1
  P  P15  1  0.56329600  0.06373800  0.80827900  1
  P  P16  1  0.43670400  0.93626200  0.19172100  1
  P  P17  1  0.82225400  0.76012000  0.02743500  1
  P  P18  1  0.81664800  0.83601800  0.68149800  1
  P  P19  1  0.31664800  0.66398200  0.31850200  1
  P  P20  1  0.32225400  0.73988000  0.97256500  1
  P  P21  1  0.93670400  0.56373800  0.80827900  1
  H  H22  1  0.57910800  0.37107700  0.24822100  1
  H  H23  1  0.35536000  0.26784300  0.50987400  1
  H  H24  1  0.41440900  0.25019900  0.67619200  1
  H  H25  1  0.50871000  0.22922400  0.30952300  1
  H  H26  1  0.00871000  0.27077600  0.69047700  1
  H  H27  1  0.91440900  0.24980100  0.32380800  1
  H  H28  1  0.85536000  0.23215700  0.49012600  1
  H  H29  1  0.07910800  0.12892300  0.75177900  1
  H  H30  1  0.92089200  0.87107700  0.24822100  1
  H  H31  1  0.14464000  0.76784300  0.50987400  1
  H  H32  1  0.08559100  0.75019900  0.67619200  1
  H  H33  1  0.99129000  0.72922400  0.30952300  1
  H  H34  1  0.49129000  0.77077600  0.69047700  1
  H  H35  1  0.58559100  0.74980100  0.32380800  1
  H  H36  1  0.64464000  0.73215700  0.49012600  1
  H  H37  1  0.42089200  0.62892300  0.75177900  1
  O  O38  1  0.11270800  0.39621100  0.02338600  1
  O  O39  1  0.62672000  0.42732800  0.05895500  1
  O  O40  1  0.61913900  0.48420400  0.70573500  1
  O  O41  1  0.97766600  0.34263900  0.20211000  1
  O  O42  1  0.13112700  0.35054500  0.33018200  1
  O  O43  1  0.93471100  0.36442300  0.79519500  1
  O  O44  1  0.55135600  0.31762000  0.35105200  1
  O  O45  1  0.38739500  0.33733400  0.58874100  1
  O  O46  1  0.74646400  0.35595900  0.54172300  1
  O  O47  1  0.73527600  0.29518800  0.85698700  1
  O  O48  1  0.73577200  0.18380600  0.16006100  1
  O  O49  1  0.23577200  0.31619400  0.83993900  1
  O  O50  1  0.23527600  0.20481200  0.14301300  1
  O  O51  1  0.24646400  0.14404100  0.45827700  1
  O  O52  1  0.88739500  0.16266600  0.41125900  1
  O  O53  1  0.05135600  0.18238000  0.64894800  1
  O  O54  1  0.43471100  0.13557700  0.20480500  1
  O  O55  1  0.63112700  0.14945500  0.66981800  1
  O  O56  1  0.47766600  0.15736100  0.79789000  1
  O  O57  1  0.11913900  0.01579600  0.29426500  1
  O  O58  1  0.12672000  0.07267200  0.94104500  1
  O  O59  1  0.61270800  0.10378900  0.97661400  1
  O  O60  1  0.38729200  0.89621100  0.02338600  1
  O  O61  1  0.87328000  0.92732800  0.05895500  1
  O  O62  1  0.88086100  0.98420400  0.70573500  1
  O  O63  1  0.52233400  0.84263900  0.20211000  1
  O  O64  1  0.36887300  0.85054500  0.33018200  1
  O  O65  1  0.56528900  0.86442300  0.79519500  1
  O  O66  1  0.94864400  0.81762000  0.35105200  1
  O  O67  1  0.11260500  0.83733400  0.58874100  1
  O  O68  1  0.75353600  0.85595900  0.54172300  1
  O  O69  1  0.76472400  0.79518800  0.85698700  1
  O  O70  1  0.76422800  0.68380600  0.16006100  1
  O  O71  1  0.26422800  0.81619400  0.83993900  1
  O  O72  1  0.26472400  0.70481200  0.14301300  1
  O  O73  1  0.25353600  0.64404100  0.45827700  1
  O  O74  1  0.61260500  0.66266600  0.41125900  1
  O  O75  1  0.44864400  0.68238000  0.64894800  1
  O  O76  1  0.06528900  0.63557700  0.20480500  1
  O  O77  1  0.86887300  0.64945500  0.66981800  1
  O  O78  1  0.02233400  0.65736100  0.79789000  1
  O  O79  1  0.38086100  0.51579600  0.29426500  1
  O  O80  1  0.37328000  0.57267200  0.94104500  1
  O  O81  1  0.88729200  0.60378900  0.97661400  1
