# generated using pymatgen
data_Li4Co3Ni3(WO8)2
_symmetry_space_group_name_H-M   'P 1'
_cell_length_a   5.92442302
_cell_length_b   5.92442302
_cell_length_c   9.74358534
_cell_angle_alpha   89.64957810
_cell_angle_beta   89.64957810
_cell_angle_gamma   60.14856861
_symmetry_Int_Tables_number   1
_chemical_formula_structural   Li4Co3Ni3(WO8)2
_chemical_formula_sum   'Li4 Co3 Ni3 W2 O16'
_cell_volume   296.60531340
_cell_formula_units_Z   1
loop_
 _symmetry_equiv_pos_site_id
 _symmetry_equiv_pos_as_xyz
  1  'x, y, z'
loop_
 _atom_site_type_symbol
 _atom_site_label
 _atom_site_symmetry_multiplicity
 _atom_site_fract_x
 _atom_site_fract_y
 _atom_site_fract_z
 _atom_site_occupancy
  Li  Li0  1  0.66361800  0.66361800  0.90444900  1
  Li  Li1  1  0.00547400  0.00547400  0.98896000  1
  Li  Li2  1  0.00463400  0.00463400  0.49042600  1
  Li  Li3  1  0.33066600  0.33066600  0.40380500  1
  Co  Co4  1  0.83213800  0.34601300  0.21896800  1
  Co  Co5  1  0.34601300  0.83213800  0.21896800  1
  Co  Co6  1  0.17455400  0.17455400  0.72139700  1
  Ni  Ni7  1  0.83014200  0.83014200  0.21152800  1
  Ni  Ni8  1  0.66045000  0.16850200  0.71472700  1
  Ni  Ni9  1  0.16850200  0.66045000  0.71472700  1
  W  W10  1  0.67038900  0.67038900  0.49045700  1
  W  W11  1  0.33944900  0.33944900  0.98859200  1
  O  O12  1  0.82374500  0.34599700  0.58707100  1
  O  O13  1  0.51861000  0.51861000  0.35147900  1
  O  O14  1  0.65449600  0.65449600  0.11088000  1
  O  O15  1  0.00805400  0.00805400  0.29727400  1
  O  O16  1  0.01572200  0.01572200  0.79652700  1
  O  O17  1  0.34599700  0.82374500  0.58707100  1
  O  O18  1  0.96074900  0.51621400  0.34983400  1
  O  O19  1  0.51621400  0.96074900  0.34983400  1
  O  O20  1  0.17447000  0.17447000  0.08798100  1
  O  O21  1  0.83039600  0.83039600  0.58551100  1
  O  O22  1  0.47583100  0.03620700  0.85095000  1
  O  O23  1  0.03620700  0.47583100  0.85095000  1
  O  O24  1  0.31547800  0.31547800  0.61366600  1
  O  O25  1  0.65809600  0.16738900  0.08555900  1
  O  O26  1  0.47989500  0.47989500  0.85059500  1
  O  O27  1  0.16738900  0.65809600  0.08555900  1
