# generated using pymatgen
data_Li4AlCr3O8
_symmetry_space_group_name_H-M   'P 1'
_cell_length_a   5.11086600
_cell_length_b   7.75934163
_cell_length_c   7.76086502
_cell_angle_alpha   81.85897253
_cell_angle_beta   83.83847630
_cell_angle_gamma   71.00919580
_symmetry_Int_Tables_number   1
_chemical_formula_structural   Li4AlCr3O8
_chemical_formula_sum   'Li8 Al2 Cr6 O16'
_cell_volume   287.47031614
_cell_formula_units_Z   2
loop_
 _symmetry_equiv_pos_site_id
 _symmetry_equiv_pos_as_xyz
  1  'x, y, z'
loop_
 _atom_site_type_symbol
 _atom_site_label
 _atom_site_symmetry_multiplicity
 _atom_site_fract_x
 _atom_site_fract_y
 _atom_site_fract_z
 _atom_site_occupancy
  Li  Li0  1  0.99988200  0.68787700  0.93747300  1
  Li  Li1  1  0.00030800  0.43678700  0.68693000  1
  Li  Li2  1  0.99969200  0.56321300  0.31307000  1
  Li  Li3  1  0.00017800  0.06269800  0.81090100  1
  Li  Li4  1  0.00033600  0.18598700  0.43845900  1
  Li  Li5  1  0.00011800  0.31212300  0.06252700  1
  Li  Li6  1  0.99966400  0.81401300  0.56154100  1
  Li  Li7  1  0.99982200  0.93730200  0.18909900  1
  Al  Al8  1  0.49986100  0.12378400  0.62372500  1
  Al  Al9  1  0.50013900  0.87621600  0.37627500  1
  Cr  Cr10  1  0.49984000  0.37371300  0.87367300  1
  Cr  Cr11  1  0.50000000  0.50000000  0.50000000  1
  Cr  Cr12  1  0.50016000  0.62628700  0.12632700  1
  Cr  Cr13  1  0.49993400  0.24722000  0.25292900  1
  Cr  Cr14  1  0.50006600  0.75278000  0.74707100  1
  Cr  Cr15  1  0.50000000  0.00000000  0.00000000  1
  O  O16  1  0.72680700  0.53684100  0.90637000  1
  O  O17  1  0.27251300  0.58980200  0.71744500  1
  O  O18  1  0.72170300  0.66822800  0.52567600  1
  O  O19  1  0.27838200  0.21003600  0.83414000  1
  O  O20  1  0.72058900  0.27886700  0.65483800  1
  O  O21  1  0.72748700  0.41019800  0.28255500  1
  O  O22  1  0.27829700  0.33177200  0.47432400  1
  O  O23  1  0.72133500  0.91906700  0.77628600  1
  O  O24  1  0.71589800  0.03206900  0.41416200  1
  O  O25  1  0.27319300  0.46315900  0.09363000  1
  O  O26  1  0.28410200  0.96793100  0.58583800  1
  O  O27  1  0.72728100  0.16094400  0.03307800  1
  O  O28  1  0.27866500  0.08093300  0.22371400  1
  O  O29  1  0.72161800  0.78996400  0.16586000  1
  O  O30  1  0.27941100  0.72113300  0.34516200  1
  O  O31  1  0.27271900  0.83905600  0.96692200  1
