# generated using pymatgen
data_LiV2OF5
_symmetry_space_group_name_H-M   'P 1'
_cell_length_a   9.25754000
_cell_length_b   9.28493345
_cell_length_c   17.29045401
_cell_angle_alpha   83.84578191
_cell_angle_beta   81.64010300
_cell_angle_gamma   63.48932558
_symmetry_Int_Tables_number   1
_chemical_formula_structural   LiV2OF5
_chemical_formula_sum   'Li12 V24 O12 F60'
_cell_volume   1314.30398121
_cell_formula_units_Z   12
loop_
 _symmetry_equiv_pos_site_id
 _symmetry_equiv_pos_as_xyz
  1  'x, y, z'
loop_
 _atom_site_type_symbol
 _atom_site_label
 _atom_site_symmetry_multiplicity
 _atom_site_fract_x
 _atom_site_fract_y
 _atom_site_fract_z
 _atom_site_occupancy
  Li  Li0  1  0.71432900  0.97146600  0.93580300  1
  Li  Li1  1  0.67746100  0.72481900  0.82022900  1
  Li  Li2  1  0.81547000  0.70150500  0.43750200  1
  Li  Li3  1  0.53310600  0.62973400  0.55462000  1
  Li  Li4  1  0.34715400  0.39198800  0.82096000  1
  Li  Li5  1  0.57915200  0.39507500  0.07793400  1
  Li  Li6  1  0.48133000  0.36658200  0.43723700  1
  Li  Li7  1  0.19873600  0.29582700  0.55505700  1
  Li  Li8  1  0.01272200  0.62942200  0.05828400  1
  Li  Li9  1  0.01100800  0.06328900  0.82206000  1
  Li  Li10  1  0.24700100  0.06033200  0.07805800  1
  Li  Li11  1  0.14631500  0.03185000  0.43779900  1
  V  V12  1  0.75078800  0.99249700  0.74981200  1
  V  V13  1  0.88346600  0.98275000  0.37031000  1
  V  V14  1  0.92037400  0.67667600  0.25531900  1
  V  V15  1  0.78641600  0.67242400  0.62298600  1
  V  V16  1  0.51333100  0.98164900  0.50328500  1
  V  V17  1  0.96132200  0.34034900  0.12353100  1
  V  V18  1  0.41987300  0.66037800  0.75215800  1
  V  V19  1  0.64660000  0.67086700  0.00432100  1
  V  V20  1  0.54997800  0.64975100  0.36826900  1
  V  V21  1  0.84570100  0.31348400  0.50424600  1
  V  V22  1  0.68863900  0.34996400  0.87192100  1
  V  V23  1  0.58991100  0.33674900  0.25636400  1
  V  V24  1  0.29712900  0.67604300  0.12300100  1
  V  V25  1  0.45157700  0.33550600  0.62391600  1
  V  V26  1  0.98093100  0.00572300  0.00326600  1
  V  V27  1  0.17538300  0.65102600  0.50443100  1
  V  V28  1  0.02549700  0.67935300  0.86867800  1
  V  V29  1  0.63538200  0.00174400  0.12232300  1
  V  V30  1  0.08491300  0.32535200  0.75208200  1
  V  V31  1  0.31550700  0.33724600  0.00230900  1
  V  V32  1  0.21459900  0.31968400  0.36812300  1
  V  V33  1  0.35353800  0.01477600  0.87117800  1
  V  V34  1  0.25632000  0.00669600  0.25705700  1
  V  V35  1  0.11597700  0.99973400  0.62367100  1
  O  O36  1  0.84479100  0.80644400  0.81599500  1
  O  O37  1  0.89225500  0.79035700  0.34366000  1
  O  O38  1  0.61379000  0.78921400  0.56201400  1
  O  O39  1  0.95506400  0.13140900  0.56317100  1
  O  O40  1  0.51758700  0.46738200  0.81237300  1
  O  O41  1  0.45388600  0.66691100  0.03997600  1
  O  O42  1  0.55862900  0.45616000  0.34334200  1
  O  O43  1  0.28101100  0.45651000  0.56246100  1
  O  O44  1  0.77878300  0.00750900  0.03161800  1
  O  O45  1  0.18384600  0.13352600  0.81213600  1
  O  O46  1  0.11601100  0.34674000  0.04088000  1
  O  O47  1  0.22351900  0.12534300  0.34431300  1
  F  F48  1  0.79356700  0.86540100  0.65746700  1
  F  F49  1  0.87978700  0.68232700  0.96904400  1
  F  F50  1  0.94864100  0.65696100  0.52536800  1
  F  F51  1  0.53386100  0.98264600  0.78540100  1
  F  F52  1  0.81109700  0.87623200  0.18639600  1
  F  F53  1  0.97139300  0.52837200  0.68537900  1
  F  F54  1  0.55834400  0.88187900  0.93262600  1
  F  F55  1  0.63608600  0.67326200  0.72339500  1
  F  F56  1  0.69735800  0.55692100  0.90314400  1
  F  F57  1  0.94380200  0.55390200  0.15594400  1
  F  F58  1  0.47151100  0.00328800  0.21058600  1
  F  F59  1  0.55021200  0.85023000  0.41109100  1
  F  F60  1  0.21532100  0.00622400  0.97115400  1
  F  F61  1  0.70385100  0.66893700  0.28300100  1
  F  F62  1  0.64979900  0.79112400  0.08920100  1
  F  F63  1  0.28190500  0.99773800  0.52620400  1
  F  F64  1  0.38573900  0.79521600  0.84098000  1
  F  F65  1  0.86769800  0.31454400  0.78482100  1
  F  F66  1  0.78412000  0.47068600  0.59112900  1
  F  F67  1  0.30515100  0.86389700  0.68693100  1
  F  F68  1  0.73261000  0.53414100  0.44341800  1
  F  F69  1  0.88781100  0.20321100  0.92944300  1
  F  F70  1  0.76754200  0.45026900  0.06103400  1
  F  F71  1  0.35666500  0.79499100  0.31343000  1
  F  F72  1  0.96835300  0.00688600  0.72489700  1
  F  F73  1  0.45927300  0.54026700  0.65284300  1
  F  F74  1  0.39925200  0.65678200  0.47172600  1
  F  F75  1  0.02311500  0.88919900  0.90236700  1
  F  F76  1  0.80703600  0.33329100  0.21290600  1
  F  F77  1  0.27702700  0.88781700  0.15639700  1
  F  F78  1  0.88654700  0.18525000  0.41208700  1
  F  F79  1  0.54754300  0.33935600  0.97121900  1
  F  F80  1  0.99009000  0.12364600  0.08954100  1
  F  F81  1  0.03798500  0.00212600  0.28571800  1
  F  F82  1  0.61118800  0.33280200  0.52711800  1
  F  F83  1  0.70816100  0.12593500  0.84527000  1
  F  F84  1  0.20285800  0.64908000  0.78389600  1
  F  F85  1  0.13471400  0.79080000  0.59255900  1
  F  F86  1  0.48386500  0.52859000  0.18363600  1
  F  F87  1  0.63532100  0.19944000  0.68868400  1
  F  F88  1  0.07591900  0.86226500  0.43989700  1
  F  F89  1  0.21154600  0.54308300  0.93358900  1
  F  F90  1  0.68920400  0.12881300  0.31362300  1
  F  F91  1  0.10213400  0.78569100  0.05967400  1
  F  F92  1  0.30222900  0.34087900  0.72376200  1
  F  F93  1  0.72212400  0.99516300  0.46543800  1
  F  F94  1  0.36479400  0.22099700  0.90274600  1
  F  F95  1  0.61262200  0.21879100  0.15474200  1
  F  F96  1  0.13817000  0.66995800  0.21157400  1
  F  F97  1  0.21739300  0.52044000  0.41190500  1
  F  F98  1  0.36939100  0.33489300  0.28384900  1
  F  F99  1  0.31547900  0.46262500  0.08800300  1
  F  F100  1  0.04729600  0.46431400  0.83934300  1
  F  F101  1  0.45066700  0.13485600  0.59228500  1
  F  F102  1  0.39676900  0.20312000  0.44417300  1
  F  F103  1  0.43698400  0.11605400  0.05937300  1
  F  F104  1  0.02083500  0.46508100  0.31308000  1
  F  F105  1  0.12651500  0.20647900  0.65369400  1
  F  F106  1  0.06413400  0.32910500  0.47082700  1
  F  F107  1  0.14905300  0.19911300  0.18326200  1
