# generated using pymatgen
data_Li3Mn2Cr2O8
_symmetry_space_group_name_H-M   'P 1'
_cell_length_a   5.87626200
_cell_length_b   5.88194779
_cell_length_c   5.91316423
_cell_angle_alpha   118.88058922
_cell_angle_beta   119.17049697
_cell_angle_gamma   90.41566961
_symmetry_Int_Tables_number   1
_chemical_formula_structural   Li3Mn2Cr2O8
_chemical_formula_sum   'Li3 Mn2 Cr2 O8'
_cell_volume   148.18566986
_cell_formula_units_Z   1
loop_
 _symmetry_equiv_pos_site_id
 _symmetry_equiv_pos_as_xyz
  1  'x, y, z'
loop_
 _atom_site_type_symbol
 _atom_site_label
 _atom_site_symmetry_multiplicity
 _atom_site_fract_x
 _atom_site_fract_y
 _atom_site_fract_z
 _atom_site_occupancy
  Li  Li0  1  0.50000000  0.00000000  0.50000000  1
  Li  Li1  1  0.50000000  0.50000000  0.00000000  1
  Li  Li2  1  0.00000000  0.00000000  0.50000000  1
  Mn  Mn3  1  0.00000000  0.00000000  0.00000000  1
  Mn  Mn4  1  0.00000000  0.50000000  0.50000000  1
  Cr  Cr5  1  0.00000000  0.50000000  0.00000000  1
  Cr  Cr6  1  0.50000000  0.50000000  0.50000000  1
  O  O7  1  0.78933100  0.26826700  0.03981600  1
  O  O8  1  0.77247400  0.28576700  0.53182100  1
  O  O9  1  0.23645800  0.25984200  0.02655500  1
  O  O10  1  0.74999700  0.72045100  0.48262100  1
  O  O11  1  0.25000300  0.27954900  0.51737900  1
  O  O12  1  0.76354200  0.74015800  0.97344500  1
  O  O13  1  0.22752600  0.71423300  0.46817900  1
  O  O14  1  0.21066900  0.73173300  0.96018400  1
