# generated using pymatgen
data_Li7Mn(O2F)2
_symmetry_space_group_name_H-M   'P 1'
_cell_length_a   6.19705731
_cell_length_b   9.57925054
_cell_length_c   9.56852671
_cell_angle_alpha   83.85110860
_cell_angle_beta   75.27958221
_cell_angle_gamma   94.21395697
_symmetry_Int_Tables_number   1
_chemical_formula_structural   Li7Mn(O2F)2
_chemical_formula_sum   'Li28 Mn4 O16 F8'
_cell_volume   543.21038148
_cell_formula_units_Z   4
loop_
 _symmetry_equiv_pos_site_id
 _symmetry_equiv_pos_as_xyz
  1  'x, y, z'
loop_
 _atom_site_type_symbol
 _atom_site_label
 _atom_site_symmetry_multiplicity
 _atom_site_fract_x
 _atom_site_fract_y
 _atom_site_fract_z
 _atom_site_occupancy
  Li  Li0  1  0.04465400  0.07134600  0.36429600  1
  Li  Li1  1  0.54469700  0.57134800  0.36425900  1
  Li  Li2  1  0.79464300  0.32136700  0.86429400  1
  Li  Li3  1  0.29468100  0.82136400  0.86426800  1
  Li  Li4  1  0.44035400  0.32090400  0.23473800  1
  Li  Li5  1  0.94032700  0.82089400  0.23477200  1
  Li  Li6  1  0.19037500  0.57090100  0.73478100  1
  Li  Li7  1  0.69037100  0.07089700  0.73476500  1
  Li  Li8  1  0.35945100  0.14933300  0.47075400  1
  Li  Li9  1  0.85945200  0.64936600  0.47075100  1
  Li  Li10  1  0.10941500  0.39932500  0.97074300  1
  Li  Li11  1  0.60945200  0.89935700  0.97074400  1
  Li  Li12  1  0.10605100  0.36679900  0.56973200  1
  Li  Li13  1  0.60605800  0.86684200  0.56973300  1
  Li  Li14  1  0.85603300  0.61680000  0.06971100  1
  Li  Li15  1  0.35607500  0.11682500  0.06972400  1
  Li  Li16  1  0.04063100  0.16258700  0.75851700  1
  Li  Li17  1  0.54067500  0.66261200  0.75847700  1
  Li  Li18  1  0.79061700  0.41260800  0.25850200  1
  Li  Li19  1  0.29066100  0.91260100  0.25851300  1
  Li  Li20  1  0.49928300  0.44180500  0.61541200  1
  Li  Li21  1  0.99932200  0.94179300  0.61539100  1
  Li  Li22  1  0.24927100  0.69183200  0.11540800  1
  Li  Li23  1  0.74927800  0.19181200  0.11539100  1
  Li  Li24  1  0.38427400  0.26694300  0.84556300  1
  Li  Li25  1  0.88428300  0.76694400  0.84553700  1
  Li  Li26  1  0.13427400  0.51694700  0.34554000  1
  Li  Li27  1  0.63425700  0.01695200  0.34555400  1
  Mn  Mn28  1  0.26168400  0.74912900  0.49478600  1
  Mn  Mn29  1  0.01154300  0.99913800  0.99482900  1
  Mn  Mn30  1  0.76154200  0.24916000  0.49483100  1
  Mn  Mn31  1  0.51141900  0.49914600  0.99486700  1
  O  O32  1  0.07406700  0.01324400  0.17976800  1
  O  O33  1  0.57403500  0.51326200  0.17976300  1
  O  O34  1  0.82408400  0.26331200  0.67975300  1
  O  O35  1  0.32407700  0.76325000  0.67976000  1
  O  O36  1  0.27617800  0.95631100  0.45057600  1
  O  O37  1  0.77616400  0.45641200  0.45053700  1
  O  O38  1  0.02614400  0.20632700  0.95058400  1
  O  O39  1  0.52612300  0.70636100  0.95056700  1
  O  O40  1  0.27080200  0.54471400  0.52483400  1
  O  O41  1  0.77076500  0.04478500  0.52486100  1
  O  O42  1  0.02077600  0.79473800  0.02484000  1
  O  O43  1  0.52074400  0.29478700  0.02485400  1
  O  O44  1  0.40143600  0.47316200  0.82378100  1
  O  O45  1  0.90149800  0.97310900  0.82381900  1
  O  O46  1  0.15151600  0.72316100  0.32383400  1
  O  O47  1  0.65149600  0.22317900  0.32382000  1
  F  F48  1  0.16319100  0.26900600  0.38514200  1
  F  F49  1  0.66319800  0.76900000  0.38514000  1
  F  F50  1  0.91319600  0.51900800  0.88513400  1
  F  F51  1  0.41320200  0.01900400  0.88514400  1
  F  F52  1  0.33191500  0.24754800  0.63939400  1
  F  F53  1  0.83190200  0.74755700  0.63938500  1
  F  F54  1  0.08193200  0.49754700  0.13938400  1
  F  F55  1  0.58191500  0.99755600  0.13938600  1
