# generated using pymatgen
data_Li6MnV3(PO4)6
_symmetry_space_group_name_H-M   'P 1'
_cell_length_a   8.56008800
_cell_length_b   8.57894850
_cell_length_c   8.62783478
_cell_angle_alpha   62.14862506
_cell_angle_beta   62.26031844
_cell_angle_gamma   62.42671141
_symmetry_Int_Tables_number   1
_chemical_formula_structural   Li6MnV3(PO4)6
_chemical_formula_sum   'Li6 Mn1 V3 P6 O24'
_cell_volume   470.80373548
_cell_formula_units_Z   1
loop_
 _symmetry_equiv_pos_site_id
 _symmetry_equiv_pos_as_xyz
  1  'x, y, z'
loop_
 _atom_site_type_symbol
 _atom_site_label
 _atom_site_symmetry_multiplicity
 _atom_site_fract_x
 _atom_site_fract_y
 _atom_site_fract_z
 _atom_site_occupancy
  Li  Li0  1  0.98137200  0.00935400  0.99772500  1
  Li  Li1  1  0.23916800  0.65274100  0.86048800  1
  Li  Li2  1  0.52835700  0.50043400  0.49368700  1
  Li  Li3  1  0.77651400  0.34101800  0.15241200  1
  Li  Li4  1  0.33621400  0.15797900  0.77386700  1
  Li  Li5  1  0.15708900  0.77636900  0.33852400  1
  Mn  Mn6  1  0.15063400  0.15204200  0.15193200  1
  V  V7  1  0.85862000  0.86220800  0.85690000  1
  V  V8  1  0.64295200  0.64772800  0.63828300  1
  V  V9  1  0.35471900  0.35435900  0.35271800  1
  P  P10  1  0.94422600  0.55385000  0.24912400  1
  P  P11  1  0.55622600  0.24985900  0.94129000  1
  P  P12  1  0.25058000  0.94600100  0.55135800  1
  P  P13  1  0.74547100  0.04284500  0.45943800  1
  P  P14  1  0.45708100  0.74627100  0.03673100  1
  P  P15  1  0.04281500  0.46448600  0.74636700  1
  O  O16  1  0.87660700  0.52402200  0.68277400  1
  O  O17  1  0.66919600  0.88592800  0.51063400  1
  O  O18  1  0.95209600  0.73590000  0.08243700  1
  O  O19  1  0.48320400  0.68364500  0.88117300  1
  O  O20  1  0.75622200  0.58688900  0.40770800  1
  O  O21  1  0.95180200  0.40075900  0.19800400  1
  O  O22  1  0.74560000  0.09300500  0.92545600  1
  O  O23  1  0.57461400  0.41836100  0.75580600  1
  O  O24  1  0.40777500  0.75249900  0.58037800  1
  O  O25  1  0.80449700  0.00695100  0.61739600  1
  O  O26  1  0.90340300  0.04795600  0.27221000  1
  O  O27  1  0.62607500  0.79247600  0.99742100  1
  O  O28  1  0.39981400  0.19825200  0.95447500  1
  O  O29  1  0.10004100  0.92620000  0.74581600  1
  O  O30  1  0.19263800  0.96039300  0.40122000  1
  O  O31  1  0.59157700  0.23760400  0.43182400  1
  O  O32  1  0.43318700  0.58864300  0.22963600  1
  O  O33  1  0.27072500  0.90662600  0.05370000  1
  O  O34  1  0.02717100  0.61924500  0.80279200  1
  O  O35  1  0.23317600  0.43480400  0.58977800  1
  O  O36  1  0.51262400  0.30315600  0.10744800  1
  O  O37  1  0.04569400  0.27688100  0.90532100  1
  O  O38  1  0.30869900  0.11028000  0.50817600  1
  O  O39  1  0.11152400  0.50098200  0.30857500  1
