# generated using pymatgen
data_LiVFeP2(HO5)2
_symmetry_space_group_name_H-M   'P 1'
_cell_length_a   5.30510900
_cell_length_b   7.41785468
_cell_length_c   14.72749824
_cell_angle_alpha   95.80045703
_cell_angle_beta   92.14622567
_cell_angle_gamma   110.15595080
_symmetry_Int_Tables_number   1
_chemical_formula_structural   LiVFeP2(HO5)2
_chemical_formula_sum   'Li3 V3 Fe3 P6 H6 O30'
_cell_volume   539.66185316
_cell_formula_units_Z   3
loop_
 _symmetry_equiv_pos_site_id
 _symmetry_equiv_pos_as_xyz
  1  'x, y, z'
loop_
 _atom_site_type_symbol
 _atom_site_label
 _atom_site_symmetry_multiplicity
 _atom_site_fract_x
 _atom_site_fract_y
 _atom_site_fract_z
 _atom_site_occupancy
  Li  Li0  1  0.07860900  0.48931500  0.64331900  1
  Li  Li1  1  0.58748800  0.17726900  0.02176900  1
  Li  Li2  1  0.74618000  0.15505800  0.31106000  1
  V  V3  1  0.33326500  0.33321100  0.83305800  1
  V  V4  1  0.66652100  0.66668400  0.16629900  1
  V  V5  1  0.99948500  0.99673100  0.50162300  1
  Fe  Fe6  1  0.33470300  0.33967900  0.33435600  1
  Fe  Fe7  1  0.66693900  0.67318300  0.66826000  1
  Fe  Fe8  1  0.99716600  0.99135900  0.99730200  1
  P  P9  1  0.01986700  0.37519600  0.15050000  1
  P  P10  1  0.31243400  0.95738300  0.18200700  1
  P  P11  1  0.35471700  0.71010000  0.48433400  1
  P  P12  1  0.64292700  0.28732000  0.51636600  1
  P  P13  1  0.69069700  0.04654100  0.81663200  1
  P  P14  1  0.97518800  0.61913900  0.84940800  1
  H  H15  1  0.04512900  0.98381100  0.33203800  1
  H  H16  1  0.28856000  0.34883700  0.00183000  1
  H  H17  1  0.37621400  0.31723200  0.66412900  1
  H  H18  1  0.64351300  0.67933300  0.33596200  1
  H  H19  1  0.68935800  0.65323300  0.99660600  1
  H  H20  1  0.97707600  0.01301700  0.67061800  1
  O  O21  1  0.06825800  0.82645300  0.89787100  1
  O  O22  1  0.03284000  0.83692600  0.21395700  1
  O  O23  1  0.14897200  0.80686600  0.45770000  1
  O  O24  1  0.30095900  0.97180900  0.07887800  1
  O  O25  1  0.03132600  0.36081300  0.25383100  1
  O  O26  1  0.18455300  0.52480500  0.87570300  1
  O  O27  1  0.36653700  0.69683400  0.58788500  1
  O  O28  1  0.04382800  0.09281000  0.37650100  1
  O  O29  1  0.26503700  0.50613800  0.43203800  1
  O  O30  1  0.29979800  0.49647600  0.11895500  1
  O  O31  1  0.28752400  0.23936400  0.95719400  1
  O  O32  1  0.52782500  0.87008600  0.21102000  1
  O  O33  1  0.37893200  0.42702300  0.70918600  1
  O  O34  1  0.59796200  0.83915200  0.76835400  1
  O  O35  1  0.63474300  0.83203500  0.45211300  1
  O  O36  1  0.36382700  0.17198900  0.55084800  1
  O  O37  1  0.41137900  0.16044600  0.23750900  1
  O  O38  1  0.60287000  0.57208300  0.28574900  1
  O  O39  1  0.48157700  0.14133100  0.79067700  1
  O  O40  1  0.73086900  0.76087300  0.04700300  1
  O  O41  1  0.69736300  0.50299700  0.88515600  1
  O  O42  1  0.74369400  0.49348900  0.56814900  1
  O  O43  1  0.93409300  0.90511500  0.62016300  1
  O  O44  1  0.61763100  0.28246500  0.41172700  1
  O  O45  1  0.80475900  0.46305000  0.12195000  1
  O  O46  1  0.94794600  0.61337700  0.74452600  1
  O  O47  1  0.71737600  0.05206500  0.92147600  1
  O  O48  1  0.86042100  0.20183700  0.54522400  1
  O  O49  1  0.96888600  0.16294800  0.78120100  1
  O  O50  1  0.92182000  0.17248400  0.09520800  1
