# generated using pymatgen
data_Li5V3Cu(PO4)4
_symmetry_space_group_name_H-M   'P 1'
_cell_length_a   7.81651517
_cell_length_b   7.81651517
_cell_length_c   10.61839428
_cell_angle_alpha   89.84298970
_cell_angle_beta   89.84298970
_cell_angle_gamma   102.73033888
_symmetry_Int_Tables_number   1
_chemical_formula_structural   Li5V3Cu(PO4)4
_chemical_formula_sum   'Li10 V6 Cu2 P8 O32'
_cell_volume   632.80773400
_cell_formula_units_Z   2
loop_
 _symmetry_equiv_pos_site_id
 _symmetry_equiv_pos_as_xyz
  1  'x, y, z'
loop_
 _atom_site_type_symbol
 _atom_site_label
 _atom_site_symmetry_multiplicity
 _atom_site_fract_x
 _atom_site_fract_y
 _atom_site_fract_z
 _atom_site_occupancy
  Li  Li0  1  0.03985100  0.30079300  0.86159700  1
  Li  Li1  1  0.26046000  0.52872100  0.50701400  1
  Li  Li2  1  0.52872100  0.26046000  0.50701400  1
  Li  Li3  1  0.75503900  0.50623700  0.99545800  1
  Li  Li4  1  0.50623700  0.75503900  0.99545800  1
  Li  Li5  1  0.30079300  0.03985100  0.86159700  1
  Li  Li6  1  0.16567500  0.16567500  0.07578400  1
  Li  Li7  1  0.72470700  0.97679000  0.46136600  1
  Li  Li8  1  0.97679000  0.72470700  0.46136600  1
  Li  Li9  1  0.88136300  0.88136300  0.67430200  1
  V  V10  1  0.36788100  0.36788100  0.22785900  1
  V  V11  1  0.86157300  0.35512900  0.26711300  1
  V  V12  1  0.35512900  0.86157300  0.26711300  1
  V  V13  1  0.85108600  0.85108600  0.21202700  1
  V  V14  1  0.14311200  0.64546300  0.77697500  1
  V  V15  1  0.64546300  0.14311200  0.77697500  1
  Cu  Cu16  1  0.19924800  0.19924800  0.64578000  1
  Cu  Cu17  1  0.61907300  0.61907300  0.71729200  1
  P  P18  1  0.08306700  0.56573900  0.08864900  1
  P  P19  1  0.42773600  0.42773600  0.91681100  1
  P  P20  1  0.57427000  0.57427000  0.40371900  1
  P  P21  1  0.06411400  0.06411400  0.39504800  1
  P  P22  1  0.43136700  0.92046000  0.59230900  1
  P  P23  1  0.92046000  0.43136700  0.59230900  1
  P  P24  1  0.56573900  0.08306700  0.08864900  1
  P  P25  1  0.91905800  0.91905800  0.91474100  1
  O  O26  1  0.26832300  0.26832300  0.91596700  1
  O  O27  1  0.08195500  0.39158500  0.67099900  1
  O  O28  1  0.11307800  0.39298900  0.15650200  1
  O  O29  1  0.02624100  0.51848100  0.94988700  1
  O  O30  1  0.48685100  0.48685100  0.05275700  1
  O  O31  1  0.38364200  0.59021200  0.84861200  1
  O  O32  1  0.07899100  0.88003000  0.83854400  1
  O  O33  1  0.59021200  0.38364200  0.84861200  1
  O  O34  1  0.24041700  0.71898000  0.10025800  1
  O  O35  1  0.61173300  0.40619000  0.33716400  1
  O  O36  1  0.40619000  0.61173300  0.33716400  1
  O  O37  1  0.09851300  0.89556100  0.32610200  1
  O  O38  1  0.27925400  0.75991600  0.60394900  1
  O  O39  1  0.75991600  0.27925400  0.60394900  1
  O  O40  1  0.51886300  0.51886300  0.53973000  1
  O  O41  1  0.00263200  0.00263200  0.53021600  1
  O  O42  1  0.98235600  0.46879800  0.45349400  1
  O  O43  1  0.46879800  0.98235600  0.45349400  1
  O  O44  1  0.22074200  0.22074200  0.39048400  1
  O  O45  1  0.73229000  0.73229000  0.39219100  1
  O  O46  1  0.76164500  0.76164500  0.91438000  1
  O  O47  1  0.61063400  0.89947800  0.64990000  1
  O  O48  1  0.39158500  0.08195500  0.67099900  1
  O  O49  1  0.89947800  0.61063400  0.64990000  1
  O  O50  1  0.59952100  0.91321400  0.15740500  1
  O  O51  1  0.39298900  0.11307800  0.15650200  1
  O  O52  1  0.91321400  0.59952100  0.15740500  1
  O  O53  1  0.51848100  0.02624100  0.94988700  1
  O  O54  1  0.97773900  0.97773900  0.04968100  1
  O  O55  1  0.88003000  0.07899100  0.83854400  1
  O  O56  1  0.71898000  0.24041700  0.10025800  1
  O  O57  1  0.89556100  0.09851300  0.32610200  1
