# generated using pymatgen
data_Li8Fe(O2F)2
_symmetry_space_group_name_H-M   'P 1'
_cell_length_a   5.82389284
_cell_length_b   9.00614473
_cell_length_c   12.07763273
_cell_angle_alpha   104.17013827
_cell_angle_beta   91.56185311
_cell_angle_gamma   90.07758836
_symmetry_Int_Tables_number   1
_chemical_formula_structural   Li8Fe(O2F)2
_chemical_formula_sum   'Li32 Fe4 O16 F8'
_cell_volume   613.95761330
_cell_formula_units_Z   4
loop_
 _symmetry_equiv_pos_site_id
 _symmetry_equiv_pos_as_xyz
  1  'x, y, z'
loop_
 _atom_site_type_symbol
 _atom_site_label
 _atom_site_symmetry_multiplicity
 _atom_site_fract_x
 _atom_site_fract_y
 _atom_site_fract_z
 _atom_site_occupancy
  Li  Li0  1  0.29336400  0.19209200  0.17360100  1
  Li  Li1  1  0.79337200  0.69205800  0.17365300  1
  Li  Li2  1  0.04333500  0.44214600  0.67296900  1
  Li  Li3  1  0.54320600  0.94226800  0.67307300  1
  Li  Li4  1  0.95675600  0.55788900  0.32695300  1
  Li  Li5  1  0.45669900  0.05789400  0.32708900  1
  Li  Li6  1  0.70653800  0.80799000  0.82635400  1
  Li  Li7  1  0.20664100  0.30778700  0.82628300  1
  Li  Li8  1  0.96446600  0.23054400  0.30741700  1
  Li  Li9  1  0.46432400  0.73064600  0.30744600  1
  Li  Li10  1  0.71439200  0.48067200  0.80690000  1
  Li  Li11  1  0.21429300  0.98061400  0.80703800  1
  Li  Li12  1  0.28559300  0.51937700  0.19292200  1
  Li  Li13  1  0.78562300  0.01924800  0.19303300  1
  Li  Li14  1  0.03550200  0.76935400  0.69258700  1
  Li  Li15  1  0.53557900  0.26946600  0.69242700  1
  Li  Li16  1  0.52073200  0.42556400  0.35689500  1
  Li  Li17  1  0.02067100  0.92540900  0.35698700  1
  Li  Li18  1  0.27059400  0.67551600  0.85653000  1
  Li  Li19  1  0.77061600  0.17556500  0.85641400  1
  Li  Li20  1  0.72934400  0.32451800  0.14360600  1
  Li  Li21  1  0.22946600  0.82444800  0.14360400  1
  Li  Li22  1  0.47930000  0.57459000  0.64301000  1
  Li  Li23  1  0.97920600  0.07430900  0.64304100  1
  Li  Li24  1  0.08588600  0.30965900  0.05022300  1
  Li  Li25  1  0.58595200  0.80962600  0.05021100  1
  Li  Li26  1  0.83588100  0.56026900  0.54992700  1
  Li  Li27  1  0.33586100  0.06006100  0.55003900  1
  Li  Li28  1  0.16412000  0.43991500  0.44989600  1
  Li  Li29  1  0.66409000  0.93986500  0.45007600  1
  Li  Li30  1  0.91405500  0.69024400  0.94973300  1
  Li  Li31  1  0.41398200  0.19031700  0.94970900  1
  Fe  Fe32  1  0.50001000  0.50005300  0.99998100  1
  Fe  Fe33  1  0.24999000  0.75001400  0.50010300  1
  Fe  Fe34  1  0.00001300  0.99997500  0.00004500  1
  Fe  Fe35  1  0.75030500  0.25006900  0.50012400  1
  O  O36  1  0.95754700  0.17255600  0.13871300  1
  O  O37  1  0.45764900  0.67260600  0.13871800  1
  O  O38  1  0.70749000  0.42320200  0.63822100  1
  O  O39  1  0.20725400  0.92318000  0.63844600  1
  O  O40  1  0.29269500  0.57688600  0.36167200  1
  O  O41  1  0.79265000  0.07689100  0.36188200  1
  O  O42  1  0.04231800  0.82744400  0.86127800  1
  O  O43  1  0.54243200  0.32744000  0.86128600  1
  O  O44  1  0.41956800  0.33905100  0.09726100  1
  O  O45  1  0.91969200  0.83900700  0.09729100  1
  O  O46  1  0.16966400  0.58872700  0.59731300  1
  O  O47  1  0.66954900  0.08879700  0.59737300  1
  O  O48  1  0.83041600  0.41121100  0.40265800  1
  O  O49  1  0.33028400  0.91131400  0.40272300  1
  O  O50  1  0.58040400  0.66102400  0.90273400  1
  O  O51  1  0.08032600  0.16095600  0.90272700  1
  F  F52  1  0.30332100  0.25070000  0.34362200  1
  F  F53  1  0.80329800  0.75091000  0.34401800  1
  F  F54  1  0.05438000  0.50134000  0.84254300  1
  F  F55  1  0.55396900  0.00127600  0.84221500  1
  F  F56  1  0.94606600  0.49872300  0.15777200  1
  F  F57  1  0.44582700  0.99837200  0.15747800  1
  F  F58  1  0.69676600  0.74906800  0.65584900  1
  F  F59  1  0.19667700  0.24928400  0.65630800  1
