# generated using pymatgen
data_LiTi2P4H3O16
_symmetry_space_group_name_H-M   'P 1'
_cell_length_a   5.02172400
_cell_length_b   7.42692171
_cell_length_c   8.06822798
_cell_angle_alpha   90.18767390
_cell_angle_beta   92.35186560
_cell_angle_gamma   102.25941055
_symmetry_Int_Tables_number   1
_chemical_formula_structural   LiTi2P4H3O16
_chemical_formula_sum   'Li1 Ti2 P4 H3 O16'
_cell_volume   293.78046472
_cell_formula_units_Z   1
loop_
 _symmetry_equiv_pos_site_id
 _symmetry_equiv_pos_as_xyz
  1  'x, y, z'
loop_
 _atom_site_type_symbol
 _atom_site_label
 _atom_site_symmetry_multiplicity
 _atom_site_fract_x
 _atom_site_fract_y
 _atom_site_fract_z
 _atom_site_occupancy
  Li  Li0  1  0.39322200  0.85065600  0.12126600  1
  Ti  Ti1  1  0.98468300  0.48586900  0.00184600  1
  Ti  Ti2  1  0.49388700  0.00610200  0.50517900  1
  P  P3  1  0.10065400  0.25067800  0.66522000  1
  P  P4  1  0.38837800  0.23652900  0.15306700  1
  P  P5  1  0.60708600  0.75387600  0.84397800  1
  P  P6  1  0.89641500  0.75128700  0.33223400  1
  H  H7  1  0.40720200  0.42997700  0.55306900  1
  H  H8  1  0.59607100  0.57351800  0.45065900  1
  H  H9  1  0.93853300  0.97557700  0.98034600  1
  O  O10  1  0.14611000  0.85856500  0.43232700  1
  O  O11  1  0.03013500  0.30604400  0.83751300  1
  O  O12  1  0.20053200  0.37754900  0.16295800  1
  O  O13  1  0.21874000  0.43694800  0.57140300  1
  O  O14  1  0.34848500  0.66732200  0.93503100  1
  O  O15  1  0.54191200  0.81668400  0.66693100  1
  O  O16  1  0.25639700  0.06297400  0.05740400  1
  O  O17  1  0.32631400  0.13825200  0.66785300  1
  O  O18  1  0.66191600  0.85662300  0.32169100  1
  O  O19  1  0.73646500  0.93034800  0.95333100  1
  O  O20  1  0.46687700  0.18459400  0.33414200  1
  O  O21  1  0.65682800  0.34443900  0.07399600  1
  O  O22  1  0.78072100  0.56405300  0.42518900  1
  O  O23  1  0.80420100  0.62129300  0.83590900  1
  O  O24  1  0.99163600  0.69705100  0.16443000  1
  O  O25  1  0.84684800  0.14793700  0.56779200  1
