# generated using pymatgen
data_LiCoSiO4
_symmetry_space_group_name_H-M   'P 1'
_cell_length_a   4.68660700
_cell_length_b   6.10365500
_cell_length_c   10.17497600
_cell_angle_alpha   90.00000000
_cell_angle_beta   90.00000000
_cell_angle_gamma   90.00000000
_symmetry_Int_Tables_number   1
_chemical_formula_structural   LiCoSiO4
_chemical_formula_sum   'Li4 Co4 Si4 O16'
_cell_volume   291.05958660
_cell_formula_units_Z   4
loop_
 _symmetry_equiv_pos_site_id
 _symmetry_equiv_pos_as_xyz
  1  'x, y, z'
loop_
 _atom_site_type_symbol
 _atom_site_label
 _atom_site_symmetry_multiplicity
 _atom_site_fract_x
 _atom_site_fract_y
 _atom_site_fract_z
 _atom_site_occupancy
  Li  Li0  1  0.03760000  0.75000000  0.28088600  1
  Li  Li1  1  0.46240000  0.75000000  0.78088600  1
  Li  Li2  1  0.53760000  0.25000000  0.21911400  1
  Li  Li3  1  0.96240000  0.25000000  0.71911400  1
  Co  Co4  1  0.00000000  0.00000000  0.00000000  1
  Co  Co5  1  0.50000000  0.00000000  0.50000000  1
  Co  Co6  1  0.50000000  0.50000000  0.50000000  1
  Co  Co7  1  0.00000000  0.50000000  0.00000000  1
  Si  Si8  1  0.09076100  0.25000000  0.41274400  1
  Si  Si9  1  0.40923900  0.25000000  0.91274400  1
  Si  Si10  1  0.59076100  0.75000000  0.08725600  1
  Si  Si11  1  0.90923900  0.75000000  0.58725600  1
  O  O12  1  0.26620200  0.25000000  0.56030900  1
  O  O13  1  0.23974800  0.02433400  0.35540800  1
  O  O14  1  0.23974800  0.47566600  0.35540800  1
  O  O15  1  0.24753400  0.75000000  0.08888600  1
  O  O16  1  0.25246600  0.75000000  0.58888600  1
  O  O17  1  0.26025200  0.47566600  0.85540800  1
  O  O18  1  0.26025200  0.02433400  0.85540800  1
  O  O19  1  0.23379800  0.25000000  0.06030900  1
  O  O20  1  0.76620200  0.75000000  0.93969100  1
  O  O21  1  0.73974800  0.52433400  0.14459200  1
  O  O22  1  0.73974800  0.97566600  0.14459200  1
  O  O23  1  0.74753400  0.25000000  0.41111400  1
  O  O24  1  0.75246600  0.25000000  0.91111400  1
  O  O25  1  0.76025200  0.97566600  0.64459200  1
  O  O26  1  0.76025200  0.52433400  0.64459200  1
  O  O27  1  0.73379800  0.75000000  0.43969100  1
