# generated using pymatgen
data_LiFe2P5O16
_symmetry_space_group_name_H-M   'P 1'
_cell_length_a   9.44866300
_cell_length_b   7.55536600
_cell_length_c   10.35461576
_cell_angle_alpha   68.32154861
_cell_angle_beta   90.00000000
_cell_angle_gamma   90.00000000
_symmetry_Int_Tables_number   1
_chemical_formula_structural   LiFe2P5O16
_chemical_formula_sum   'Li2 Fe4 P10 O32'
_cell_volume   686.91421427
_cell_formula_units_Z   2
loop_
 _symmetry_equiv_pos_site_id
 _symmetry_equiv_pos_as_xyz
  1  'x, y, z'
loop_
 _atom_site_type_symbol
 _atom_site_label
 _atom_site_symmetry_multiplicity
 _atom_site_fract_x
 _atom_site_fract_y
 _atom_site_fract_z
 _atom_site_occupancy
  Li  Li0  1  0.79996000  0.99834700  0.75270400  1
  Li  Li1  1  0.20004000  0.99834700  0.25270400  1
  Fe  Fe2  1  0.14073200  0.37823100  0.46600700  1
  Fe  Fe3  1  0.36946400  0.93421800  0.85868800  1
  Fe  Fe4  1  0.63053600  0.93421800  0.35868800  1
  Fe  Fe5  1  0.85926800  0.37823100  0.96600700  1
  P  P6  1  0.86150400  0.61977100  0.36985800  1
  P  P7  1  0.29492000  0.57314300  0.12644700  1
  P  P8  1  0.87423900  0.28202400  0.30032400  1
  P  P9  1  0.41662200  0.12353800  0.52438500  1
  P  P10  1  0.58337800  0.12353800  0.02438500  1
  P  P11  1  0.13849600  0.61977100  0.86985800  1
  P  P12  1  0.54176000  0.51887900  0.98741700  1
  P  P13  1  0.70508000  0.57314300  0.62644700  1
  P  P14  1  0.45824000  0.51887900  0.48741700  1
  P  P15  1  0.12576100  0.28202400  0.80032400  1
  O  O16  1  0.29755600  0.78826800  0.06724400  1
  O  O17  1  0.81977400  0.49812400  0.27973200  1
  O  O18  1  0.06524700  0.29682500  0.65980200  1
  O  O19  1  0.23167900  0.47384400  0.26667300  1
  O  O20  1  0.49432400  0.33239400  0.45542200  1
  O  O21  1  0.45225900  0.48655700  0.12890300  1
  O  O22  1  0.69790000  0.52098200  0.01871700  1
  O  O23  1  0.21367300  0.49911500  0.01757500  1
  O  O24  1  0.53420200  0.01138500  0.93822900  1
  O  O25  1  0.98886800  0.23184900  0.41258600  1
  O  O26  1  0.25688500  0.15109700  0.50603500  1
  O  O27  1  0.46472700  0.04642400  0.67538500  1
  O  O28  1  0.93475300  0.29682500  0.15980200  1
  O  O29  1  0.74437100  0.15703600  0.34786700  1
  O  O30  1  0.46579800  0.01138500  0.43822900  1
  O  O31  1  0.20030100  0.81562500  0.80288900  1
  O  O32  1  0.74311500  0.15109700  0.00603500  1
  O  O33  1  0.48043700  0.68829300  0.87318500  1
  O  O34  1  0.53527300  0.04642400  0.17538500  1
  O  O35  1  0.70244400  0.78826800  0.56724400  1
  O  O36  1  0.97950400  0.61837800  0.89336600  1
  O  O37  1  0.79969900  0.81562500  0.30288900  1
  O  O38  1  0.18022600  0.49812400  0.77973200  1
  O  O39  1  0.51956300  0.68829300  0.37318500  1
  O  O40  1  0.76832100  0.47384400  0.76667300  1
  O  O41  1  0.50567600  0.33239400  0.95542200  1
  O  O42  1  0.02049600  0.61837800  0.39336600  1
  O  O43  1  0.54774100  0.48655700  0.62890300  1
  O  O44  1  0.30210000  0.52098200  0.51871700  1
  O  O45  1  0.78632700  0.49911500  0.51757500  1
  O  O46  1  0.01113200  0.23184900  0.91258600  1
  O  O47  1  0.25562900  0.15703600  0.84786700  1
