# generated using pymatgen
data_LiPWO5
_symmetry_space_group_name_H-M   'P 1'
_cell_length_a   7.09787700
_cell_length_b   7.46169314
_cell_length_c   8.13231515
_cell_angle_alpha   89.67082537
_cell_angle_beta   92.38234979
_cell_angle_gamma   115.90471277
_symmetry_Int_Tables_number   1
_chemical_formula_structural   LiPWO5
_chemical_formula_sum   'Li4 P4 W4 O20'
_cell_volume   387.05688843
_cell_formula_units_Z   4
loop_
 _symmetry_equiv_pos_site_id
 _symmetry_equiv_pos_as_xyz
  1  'x, y, z'
loop_
 _atom_site_type_symbol
 _atom_site_label
 _atom_site_symmetry_multiplicity
 _atom_site_fract_x
 _atom_site_fract_y
 _atom_site_fract_z
 _atom_site_occupancy
  Li  Li0  1  0.29698900  0.81702300  0.43115800  1
  Li  Li1  1  0.21766800  0.29638500  0.06971500  1
  Li  Li2  1  0.78233200  0.70361500  0.93028500  1
  Li  Li3  1  0.70301100  0.18297700  0.56884200  1
  P  P4  1  0.23213800  0.74551000  0.09445700  1
  P  P5  1  0.26459800  0.24132600  0.40616500  1
  P  P6  1  0.73540200  0.75867400  0.59383500  1
  P  P7  1  0.76786200  0.25449000  0.90554300  1
  W  W8  1  0.24464900  0.49852100  0.74401600  1
  W  W9  1  0.24558300  0.00051500  0.75771800  1
  W  W10  1  0.75441700  0.99948500  0.24228200  1
  W  W11  1  0.75535100  0.50147900  0.25598400  1
  O  O12  1  0.12819100  0.84501400  0.97726300  1
  O  O13  1  0.08656100  0.64516000  0.23877500  1
  O  O14  1  0.24332700  0.75143400  0.66343100  1
  O  O15  1  0.27450400  0.58960000  0.99668800  1
  O  O16  1  0.20080500  0.37643100  0.50965200  1
  O  O17  1  0.43309600  0.90341500  0.18144400  1
  O  O18  1  0.07306000  0.09407200  0.30223900  1
  O  O19  1  0.26594000  0.25897800  0.84155500  1
  O  O20  1  0.64530600  0.87610800  0.48084100  1
  O  O21  1  0.42380500  0.36314100  0.27654600  1
  O  O22  1  0.57619500  0.63685900  0.72345400  1
  O  O23  1  0.35469400  0.12389200  0.51915900  1
  O  O24  1  0.73406000  0.74102200  0.15844500  1
  O  O25  1  0.92694000  0.90592800  0.69776100  1
  O  O26  1  0.56690400  0.09658500  0.81855600  1
  O  O27  1  0.79919500  0.62356900  0.49034800  1
  O  O28  1  0.72549600  0.41040000  0.00331200  1
  O  O29  1  0.75667300  0.24856600  0.33656900  1
  O  O30  1  0.91343900  0.35484000  0.76122500  1
  O  O31  1  0.87180900  0.15498600  0.02273700  1
