# generated using pymatgen
data_Li9FeCo12(PO4)12
_symmetry_space_group_name_H-M   'P 1'
_cell_length_a   6.39136500
_cell_length_b   11.13888892
_cell_length_c   15.22902805
_cell_angle_alpha   70.24472312
_cell_angle_beta   85.88332634
_cell_angle_gamma   86.78146133
_symmetry_Int_Tables_number   1
_chemical_formula_structural   Li9FeCo12(PO4)12
_chemical_formula_sum   'Li9 Fe1 Co12 P12 O48'
_cell_volume   1017.16548641
_cell_formula_units_Z   1
loop_
 _symmetry_equiv_pos_site_id
 _symmetry_equiv_pos_as_xyz
  1  'x, y, z'
loop_
 _atom_site_type_symbol
 _atom_site_label
 _atom_site_symmetry_multiplicity
 _atom_site_fract_x
 _atom_site_fract_y
 _atom_site_fract_z
 _atom_site_occupancy
  Li  Li0  1  0.49997500  0.15985100  0.64299100  1
  Li  Li1  1  0.95540400  0.38857700  0.35814800  1
  Li  Li2  1  0.49207200  0.34360400  0.39850100  1
  Li  Li3  1  0.00236200  0.84327200  0.38349000  1
  Li  Li4  1  0.50002500  0.84014900  0.35700900  1
  Li  Li5  1  0.00000000  0.00000000  0.00000000  1
  Li  Li6  1  0.04459600  0.61142300  0.64185200  1
  Li  Li7  1  0.50792800  0.65639600  0.60149900  1
  Li  Li8  1  0.99763800  0.15672800  0.61651000  1
  Fe  Fe9  1  0.50000000  0.50000000  0.00000000  1
  Co  Co10  1  0.30564100  0.03194500  0.50621100  1
  Co  Co11  1  0.71517000  0.41996300  0.19365100  1
  Co  Co12  1  0.28483000  0.58003700  0.80634900  1
  Co  Co13  1  0.25587300  0.57404200  0.39972400  1
  Co  Co14  1  0.69435900  0.96805500  0.49378900  1
  Co  Co15  1  0.17772900  0.76083700  0.23694600  1
  Co  Co16  1  0.49240900  0.13860100  0.26477400  1
  Co  Co17  1  0.98738300  0.17900800  0.19551100  1
  Co  Co18  1  0.01261700  0.82099200  0.80448900  1
  Co  Co19  1  0.50759100  0.86139900  0.73522600  1
  Co  Co20  1  0.82227100  0.23916300  0.76305400  1
  Co  Co21  1  0.74412700  0.42595800  0.60027600  1
  P  P22  1  0.73396200  0.55052600  0.45020300  1
  P  P23  1  0.44491300  0.20237900  0.91009000  1
  P  P24  1  0.55508700  0.79762100  0.08991000  1
  P  P25  1  0.77739500  0.94551600  0.18331000  1
  P  P26  1  0.26603800  0.44947400  0.54979700  1
  P  P27  1  0.11205700  0.86985600  0.58396100  1
  P  P28  1  0.77007200  0.53035300  0.79018000  1
  P  P29  1  0.61829000  0.72309100  0.95213900  1
  P  P30  1  0.38171000  0.27690900  0.04786100  1
  P  P31  1  0.22992800  0.46964700  0.20982000  1
  P  P32  1  0.88794300  0.13014400  0.41603900  1
  P  P33  1  0.22260500  0.05448400  0.81669000  1
  O  O34  1  0.07205200  0.94761800  0.86884400  1
  O  O35  1  0.42501600  0.02076100  0.76966500  1
  O  O36  1  0.49039500  0.01979800  0.40194200  1
  O  O37  1  0.06129400  0.14411100  0.48056100  1
  O  O38  1  0.69880300  0.68026600  0.46511600  1
  O  O39  1  0.99083500  0.08275500  0.33808800  1
  O  O40  1  0.75535500  0.25433900  0.39188500  1
  O  O41  1  0.41273700  0.38317600  0.26789500  1
  O  O42  1  0.58726300  0.61682400  0.73210500  1
  O  O43  1  0.24464500  0.74566100  0.60811500  1
  O  O44  1  0.00916500  0.91724500  0.66191200  1
  O  O45  1  0.30119700  0.31973400  0.53488400  1
  O  O46  1  0.93870600  0.85588900  0.51943900  1
  O  O47  1  0.55869400  0.51709600  0.39659800  1
  O  O48  1  0.94973500  0.52529400  0.40552600  1
  O  O49  1  0.50960500  0.98020200  0.59805800  1
  O  O50  1  0.55770100  0.18816600  0.01060100  1
  O  O51  1  0.92794800  0.05238200  0.13115600  1
  O  O52  1  0.57498400  0.97923900  0.23033500  1
  O  O53  1  0.23294100  0.26612800  0.97107800  1
  O  O54  1  0.64559500  0.14678800  0.87114400  1
  O  O55  1  0.17486600  0.57769100  0.25089200  1
  O  O56  1  0.72975900  0.89922000  0.09476000  1
  O  O57  1  0.70834100  0.48336300  0.89415900  1
  O  O58  1  0.72758100  0.45973800  0.07264500  1
  O  O59  1  0.56383100  0.66722500  0.18417200  1
  O  O60  1  0.03128300  0.38261300  0.23434900  1
  O  O61  1  0.25509400  0.41933400  0.79849000  1
  O  O62  1  0.25061300  0.75201500  0.36267900  1
  O  O63  1  0.71257400  0.24715600  0.20747100  1
  O  O64  1  0.29060500  0.20664700  0.14946700  1
  O  O65  1  0.88786400  0.83398500  0.25739200  1
  O  O66  1  0.11213600  0.16601500  0.74260800  1
  O  O67  1  0.70939500  0.79335300  0.85053300  1
  O  O68  1  0.28742600  0.75284400  0.79252900  1
  O  O69  1  0.74938700  0.24798500  0.63732100  1
  O  O70  1  0.74490600  0.58066600  0.20151000  1
  O  O71  1  0.96871700  0.61738700  0.76565100  1
  O  O72  1  0.43616900  0.33277500  0.81582800  1
  O  O73  1  0.27241900  0.54026200  0.92735500  1
  O  O74  1  0.29165900  0.51663700  0.10584100  1
  O  O75  1  0.27024100  0.10078000  0.90524000  1
  O  O76  1  0.82513400  0.42230900  0.74910800  1
  O  O77  1  0.35440500  0.85321200  0.12885600  1
  O  O78  1  0.76705900  0.73387200  0.02892200  1
  O  O79  1  0.44229900  0.81183400  0.98939900  1
  O  O80  1  0.05026500  0.47470600  0.59447400  1
  O  O81  1  0.44130600  0.48290400  0.60340200  1
