# generated using pymatgen
data_Li5V3P8O29
_symmetry_space_group_name_H-M   'P 1'
_cell_length_a   9.79095700
_cell_length_b   9.82885962
_cell_length_c   14.07992492
_cell_angle_alpha   89.71405550
_cell_angle_beta   89.56733720
_cell_angle_gamma   60.26670616
_symmetry_Int_Tables_number   1
_chemical_formula_structural   Li5V3P8O29
_chemical_formula_sum   'Li10 V6 P16 O58'
_cell_volume   1176.54170033
_cell_formula_units_Z   2
loop_
 _symmetry_equiv_pos_site_id
 _symmetry_equiv_pos_as_xyz
  1  'x, y, z'
loop_
 _atom_site_type_symbol
 _atom_site_label
 _atom_site_symmetry_multiplicity
 _atom_site_fract_x
 _atom_site_fract_y
 _atom_site_fract_z
 _atom_site_occupancy
  Li  Li0  1  0.90415100  0.76883200  0.43976200  1
  Li  Li1  1  0.31449200  0.91410500  0.43528200  1
  Li  Li2  1  0.66278400  0.67561600  0.11175400  1
  Li  Li3  1  0.31801600  0.76854600  0.94361500  1
  Li  Li4  1  0.90977400  0.32081900  0.93923500  1
  Li  Li5  1  0.22300500  0.68802500  0.55630800  1
  Li  Li6  1  0.76877300  0.32441900  0.43856200  1
  Li  Li7  1  0.32332400  0.32857200  0.89293700  1
  Li  Li8  1  0.68127900  0.09095400  0.56149700  1
  Li  Li9  1  0.97358700  0.97586100  0.00375000  1
  V  V10  1  0.43686100  0.56839700  0.75099100  1
  V  V11  1  0.56918400  0.43027100  0.24800000  1
  V  V12  1  0.00447300  0.56529500  0.24643000  1
  V  V13  1  0.00203500  0.43295300  0.74924800  1
  V  V14  1  0.57046300  0.99684000  0.75410000  1
  V  V15  1  0.42957300  0.00411600  0.24825400  1
  P  P16  1  0.77907800  0.91168400  0.15882900  1
  P  P17  1  0.91394800  0.76619600  0.65937100  1
  P  P18  1  0.31970800  0.91501000  0.65618200  1
  P  P19  1  0.67087600  0.66307400  0.87294800  1
  P  P20  1  0.66579700  0.66664800  0.37053700  1
  P  P21  1  0.31832100  0.77306600  0.15811100  1
  P  P22  1  0.23209500  0.67942800  0.34026900  1
  P  P23  1  0.91282300  0.31537700  0.15451400  1
  P  P24  1  0.08845500  0.68944400  0.84306800  1
  P  P25  1  0.77136000  0.31709100  0.65642800  1
  P  P26  1  0.68692300  0.22466200  0.83979400  1
  P  P27  1  0.33635500  0.33595400  0.63070000  1
  P  P28  1  0.33488800  0.33322200  0.12854600  1
  P  P29  1  0.68258600  0.08465100  0.34254100  1
  P  P30  1  0.08247700  0.23062100  0.33894000  1
  P  P31  1  0.22328700  0.08528400  0.84042100  1
  O  O32  1  0.75415000  0.99843800  0.43364700  1
  O  O33  1  0.75183100  0.91798300  0.66310700  1
  O  O34  1  0.00830900  0.79181800  0.92506100  1
  O  O35  1  0.91943800  0.73898200  0.16764600  1
  O  O36  1  0.62795200  0.89929800  0.16610700  1
  O  O37  1  0.67163500  0.80722700  0.83149300  1
  O  O38  1  0.47749900  0.90750400  0.68001900  1
  O  O39  1  0.22176900  0.98592600  0.91984200  1
  O  O40  1  0.34258800  0.91695200  0.16734000  1
  O  O41  1  0.81599200  0.66715000  0.32573400  1
  O  O42  1  0.89513500  0.62262500  0.67914000  1
  O  O43  1  0.51435700  0.81500800  0.33245600  1
  O  O44  1  0.66025800  0.65737500  0.97904100  1
  O  O45  1  0.67444500  0.66391500  0.47635500  1
  O  O46  1  0.51822500  0.66368400  0.83112200  1
  O  O47  1  0.89905600  0.48031900  0.17022800  1
  O  O48  1  0.81897500  0.51057900  0.83567700  1
  O  O49  1  0.34182300  0.74480700  0.66556500  1
  O  O50  1  0.21033000  0.78777400  0.24931400  1
  O  O51  1  0.23718000  0.76100100  0.42895800  1
  O  O52  1  0.23480100  0.77760900  0.06941700  1
  O  O53  1  0.48300600  0.62710700  0.17144400  1
  O  O54  1  0.66867100  0.51534700  0.33133900  1
  O  O55  1  0.26401700  0.65682200  0.83824300  1
  O  O56  1  0.61901000  0.47638600  0.68146200  1
  O  O57  1  0.91233000  0.34061000  0.66189600  1
  O  O58  1  0.01469200  0.78201900  0.74435000  1
  O  O59  1  0.99912800  0.75345500  0.56745600  1
  O  O60  1  0.98696200  0.24063400  0.42305300  1
  O  O61  1  0.08271400  0.66094600  0.33995900  1
  O  O62  1  0.38137500  0.52185800  0.32387500  1
  O  O63  1  0.74308000  0.34302500  0.16410600  1
  O  O64  1  0.33676600  0.48605100  0.67661900  1
  O  O65  1  0.52324400  0.37777900  0.82951300  1
  O  O66  1  0.78426800  0.22061400  0.92112500  1
  O  O67  1  0.74826300  0.25186800  0.56595600  1
  O  O68  1  0.78291200  0.20261800  0.74185500  1
  O  O69  1  0.66481100  0.24961300  0.34048000  1
  O  O70  1  0.18174100  0.48293700  0.17373400  1
  O  O71  1  0.09822500  0.52744900  0.83643900  1
  O  O72  1  0.47741800  0.33850600  0.16981300  1
  O  O73  1  0.32561300  0.34475500  0.02295800  1
  O  O74  1  0.32662800  0.35530900  0.52603300  1
  O  O75  1  0.48607100  0.18650200  0.66653400  1
  O  O76  1  0.09064600  0.38280800  0.31948700  1
  O  O77  1  0.18819600  0.34001300  0.67946700  1
  O  O78  1  0.65213800  0.08742100  0.83811200  1
  O  O79  1  0.79718000  0.99052900  0.25576900  1
  O  O80  1  0.79976500  0.99265600  0.07636400  1
  O  O81  1  0.52422500  0.09353000  0.32118200  1
  O  O82  1  0.33071300  0.19026500  0.17002900  1
  O  O83  1  0.37156900  0.10371000  0.83061900  1
  O  O84  1  0.08018600  0.25260200  0.84172900  1
  O  O85  1  0.98934500  0.23958300  0.06344100  1
  O  O86  1  0.00690100  0.20618600  0.24246700  1
  O  O87  1  0.25027300  0.08713400  0.34006300  1
  O  O88  1  0.25408100  0.98221400  0.56237400  1
  O  O89  1  0.20287500  0.01230100  0.74078800  1
