# generated using pymatgen
data_Li10Ti3Co3(NiO8)2
_symmetry_space_group_name_H-M   'P 1'
_cell_length_a   5.98379700
_cell_length_b   5.98635127
_cell_length_c   9.89517334
_cell_angle_alpha   90.78206142
_cell_angle_beta   90.35064969
_cell_angle_gamma   119.56124390
_symmetry_Int_Tables_number   1
_chemical_formula_structural   Li10Ti3Co3(NiO8)2
_chemical_formula_sum   'Li10 Ti3 Co3 Ni2 O16'
_cell_volume   308.25375030
_cell_formula_units_Z   1
loop_
 _symmetry_equiv_pos_site_id
 _symmetry_equiv_pos_as_xyz
  1  'x, y, z'
loop_
 _atom_site_type_symbol
 _atom_site_label
 _atom_site_symmetry_multiplicity
 _atom_site_fract_x
 _atom_site_fract_y
 _atom_site_fract_z
 _atom_site_occupancy
  Li  Li0  1  0.63565600  0.30990800  0.21795000  1
  Li  Li1  1  0.82511600  0.21692500  0.45497200  1
  Li  Li2  1  0.79144800  0.60167500  0.44466600  1
  Li  Li3  1  0.38332500  0.20848900  0.45160600  1
  Li  Li4  1  0.32832400  0.65944900  0.71802200  1
  Li  Li5  1  0.19377200  0.82279200  0.92389400  1
  Li  Li6  1  0.59075200  0.80247400  0.93662700  1
  Li  Li7  1  0.18350300  0.36241000  0.92199600  1
  Li  Li8  1  0.98624300  0.97756700  0.52248500  1
  Li  Li9  1  0.97329700  0.98026100  0.01592700  1
  Ti  Ti10  1  0.81580100  0.63760300  0.71423500  1
  Ti  Ti11  1  0.64552500  0.82374800  0.22478200  1
  Ti  Ti12  1  0.14123500  0.80105200  0.20886200  1
  Co  Co13  1  0.82254300  0.15358300  0.71359500  1
  Co  Co14  1  0.32864500  0.15591900  0.71140400  1
  Co  Co15  1  0.14694200  0.31791000  0.21301600  1
  Ni  Ni16  1  0.65632600  0.31510800  0.96445200  1
  Ni  Ni17  1  0.31716400  0.64638400  0.47651400  1
  O  O18  1  0.82089900  0.66059700  0.10528100  1
  O  O19  1  0.97755700  0.49170700  0.83730100  1
  O  O20  1  0.79774300  0.12428200  0.10259700  1
  O  O21  1  0.66732500  0.34014700  0.58909100  1
  O  O22  1  0.51177000  0.49311700  0.83641900  1
  O  O23  1  0.50335700  0.00981400  0.83396400  1
  O  O24  1  0.65987100  0.79839200  0.59593100  1
  O  O25  1  0.29462300  0.12245600  0.10151000  1
  O  O26  1  0.47580600  0.96905300  0.33120700  1
  O  O27  1  0.32545900  0.67341400  0.10009800  1
  O  O28  1  0.13296200  0.79786300  0.59766800  1
  O  O29  1  0.48571700  0.50576300  0.32722000  1
  O  O30  1  0.00276900  0.50752900  0.32882900  1
  O  O31  1  0.15122200  0.30803400  0.58267200  1
  O  O32  1  0.96729000  0.95900500  0.32865200  1
  O  O33  1  0.98328900  0.96733300  0.83152700  1
