# generated using pymatgen
data_Li2MnNi3O8
_symmetry_space_group_name_H-M   'P 1'
_cell_length_a   8.11757700
_cell_length_b   8.20226461
_cell_length_c   8.20818729
_cell_angle_alpha   89.87847473
_cell_angle_beta   89.97417281
_cell_angle_gamma   89.92724745
_symmetry_Int_Tables_number   1
_chemical_formula_structural   Li2MnNi3O8
_chemical_formula_sum   'Li8 Mn4 Ni12 O32'
_cell_volume   546.52002483
_cell_formula_units_Z   4
loop_
 _symmetry_equiv_pos_site_id
 _symmetry_equiv_pos_as_xyz
  1  'x, y, z'
loop_
 _atom_site_type_symbol
 _atom_site_label
 _atom_site_symmetry_multiplicity
 _atom_site_fract_x
 _atom_site_fract_y
 _atom_site_fract_z
 _atom_site_occupancy
  Li  Li0  1  0.00050300  0.00028300  0.00086200  1
  Li  Li1  1  0.25086500  0.25033000  0.75076400  1
  Li  Li2  1  0.75292000  0.74796900  0.74829200  1
  Li  Li3  1  0.49894600  0.00122300  0.49702000  1
  Li  Li4  1  0.00288500  0.50153200  0.50356700  1
  Li  Li5  1  0.74857500  0.24901800  0.24788300  1
  Li  Li6  1  0.24669400  0.75388300  0.25215300  1
  Li  Li7  1  0.50160300  0.49877300  0.00086400  1
  Mn  Mn8  1  0.37543600  0.87121800  0.87622500  1
  Mn  Mn9  1  0.87274400  0.12404400  0.62338500  1
  Mn  Mn10  1  0.62208700  0.62172600  0.36995600  1
  Mn  Mn11  1  0.12414100  0.37360100  0.12456600  1
  Ni  Ni12  1  0.62814100  0.12149000  0.87670800  1
  Ni  Ni13  1  0.87425400  0.37095600  0.87826500  1
  Ni  Ni14  1  0.12466400  0.62795900  0.87882100  1
  Ni  Ni15  1  0.62341200  0.37369000  0.62291900  1
  Ni  Ni16  1  0.37584300  0.62675900  0.62341600  1
  Ni  Ni17  1  0.12660900  0.87970100  0.62812300  1
  Ni  Ni18  1  0.37508700  0.37783000  0.36858900  1
  Ni  Ni19  1  0.12447600  0.12768600  0.37710300  1
  Ni  Ni20  1  0.87283000  0.87657500  0.37565100  1
  Ni  Ni21  1  0.37663500  0.12596500  0.12385000  1
  Ni  Ni22  1  0.62622400  0.87221000  0.12380700  1
  Ni  Ni23  1  0.87649400  0.62413600  0.12652200  1
  O  O24  1  0.39342400  0.11130400  0.89108900  1
  O  O25  1  0.61676100  0.88709300  0.89198000  1
  O  O26  1  0.89256900  0.62044700  0.89660500  1
  O  O27  1  0.85684500  0.12309200  0.85931100  1
  O  O28  1  0.10811600  0.38097000  0.89190700  1
  O  O29  1  0.64260200  0.35032800  0.87486100  1
  O  O30  1  0.35757300  0.63932700  0.87472000  1
  O  O31  1  0.14295800  0.87357400  0.86186500  1
  O  O32  1  0.63257500  0.13855400  0.64385400  1
  O  O33  1  0.85980100  0.35986000  0.63862800  1
  O  O34  1  0.14239300  0.64665900  0.63729200  1
  O  O35  1  0.61328000  0.61009300  0.60460800  1
  O  O36  1  0.38060900  0.85968500  0.64510400  1
  O  O37  1  0.38725000  0.38867300  0.60050100  1
  O  O38  1  0.10722200  0.11173300  0.62395500  1
  O  O39  1  0.87173000  0.89132400  0.60322000  1
  O  O40  1  0.60488000  0.39024100  0.36982400  1
  O  O41  1  0.38713000  0.60716900  0.37331200  1
  O  O42  1  0.11494000  0.89821900  0.39309300  1
  O  O43  1  0.14080600  0.36071500  0.36275100  1
  O  O44  1  0.88241400  0.12376900  0.39245700  1
  O  O45  1  0.36831300  0.14603900  0.35415100  1
  O  O46  1  0.62869800  0.85765300  0.35432600  1
  O  O47  1  0.85876300  0.62665600  0.35768300  1
  O  O48  1  0.35918600  0.37375900  0.13997200  1
  O  O49  1  0.13622700  0.14280700  0.13013200  1
  O  O50  1  0.86215700  0.85714300  0.14295600  1
  O  O51  1  0.39487000  0.87791600  0.11115800  1
  O  O52  1  0.64195300  0.64112200  0.13287800  1
  O  O53  1  0.61939900  0.10129100  0.10845400  1
  O  O54  1  0.88636200  0.39350600  0.11713600  1
  O  O55  1  0.10626800  0.61086200  0.12091000  1
