# generated using pymatgen
data_Li4V7(PO4)6
_symmetry_space_group_name_H-M   'P 1'
_cell_length_a   9.04226663
_cell_length_b   9.04226663
_cell_length_c   6.65955188
_cell_angle_alpha   81.57107886
_cell_angle_beta   81.57107886
_cell_angle_gamma   104.61118815
_symmetry_Int_Tables_number   1
_chemical_formula_structural   Li4V7(PO4)6
_chemical_formula_sum   'Li4 V7 P6 O24'
_cell_volume   511.52863927
_cell_formula_units_Z   1
loop_
 _symmetry_equiv_pos_site_id
 _symmetry_equiv_pos_as_xyz
  1  'x, y, z'
loop_
 _atom_site_type_symbol
 _atom_site_label
 _atom_site_symmetry_multiplicity
 _atom_site_fract_x
 _atom_site_fract_y
 _atom_site_fract_z
 _atom_site_occupancy
  Li  Li0  1  0.75712400  0.75712400  0.48921300  1
  Li  Li1  1  0.54869300  0.24222600  0.53040200  1
  Li  Li2  1  0.24222600  0.54869300  0.53040200  1
  Li  Li3  1  0.06207900  0.06207900  0.54921000  1
  V  V4  1  0.97076300  0.36135200  0.19177600  1
  V  V5  1  0.36135200  0.97076300  0.19177600  1
  V  V6  1  0.61740100  0.37568600  0.99742200  1
  V  V7  1  0.37568600  0.61740100  0.99742200  1
  V  V8  1  0.99813400  0.99813400  0.00111400  1
  V  V9  1  0.64553300  0.01827100  0.80941600  1
  V  V10  1  0.01827100  0.64553400  0.80941600  1
  P  P11  1  0.28827200  0.90135700  0.71139800  1
  P  P12  1  0.90135700  0.28827200  0.71139800  1
  P  P13  1  0.68671300  0.68671300  0.04136300  1
  P  P14  1  0.30255900  0.30255900  0.96577400  1
  P  P15  1  0.71704300  0.08812100  0.28367900  1
  P  P16  1  0.08812100  0.71704300  0.28367900  1
  O  O17  1  0.60624500  0.77896800  0.89523100  1
  O  O18  1  0.77896800  0.60624500  0.89523100  1
  O  O19  1  0.78776700  0.78776700  0.16435000  1
  O  O20  1  0.96315700  0.38960700  0.86570100  1
  O  O21  1  0.38960700  0.96315700  0.86570100  1
  O  O22  1  0.11023500  0.89754000  0.76651200  1
  O  O23  1  0.89754000  0.11023500  0.76651200  1
  O  O24  1  0.72086700  0.27705300  0.72776100  1
  O  O25  1  0.27705300  0.72086700  0.72776100  1
  O  O26  1  0.54963500  0.54963500  0.17949300  1
  O  O27  1  0.43672800  0.43672800  0.81223300  1
  O  O28  1  0.11202400  0.89620600  0.21450000  1
  O  O29  1  0.89620600  0.11202400  0.21450000  1
  O  O30  1  0.26159400  0.70485600  0.27883800  1
  O  O31  1  0.70485600  0.26159400  0.27883800  1
  O  O32  1  0.66762800  0.98220900  0.49844400  1
  O  O33  1  0.98220900  0.66762800  0.49844400  1
  O  O34  1  0.19693400  0.19693400  0.85518100  1
  O  O35  1  0.61492600  0.02035600  0.13414200  1
  O  O36  1  0.02035600  0.61492600  0.13414200  1
  O  O37  1  0.39147900  0.21349600  0.10269000  1
  O  O38  1  0.21349600  0.39147900  0.10269000  1
  O  O39  1  0.35440600  0.00975000  0.50028600  1
  O  O40  1  0.00975000  0.35440600  0.50028600  1
