# generated using pymatgen
data_Li14Mn5F24
_symmetry_space_group_name_H-M   'P 1'
_cell_length_a   6.06882500
_cell_length_b   10.15400800
_cell_length_c   15.26753500
_cell_angle_alpha   90.00000000
_cell_angle_beta   90.00000000
_cell_angle_gamma   90.00000000
_symmetry_Int_Tables_number   1
_chemical_formula_structural   Li14Mn5F24
_chemical_formula_sum   'Li28 Mn10 F48'
_cell_volume   940.82974592
_cell_formula_units_Z   2
loop_
 _symmetry_equiv_pos_site_id
 _symmetry_equiv_pos_as_xyz
  1  'x, y, z'
loop_
 _atom_site_type_symbol
 _atom_site_label
 _atom_site_symmetry_multiplicity
 _atom_site_fract_x
 _atom_site_fract_y
 _atom_site_fract_z
 _atom_site_occupancy
  Li  Li0  1  0.50000000  0.00000000  0.00000000  1
  Li  Li1  1  0.50000000  0.50000000  0.00000000  1
  Li  Li2  1  0.74950100  0.74785500  0.01075300  1
  Li  Li3  1  0.25049900  0.74785500  0.01075300  1
  Li  Li4  1  0.74319500  0.91986000  0.16541000  1
  Li  Li5  1  0.25680500  0.91986000  0.16541000  1
  Li  Li6  1  0.50000000  0.64475900  0.16720600  1
  Li  Li7  1  0.00000000  0.17930400  0.17891200  1
  Li  Li8  1  0.00000000  0.67930400  0.32108800  1
  Li  Li9  1  0.50000000  0.14475900  0.33279400  1
  Li  Li10  1  0.74319500  0.41986000  0.33459000  1
  Li  Li11  1  0.25680500  0.41986000  0.33459000  1
  Li  Li12  1  0.74950100  0.24785500  0.48924700  1
  Li  Li13  1  0.25049900  0.24785500  0.48924700  1
  Li  Li14  1  0.50000000  0.00000000  0.50000000  1
  Li  Li15  1  0.50000000  0.50000000  0.50000000  1
  Li  Li16  1  0.74950100  0.75214500  0.51075300  1
  Li  Li17  1  0.25049900  0.75214500  0.51075300  1
  Li  Li18  1  0.74319500  0.58014000  0.66541000  1
  Li  Li19  1  0.25680500  0.58014000  0.66541000  1
  Li  Li20  1  0.50000000  0.85524100  0.66720600  1
  Li  Li21  1  0.00000000  0.32069600  0.67891200  1
  Li  Li22  1  0.00000000  0.82069600  0.82108800  1
  Li  Li23  1  0.50000000  0.35524100  0.83279400  1
  Li  Li24  1  0.74319500  0.08014000  0.83459000  1
  Li  Li25  1  0.25680500  0.08014000  0.83459000  1
  Li  Li26  1  0.74950100  0.25214500  0.98924700  1
  Li  Li27  1  0.25049900  0.25214500  0.98924700  1
  Mn  Mn28  1  0.00000000  0.00000000  0.00000000  1
  Mn  Mn29  1  0.00000000  0.50785100  0.13797200  1
  Mn  Mn30  1  0.50000000  0.30284500  0.17824700  1
  Mn  Mn31  1  0.50000000  0.80284500  0.32175300  1
  Mn  Mn32  1  0.00000000  0.00785100  0.36202800  1
  Mn  Mn33  1  0.00000000  0.50000000  0.50000000  1
  Mn  Mn34  1  0.00000000  0.99214900  0.63797200  1
  Mn  Mn35  1  0.50000000  0.19715500  0.67824700  1
  Mn  Mn36  1  0.50000000  0.69715500  0.82175300  1
  Mn  Mn37  1  0.00000000  0.49214900  0.86202800  1
  F  F38  1  0.50000000  0.32922800  0.05146900  1
  F  F39  1  0.74739600  0.08507800  0.07807100  1
  F  F40  1  0.25260400  0.08507800  0.07807100  1
  F  F41  1  0.00000000  0.83064100  0.07921100  1
  F  F42  1  0.00000000  0.32146500  0.08484100  1
  F  F43  1  0.72609900  0.58439000  0.08401000  1
  F  F44  1  0.27390100  0.58439000  0.08401000  1
  F  F45  1  0.50000000  0.84205900  0.08826100  1
  F  F46  1  0.74994700  0.24497600  0.25596600  1
  F  F47  1  0.25005300  0.24497600  0.25596600  1
  F  F48  1  0.50000000  0.48297900  0.24526000  1
  F  F49  1  0.00000000  0.49986400  0.27102600  1
  F  F50  1  0.00000000  0.99986400  0.22897400  1
  F  F51  1  0.50000000  0.98297900  0.25474000  1
  F  F52  1  0.74994700  0.74497600  0.24403400  1
  F  F53  1  0.25005300  0.74497600  0.24403400  1
  F  F54  1  0.50000000  0.34205900  0.41173900  1
  F  F55  1  0.72609900  0.08439000  0.41599000  1
  F  F56  1  0.27390100  0.08439000  0.41599000  1
  F  F57  1  0.00000000  0.82146500  0.41515900  1
  F  F58  1  0.00000000  0.33064100  0.42078900  1
  F  F59  1  0.74739600  0.58507800  0.42192900  1
  F  F60  1  0.25260400  0.58507800  0.42192900  1
  F  F61  1  0.50000000  0.82922800  0.44853100  1
  F  F62  1  0.50000000  0.17077200  0.55146900  1
  F  F63  1  0.74739600  0.41492200  0.57807100  1
  F  F64  1  0.25260400  0.41492200  0.57807100  1
  F  F65  1  0.00000000  0.66935900  0.57921100  1
  F  F66  1  0.00000000  0.17853500  0.58484100  1
  F  F67  1  0.72609900  0.91561000  0.58401000  1
  F  F68  1  0.27390100  0.91561000  0.58401000  1
  F  F69  1  0.50000000  0.65794100  0.58826100  1
  F  F70  1  0.74994700  0.25502400  0.75596600  1
  F  F71  1  0.25005300  0.25502400  0.75596600  1
  F  F72  1  0.50000000  0.01702100  0.74526000  1
  F  F73  1  0.00000000  0.00013600  0.77102600  1
  F  F74  1  0.00000000  0.50013600  0.72897400  1
  F  F75  1  0.50000000  0.51702100  0.75474000  1
  F  F76  1  0.74994700  0.75502400  0.74403400  1
  F  F77  1  0.25005300  0.75502400  0.74403400  1
  F  F78  1  0.50000000  0.15794100  0.91173900  1
  F  F79  1  0.72609900  0.41561000  0.91599000  1
  F  F80  1  0.27390100  0.41561000  0.91599000  1
  F  F81  1  0.00000000  0.67853500  0.91515900  1
  F  F82  1  0.00000000  0.16935900  0.92078900  1
  F  F83  1  0.74739600  0.91492200  0.92192900  1
  F  F84  1  0.25260400  0.91492200  0.92192900  1
  F  F85  1  0.50000000  0.67077200  0.94853100  1
