# generated using pymatgen
data_LiMnF3
_symmetry_space_group_name_H-M   'P 1'
_cell_length_a   7.02957900
_cell_length_b   8.00754214
_cell_length_c   12.27668265
_cell_angle_alpha   106.02747982
_cell_angle_beta   93.87285877
_cell_angle_gamma   91.75172213
_symmetry_Int_Tables_number   1
_chemical_formula_structural   LiMnF3
_chemical_formula_sum   'Li10 Mn10 F30'
_cell_volume   661.79848872
_cell_formula_units_Z   10
loop_
 _symmetry_equiv_pos_site_id
 _symmetry_equiv_pos_as_xyz
  1  'x, y, z'
loop_
 _atom_site_type_symbol
 _atom_site_label
 _atom_site_symmetry_multiplicity
 _atom_site_fract_x
 _atom_site_fract_y
 _atom_site_fract_z
 _atom_site_occupancy
  Li  Li0  1  0.84701100  0.91389100  0.34938300  1
  Li  Li1  1  0.74218900  0.73667900  0.08569800  1
  Li  Li2  1  0.37127900  0.74061600  0.52797100  1
  Li  Li3  1  0.49949200  0.80208100  0.86183500  1
  Li  Li4  1  0.30268300  0.54134400  0.25886500  1
  Li  Li5  1  0.69731700  0.45865600  0.74113500  1
  Li  Li6  1  0.50050800  0.19791900  0.13816500  1
  Li  Li7  1  0.62872100  0.25938400  0.47202900  1
  Li  Li8  1  0.25781100  0.26332100  0.91430200  1
  Li  Li9  1  0.15298900  0.08610900  0.65061700  1
  Mn  Mn10  1  0.95811200  0.90173400  0.84556800  1
  Mn  Mn11  1  0.42643000  0.93258400  0.32316100  1
  Mn  Mn12  1  0.87838100  0.68871600  0.55943100  1
  Mn  Mn13  1  0.80729800  0.48584000  0.26605200  1
  Mn  Mn14  1  0.24137500  0.72209000  0.02438100  1
  Mn  Mn15  1  0.75862500  0.27791000  0.97561900  1
  Mn  Mn16  1  0.19270200  0.51416000  0.73394800  1
  Mn  Mn17  1  0.12161900  0.31128400  0.44056900  1
  Mn  Mn18  1  0.57357000  0.06741600  0.67683900  1
  Mn  Mn19  1  0.04188800  0.09826600  0.15443200  1
  F  F20  1  0.96087900  0.84514300  0.02805000  1
  F  F21  1  0.96587000  0.93697000  0.67987400  1
  F  F22  1  0.66511000  0.85494200  0.22506600  1
  F  F23  1  0.90311700  0.71317300  0.39303800  1
  F  F24  1  0.52485000  0.73079300  0.99384200  1
  F  F25  1  0.83332800  0.51946700  0.10025900  1
  F  F26  1  0.68052400  0.97364200  0.85309800  1
  F  F27  1  0.61673700  0.78575900  0.60805200  1
  F  F28  1  0.90818100  0.62011100  0.72953900  1
  F  F29  1  0.32637300  0.97397500  0.55772900  1
  F  F30  1  0.23455200  0.71409400  0.18718800  1
  F  F31  1  0.82858400  0.41267200  0.44205400  1
  F  F32  1  0.40376200  0.71392000  0.38041200  1
  F  F33  1  0.77592600  0.19381600  0.13740100  1
  F  F34  1  0.52420300  0.41883700  0.24023800  1
  F  F35  1  0.47579700  0.58116300  0.75976200  1
  F  F36  1  0.22407400  0.80618400  0.86259900  1
  F  F37  1  0.59623800  0.28608000  0.61958800  1
  F  F38  1  0.17141600  0.58732800  0.55794600  1
  F  F39  1  0.76544800  0.28590600  0.81281200  1
  F  F40  1  0.67362700  0.02602500  0.44227100  1
  F  F41  1  0.09181900  0.37988900  0.27046100  1
  F  F42  1  0.38326300  0.21424100  0.39194800  1
  F  F43  1  0.31947600  0.02635800  0.14690200  1
  F  F44  1  0.16667200  0.48053300  0.89974100  1
  F  F45  1  0.47515000  0.26920700  0.00615800  1
  F  F46  1  0.09688300  0.28682700  0.60696200  1
  F  F47  1  0.33489000  0.14505800  0.77493400  1
  F  F48  1  0.03413000  0.06303000  0.32012600  1
  F  F49  1  0.03912100  0.15485700  0.97195000  1
