# generated using pymatgen
data_Li5V6O5F19
_symmetry_space_group_name_H-M   'P 1'
_cell_length_a   7.44621000
_cell_length_b   7.67544239
_cell_length_c   16.37059030
_cell_angle_alpha   83.13346446
_cell_angle_beta   82.95440073
_cell_angle_gamma   87.70297534
_symmetry_Int_Tables_number   1
_chemical_formula_structural   Li5V6O5F19
_chemical_formula_sum   'Li10 V12 O10 F38'
_cell_volume   921.59556989
_cell_formula_units_Z   2
loop_
 _symmetry_equiv_pos_site_id
 _symmetry_equiv_pos_as_xyz
  1  'x, y, z'
loop_
 _atom_site_type_symbol
 _atom_site_label
 _atom_site_symmetry_multiplicity
 _atom_site_fract_x
 _atom_site_fract_y
 _atom_site_fract_z
 _atom_site_occupancy
  Li  Li0  1  0.67960100  0.74516000  0.86738100  1
  Li  Li1  1  0.67704200  0.96118800  0.15417400  1
  Li  Li2  1  0.64156700  0.73742400  0.52759800  1
  Li  Li3  1  0.88025900  0.37977700  0.44970000  1
  Li  Li4  1  0.17135900  0.86957100  0.51392500  1
  Li  Li5  1  0.72334000  0.41717100  0.17445700  1
  Li  Li6  1  0.22821900  0.90664700  0.17236900  1
  Li  Li7  1  0.35799700  0.29793100  0.45696800  1
  Li  Li8  1  0.18069600  0.24676800  0.86462800  1
  Li  Li9  1  0.17946300  0.46700500  0.15354000  1
  V  V10  1  0.86403100  0.83629300  0.66737600  1
  V  V11  1  0.97104500  0.50890600  0.99500700  1
  V  V12  1  0.97063000  0.99959400  0.00197900  1
  V  V13  1  0.83724200  0.33144300  0.67262500  1
  V  V14  1  0.33553500  0.83386900  0.67424500  1
  V  V15  1  0.67283200  0.64318900  0.32829300  1
  V  V16  1  0.36546200  0.33726300  0.66489300  1
  V  V17  1  0.69164200  0.16297500  0.33538900  1
  V  V18  1  0.18986700  0.66520100  0.33794200  1
  V  V19  1  0.47313900  0.00941200  0.99504800  1
  V  V20  1  0.46962000  0.50067300  0.00234200  1
  V  V21  1  0.17331300  0.13609900  0.32902800  1
  O  O22  1  0.75475500  0.55853900  0.97814900  1
  O  O23  1  0.74221700  0.96814800  0.02664600  1
  O  O24  1  0.59206600  0.37551600  0.64684900  1
  O  O25  1  0.70829600  0.42640300  0.30897100  1
  O  O26  1  0.09168200  0.87392500  0.64379800  1
  O  O27  1  0.20997000  0.92535600  0.30725400  1
  O  O28  1  0.91231600  0.13458300  0.35279300  1
  O  O29  1  0.41084000  0.62589700  0.35289300  1
  O  O30  1  0.25689200  0.05780600  0.97826400  1
  O  O31  1  0.24469900  0.46854700  0.02632200  1
  F  F32  1  0.85806200  0.75699300  0.77887400  1
  F  F33  1  0.58238400  0.96495300  0.88940300  1
  F  F34  1  0.80742700  0.88865800  0.55614800  1
  F  F35  1  0.88128200  0.58513400  0.64243300  1
  F  F36  1  0.92969100  0.70167900  0.31347100  1
  F  F37  1  0.63218200  0.90585600  0.35673700  1
  F  F38  1  0.59139000  0.78515000  0.68744400  1
  F  F39  1  0.93811700  0.51459100  0.11699200  1
  F  F40  1  0.70478800  0.58463400  0.44636200  1
  F  F41  1  0.48739300  0.58405500  0.88939000  1
  F  F42  1  0.77889500  0.35960500  0.77715500  1
  F  F43  1  0.65307500  0.73666100  0.21869100  1
  F  F44  1  0.90443600  0.30860400  0.56150900  1
  F  F45  1  0.27521700  0.86281900  0.78044800  1
  F  F46  1  0.40011100  0.80582600  0.55744000  1
  F  F47  1  0.54107800  0.26419000  0.97449100  1
  F  F48  1  0.04152500  0.76437000  0.97556900  1
  F  F49  1  0.94979200  0.25090400  0.02539600  1
  F  F50  1  0.79225900  0.07894100  0.69169000  1
  F  F51  1  0.44945100  0.75081400  0.02597100  1
  F  F52  1  0.29404200  0.58270400  0.69146600  1
  F  F53  1  0.52711500  0.43543400  0.11309600  1
  F  F54  1  0.60121100  0.20353200  0.44618900  1
  F  F55  1  0.71896300  0.15264100  0.21834700  1
  F  F56  1  0.35785800  0.25748300  0.77726400  1
  F  F57  1  0.02583700  0.93734500  0.11196100  1
  F  F58  1  0.10027900  0.70357800  0.44841500  1
  F  F59  1  0.22593600  0.65224800  0.21931400  1
  F  F60  1  0.08232600  0.46518800  0.88979600  1
  F  F61  1  0.30957000  0.39971700  0.55462700  1
  F  F62  1  0.38336200  0.08308700  0.64205100  1
  F  F63  1  0.42151700  0.21784000  0.31994300  1
  F  F64  1  0.11936100  0.40965100  0.37085200  1
  F  F65  1  0.08956800  0.28798000  0.68994000  1
  F  F66  1  0.43723100  0.01476200  0.11729000  1
  F  F67  1  0.19819500  0.09873700  0.44793800  1
  F  F68  1  0.98503600  0.08196700  0.89127000  1
  F  F69  1  0.15484600  0.25042400  0.22289700  1
