# generated using pymatgen
data_Li3Fe9O5F11
_symmetry_space_group_name_H-M   'P 1'
_cell_length_a   6.16170900
_cell_length_b   6.22139568
_cell_length_c   10.73009447
_cell_angle_alpha   90.59476703
_cell_angle_beta   105.49057995
_cell_angle_gamma   118.32046796
_symmetry_Int_Tables_number   1
_chemical_formula_structural   Li3Fe9O5F11
_chemical_formula_sum   'Li3 Fe9 O5 F11'
_cell_volume   344.35940629
_cell_formula_units_Z   1
loop_
 _symmetry_equiv_pos_site_id
 _symmetry_equiv_pos_as_xyz
  1  'x, y, z'
loop_
 _atom_site_type_symbol
 _atom_site_label
 _atom_site_symmetry_multiplicity
 _atom_site_fract_x
 _atom_site_fract_y
 _atom_site_fract_z
 _atom_site_occupancy
  Li  Li0  1  0.61039200  0.04652100  0.19597300  1
  Li  Li1  1  0.60520900  0.56190200  0.19460900  1
  Li  Li2  1  0.63826500  0.79285800  0.42525500  1
  Fe  Fe3  1  0.63307900  0.29940400  0.93661700  1
  Fe  Fe4  1  0.63222600  0.07680500  0.69115600  1
  Fe  Fe5  1  0.99992300  0.98348900  0.97643700  1
  Fe  Fe6  1  0.63796700  0.56226800  0.69032200  1
  Fe  Fe7  1  0.13637900  0.05854600  0.68966100  1
  Fe  Fe8  1  0.26162400  0.17094900  0.39069100  1
  Fe  Fe9  1  0.22223900  0.65857200  0.87779000  1
  Fe  Fe10  1  0.02948800  0.48771700  0.48113300  1
  Fe  Fe11  1  0.13079800  0.55239100  0.20104100  1
  O  O12  1  0.39163700  0.21118100  0.58563100  1
  O  O13  1  0.39297000  0.96475000  0.81558500  1
  O  O14  1  0.85564000  0.42879900  0.81846400  1
  O  O15  1  0.85839300  0.92408500  0.78300000  1
  O  O16  1  0.37589500  0.46761100  0.31250900  1
  F  F17  1  0.38474100  0.43656300  0.82367900  1
  F  F18  1  0.85845300  0.15892000  0.54667900  1
  F  F19  1  0.41015100  0.71034500  0.55687500  1
  F  F20  1  0.82114000  0.40544300  0.29115400  1
  F  F21  1  0.87328200  0.18238100  0.07236300  1
  F  F22  1  0.89674400  0.68838200  0.55888300  1
  F  F23  1  0.87042400  0.66175700  0.07308900  1
  F  F24  1  0.39009300  0.19782100  0.06219100  1
  F  F25  1  0.85175800  0.93354900  0.30918100  1
  F  F26  1  0.34309400  0.91859600  0.30702800  1
  F  F27  1  0.38799700  0.70839200  0.08300100  1
