# generated using pymatgen
data_LiMnF3
_symmetry_space_group_name_H-M   'P 1'
_cell_length_a   5.32837962
_cell_length_b   5.32837962
_cell_length_c   15.38592200
_cell_angle_alpha   90.00000000
_cell_angle_beta   90.00000000
_cell_angle_gamma   119.99999526
_symmetry_Int_Tables_number   1
_chemical_formula_structural   LiMnF3
_chemical_formula_sum   'Li6 Mn6 F18'
_cell_volume   378.30710306
_cell_formula_units_Z   6
loop_
 _symmetry_equiv_pos_site_id
 _symmetry_equiv_pos_as_xyz
  1  'x, y, z'
loop_
 _atom_site_type_symbol
 _atom_site_label
 _atom_site_symmetry_multiplicity
 _atom_site_fract_x
 _atom_site_fract_y
 _atom_site_fract_z
 _atom_site_occupancy
  Li  Li0  1  0.00000000  0.00000000  0.82998500  1
  Li  Li1  1  0.66666700  0.33333300  0.55475700  1
  Li  Li2  1  0.00000000  0.00000000  0.67612600  1
  Li  Li3  1  0.00000000  0.00000000  0.32387400  1
  Li  Li4  1  0.33333300  0.66666700  0.44524300  1
  Li  Li5  1  0.00000000  0.00000000  0.17001500  1
  Mn  Mn6  1  0.66666700  0.33333300  0.31732800  1
  Mn  Mn7  1  0.66666700  0.33333300  0.84073200  1
  Mn  Mn8  1  0.33333300  0.66666700  0.15926800  1
  Mn  Mn9  1  0.00000000  0.00000000  0.50000000  1
  Mn  Mn10  1  0.00000000  0.00000000  0.00000000  1
  Mn  Mn11  1  0.33333300  0.66666700  0.68267200  1
  F  F12  1  0.33401100  0.01744400  0.41959700  1
  F  F13  1  0.32048600  0.01353600  0.73898500  1
  F  F14  1  0.30739500  0.27789800  0.90220500  1
  F  F15  1  0.30695000  0.32048600  0.26101500  1
  F  F16  1  0.72210200  0.02949700  0.90220500  1
  F  F17  1  0.98255600  0.31656700  0.41959700  1
  F  F18  1  0.69305000  0.67951400  0.73898500  1
  F  F19  1  0.02949700  0.30739500  0.09779500  1
  F  F20  1  0.68343300  0.66598900  0.41959700  1
  F  F21  1  0.98646400  0.30695000  0.73898500  1
  F  F22  1  0.01353600  0.69305000  0.26101500  1
  F  F23  1  0.31656700  0.33401100  0.58040300  1
  F  F24  1  0.97050300  0.69260500  0.90220500  1
  F  F25  1  0.01744400  0.68343300  0.58040300  1
  F  F26  1  0.27789800  0.97050300  0.09779500  1
  F  F27  1  0.69260500  0.72210200  0.09779500  1
  F  F28  1  0.67951400  0.98646400  0.26101500  1
  F  F29  1  0.66598900  0.98255600  0.58040300  1
