# generated using pymatgen
data_Li8TiS6
_symmetry_space_group_name_H-M   'P 1'
_cell_length_a   7.10013000
_cell_length_b   10.26034200
_cell_length_c   14.70064600
_cell_angle_alpha   90.00000000
_cell_angle_beta   90.00000000
_cell_angle_gamma   90.00000000
_symmetry_Int_Tables_number   1
_chemical_formula_structural   Li8TiS6
_chemical_formula_sum   'Li32 Ti4 S24'
_cell_volume   1070.93856300
_cell_formula_units_Z   4
loop_
 _symmetry_equiv_pos_site_id
 _symmetry_equiv_pos_as_xyz
  1  'x, y, z'
loop_
 _atom_site_type_symbol
 _atom_site_label
 _atom_site_symmetry_multiplicity
 _atom_site_fract_x
 _atom_site_fract_y
 _atom_site_fract_z
 _atom_site_occupancy
  Li  Li0  1  0.51147000  0.78107700  0.01989200  1
  Li  Li1  1  0.27945100  0.52935600  0.05944500  1
  Li  Li2  1  0.89866300  0.19259700  0.06715800  1
  Li  Li3  1  0.93392400  0.83204700  0.07554700  1
  Li  Li4  1  0.33876600  0.00057200  0.11526400  1
  Li  Li5  1  0.54263600  0.82142600  0.21499100  1
  Li  Li6  1  0.58317100  0.18598400  0.23089200  1
  Li  Li7  1  0.93594200  0.00795300  0.24371200  1
  Li  Li8  1  0.43594200  0.50795300  0.25628800  1
  Li  Li9  1  0.08317100  0.68598400  0.26910800  1
  Li  Li10  1  0.04263600  0.32142600  0.28500900  1
  Li  Li11  1  0.83876600  0.50057200  0.38473600  1
  Li  Li12  1  0.43392400  0.33204700  0.42445300  1
  Li  Li13  1  0.39866300  0.69259700  0.43284200  1
  Li  Li14  1  0.77945100  0.02935600  0.44055500  1
  Li  Li15  1  0.01147000  0.28107700  0.48010800  1
  Li  Li16  1  0.98853000  0.78107700  0.51989200  1
  Li  Li17  1  0.22054900  0.52935600  0.55944500  1
  Li  Li18  1  0.60133700  0.19259700  0.56715800  1
  Li  Li19  1  0.56607600  0.83204700  0.57554700  1
  Li  Li20  1  0.16123400  0.00057200  0.61526400  1
  Li  Li21  1  0.95736400  0.82142600  0.71499100  1
  Li  Li22  1  0.91682900  0.18598400  0.73089200  1
  Li  Li23  1  0.56405800  0.00795300  0.74371200  1
  Li  Li24  1  0.06405800  0.50795300  0.75628800  1
  Li  Li25  1  0.41682900  0.68598400  0.76910800  1
  Li  Li26  1  0.45736400  0.32142600  0.78500900  1
  Li  Li27  1  0.66123400  0.50057200  0.88473600  1
  Li  Li28  1  0.06607600  0.33204700  0.92445300  1
  Li  Li29  1  0.10133700  0.69259700  0.93284200  1
  Li  Li30  1  0.72054900  0.02935600  0.94055500  1
  Li  Li31  1  0.48853000  0.28107700  0.98010800  1
  Ti  Ti32  1  0.77183200  0.51296400  0.12443500  1
  Ti  Ti33  1  0.27183200  0.01296400  0.37556500  1
  Ti  Ti34  1  0.72816800  0.51296400  0.62443500  1
  Ti  Ti35  1  0.22816800  0.01296400  0.87556500  1
  S  S36  1  0.78214800  0.64415000  0.00083100  1
  S  S37  1  0.51881400  0.37758800  0.12576200  1
  S  S38  1  0.70965800  0.00405400  0.11892600  1
  S  S39  1  0.25239300  0.75974700  0.12281900  1
  S  S40  1  0.03349900  0.39271600  0.12658800  1
  S  S41  1  0.73898800  0.63245300  0.25331200  1
  S  S42  1  0.23898800  0.13245300  0.24668800  1
  S  S43  1  0.53349900  0.89271600  0.37341200  1
  S  S44  1  0.75239300  0.25974700  0.37718100  1
  S  S45  1  0.20965800  0.50405400  0.38107400  1
  S  S46  1  0.01881400  0.87758800  0.37423800  1
  S  S47  1  0.28214800  0.14415000  0.49916900  1
  S  S48  1  0.71785200  0.64415000  0.50083100  1
  S  S49  1  0.98118600  0.37758800  0.62576200  1
  S  S50  1  0.79034200  0.00405400  0.61892600  1
  S  S51  1  0.24760700  0.75974700  0.62281900  1
  S  S52  1  0.46650100  0.39271600  0.62658800  1
  S  S53  1  0.76101200  0.63245300  0.75331200  1
  S  S54  1  0.26101200  0.13245300  0.74668800  1
  S  S55  1  0.96650100  0.89271600  0.87341200  1
  S  S56  1  0.74760700  0.25974700  0.87718100  1
  S  S57  1  0.29034200  0.50405400  0.88107400  1
  S  S58  1  0.48118600  0.87758800  0.87423800  1
  S  S59  1  0.21785200  0.14415000  0.99916900  1
