# generated using pymatgen
data_Li6V3P8O29
_symmetry_space_group_name_H-M   'P 1'
_cell_length_a   9.80396400
_cell_length_b   9.82868447
_cell_length_c   13.89981730
_cell_angle_alpha   89.73856371
_cell_angle_beta   89.71375523
_cell_angle_gamma   60.15153469
_symmetry_Int_Tables_number   1
_chemical_formula_structural   Li6V3P8O29
_chemical_formula_sum   'Li12 V6 P16 O58'
_cell_volume   1161.69277638
_cell_formula_units_Z   2
loop_
 _symmetry_equiv_pos_site_id
 _symmetry_equiv_pos_as_xyz
  1  'x, y, z'
loop_
 _atom_site_type_symbol
 _atom_site_label
 _atom_site_symmetry_multiplicity
 _atom_site_fract_x
 _atom_site_fract_y
 _atom_site_fract_z
 _atom_site_occupancy
  Li  Li0  1  0.90481700  0.76716600  0.05907500  1
  Li  Li1  1  0.77184200  0.91192900  0.56172700  1
  Li  Li2  1  0.90494000  0.32197500  0.55947500  1
  Li  Li3  1  0.66588500  0.66628800  0.88272000  1
  Li  Li4  1  0.76781000  0.32609700  0.05994200  1
  Li  Li5  1  0.32735900  0.90514800  0.05900100  1
  Li  Li6  1  0.32359100  0.77138300  0.56120000  1
  Li  Li7  1  0.33912800  0.33186600  0.61692700  1
  Li  Li8  1  0.33657300  0.33249900  0.11367800  1
  Li  Li9  1  0.08871800  0.68516300  0.43980700  1
  Li  Li10  1  0.22534100  0.09104300  0.44001200  1
  Li  Li11  1  0.99779400  0.00149100  0.99118400  1
  V  V12  1  0.56698400  0.43189300  0.25281200  1
  V  V13  1  0.43440600  0.56301500  0.75299100  1
  V  V14  1  0.56605000  0.00266300  0.75333400  1
  V  V15  1  0.43388300  0.99810200  0.25072500  1
  V  V16  1  0.99753600  0.56845800  0.25065200  1
  V  V17  1  0.00130800  0.43252200  0.75346500  1
  P  P18  1  0.90980600  0.77438100  0.84386700  1
  P  P19  1  0.76786200  0.91528000  0.34394400  1
  P  P20  1  0.91330000  0.31632000  0.34306400  1
  P  P21  1  0.66436400  0.66658600  0.12594500  1
  P  P22  1  0.66711200  0.66786800  0.62754600  1
  P  P23  1  0.77382600  0.31431600  0.84477500  1
  P  P24  1  0.68425800  0.22945800  0.65729400  1
  P  P25  1  0.31573900  0.90881100  0.84381200  1
  P  P26  1  0.68902900  0.08702100  0.15666400  1
  P  P27  1  0.31986800  0.76645900  0.34316500  1
  P  P28  1  0.22622700  0.68677500  0.15775900  1
  P  P29  1  0.33069200  0.33499400  0.37336800  1
  P  P30  1  0.33275300  0.33268600  0.87326500  1
  P  P31  1  0.08980000  0.68024800  0.65771300  1
  P  P32  1  0.23013800  0.08964700  0.65792500  1
  P  P33  1  0.08880400  0.22533200  0.15749900  1
  O  O34  1  0.99614800  0.75815900  0.56861800  1
  O  O35  1  0.91514500  0.74841100  0.33921100  1
  O  O36  1  0.78729100  0.99064500  0.07376600  1
  O  O37  1  0.74476400  0.91724500  0.83807200  1
  O  O38  1  0.89304400  0.62532400  0.83071700  1
  O  O39  1  0.81082500  0.67298300  0.16392700  1
  O  O40  1  0.90851300  0.47508600  0.32066300  1
  O  O41  1  0.99637900  0.21948300  0.07409300  1
  O  O42  1  0.91719900  0.33739100  0.83771200  1
  O  O43  1  0.66209400  0.81954200  0.67016600  1
  O  O44  1  0.61678400  0.90511700  0.31989400  1
  O  O45  1  0.81886200  0.52093600  0.67003600  1
  O  O46  1  0.66552900  0.66306900  0.01744300  1
  O  O47  1  0.66779600  0.66879600  0.52040900  1
  O  O48  1  0.66843800  0.51383100  0.16621100  1
  O  O49  1  0.48131600  0.89339200  0.83053700  1
  O  O50  1  0.51088400  0.81248200  0.16355900  1
  O  O51  1  0.74848300  0.34062600  0.34000300  1
  O  O52  1  0.78266800  0.20900300  0.75491900  1
  O  O53  1  0.77010300  0.24202800  0.57283300  1
  O  O54  1  0.77473000  0.23263000  0.93629000  1
  O  O55  1  0.62512800  0.48061800  0.83131600  1
  O  O56  1  0.51965500  0.66257200  0.66971600  1
  O  O57  1  0.66703000  0.25359800  0.15693300  1
  O  O58  1  0.48142900  0.62237200  0.32434000  1
  O  O59  1  0.33105600  0.91838600  0.34127500  1
  O  O60  1  0.78740200  0.00705800  0.25454000  1
  O  O61  1  0.75447400  0.99422200  0.43649300  1
  O  O62  1  0.24591000  0.99618100  0.56862300  1
  O  O63  1  0.66578700  0.08210000  0.65704800  1
  O  O64  1  0.51634300  0.37448200  0.67138600  1
  O  O65  1  0.33830700  0.74352500  0.83742900  1
  O  O66  1  0.47764700  0.33585500  0.32656000  1
  O  O67  1  0.37454600  0.52288500  0.16724300  1
  O  O68  1  0.21904900  0.78629100  0.07411700  1
  O  O69  1  0.24444800  0.75379100  0.43488800  1
  O  O70  1  0.20559900  0.78555300  0.25498700  1
  O  O71  1  0.25346900  0.66614200  0.65606800  1
  O  O72  1  0.47739200  0.18282000  0.82950000  1
  O  O73  1  0.52342400  0.10421600  0.16888800  1
  O  O74  1  0.33966500  0.47654600  0.82917600  1
  O  O75  1  0.33269700  0.33247700  0.98028200  1
  O  O76  1  0.33096500  0.33612400  0.48126600  1
  O  O77  1  0.18332700  0.48896200  0.33533100  1
  O  O78  1  0.37494400  0.11130400  0.67176000  1
  O  O79  1  0.32724900  0.18655700  0.33533400  1
  O  O80  1  0.08144800  0.66062700  0.15964900  1
  O  O81  1  0.00280500  0.78547300  0.75038000  1
  O  O82  1  0.99358600  0.77397200  0.93376200  1
  O  O83  1  0.11171000  0.51416200  0.67223000  1
  O  O84  1  0.18250300  0.33890300  0.82950800  1
  O  O85  1  0.10679800  0.37215300  0.16865900  1
  O  O86  1  0.25888700  0.08056500  0.15958700  1
  O  O87  1  0.23141200  0.99221500  0.93397400  1
  O  O88  1  0.21200100  0.00202200  0.75068800  1
  O  O89  1  0.08083300  0.25274400  0.65640900  1
  O  O90  1  0.00348800  0.24630200  0.43423200  1
  O  O91  1  0.00993800  0.20380700  0.25475400  1
