# generated using pymatgen
data_Li6VSn3(PO4)6
_symmetry_space_group_name_H-M   'P 1'
_cell_length_a   8.60393500
_cell_length_b   8.63187971
_cell_length_c   8.64903103
_cell_angle_alpha   64.24934766
_cell_angle_beta   64.53823153
_cell_angle_gamma   64.41086475
_symmetry_Int_Tables_number   1
_chemical_formula_structural   Li6VSn3(PO4)6
_chemical_formula_sum   'Li6 V1 Sn3 P6 O24'
_cell_volume   498.06546752
_cell_formula_units_Z   1
loop_
 _symmetry_equiv_pos_site_id
 _symmetry_equiv_pos_as_xyz
  1  'x, y, z'
loop_
 _atom_site_type_symbol
 _atom_site_label
 _atom_site_symmetry_multiplicity
 _atom_site_fract_x
 _atom_site_fract_y
 _atom_site_fract_z
 _atom_site_occupancy
  Li  Li0  1  0.97513400  0.01814400  0.01445700  1
  Li  Li1  1  0.25342100  0.63123200  0.84476500  1
  Li  Li2  1  0.52101800  0.48325900  0.48144100  1
  Li  Li3  1  0.76926900  0.32375700  0.14797700  1
  Li  Li4  1  0.31552600  0.14531000  0.77155200  1
  Li  Li5  1  0.14931300  0.77004500  0.31869600  1
  V  V6  1  0.15242000  0.15436400  0.15250200  1
  Sn  Sn7  1  0.85379800  0.85673900  0.85190300  1
  Sn  Sn8  1  0.64261000  0.64579100  0.63725300  1
  Sn  Sn9  1  0.33420700  0.33467200  0.33543300  1
  P  P10  1  0.92659600  0.57940700  0.25387400  1
  P  P11  1  0.57938400  0.25482100  0.92911500  1
  P  P12  1  0.25270700  0.93362400  0.57292000  1
  P  P13  1  0.75742200  0.04285800  0.44653900  1
  P  P14  1  0.44239600  0.75607900  0.03629400  1
  P  P15  1  0.04601700  0.45104700  0.75840300  1
  O  O16  1  0.88005600  0.50723400  0.69746200  1
  O  O17  1  0.68230400  0.89161200  0.48486400  1
  O  O18  1  0.90626700  0.75882000  0.09238600  1
  O  O19  1  0.45890600  0.68787000  0.88691600  1
  O  O20  1  0.73701800  0.58404200  0.40058500  1
  O  O21  1  0.98416200  0.41231100  0.19781900  1
  O  O22  1  0.75971000  0.09828100  0.89812800  1
  O  O23  1  0.57423800  0.40906500  0.74323000  1
  O  O24  1  0.39606600  0.73892300  0.58680200  1
  O  O25  1  0.82797100  0.99490400  0.60265600  1
  O  O26  1  0.91512800  0.05067000  0.26661500  1
  O  O27  1  0.61483300  0.80653100  0.97728400  1
  O  O28  1  0.40916100  0.20275000  0.98677300  1
  O  O29  1  0.10145500  0.89746900  0.75906000  1
  O  O30  1  0.19901800  0.98700200  0.40687800  1
  O  O31  1  0.61510600  0.23250200  0.42278000  1
  O  O32  1  0.42010600  0.61506800  0.22557700  1
  O  O33  1  0.27013000  0.92214600  0.04550500  1
  O  O34  1  0.02910100  0.60680300  0.81679000  1
  O  O35  1  0.23075600  0.41674500  0.61296100  1
  O  O36  1  0.59398700  0.31814100  0.06158600  1
  O  O37  1  0.04583400  0.27370000  0.91911200  1
  O  O38  1  0.31799300  0.06645300  0.58429600  1
  O  O39  1  0.05945800  0.58881400  0.32181400  1
