# generated using pymatgen
data_Li3V3P8O29
_symmetry_space_group_name_H-M   'P 1'
_cell_length_a   9.74443496
_cell_length_b   9.74443496
_cell_length_c   14.04039518
_cell_angle_alpha   89.99214262
_cell_angle_beta   89.99214262
_cell_angle_gamma   59.88117269
_symmetry_Int_Tables_number   1
_chemical_formula_structural   Li3V3P8O29
_chemical_formula_sum   'Li6 V6 P16 O58'
_cell_volume   1153.19305297
_cell_formula_units_Z   2
loop_
 _symmetry_equiv_pos_site_id
 _symmetry_equiv_pos_as_xyz
  1  'x, y, z'
loop_
 _atom_site_type_symbol
 _atom_site_label
 _atom_site_symmetry_multiplicity
 _atom_site_fract_x
 _atom_site_fract_y
 _atom_site_fract_z
 _atom_site_occupancy
  Li  Li0  1  0.66941700  0.23489800  0.05821700  1
  Li  Li1  1  0.23489800  0.66941700  0.55821700  1
  Li  Li2  1  0.23582700  0.09487700  0.05886400  1
  Li  Li3  1  0.09487700  0.23582700  0.55886400  1
  Li  Li4  1  0.01507500  0.95852000  0.99959800  1
  Li  Li5  1  0.95852000  0.01507500  0.49959800  1
  V  V6  1  0.00157100  0.56704900  0.24616200  1
  V  V7  1  0.99775500  0.43756900  0.75490100  1
  V  V8  1  0.56704900  0.00157100  0.74616200  1
  V  V9  1  0.43756900  0.99775500  0.25490100  1
  V  V10  1  0.56501700  0.43750300  0.25294700  1
  V  V11  1  0.43750300  0.56501700  0.75294700  1
  P  P12  1  0.68889600  0.22344000  0.84209800  1
  P  P13  1  0.69298900  0.08495700  0.34439600  1
  P  P14  1  0.22344000  0.68889600  0.34209800  1
  P  P15  1  0.33559600  0.33045800  0.12941500  1
  P  P16  1  0.33045800  0.33559600  0.62941500  1
  P  P17  1  0.08495700  0.69298900  0.84439600  1
  P  P18  1  0.91599700  0.77511200  0.65809100  1
  P  P19  1  0.22858700  0.08597300  0.84346000  1
  P  P20  1  0.77511200  0.91599700  0.15809100  1
  P  P21  1  0.08597300  0.22858700  0.34346000  1
  P  P22  1  0.91463000  0.30914500  0.15905600  1
  P  P23  1  0.67099200  0.66519000  0.37032800  1
  P  P24  1  0.66519000  0.67099200  0.87032800  1
  P  P25  1  0.77833900  0.30842700  0.65751500  1
  P  P26  1  0.30914500  0.91463000  0.65905600  1
  P  P27  1  0.30842700  0.77833900  0.15751500  1
  O  O28  1  0.79183900  0.21325300  0.57241800  1
  O  O29  1  0.65432200  0.25991300  0.33126900  1
  O  O30  1  0.78261200  0.00446000  0.07350800  1
  O  O31  1  0.65780000  0.08345800  0.83118600  1
  O  O32  1  0.52806100  0.38113400  0.82518200  1
  O  O33  1  0.48695300  0.32929800  0.16954100  1
  O  O34  1  0.38113400  0.52806100  0.32518200  1
  O  O35  1  0.21325300  0.79183900  0.07241800  1
  O  O36  1  0.25991300  0.65432200  0.83126900  1
  O  O37  1  0.47908700  0.18717500  0.67515300  1
  O  O38  1  0.53380200  0.08489200  0.32955600  1
  O  O39  1  0.32929800  0.48695300  0.66954100  1
  O  O40  1  0.33419200  0.32642500  0.02357600  1
  O  O41  1  0.32642500  0.33419200  0.52357600  1
  O  O42  1  0.18717500  0.47908700  0.17515300  1
  O  O43  1  0.38353700  0.08876200  0.82592800  1
  O  O44  1  0.33173900  0.18300600  0.17295200  1
  O  O45  1  0.08345800  0.65780000  0.33118600  1
  O  O46  1  0.99740600  0.79865400  0.75194800  1
  O  O47  1  0.00446000  0.78261200  0.57350800  1
  O  O48  1  0.00801500  0.78361200  0.93140400  1
  O  O49  1  0.08489200  0.53380200  0.82955600  1
  O  O50  1  0.18300600  0.33173900  0.67295200  1
  O  O51  1  0.91389900  0.74215000  0.16344800  1
  O  O52  1  0.08876200  0.38353600  0.32592800  1
  O  O53  1  0.25831700  0.08611700  0.33172000  1
  O  O54  1  0.79865400  0.99740600  0.25194800  1
  O  O55  1  0.78361200  0.00801500  0.43140400  1
  O  O56  1  0.21018100  0.00796800  0.57643900  1
  O  O57  1  0.74215000  0.91389900  0.66344800  1
  O  O58  1  0.91623300  0.61743200  0.67274500  1
  O  O59  1  0.08611700  0.25831700  0.83172000  1
  O  O60  1  0.81645000  0.66372100  0.32314800  1
  O  O61  1  0.91351700  0.46773400  0.17162600  1
  O  O62  1  0.00796800  0.21018100  0.07643900  1
  O  O63  1  0.01464100  0.22052000  0.43553800  1
  O  O64  1  0.98965500  0.20975400  0.25662100  1
  O  O65  1  0.91731100  0.34474500  0.66313400  1
  O  O66  1  0.66372100  0.81645000  0.82314800  1
  O  O67  1  0.61743200  0.91623300  0.17274500  1
  O  O68  1  0.81396600  0.52109500  0.82429600  1
  O  O69  1  0.66358800  0.66694200  0.97535200  1
  O  O70  1  0.66694200  0.66358800  0.47535200  1
  O  O71  1  0.66544200  0.51911400  0.32319800  1
  O  O72  1  0.46773400  0.91351700  0.67162600  1
  O  O73  1  0.52109500  0.81396600  0.32429600  1
  O  O74  1  0.74138600  0.34106200  0.15975800  1
  O  O75  1  0.80085700  0.20715500  0.75446400  1
  O  O76  1  0.76423400  0.22197700  0.93452500  1
  O  O77  1  0.61854100  0.46584200  0.67305800  1
  O  O78  1  0.51911400  0.66544200  0.82319800  1
  O  O79  1  0.46584200  0.61854100  0.17305800  1
  O  O80  1  0.34474500  0.91731100  0.16313400  1
  O  O81  1  0.22052000  0.01464100  0.93553800  1
  O  O82  1  0.20975400  0.98965500  0.75662100  1
  O  O83  1  0.34106200  0.74138600  0.65975800  1
  O  O84  1  0.22197700  0.76423400  0.43452500  1
  O  O85  1  0.20715500  0.80085700  0.25446400  1
