# generated using pymatgen
data_Li3V3P8O29
_symmetry_space_group_name_H-M   'P 1'
_cell_length_a   9.73309500
_cell_length_b   9.76844050
_cell_length_c   14.22681026
_cell_angle_alpha   90.85913690
_cell_angle_beta   89.81200482
_cell_angle_gamma   119.77920027
_symmetry_Int_Tables_number   1
_chemical_formula_structural   Li3V3P8O29
_chemical_formula_sum   'Li6 V6 P16 O58'
_cell_volume   1173.87679785
_cell_formula_units_Z   2
loop_
 _symmetry_equiv_pos_site_id
 _symmetry_equiv_pos_as_xyz
  1  'x, y, z'
loop_
 _atom_site_type_symbol
 _atom_site_label
 _atom_site_symmetry_multiplicity
 _atom_site_fract_x
 _atom_site_fract_y
 _atom_site_fract_z
 _atom_site_occupancy
  Li  Li0  1  0.68456200  0.90696000  0.55366500  1
  Li  Li1  1  0.09558300  0.32916200  0.05814400  1
  Li  Li2  1  0.23007500  0.30964500  0.56240200  1
  Li  Li3  1  0.90273800  0.67012500  0.94355100  1
  Li  Li4  1  0.91164800  0.22492600  0.44103500  1
  Li  Li5  1  0.99764300  0.00237600  0.00738800  1
  V  V6  1  0.56316800  0.56735400  0.25040200  1
  V  V7  1  0.44114700  0.43319400  0.75402500  1
  V  V8  1  0.00281000  0.57057200  0.74385500  1
  V  V9  1  0.00149500  0.44057100  0.25048400  1
  V  V10  1  0.43212100  0.99842300  0.24460700  1
  V  V11  1  0.56010000  0.00157400  0.75791700  1
  P  P12  1  0.21604900  0.91805000  0.84225100  1
  P  P13  1  0.08959600  0.77995600  0.34121700  1
  P  P14  1  0.68351700  0.91502000  0.33902500  1
  P  P15  1  0.33133800  0.66180200  0.13146900  1
  P  P16  1  0.33851200  0.66402000  0.63181200  1
  P  P17  1  0.69448200  0.77856400  0.84029500  1
  P  P18  1  0.76993900  0.68524800  0.65567700  1
  P  P19  1  0.08915300  0.31887900  0.84034500  1
  P  P20  1  0.91062000  0.68797200  0.15990400  1
  P  P21  1  0.22987000  0.31989700  0.34584600  1
  P  P22  1  0.30431000  0.22176800  0.16276700  1
  P  P23  1  0.66559300  0.33188100  0.36631900  1
  P  P24  1  0.67409500  0.33954300  0.86916200  1
  P  P25  1  0.31194000  0.08254900  0.65682100  1
  P  P26  1  0.90693600  0.22606600  0.66077600  1
  P  P27  1  0.78209300  0.08546300  0.15729600  1
  O  O28  1  0.24001800  0.00137000  0.56797400  1
  O  O29  1  0.26146400  0.91903400  0.33020500  1
  O  O30  1  0.97848000  0.76263500  0.06829100  1
  O  O31  1  0.08120300  0.74172900  0.83344100  1
  O  O32  1  0.37917800  0.92000900  0.83133600  1
  O  O33  1  0.32772600  0.80951100  0.17280600  1
  O  O34  1  0.52346100  0.90654300  0.31972200  1
  O  O35  1  0.81344600  0.00953700  0.07568600  1
  O  O36  1  0.65209000  0.91160800  0.83391400  1
  O  O37  1  0.18454800  0.65914200  0.67710600  1
  O  O38  1  0.09625700  0.62339000  0.31878000  1
  O  O39  1  0.48239700  0.81564100  0.67550500  1
  O  O40  1  0.32253300  0.64574100  0.02756000  1
  O  O41  1  0.33251900  0.65884700  0.52778700  1
  O  O42  1  0.48123000  0.66774200  0.17702400  1
  O  O43  1  0.08628100  0.47355400  0.82466800  1
  O  O44  1  0.18374700  0.50867800  0.17402800  1
  O  O45  1  0.65777900  0.74570800  0.33367700  1
  O  O46  1  0.79368300  0.79697100  0.74617200  1
  O  O47  1  0.76058400  0.76399300  0.57036700  1
  O  O48  1  0.79401100  0.79134800  0.92253100  1
  O  O49  1  0.53770000  0.61726000  0.82937400  1
  O  O50  1  0.33817600  0.51611300  0.67340400  1
  O  O51  1  0.73816600  0.65346900  0.17147300  1
  O  O52  1  0.38003800  0.47909500  0.32358000  1
  O  O53  1  0.08102800  0.34079300  0.33773700  1
  O  O54  1  0.00536500  0.79972200  0.24686500  1
  O  O55  1  0.00195900  0.76740600  0.42730300  1
  O  O56  1  0.99776200  0.23972200  0.57263100  1
  O  O57  1  0.91281500  0.65577400  0.66430700  1
  O  O58  1  0.61873200  0.52478400  0.67634800  1
  O  O59  1  0.26107800  0.35005400  0.82770600  1
  O  O60  1  0.65641700  0.47342400  0.32260400  1
  O  O61  1  0.45961000  0.38262700  0.17056700  1
  O  O62  1  0.19625100  0.20448200  0.08378000  1
  O  O63  1  0.23567400  0.25327200  0.43738800  1
  O  O64  1  0.21171700  0.20198800  0.26105900  1
  O  O65  1  0.34173700  0.25553100  0.66504300  1
  O  O66  1  0.81877200  0.49189100  0.82908300  1
  O  O67  1  0.91062100  0.52973900  0.17473400  1
  O  O68  1  0.52151800  0.33134800  0.82263400  1
  O  O69  1  0.67131800  0.34372500  0.97310300  1
  O  O70  1  0.66915400  0.32613000  0.47008600  1
  O  O71  1  0.52626900  0.18227200  0.31693900  1
  O  O72  1  0.89750800  0.37883200  0.67853400  1
  O  O73  1  0.81996800  0.33567800  0.32494800  1
  O  O74  1  0.34469100  0.08681600  0.16419200  1
  O  O75  1  0.20224700  0.99820600  0.74776900  1
  O  O76  1  0.19492700  0.99282800  0.92761900  1
  O  O77  1  0.47246300  0.08908800  0.68285600  1
  O  O78  1  0.67558000  0.18979700  0.82548000  1
  O  O79  1  0.61784100  0.07441900  0.16574400  1
  O  O80  1  0.91633600  0.26283400  0.16434200  1
  O  O81  1  0.02107800  0.23912500  0.93052400  1
  O  O82  1  0.99544300  0.20638700  0.75083400  1
  O  O83  1  0.73993400  0.07953400  0.66102200  1
  O  O84  1  0.75678100  0.99971000  0.43000300  1
  O  O85  1  0.80126700  0.01095900  0.25524400  1
