# generated using pymatgen
data_Li5V3P8O29
_symmetry_space_group_name_H-M   'P 1'
_cell_length_a   9.78414900
_cell_length_b   9.78757970
_cell_length_c   13.99000593
_cell_angle_alpha   90.01422147
_cell_angle_beta   90.16546578
_cell_angle_gamma   119.94206168
_symmetry_Int_Tables_number   1
_chemical_formula_structural   Li5V3P8O29
_chemical_formula_sum   'Li10 V6 P16 O58'
_cell_volume   1160.90723875
_cell_formula_units_Z   2
loop_
 _symmetry_equiv_pos_site_id
 _symmetry_equiv_pos_as_xyz
  1  'x, y, z'
loop_
 _atom_site_type_symbol
 _atom_site_label
 _atom_site_symmetry_multiplicity
 _atom_site_fract_x
 _atom_site_fract_y
 _atom_site_fract_z
 _atom_site_occupancy
  Li  Li0  1  0.76953400  0.66348200  0.56099800  1
  Li  Li1  1  0.90493400  0.23890900  0.56148700  1
  Li  Li2  1  0.77204300  0.09031300  0.05804400  1
  Li  Li3  1  0.32015300  0.22634900  0.06006300  1
  Li  Li4  1  0.66701100  0.90261000  0.44121100  1
  Li  Li5  1  0.33716200  0.10221800  0.56127100  1
  Li  Li6  1  0.68481700  0.77145200  0.93792800  1
  Li  Li7  1  0.22446400  0.90302300  0.94089300  1
  Li  Li8  1  0.09595500  0.32456700  0.93817300  1
  Li  Li9  1  0.04005500  0.01181800  0.50159600  1
  V  V10  1  0.56624800  0.00034200  0.24911400  1
  V  V11  1  0.43003600  0.99933600  0.74935700  1
  V  V12  1  0.56784100  0.56551100  0.74887700  1
  V  V13  1  0.43157600  0.43740300  0.25403600  1
  V  V14  1  0.99965100  0.56817800  0.25102200  1
  V  V15  1  0.99988800  0.43563700  0.74925400  1
  P  P16  1  0.91597000  0.68495400  0.84319000  1
  P  P17  1  0.77424600  0.68767200  0.33920900  1
  P  P18  1  0.91337100  0.22732800  0.34391400  1
  P  P19  1  0.66603100  0.33388800  0.13041400  1
  P  P20  1  0.66547600  0.33150200  0.62636300  1
  P  P21  1  0.76792600  0.08831600  0.84050300  1
  P  P22  1  0.68368000  0.91207900  0.65763500  1
  P  P23  1  0.32023700  0.23331000  0.84380800  1
  P  P24  1  0.68070400  0.76892800  0.15482200  1
  P  P25  1  0.31504300  0.08968700  0.34279700  1
  P  P26  1  0.22773100  0.90960400  0.16076700  1
  P  P27  1  0.33319400  0.66782600  0.37150500  1
  P  P28  1  0.33528500  0.66745200  0.87090500  1
  P  P29  1  0.08255400  0.77491000  0.65619900  1
  P  P30  1  0.22436900  0.30917500  0.65930600  1
  P  P31  1  0.08687600  0.31735900  0.15925100  1
  O  O32  1  0.99729600  0.79293000  0.57221200  1
  O  O33  1  0.91502200  0.65860700  0.33605700  1
  O  O34  1  0.75052100  0.75559800  0.06432700  1
  O  O35  1  0.74694200  0.66148800  0.84031700  1
  O  O36  1  0.90652900  0.52384600  0.82225500  1
  O  O37  1  0.81532200  0.47850000  0.17865400  1
  O  O38  1  0.91208400  0.38280400  0.32782800  1
  O  O39  1  0.99889900  0.23870600  0.06900200  1
  O  O40  1  0.91671300  0.25320000  0.84154600  1
  O  O41  1  0.67964200  0.48868200  0.66717800  1
  O  O42  1  0.61744900  0.52884600  0.32726200  1
  O  O43  1  0.80920000  0.31915900  0.66701700  1
  O  O44  1  0.66792200  0.33481700  0.02420300  1
  O  O45  1  0.66373100  0.33121900  0.51935500  1
  O  O46  1  0.67009300  0.18447400  0.16927800  1
  O  O47  1  0.48088700  0.38084200  0.82302700  1
  O  O48  1  0.51595900  0.33375800  0.17144300  1
  O  O49  1  0.74293100  0.08303400  0.33737600  1
  O  O50  1  0.79177900  0.99881900  0.75051100  1
  O  O51  1  0.77346700  0.99810200  0.56882600  1
  O  O52  1  0.75312000  0.99792100  0.93049100  1
  O  O53  1  0.61831200  0.09874400  0.82053100  1
  O  O54  1  0.50908700  0.18899100  0.66698300  1
  O  O55  1  0.66213300  0.91732700  0.15908700  1
  O  O56  1  0.46962500  0.08897900  0.33071400  1
  O  O57  1  0.34370900  0.26038200  0.33003000  1
  O  O58  1  0.79347400  0.79262800  0.24675500  1
  O  O59  1  0.77414100  0.77338200  0.42874900  1
  O  O60  1  0.20837500  0.20245400  0.57838100  1
  O  O61  1  0.66275700  0.74412900  0.65929500  1
  O  O62  1  0.52696600  0.90785500  0.67008400  1
  O  O63  1  0.33551600  0.08360700  0.84266700  1
  O  O64  1  0.48735100  0.81288700  0.33367100  1
  O  O65  1  0.37994400  0.90164700  0.17864400  1
  O  O66  1  0.24021700  0.99806500  0.07089400  1
  O  O67  1  0.22797800  0.02097600  0.43329600  1
  O  O68  1  0.20490500  0.99821800  0.25130700  1
  O  O69  1  0.25472900  0.91766800  0.66070400  1
  O  O70  1  0.48842500  0.67430500  0.82879200  1
  O  O71  1  0.52163500  0.61909900  0.17930500  1
  O  O72  1  0.32668700  0.81398000  0.83082800  1
  O  O73  1  0.33722500  0.66811900  0.97764700  1
  O  O74  1  0.33119300  0.65772800  0.47713200  1
  O  O75  1  0.18624600  0.66747600  0.32493300  1
  O  O76  1  0.38100000  0.46423900  0.66820900  1
  O  O77  1  0.33055000  0.51660200  0.32435000  1
  O  O78  1  0.08342500  0.74194400  0.16510100  1
  O  O79  1  0.00042700  0.79409900  0.75115600  1
  O  O80  1  0.00617200  0.76475600  0.93024300  1
  O  O81  1  0.08318400  0.61954600  0.66605700  1
  O  O82  1  0.18767000  0.51342300  0.83060800  1
  O  O83  1  0.09421000  0.47629600  0.17697500  1
  O  O84  1  0.25476800  0.33825300  0.15930600  1
  O  O85  1  0.24745000  0.24805500  0.93507300  1
  O  O86  1  0.20303400  0.21194400  0.75770400  1
  O  O87  1  0.08248700  0.33928200  0.66120700  1
  O  O88  1  0.98944900  0.21941300  0.43453200  1
  O  O89  1  0.00108500  0.20746700  0.25086700  1
