# generated using pymatgen
data_Li2Cr3SnO8
_symmetry_space_group_name_H-M   'P 1'
_cell_length_a   8.50841100
_cell_length_b   8.50841100
_cell_length_c   8.61057200
_cell_angle_alpha   90.00000000
_cell_angle_beta   90.00000000
_cell_angle_gamma   90.00000000
_symmetry_Int_Tables_number   1
_chemical_formula_structural   Li2Cr3SnO8
_chemical_formula_sum   'Li8 Cr12 Sn4 O32'
_cell_volume   623.34563601
_cell_formula_units_Z   4
loop_
 _symmetry_equiv_pos_site_id
 _symmetry_equiv_pos_as_xyz
  1  'x, y, z'
loop_
 _atom_site_type_symbol
 _atom_site_label
 _atom_site_symmetry_multiplicity
 _atom_site_fract_x
 _atom_site_fract_y
 _atom_site_fract_z
 _atom_site_occupancy
  Li  Li0  1  0.74977300  0.00121900  0.62626100  1
  Li  Li1  1  0.99878100  0.25022700  0.87373900  1
  Li  Li2  1  0.00121900  0.74977300  0.37373900  1
  Li  Li3  1  0.25022700  0.99878100  0.12626100  1
  Li  Li4  1  0.24977300  0.49878100  0.62373900  1
  Li  Li5  1  0.49878100  0.24977300  0.37626100  1
  Li  Li6  1  0.50121900  0.75022700  0.87626100  1
  Li  Li7  1  0.75022700  0.50121900  0.12373900  1
  Cr  Cr8  1  0.86553300  0.13446700  0.25000000  1
  Cr  Cr9  1  0.87280500  0.38001800  0.49329000  1
  Cr  Cr10  1  0.88001800  0.62719500  0.74329000  1
  Cr  Cr11  1  0.11998200  0.37280500  0.24329000  1
  Cr  Cr12  1  0.12719500  0.61998200  0.99329000  1
  Cr  Cr13  1  0.13446700  0.86553300  0.75000000  1
  Cr  Cr14  1  0.36553300  0.36553300  0.00000000  1
  Cr  Cr15  1  0.37280500  0.11998200  0.75671000  1
  Cr  Cr16  1  0.38001800  0.87280500  0.50671000  1
  Cr  Cr17  1  0.61998200  0.12719500  0.00671000  1
  Cr  Cr18  1  0.62719500  0.88001800  0.25671000  1
  Cr  Cr19  1  0.63446700  0.63446700  0.50000000  1
  Sn  Sn20  1  0.87598800  0.87598800  0.00000000  1
  Sn  Sn21  1  0.12401200  0.12401200  0.50000000  1
  Sn  Sn22  1  0.37598800  0.62401200  0.25000000  1
  Sn  Sn23  1  0.62401200  0.37598800  0.75000000  1
  O  O24  1  0.85759200  0.12319000  0.01739300  1
  O  O25  1  0.86596300  0.90090200  0.24457800  1
  O  O26  1  0.85631500  0.61887400  0.50933800  1
  O  O27  1  0.87681000  0.14240800  0.48260700  1
  O  O28  1  0.86854300  0.39016900  0.73006000  1
  O  O29  1  0.88112600  0.35631500  0.25933800  1
  O  O30  1  0.89016900  0.63145700  0.98006000  1
  O  O31  1  0.90090200  0.86596300  0.75542200  1
  O  O32  1  0.09909800  0.13403700  0.25542200  1
  O  O33  1  0.10983100  0.36854300  0.48006000  1
  O  O34  1  0.11887400  0.64368500  0.75933800  1
  O  O35  1  0.13145700  0.60983100  0.23006000  1
  O  O36  1  0.12319000  0.85759200  0.98260700  1
  O  O37  1  0.14368500  0.38112600  0.00933800  1
  O  O38  1  0.13403700  0.09909800  0.74457800  1
  O  O39  1  0.14240800  0.87681000  0.51739300  1
  O  O40  1  0.35759200  0.37681000  0.23260700  1
  O  O41  1  0.36596300  0.59909800  0.00542200  1
  O  O42  1  0.35631500  0.88112600  0.74066200  1
  O  O43  1  0.37681000  0.35759200  0.76739300  1
  O  O44  1  0.36854300  0.10983100  0.51994000  1
  O  O45  1  0.38112600  0.14368500  0.99066200  1
  O  O46  1  0.39016900  0.86854300  0.26994000  1
  O  O47  1  0.40090200  0.63403700  0.49457800  1
  O  O48  1  0.59909800  0.36596300  0.99457800  1
  O  O49  1  0.60983100  0.13145700  0.76994000  1
  O  O50  1  0.61887400  0.85631500  0.49066200  1
  O  O51  1  0.63145700  0.89016900  0.01994000  1
  O  O52  1  0.62319000  0.64240800  0.26739300  1
  O  O53  1  0.64368500  0.11887400  0.24066200  1
  O  O54  1  0.63403700  0.40090200  0.50542200  1
  O  O55  1  0.64240800  0.62319000  0.73260700  1
