# generated using pymatgen
data_Li3Co13O16
_symmetry_space_group_name_H-M   'P 1'
_cell_length_a   5.16086900
_cell_length_b   5.16629267
_cell_length_c   11.58274388
_cell_angle_alpha   85.86105069
_cell_angle_beta   81.52087382
_cell_angle_gamma   80.71439153
_symmetry_Int_Tables_number   1
_chemical_formula_structural   Li3Co13O16
_chemical_formula_sum   'Li3 Co13 O16'
_cell_volume   301.07694178
_cell_formula_units_Z   1
loop_
 _symmetry_equiv_pos_site_id
 _symmetry_equiv_pos_as_xyz
  1  'x, y, z'
loop_
 _atom_site_type_symbol
 _atom_site_label
 _atom_site_symmetry_multiplicity
 _atom_site_fract_x
 _atom_site_fract_y
 _atom_site_fract_z
 _atom_site_occupancy
  Li  Li0  1  0.00000000  0.50000000  0.00000000  1
  Li  Li1  1  0.81104200  0.25036600  0.68775400  1
  Li  Li2  1  0.18895800  0.74963400  0.31224600  1
  Co  Co3  1  0.75336800  0.50442200  0.24891700  1
  Co  Co4  1  0.56600300  0.25403700  0.93737600  1
  Co  Co5  1  0.50000000  0.50000000  0.50000000  1
  Co  Co6  1  0.88104000  0.99623600  0.12393500  1
  Co  Co7  1  0.30908000  0.25226200  0.18773300  1
  Co  Co8  1  0.06549000  0.24877300  0.43659200  1
  Co  Co9  1  0.24663200  0.49557800  0.75108300  1
  Co  Co10  1  0.11896000  0.00376400  0.87606500  1
  Co  Co11  1  0.62592600  0.99592600  0.37370700  1
  Co  Co12  1  0.43399700  0.74596300  0.06262400  1
  Co  Co13  1  0.37407400  0.00407400  0.62629300  1
  Co  Co14  1  0.93451000  0.75122700  0.56340800  1
  Co  Co15  1  0.69092000  0.74773800  0.81226700  1
  O  O16  1  0.34827800  0.63136000  0.90463300  1
  O  O17  1  0.84022200  0.62153300  0.40746500  1
  O  O18  1  0.09396400  0.62479100  0.15566300  1
  O  O19  1  0.90603600  0.37520900  0.84433700  1
  O  O20  1  0.96587300  0.13366100  0.27972900  1
  O  O21  1  0.22598200  0.11917100  0.03064700  1
  O  O22  1  0.71968200  0.12281000  0.52735200  1
  O  O23  1  0.58671500  0.63404200  0.65716900  1
  O  O24  1  0.77401800  0.88082900  0.96935300  1
  O  O25  1  0.15977800  0.37846700  0.59253500  1
  O  O26  1  0.65172200  0.36864000  0.09536700  1
  O  O27  1  0.41328500  0.36595800  0.34283100  1
  O  O28  1  0.46420800  0.12129900  0.78409400  1
  O  O29  1  0.28031800  0.87719000  0.47264800  1
  O  O30  1  0.53579200  0.87870100  0.21590600  1
  O  O31  1  0.03412700  0.86633900  0.72027100  1
