# generated using pymatgen
data_LiAgF4
_symmetry_space_group_name_H-M   'P 1'
_cell_length_a   3.47363800
_cell_length_b   4.63846900
_cell_length_c   4.66106551
_cell_angle_alpha   87.50586687
_cell_angle_beta   90.00000000
_cell_angle_gamma   90.00000000
_symmetry_Int_Tables_number   1
_chemical_formula_structural   LiAgF4
_chemical_formula_sum   'Li1 Ag1 F4'
_cell_volume   75.02963135
_cell_formula_units_Z   1
loop_
 _symmetry_equiv_pos_site_id
 _symmetry_equiv_pos_as_xyz
  1  'x, y, z'
loop_
 _atom_site_type_symbol
 _atom_site_label
 _atom_site_symmetry_multiplicity
 _atom_site_fract_x
 _atom_site_fract_y
 _atom_site_fract_z
 _atom_site_occupancy
  Li  Li0  1  0.50000000  0.50000000  0.50000000  1
  Ag  Ag1  1  0.00000000  0.00000000  0.00000000  1
  F  F2  1  0.00000000  0.67496400  0.29500900  1
  F  F3  1  0.50000000  0.81324700  0.78670500  1
  F  F4  1  0.50000000  0.18675300  0.21329500  1
  F  F5  1  0.00000000  0.32503600  0.70499100  1
