# generated using pymatgen
data_Li2Si3Ni2O9
_symmetry_space_group_name_H-M   'P 1'
_cell_length_a   9.93840954
_cell_length_b   9.93840954
_cell_length_c   12.24471200
_cell_angle_alpha   90.00000000
_cell_angle_beta   90.00000000
_cell_angle_gamma   119.99999693
_symmetry_Int_Tables_number   1
_chemical_formula_structural   Li2Si3Ni2O9
_chemical_formula_sum   'Li12 Si18 Ni12 O54'
_cell_volume   1047.40103329
_cell_formula_units_Z   6
loop_
 _symmetry_equiv_pos_site_id
 _symmetry_equiv_pos_as_xyz
  1  'x, y, z'
loop_
 _atom_site_type_symbol
 _atom_site_label
 _atom_site_symmetry_multiplicity
 _atom_site_fract_x
 _atom_site_fract_y
 _atom_site_fract_z
 _atom_site_occupancy
  Li  Li0  1  0.47644100  0.64207100  0.18325100  1
  Li  Li1  1  0.63641500  0.49194700  0.01347800  1
  Li  Li2  1  0.50805300  0.14446800  0.68014500  1
  Li  Li3  1  0.35792900  0.83436900  0.84991800  1
  Li  Li4  1  0.85553200  0.36358500  0.34681100  1
  Li  Li5  1  0.50013600  0.69479800  0.68284500  1
  Li  Li6  1  0.67879300  0.99843300  0.76102300  1
  Li  Li7  1  0.16563100  0.52355900  0.51658400  1
  Li  Li8  1  0.19466200  0.49986400  0.01617800  1
  Li  Li9  1  0.00156700  0.68036000  0.42769000  1
  Li  Li10  1  0.31964000  0.32120700  0.09435600  1
  Li  Li11  1  0.30520200  0.80533800  0.34951100  1
  Si  Si12  1  0.47218200  0.62343400  0.91835300  1
  Si  Si13  1  0.62546300  0.48091300  0.75737900  1
  Si  Si14  1  0.50792700  0.17386900  0.90524800  1
  Si  Si15  1  0.66594200  0.49207300  0.23858200  1
  Si  Si16  1  0.37656600  0.84874800  0.58502000  1
  Si  Si17  1  0.51908700  0.14455000  0.42404500  1
  Si  Si18  1  0.50448000  0.67171700  0.43630500  1
  Si  Si19  1  0.82613100  0.33405800  0.57191500  1
  Si  Si20  1  0.85545000  0.37453700  0.09071200  1
  Si  Si21  1  0.95167300  0.15523300  0.44481900  1
  Si  Si22  1  0.80326700  0.85078900  0.57228800  1
  Si  Si23  1  0.15125200  0.52781800  0.25168600  1
  Si  Si24  1  0.16723700  0.49552000  0.76963900  1
  Si  Si25  1  0.04752200  0.19673300  0.90562100  1
  Si  Si26  1  0.84476700  0.79644000  0.11148500  1
  Si  Si27  1  0.20356000  0.04832700  0.77815200  1
  Si  Si28  1  0.14921100  0.95247800  0.23895500  1
  Si  Si29  1  0.32828300  0.83276300  0.10297200  1
  Ni  Ni30  1  0.67426600  0.49457200  0.49806600  1
  Ni  Ni31  1  0.50542800  0.17969300  0.16473300  1
  Ni  Ni32  1  0.82030700  0.32573400  0.83140000  1
  Ni  Ni33  1  0.67555300  0.99605100  0.23744100  1
  Ni  Ni34  1  0.70347700  0.99954700  0.00151700  1
  Ni  Ni35  1  0.82267200  0.82750100  0.84030600  1
  Ni  Ni36  1  0.00482900  0.17732800  0.17364000  1
  Ni  Ni37  1  0.32049700  0.32444700  0.57077400  1
  Ni  Ni38  1  0.29607000  0.29652300  0.33485000  1
  Ni  Ni39  1  0.00045300  0.70393000  0.66818300  1
  Ni  Ni40  1  0.00394900  0.67950300  0.90410800  1
  Ni  Ni41  1  0.17249900  0.99517100  0.50697300  1
  O  O42  1  0.40410100  0.48167500  0.43733800  1
  O  O43  1  0.43080000  0.54418400  0.03705000  1
  O  O44  1  0.52558000  0.52906900  0.83575000  1
  O  O45  1  0.48044100  0.36560100  0.23238200  1
  O  O46  1  0.39249200  0.20016400  0.44024300  1
  O  O47  1  0.35123600  0.04372500  0.84035700  1
  O  O48  1  0.54919900  0.43511200  0.63577900  1
  O  O49  1  0.47558100  0.24038200  0.01587700  1
  O  O50  1  0.69248900  0.64876400  0.17369000  1
  O  O51  1  0.59795800  0.31792100  0.81443700  1
  O  O52  1  0.47093100  0.99651100  0.50241700  1
  O  O53  1  0.76480100  0.52441900  0.34921000  1
  O  O54  1  0.45581600  0.88661500  0.70371600  1
  O  O55  1  0.56488800  0.11408700  0.30244500  1
  O  O56  1  0.80767200  0.60750800  0.77357600  1
  O  O57  1  0.71996300  0.40204200  0.14777100  1
  O  O58  1  0.63439900  0.11484000  0.89904800  1
  O  O59  1  0.51832500  0.92242600  0.10400500  1
  O  O60  1  0.40965100  0.71631500  0.52797800  1
  O  O61  1  0.68207900  0.28003700  0.48110400  1
  O  O62  1  0.53580300  0.77043100  0.32532400  1
  O  O63  1  0.75961800  0.23519900  0.68254400  1
  O  O64  1  0.88516000  0.51955900  0.56571500  1
  O  O65  1  0.88591300  0.45080100  0.96911200  1
  O  O66  1  0.60033200  0.80483200  0.90474800  1
  O  O67  1  0.79983600  0.19232800  0.10690900  1
  O  O68  1  0.00348900  0.47442000  0.16908300  1
  O  O69  1  0.95627500  0.30751100  0.50702300  1
  O  O70  1  0.66728300  0.70080800  0.49919800  1
  O  O71  1  0.07757400  0.59589900  0.77067100  1
  O  O72  1  0.88739000  0.15016800  0.32039700  1
  O  O73  1  0.73257400  0.84001400  0.69333900  1
  O  O74  1  0.11338500  0.56920000  0.37038300  1
  O  O75  1  0.82004700  0.00345100  0.50985600  1
  O  O76  1  0.81945600  0.94557900  0.12835000  1
  O  O77  1  0.87860800  0.04339000  0.89322300  1
  O  O78  1  0.03352500  0.33271700  0.83253200  1
  O  O79  1  0.84983200  0.73722200  0.98706400  1
  O  O80  1  0.10744000  0.26742600  0.02667200  1
  O  O81  1  0.23462700  0.46419700  0.65865700  1
  O  O82  1  0.20450000  0.39966800  0.23808200  1
  O  O83  1  0.95661000  0.83521800  0.55989000  1
  O  O84  1  0.12612300  0.18054400  0.46168300  1
  O  O85  1  0.30666400  0.59034900  0.86131100  1
  O  O86  1  0.99654900  0.81659600  0.17652200  1
  O  O87  1  0.18340400  0.17995300  0.84318900  1
  O  O88  1  0.16478200  0.12139200  0.22655600  1
  O  O89  1  0.05442100  0.87387700  0.79501600  1
  O  O90  1  0.15998600  0.89256000  0.36000500  1
  O  O91  1  0.26277800  0.11261000  0.65373100  1
  O  O92  1  0.19516800  0.79550000  0.57141500  1
  O  O93  1  0.29919200  0.96647500  0.16586500  1
  O  O94  1  0.22956900  0.76537300  0.99199100  1
  O  O95  1  0.28368500  0.69333600  0.19464400  1
