# generated using pymatgen
data_Li9V19O48
_symmetry_space_group_name_H-M   'P 1'
_cell_length_a   5.08133900
_cell_length_b   10.29972594
_cell_length_c   17.23841519
_cell_angle_alpha   89.96067253
_cell_angle_beta   89.36630863
_cell_angle_gamma   89.91274118
_symmetry_Int_Tables_number   1
_chemical_formula_structural   Li9V19O48
_chemical_formula_sum   'Li9 V19 O48'
_cell_volume   902.14014971
_cell_formula_units_Z   1
loop_
 _symmetry_equiv_pos_site_id
 _symmetry_equiv_pos_as_xyz
  1  'x, y, z'
loop_
 _atom_site_type_symbol
 _atom_site_label
 _atom_site_symmetry_multiplicity
 _atom_site_fract_x
 _atom_site_fract_y
 _atom_site_fract_z
 _atom_site_occupancy
  Li  Li0  1  0.09482600  0.25015600  0.25100600  1
  Li  Li1  1  0.25302200  0.41749700  0.96931300  1
  Li  Li2  1  0.25120700  0.58197700  0.47254400  1
  Li  Li3  1  0.25258200  0.91830300  0.47281000  1
  Li  Li4  1  0.23983900  0.25755700  0.80226200  1
  Li  Li5  1  0.75809300  0.75395300  0.19254900  1
  Li  Li6  1  0.75075500  0.91845900  0.02856200  1
  Li  Li7  1  0.74388600  0.25217600  0.70337700  1
  Li  Li8  1  0.90605200  0.75067400  0.74900500  1
  V  V9  1  0.40865100  0.74737900  0.75046800  1
  V  V10  1  0.59429700  0.24747600  0.24838400  1
  V  V11  1  0.24452000  0.75104000  0.29952900  1
  V  V12  1  0.22977000  0.74980600  0.94406700  1
  V  V13  1  0.22345100  0.02967500  0.65675100  1
  V  V14  1  0.22169500  0.47077900  0.65503100  1
  V  V15  1  0.23781700  0.07143200  0.97366100  1
  V  V16  1  0.28929000  0.52663200  0.15444000  1
  V  V17  1  0.28858800  0.97262300  0.15715800  1
  V  V18  1  0.28598600  0.25029300  0.44368100  1
  V  V19  1  0.71390500  0.75037000  0.55746700  1
  V  V20  1  0.71354700  0.47156300  0.84209000  1
  V  V21  1  0.71586400  0.02495400  0.84527600  1
  V  V22  1  0.75932400  0.06881800  0.52890800  1
  V  V23  1  0.75746300  0.43123400  0.52844700  1
  V  V24  1  0.76581600  0.57047500  0.02302300  1
  V  V25  1  0.77255500  0.52920000  0.34275900  1
  V  V26  1  0.77613100  0.97082800  0.34413900  1
  V  V27  1  0.76936000  0.24889300  0.05614200  1
  O  O28  1  0.05899300  0.23670500  0.99669700  1
  O  O29  1  0.05682500  0.61585400  0.36547600  1
  O  O30  1  0.05726100  0.88189500  0.36837800  1
  O  O31  1  0.10902600  0.63063600  0.21255200  1
  O  O32  1  0.09191200  0.87438700  0.21631300  1
  O  O33  1  0.08610500  0.11918200  0.46535900  1
  O  O34  1  0.08396100  0.38113300  0.46488100  1
  O  O35  1  0.10193600  0.00806300  0.07258100  1
  O  O36  1  0.07567100  0.49813300  0.07802900  1
  O  O37  1  0.17550800  0.74727100  0.84320500  1
  O  O38  1  0.17667100  0.61963700  0.70386700  1
  O  O39  1  0.17904900  0.88036400  0.70511900  1
  O  O40  1  0.36958000  0.12108400  0.20744100  1
  O  O41  1  0.36414700  0.38290300  0.20391100  1
  O  O42  1  0.36653400  0.25150600  0.34489900  1
  O  O43  1  0.42864300  0.49579200  0.57450600  1
  O  O44  1  0.43263700  0.00584700  0.57672100  1
  O  O45  1  0.39984700  0.89010700  0.96634000  1
  O  O46  1  0.44086500  0.62381600  0.96681400  1
  O  O47  1  0.39465900  0.12607500  0.71415500  1
  O  O48  1  0.40377600  0.37396800  0.70891300  1
  O  O49  1  0.41832600  0.10776100  0.88321000  1
  O  O50  1  0.44797300  0.38463700  0.86946200  1
  O  O51  1  0.45219300  0.75046800  0.49785800  1
  O  O52  1  0.57859200  0.25060500  0.50688500  1
  O  O53  1  0.58091700  0.60725300  0.11832100  1
  O  O54  1  0.55865000  0.88896600  0.13118700  1
  O  O55  1  0.56297100  0.62728200  0.29081700  1
  O  O56  1  0.55819200  0.87446200  0.29511400  1
  O  O57  1  0.56028400  0.12318900  0.03400800  1
  O  O58  1  0.59912700  0.38976600  0.03455100  1
  O  O59  1  0.61118900  0.01438800  0.43103100  1
  O  O60  1  0.60889200  0.48786000  0.42977200  1
  O  O61  1  0.62855100  0.75199400  0.65713900  1
  O  O62  1  0.63022900  0.62108200  0.79345400  1
  O  O63  1  0.63644600  0.88079900  0.79668800  1
  O  O64  1  0.82698800  0.11727600  0.29264700  1
  O  O65  1  0.82046500  0.38212400  0.29117100  1
  O  O66  1  0.82479700  0.24637500  0.15730800  1
  O  O67  1  0.90247700  0.50851400  0.93019000  1
  O  O68  1  0.92457700  0.99657200  0.92468100  1
  O  O69  1  0.90372700  0.60854900  0.53684600  1
  O  O70  1  0.90487600  0.89166900  0.53674600  1
  O  O71  1  0.89045600  0.12056100  0.78644600  1
  O  O72  1  0.91156900  0.38185400  0.78410500  1
  O  O73  1  0.92337900  0.11229600  0.61899300  1
  O  O74  1  0.92068000  0.38707300  0.61780700  1
  O  O75  1  0.94157500  0.73804700  0.00455400  1
