# generated using pymatgen
data_Li8Ti2O7
_symmetry_space_group_name_H-M   'P 1'
_cell_length_a   10.24250200
_cell_length_b   7.74287900
_cell_length_c   9.43577020
_cell_angle_alpha   70.82539658
_cell_angle_beta   90.00000000
_cell_angle_gamma   90.00000000
_symmetry_Int_Tables_number   1
_chemical_formula_structural   Li8Ti2O7
_chemical_formula_sum   'Li32 Ti8 O28'
_cell_volume   706.80235166
_cell_formula_units_Z   4
loop_
 _symmetry_equiv_pos_site_id
 _symmetry_equiv_pos_as_xyz
  1  'x, y, z'
loop_
 _atom_site_type_symbol
 _atom_site_label
 _atom_site_symmetry_multiplicity
 _atom_site_fract_x
 _atom_site_fract_y
 _atom_site_fract_z
 _atom_site_occupancy
  Li  Li0  1  0.53976000  0.85338200  0.92859600  1
  Li  Li1  1  0.54287300  0.92258000  0.64079900  1
  Li  Li2  1  0.20067400  0.91883500  0.52449700  1
  Li  Li3  1  0.96024000  0.85338200  0.42859600  1
  Li  Li4  1  0.04500400  0.72921000  0.71650000  1
  Li  Li5  1  0.95712700  0.92258000  0.14079900  1
  Li  Li6  1  0.72540600  0.69492800  0.60494100  1
  Li  Li7  1  0.29932600  0.91883500  0.02449700  1
  Li  Li8  1  0.53942000  0.55346400  0.84862200  1
  Li  Li9  1  0.49335100  0.64179700  0.53308400  1
  Li  Li10  1  0.45499600  0.72921000  0.21650000  1
  Li  Li11  1  0.77432800  0.50433500  0.88723200  1
  Li  Li12  1  0.77459400  0.69492800  0.10494100  1
  Li  Li13  1  0.27432800  0.49566500  0.61276800  1
  Li  Li14  1  0.96058000  0.55346400  0.34862200  1
  Li  Li15  1  0.99335100  0.35820300  0.96691600  1
  Li  Li16  1  0.00664900  0.64179700  0.03308400  1
  Li  Li17  1  0.03942000  0.44653600  0.65137800  1
  Li  Li18  1  0.72567200  0.50433500  0.38723200  1
  Li  Li19  1  0.22540600  0.30507200  0.89505900  1
  Li  Li20  1  0.22567200  0.49566500  0.11276800  1
  Li  Li21  1  0.54500400  0.27079000  0.78350000  1
  Li  Li22  1  0.50664900  0.35820300  0.46691600  1
  Li  Li23  1  0.46058000  0.44653600  0.15137800  1
  Li  Li24  1  0.70067400  0.08116500  0.97550300  1
  Li  Li25  1  0.27459400  0.30507200  0.39505900  1
  Li  Li26  1  0.04287300  0.07742000  0.85920100  1
  Li  Li27  1  0.95499600  0.27079000  0.28350000  1
  Li  Li28  1  0.03976000  0.14661800  0.57140400  1
  Li  Li29  1  0.79932600  0.08116500  0.47550300  1
  Li  Li30  1  0.45712700  0.07742000  0.35920100  1
  Li  Li31  1  0.46024000  0.14661800  0.07140400  1
  Ti  Ti32  1  0.80678800  0.90835700  0.78042100  1
  Ti  Ti33  1  0.69321200  0.90835700  0.28042100  1
  Ti  Ti34  1  0.29080200  0.70666300  0.83800300  1
  Ti  Ti35  1  0.20919800  0.70666300  0.33800300  1
  Ti  Ti36  1  0.79080200  0.29333700  0.66199700  1
  Ti  Ti37  1  0.70919800  0.29333700  0.16199700  1
  Ti  Ti38  1  0.30678800  0.09164300  0.71957900  1
  Ti  Ti39  1  0.19321200  0.09164300  0.21957900  1
  O  O40  1  0.90187000  0.87561000  0.95430300  1
  O  O41  1  0.16889000  0.91110700  0.72535800  1
  O  O42  1  0.88443400  0.85645200  0.61745200  1
  O  O43  1  0.59813000  0.87561000  0.45430300  1
  O  O44  1  0.66294200  0.73639700  0.80111700  1
  O  O45  1  0.33111000  0.91110700  0.22535800  1
  O  O46  1  0.61556600  0.85645200  0.11745200  1
  O  O47  1  0.38973800  0.61675100  0.71854400  1
  O  O48  1  0.83705800  0.73639700  0.30111700  1
  O  O49  1  0.13525700  0.55124100  0.90958800  1
  O  O50  1  0.12100800  0.67119600  0.52332900  1
  O  O51  1  0.11026200  0.61675100  0.21854400  1
  O  O52  1  0.36474300  0.55124100  0.40958800  1
  O  O53  1  0.62100800  0.32880400  0.97667100  1
  O  O54  1  0.37899200  0.67119600  0.02332900  1
  O  O55  1  0.63525700  0.44875900  0.59041200  1
  O  O56  1  0.88973800  0.38324900  0.78145600  1
  O  O57  1  0.87899200  0.32880400  0.47667100  1
  O  O58  1  0.86474300  0.44875900  0.09041200  1
  O  O59  1  0.16294200  0.26360300  0.69888300  1
  O  O60  1  0.61026200  0.38324900  0.28145600  1
  O  O61  1  0.38443400  0.14354800  0.88254800  1
  O  O62  1  0.66889000  0.08889300  0.77464200  1
  O  O63  1  0.33705800  0.26360300  0.19888300  1
  O  O64  1  0.40187000  0.12439000  0.54569700  1
  O  O65  1  0.11556600  0.14354800  0.38254800  1
  O  O66  1  0.83111000  0.08889300  0.27464200  1
  O  O67  1  0.09813000  0.12439000  0.04569700  1
