# generated using pymatgen
data_LiV4OF11
_symmetry_space_group_name_H-M   'P 1'
_cell_length_a   5.28187000
_cell_length_b   5.49902200
_cell_length_c   17.41704118
_cell_angle_alpha   84.03763284
_cell_angle_beta   81.53415363
_cell_angle_gamma   61.33332102
_symmetry_Int_Tables_number   1
_chemical_formula_structural   LiV4OF11
_chemical_formula_sum   'Li2 V8 O2 F22'
_cell_volume   438.71305087
_cell_formula_units_Z   2
loop_
 _symmetry_equiv_pos_site_id
 _symmetry_equiv_pos_as_xyz
  1  'x, y, z'
loop_
 _atom_site_type_symbol
 _atom_site_label
 _atom_site_symmetry_multiplicity
 _atom_site_fract_x
 _atom_site_fract_y
 _atom_site_fract_z
 _atom_site_occupancy
  Li  Li0  1  0.37495300  0.53848200  0.18035100  1
  Li  Li1  1  0.62504700  0.46151800  0.81964900  1
  V  V2  1  0.23324100  0.27074600  0.75158200  1
  V  V3  1  0.62636200  0.63082500  0.62470000  1
  V  V4  1  0.11900000  0.15005900  0.12845200  1
  V  V5  1  0.88100000  0.84994100  0.87154800  1
  V  V6  1  0.50000000  0.50000000  0.00000000  1
  V  V7  1  0.37363800  0.36917500  0.37530000  1
  V  V8  1  0.76675900  0.72925400  0.24841800  1
  V  V9  1  0.00000000  0.00000000  0.50000000  1
  O  O10  1  0.94500300  0.55936500  0.81171200  1
  O  O11  1  0.05499700  0.44063500  0.18828800  1
  F  F12  1  0.01635300  0.41714700  0.65814400  1
  F  F13  1  0.53701100  0.94267100  0.68779000  1
  F  F14  1  0.28154800  0.29324800  0.03341600  1
  F  F15  1  0.47692600  0.09932800  0.83754400  1
  F  F16  1  0.98364700  0.58285300  0.34185600  1
  F  F17  1  0.52307400  0.90067200  0.16245600  1
  F  F18  1  0.71845200  0.70675200  0.96658400  1
  F  F19  1  0.21320400  0.20624800  0.46565300  1
  F  F20  1  0.47646200  0.47512800  0.72050600  1
  F  F21  1  0.46298900  0.05732900  0.31221000  1
  F  F22  1  0.78287100  0.19373100  0.93391400  1
  F  F23  1  0.52353800  0.52487200  0.27949400  1
  F  F24  1  0.00111400  0.06058500  0.78744400  1
  F  F25  1  0.70270900  0.34578600  0.09706200  1
  F  F26  1  0.78679600  0.79375200  0.53434700  1
  F  F27  1  0.76446700  0.16360400  0.41088200  1
  F  F28  1  0.29729100  0.65421400  0.90293800  1
  F  F29  1  0.99888600  0.93941500  0.21255600  1
  F  F30  1  0.70720800  0.31722700  0.56430700  1
  F  F31  1  0.21712900  0.80626900  0.06608600  1
  F  F32  1  0.29279200  0.68277300  0.43569300  1
  F  F33  1  0.23553300  0.83639600  0.58911800  1
