# generated using pymatgen
data_Li3Cr4P9O32
_symmetry_space_group_name_H-M   'P 1'
_cell_length_a   13.77032900
_cell_length_b   13.77032900
_cell_length_c   6.25750700
_cell_angle_alpha   90.00000000
_cell_angle_beta   90.00000000
_cell_angle_gamma   90.00000000
_symmetry_Int_Tables_number   1
_chemical_formula_structural   Li3Cr4P9O32
_chemical_formula_sum   'Li6 Cr8 P18 O64'
_cell_volume   1186.56074686
_cell_formula_units_Z   2
loop_
 _symmetry_equiv_pos_site_id
 _symmetry_equiv_pos_as_xyz
  1  'x, y, z'
loop_
 _atom_site_type_symbol
 _atom_site_label
 _atom_site_symmetry_multiplicity
 _atom_site_fract_x
 _atom_site_fract_y
 _atom_site_fract_z
 _atom_site_occupancy
  Li  Li0  1  0.00000000  0.50000000  0.35420600  1
  Li  Li1  1  0.50000000  0.00000000  0.64579400  1
  Li  Li2  1  0.00000000  0.50000000  0.85420600  1
  Li  Li3  1  0.50000000  0.50000000  0.50000000  1
  Li  Li4  1  0.50000000  0.00000000  0.14579400  1
  Li  Li5  1  0.00000000  0.00000000  0.00000000  1
  Cr  Cr6  1  0.37973500  0.30500400  0.12308200  1
  Cr  Cr7  1  0.62026500  0.69499600  0.12308200  1
  Cr  Cr8  1  0.87973500  0.19499600  0.37691800  1
  Cr  Cr9  1  0.30500400  0.62026500  0.87691800  1
  Cr  Cr10  1  0.69499600  0.37973500  0.87691800  1
  Cr  Cr11  1  0.12026500  0.80500400  0.37691800  1
  Cr  Cr12  1  0.19499600  0.12026500  0.62308200  1
  Cr  Cr13  1  0.80500400  0.87973500  0.62308200  1
  P  P14  1  0.30397200  0.94130900  0.39032800  1
  P  P15  1  0.39253800  0.25230200  0.63336700  1
  P  P16  1  0.94130900  0.69602800  0.60967200  1
  P  P17  1  0.24769800  0.10746200  0.13336700  1
  P  P18  1  0.25230200  0.60746200  0.36663300  1
  P  P19  1  0.10746200  0.75230200  0.86663300  1
  P  P20  1  0.75230200  0.89253800  0.13336700  1
  P  P21  1  0.44130900  0.80397200  0.89032800  1
  P  P22  1  0.80397200  0.55869100  0.10967200  1
  P  P23  1  0.50000000  0.50000000  0.00000000  1
  P  P24  1  0.55869100  0.19602800  0.89032800  1
  P  P25  1  0.19602800  0.44130900  0.10967200  1
  P  P26  1  0.69602800  0.05869100  0.39032800  1
  P  P27  1  0.00000000  0.00000000  0.50000000  1
  P  P28  1  0.05869100  0.30397200  0.60967200  1
  P  P29  1  0.74769800  0.39253800  0.36663300  1
  P  P30  1  0.60746200  0.74769800  0.63336700  1
  P  P31  1  0.89253800  0.24769800  0.86663300  1
  O  O32  1  0.39348100  0.31204600  0.42731800  1
  O  O33  1  0.68795400  0.39348100  0.57268200  1
  O  O34  1  0.36628600  0.32019100  0.81973900  1
  O  O35  1  0.49629600  0.77637300  0.66737600  1
  O  O36  1  0.91282400  0.55712900  0.09483500  1
  O  O37  1  0.25663800  0.84016600  0.36026500  1
  O  O38  1  0.06291500  0.06264500  0.65281000  1
  O  O39  1  0.56264500  0.56291500  0.15281000  1
  O  O40  1  0.00568400  0.24988300  0.42835600  1
  O  O41  1  0.16585400  0.65903200  0.87730600  1
  O  O42  1  0.89348100  0.18795400  0.07268200  1
  O  O43  1  0.15983400  0.25663800  0.63973500  1
  O  O44  1  0.43735500  0.43708500  0.15281000  1
  O  O45  1  0.74988300  0.50568400  0.92835600  1
  O  O46  1  0.50370400  0.22362700  0.66737600  1
  O  O47  1  0.49431600  0.74988300  0.07164400  1
  O  O48  1  0.94287100  0.58717600  0.59483500  1
  O  O49  1  0.84016600  0.74336200  0.63973500  1
  O  O50  1  0.74336200  0.15983400  0.36026500  1
  O  O51  1  0.44287100  0.91282400  0.90516500  1
  O  O52  1  0.27637300  0.99629600  0.16737600  1
  O  O53  1  0.50568400  0.25011700  0.07164400  1
  O  O54  1  0.05712900  0.41282400  0.59483500  1
  O  O55  1  0.31204600  0.60651900  0.57268200  1
  O  O56  1  0.17980900  0.13371400  0.31973900  1
  O  O57  1  0.08717600  0.44287100  0.09483500  1
  O  O58  1  0.67980900  0.36628600  0.18026100  1
  O  O59  1  0.32019100  0.63371400  0.18026100  1
  O  O60  1  0.82019100  0.86628600  0.31973900  1
  O  O61  1  0.99629600  0.72362700  0.83262400  1
  O  O62  1  0.66585400  0.84096800  0.62269400  1
  O  O63  1  0.43708500  0.56264500  0.84719000  1
  O  O64  1  0.06264500  0.93708500  0.34719000  1
  O  O65  1  0.75663800  0.65983400  0.13973500  1
  O  O66  1  0.83414600  0.34096800  0.87730600  1
  O  O67  1  0.63371400  0.67980900  0.81973900  1
  O  O68  1  0.81204600  0.89348100  0.92731800  1
  O  O69  1  0.34096800  0.16585400  0.12269400  1
  O  O70  1  0.56291500  0.43735500  0.84719000  1
  O  O71  1  0.13371400  0.82019100  0.68026100  1
  O  O72  1  0.24336200  0.34016600  0.13973500  1
  O  O73  1  0.15903200  0.66585400  0.37730600  1
  O  O74  1  0.65903200  0.83414600  0.12269400  1
  O  O75  1  0.93708500  0.93735500  0.65281000  1
  O  O76  1  0.18795400  0.10651900  0.92731800  1
  O  O77  1  0.10651900  0.81204600  0.07268200  1
  O  O78  1  0.34016600  0.75663800  0.86026500  1
  O  O79  1  0.58717600  0.05712900  0.40516500  1
  O  O80  1  0.84096800  0.33414600  0.37730600  1
  O  O81  1  0.99431600  0.75011700  0.42835600  1
  O  O82  1  0.93735500  0.06291500  0.34719000  1
  O  O83  1  0.86628600  0.17980900  0.68026100  1
  O  O84  1  0.24988300  0.99431600  0.57164400  1
  O  O85  1  0.75011700  0.00568400  0.57164400  1
  O  O86  1  0.65983400  0.24336200  0.86026500  1
  O  O87  1  0.22362700  0.49629600  0.33262400  1
  O  O88  1  0.25011700  0.49431600  0.92835600  1
  O  O89  1  0.00370400  0.27637300  0.83262400  1
  O  O90  1  0.33414600  0.15903200  0.62269400  1
  O  O91  1  0.41282400  0.94287100  0.40516500  1
  O  O92  1  0.60651900  0.68795400  0.42731800  1
  O  O93  1  0.72362700  0.00370400  0.16737600  1
  O  O94  1  0.77637300  0.50370400  0.33262400  1
  O  O95  1  0.55712900  0.08717600  0.90516500  1
