# generated using pymatgen
data_Sr3Li3Cu3(PO4)4
_symmetry_space_group_name_H-M   'P 1'
_cell_length_a   4.87419700
_cell_length_b   9.24462100
_cell_length_c   18.39025250
_cell_angle_alpha   65.43096844
_cell_angle_beta   90.00000000
_cell_angle_gamma   90.00000000
_symmetry_Int_Tables_number   1
_chemical_formula_structural   Sr3Li3Cu3(PO4)4
_chemical_formula_sum   'Sr6 Li6 Cu6 P8 O32'
_cell_volume   753.64001651
_cell_formula_units_Z   2
loop_
 _symmetry_equiv_pos_site_id
 _symmetry_equiv_pos_as_xyz
  1  'x, y, z'
loop_
 _atom_site_type_symbol
 _atom_site_label
 _atom_site_symmetry_multiplicity
 _atom_site_fract_x
 _atom_site_fract_y
 _atom_site_fract_z
 _atom_site_occupancy
  Sr  Sr0  1  0.23738100  0.79658700  0.23165500  1
  Sr  Sr1  1  0.78186400  0.17932900  0.27942400  1
  Sr  Sr2  1  0.76261900  0.79658700  0.73165500  1
  Sr  Sr3  1  0.76671100  0.49340400  0.00742700  1
  Sr  Sr4  1  0.21813600  0.17932900  0.77942400  1
  Sr  Sr5  1  0.23328900  0.49340400  0.50742700  1
  Li  Li6  1  0.32409300  0.53236000  0.71427600  1
  Li  Li7  1  0.74489600  0.78172400  0.40425300  1
  Li  Li8  1  0.23934200  0.20592700  0.10044800  1
  Li  Li9  1  0.25510400  0.78172400  0.90425300  1
  Li  Li10  1  0.67590700  0.53236000  0.21427600  1
  Li  Li11  1  0.76065800  0.20592700  0.60044800  1
  Cu  Cu12  1  0.80293900  0.27832500  0.89512300  1
  Cu  Cu13  1  0.39312200  0.77937200  0.57754500  1
  Cu  Cu14  1  0.74709000  0.99869400  0.50334100  1
  Cu  Cu15  1  0.19706100  0.27832500  0.39512300  1
  Cu  Cu16  1  0.60687800  0.77937200  0.07754500  1
  Cu  Cu17  1  0.25291000  0.99869400  0.00334100  1
  P  P18  1  0.77633400  0.45350200  0.65620400  1
  P  P19  1  0.80539100  0.05940300  0.10100600  1
  P  P20  1  0.29020400  0.53749300  0.84878300  1
  P  P21  1  0.31391500  0.93526600  0.39847400  1
  P  P22  1  0.19460900  0.05940300  0.60100600  1
  P  P23  1  0.22366600  0.45350200  0.15620400  1
  P  P24  1  0.68608500  0.93526600  0.89847400  1
  P  P25  1  0.70979600  0.53749300  0.34878300  1
  O  O26  1  0.68646200  0.42281600  0.58282800  1
  O  O27  1  0.93091200  0.91597600  0.08487200  1
  O  O28  1  0.67711900  0.31845800  0.73499100  1
  O  O29  1  0.09624200  0.45848400  0.65504300  1
  O  O30  1  0.49150700  0.03832500  0.11201500  1
  O  O31  1  0.17041800  0.38533800  0.84335900  1
  O  O32  1  0.94444100  0.05919500  0.17744700  1
  O  O33  1  0.88893400  0.21659700  0.03049800  1
  O  O34  1  0.40832300  0.77355100  0.46659900  1
  O  O35  1  0.44396200  0.93902800  0.32055000  1
  O  O36  1  0.65687800  0.61590900  0.65162100  1
  O  O37  1  0.60359500  0.51652200  0.86767300  1
  O  O38  1  0.25849700  0.67771600  0.76346700  1
  O  O39  1  0.00052100  0.94541400  0.39342400  1
  O  O40  1  0.14356800  0.58338500  0.91024200  1
  O  O41  1  0.44086500  0.07569500  0.41631800  1
  O  O42  1  0.06908800  0.91597600  0.58487200  1
  O  O43  1  0.31353800  0.42281600  0.08282800  1
  O  O44  1  0.50849300  0.03832500  0.61201500  1
  O  O45  1  0.32288100  0.31845800  0.23499100  1
  O  O46  1  0.90375800  0.45848400  0.15504300  1
  O  O47  1  0.82958200  0.38533800  0.34335900  1
  O  O48  1  0.05555900  0.05919500  0.67744700  1
  O  O49  1  0.11106600  0.21659700  0.53049800  1
  O  O50  1  0.59167700  0.77355100  0.96659900  1
  O  O51  1  0.55603800  0.93902800  0.82055000  1
  O  O52  1  0.34312200  0.61590900  0.15162100  1
  O  O53  1  0.99947900  0.94541400  0.89342400  1
  O  O54  1  0.39640500  0.51652200  0.36767300  1
  O  O55  1  0.74150300  0.67771600  0.26346700  1
  O  O56  1  0.55913500  0.07569500  0.91631800  1
  O  O57  1  0.85643200  0.58338500  0.41024200  1
