# generated using pymatgen
data_LiFe(PO3)4
_symmetry_space_group_name_H-M   'P 1'
_cell_length_a   7.42934102
_cell_length_b   7.42934102
_cell_length_c   18.11682600
_cell_angle_alpha   90.00000000
_cell_angle_beta   90.00000000
_cell_angle_gamma   101.71716795
_symmetry_Int_Tables_number   1
_chemical_formula_structural   LiFe(PO3)4
_chemical_formula_sum   'Li4 Fe4 P16 O48'
_cell_volume   979.12300145
_cell_formula_units_Z   4
loop_
 _symmetry_equiv_pos_site_id
 _symmetry_equiv_pos_as_xyz
  1  'x, y, z'
loop_
 _atom_site_type_symbol
 _atom_site_label
 _atom_site_symmetry_multiplicity
 _atom_site_fract_x
 _atom_site_fract_y
 _atom_site_fract_z
 _atom_site_occupancy
  Li  Li0  1  0.20605400  0.10108500  0.64047100  1
  Li  Li1  1  0.89891500  0.79394600  0.85952900  1
  Li  Li2  1  0.79394600  0.89891500  0.14047100  1
  Li  Li3  1  0.10108500  0.20605400  0.35952900  1
  Fe  Fe4  1  0.56303300  0.95399700  0.87909700  1
  Fe  Fe5  1  0.04600300  0.43696700  0.62090300  1
  Fe  Fe6  1  0.95399700  0.56303300  0.12090300  1
  Fe  Fe7  1  0.43696700  0.04600300  0.37909700  1
  P  P8  1  0.23096400  0.95451100  0.15171800  1
  P  P9  1  0.04548900  0.76903600  0.34828200  1
  P  P10  1  0.28741700  0.77276900  0.01053400  1
  P  P11  1  0.22723100  0.71258300  0.48946600  1
  P  P12  1  0.38127600  0.61872400  0.75000000  1
  P  P13  1  0.23481600  0.33306000  0.19201300  1
  P  P14  1  0.66694000  0.76518400  0.30798700  1
  P  P15  1  0.36561300  0.36561300  0.50000000  1
  P  P16  1  0.63438700  0.63438700  0.00000000  1
  P  P17  1  0.33306000  0.23481600  0.80798700  1
  P  P18  1  0.76518400  0.66694000  0.69201300  1
  P  P19  1  0.61872400  0.38127600  0.25000000  1
  P  P20  1  0.77276900  0.28741700  0.98946600  1
  P  P21  1  0.71258300  0.22723100  0.51053400  1
  P  P22  1  0.76903600  0.04548900  0.65171800  1
  P  P23  1  0.95451100  0.23096400  0.84828200  1
  O  O24  1  0.16568900  0.96293500  0.35388600  1
  O  O25  1  0.03706500  0.83431100  0.14611400  1
  O  O26  1  0.35077200  0.94954000  0.21524100  1
  O  O27  1  0.05046000  0.64922800  0.28475900  1
  O  O28  1  0.33482400  0.90499200  0.48125900  1
  O  O29  1  0.09500800  0.66517600  0.01874100  1
  O  O30  1  0.08316400  0.65963900  0.42362300  1
  O  O31  1  0.34036100  0.91683600  0.07637700  1
  O  O32  1  0.33482600  0.87292600  0.93860400  1
  O  O33  1  0.12707400  0.66517400  0.56139600  1
  O  O34  1  0.42078800  0.78809000  0.79784400  1
  O  O35  1  0.21191000  0.57921200  0.70215600  1
  O  O36  1  0.51101000  0.82230000  0.34996700  1
  O  O37  1  0.17770000  0.48899000  0.15003300  1
  O  O38  1  0.36944800  0.57448200  0.47901200  1
  O  O39  1  0.42551800  0.63055200  0.02098800  1
  O  O40  1  0.80304800  0.83890900  0.63473100  1
  O  O41  1  0.16109100  0.19695200  0.86526900  1
  O  O42  1  0.54426200  0.61140900  0.69249500  1
  O  O43  1  0.38859100  0.45573800  0.80750500  1
  O  O44  1  0.68459700  0.74635800  0.93023600  1
  O  O45  1  0.25364200  0.31540300  0.56976400  1
  O  O46  1  0.15765300  0.28420700  0.26601400  1
  O  O47  1  0.71579300  0.84234700  0.23398600  1
  O  O48  1  0.28420700  0.15765300  0.73398600  1
  O  O49  1  0.84234700  0.71579300  0.76601400  1
  O  O50  1  0.31540300  0.25364200  0.43023600  1
  O  O51  1  0.74635800  0.68459700  0.06976400  1
  O  O52  1  0.61140900  0.54426200  0.30750500  1
  O  O53  1  0.45573800  0.38859100  0.19249500  1
  O  O54  1  0.19695200  0.16109100  0.13473100  1
  O  O55  1  0.83890900  0.80304800  0.36526900  1
  O  O56  1  0.63055200  0.42551800  0.97901200  1
  O  O57  1  0.57448200  0.36944800  0.52098800  1
  O  O58  1  0.82230000  0.51101000  0.65003300  1
  O  O59  1  0.48899000  0.17770000  0.84996700  1
  O  O60  1  0.78809000  0.42078800  0.20215600  1
  O  O61  1  0.57921200  0.21191000  0.29784400  1
  O  O62  1  0.66517400  0.12707400  0.43860400  1
  O  O63  1  0.87292600  0.33482600  0.06139600  1
  O  O64  1  0.65963900  0.08316400  0.57637700  1
  O  O65  1  0.91683600  0.34036100  0.92362300  1
  O  O66  1  0.90499200  0.33482400  0.51874100  1
  O  O67  1  0.66517600  0.09500800  0.98125900  1
  O  O68  1  0.64922800  0.05046000  0.71524100  1
  O  O69  1  0.94954000  0.35077200  0.78475900  1
  O  O70  1  0.96293500  0.16568900  0.64611400  1
  O  O71  1  0.83431100  0.03706500  0.85388600  1
