# generated using pymatgen
data_LiNiPO4
_symmetry_space_group_name_H-M   'P 1'
_cell_length_a   5.16552716
_cell_length_b   7.58408542
_cell_length_c   8.05516851
_cell_angle_alpha   92.35448045
_cell_angle_beta   90.27188944
_cell_angle_gamma   78.08564319
_symmetry_Int_Tables_number   1
_chemical_formula_structural   LiNiPO4
_chemical_formula_sum   'Li4 Ni4 P4 O16'
_cell_volume   308.50655887
_cell_formula_units_Z   4
loop_
 _symmetry_equiv_pos_site_id
 _symmetry_equiv_pos_as_xyz
  1  'x, y, z'
loop_
 _atom_site_type_symbol
 _atom_site_label
 _atom_site_symmetry_multiplicity
 _atom_site_fract_x
 _atom_site_fract_y
 _atom_site_fract_z
 _atom_site_occupancy
  Li  Li0  1  0.30535000  0.18480200  0.90192300  1
  Li  Li1  1  0.31421800  0.66724100  0.57792100  1
  Li  Li2  1  0.68578800  0.33275300  0.42207700  1
  Li  Li3  1  0.69465400  0.81520100  0.09807600  1
  Ni  Ni4  1  0.13540600  0.94442600  0.31357100  1
  Ni  Ni5  1  0.19925600  0.47657900  0.21117900  1
  Ni  Ni6  1  0.80072600  0.52343100  0.78881500  1
  Ni  Ni7  1  0.86458200  0.05556800  0.68644200  1
  P  P8  1  0.24895100  0.27934200  0.56228600  1
  P  P9  1  0.21324200  0.77629900  0.91654100  1
  P  P10  1  0.78676100  0.22370300  0.08346000  1
  P  P11  1  0.75104900  0.72065800  0.43771400  1
  O  O12  1  0.05687700  0.16369100  0.48202500  1
  O  O13  1  0.05877300  0.28428800  0.08684300  1
  O  O14  1  0.13162300  0.34334400  0.73625400  1
  O  O15  1  0.26241400  0.44170400  0.45344600  1
  O  O16  1  0.18180800  0.95943600  0.83013500  1
  O  O17  1  0.41938300  0.63312400  0.81950000  1
  O  O18  1  0.30913100  0.79466300  0.09937500  1
  O  O19  1  0.53350600  0.17231300  0.57339500  1
  O  O20  1  0.46649400  0.82768600  0.42660500  1
  O  O21  1  0.69087800  0.20533100  0.90062400  1
  O  O22  1  0.58061300  0.36687600  0.18049900  1
  O  O23  1  0.81820000  0.04056700  0.16986500  1
  O  O24  1  0.73759100  0.55829500  0.54655100  1
  O  O25  1  0.86837000  0.65665900  0.26374500  1
  O  O26  1  0.94122600  0.71571500  0.91315900  1
  O  O27  1  0.94313000  0.83630700  0.51797500  1
