# generated using pymatgen
data_Li3VFe3O8
_symmetry_space_group_name_H-M   'P 1'
_cell_length_a   5.97326489
_cell_length_b   5.97326489
_cell_length_c   5.99246857
_cell_angle_alpha   60.25905424
_cell_angle_beta   60.25905424
_cell_angle_gamma   59.37502587
_symmetry_Int_Tables_number   1
_chemical_formula_structural   Li3VFe3O8
_chemical_formula_sum   'Li3 V1 Fe3 O8'
_cell_volume   151.04096236
_cell_formula_units_Z   1
loop_
 _symmetry_equiv_pos_site_id
 _symmetry_equiv_pos_as_xyz
  1  'x, y, z'
loop_
 _atom_site_type_symbol
 _atom_site_label
 _atom_site_symmetry_multiplicity
 _atom_site_fract_x
 _atom_site_fract_y
 _atom_site_fract_z
 _atom_site_occupancy
  Li  Li0  1  0.50000000  0.00000000  0.50000000  1
  Li  Li1  1  0.00000000  0.50000000  0.50000000  1
  Li  Li2  1  0.50000000  0.50000000  0.50000000  1
  V  V3  1  0.00000000  0.00000000  0.00000000  1
  Fe  Fe4  1  0.50000000  0.50000000  0.00000000  1
  Fe  Fe5  1  0.00000000  0.50000000  0.00000000  1
  Fe  Fe6  1  0.50000000  0.00000000  0.00000000  1
  O  O7  1  0.25517900  0.76130400  0.21964000  1
  O  O8  1  0.76130400  0.25517900  0.21964000  1
  O  O9  1  0.26564900  0.26564900  0.21460100  1
  O  O10  1  0.76066700  0.76066700  0.22877800  1
  O  O11  1  0.23933300  0.23933300  0.77122200  1
  O  O12  1  0.73435100  0.73435100  0.78539900  1
  O  O13  1  0.23869600  0.74482100  0.78036000  1
  O  O14  1  0.74482100  0.23869600  0.78036000  1
