# generated using pymatgen
data_Li10Fe9CoO20
_symmetry_space_group_name_H-M   'P 1'
_cell_length_a   2.97297400
_cell_length_b   5.97913600
_cell_length_c   21.25559247
_cell_angle_alpha   82.45842055
_cell_angle_beta   90.00000000
_cell_angle_gamma   90.00000000
_symmetry_Int_Tables_number   1
_chemical_formula_structural   Li10Fe9CoO20
_chemical_formula_sum   'Li10 Fe9 Co1 O20'
_cell_volume   374.56717478
_cell_formula_units_Z   1
loop_
 _symmetry_equiv_pos_site_id
 _symmetry_equiv_pos_as_xyz
  1  'x, y, z'
loop_
 _atom_site_type_symbol
 _atom_site_label
 _atom_site_symmetry_multiplicity
 _atom_site_fract_x
 _atom_site_fract_y
 _atom_site_fract_z
 _atom_site_occupancy
  Li  Li0  1  0.50000000  0.50000000  0.00000000  1
  Li  Li1  1  0.00000000  0.70308600  0.09827000  1
  Li  Li2  1  0.50000000  0.89966800  0.20065000  1
  Li  Li3  1  0.00000000  0.10025400  0.29990500  1
  Li  Li4  1  0.00000000  0.50000000  0.50000000  1
  Li  Li5  1  0.50000000  0.29999000  0.40003000  1
  Li  Li6  1  0.50000000  0.70001000  0.59997000  1
  Li  Li7  1  0.00000000  0.89974600  0.70009500  1
  Li  Li8  1  0.50000000  0.10033200  0.79935000  1
  Li  Li9  1  0.00000000  0.29691400  0.90173000  1
  Fe  Fe10  1  0.50000000  0.39918600  0.19870500  1
  Fe  Fe11  1  0.00000000  0.19528200  0.09778000  1
  Fe  Fe12  1  0.00000000  0.59923200  0.29975600  1
  Fe  Fe13  1  0.50000000  0.79987500  0.39996800  1
  Fe  Fe14  1  0.00000000  0.00000000  0.50000000  1
  Fe  Fe15  1  0.00000000  0.40076800  0.70024400  1
  Fe  Fe16  1  0.50000000  0.20012500  0.60003200  1
  Fe  Fe17  1  0.50000000  0.60081400  0.80129500  1
  Fe  Fe18  1  0.00000000  0.80471800  0.90222000  1
  Co  Co19  1  0.50000000  0.00000000  0.00000000  1
  O  O20  1  0.00000000  0.78058800  0.99824600  1
  O  O21  1  0.50000000  0.03552700  0.90638600  1
  O  O22  1  0.00000000  0.21941200  0.00175400  1
  O  O23  1  0.50000000  0.43300500  0.10106400  1
  O  O24  1  0.50000000  0.96447300  0.09361400  1
  O  O25  1  0.00000000  0.63510900  0.20215600  1
  O  O26  1  0.00000000  0.16385500  0.19620100  1
  O  O27  1  0.50000000  0.36508500  0.29676200  1
  O  O28  1  0.00000000  0.56495600  0.39718800  1
  O  O29  1  0.50000000  0.83488200  0.30264000  1
  O  O30  1  0.00000000  0.03501500  0.40272700  1
  O  O31  1  0.50000000  0.76495200  0.49726100  1
  O  O32  1  0.00000000  0.43504400  0.60281200  1
  O  O33  1  0.00000000  0.96498500  0.59727300  1
  O  O34  1  0.50000000  0.23504800  0.50273900  1
  O  O35  1  0.00000000  0.36489100  0.79784400  1
  O  O36  1  0.50000000  0.63491500  0.70323800  1
  O  O37  1  0.50000000  0.16511800  0.69736000  1
  O  O38  1  0.00000000  0.83614500  0.80379900  1
  O  O39  1  0.50000000  0.56699500  0.89893600  1
