# generated using pymatgen
data_LiFeSiO4
_symmetry_space_group_name_H-M   'P 1'
_cell_length_a   5.18037267
_cell_length_b   10.35649984
_cell_length_c   6.68780300
_cell_angle_alpha   89.99991689
_cell_angle_beta   89.99953575
_cell_angle_gamma   90.96025398
_symmetry_Int_Tables_number   1
_chemical_formula_structural   LiFeSiO4
_chemical_formula_sum   'Li4 Fe4 Si4 O16'
_cell_volume   358.75377683
_cell_formula_units_Z   4
loop_
 _symmetry_equiv_pos_site_id
 _symmetry_equiv_pos_as_xyz
  1  'x, y, z'
loop_
 _atom_site_type_symbol
 _atom_site_label
 _atom_site_symmetry_multiplicity
 _atom_site_fract_x
 _atom_site_fract_y
 _atom_site_fract_z
 _atom_site_occupancy
  Li  Li0  1  0.30566000  0.34715500  0.50002200  1
  Li  Li1  1  0.30567900  0.84714100  0.50002700  1
  Li  Li2  1  0.69434200  0.15284400  0.00002200  1
  Li  Li3  1  0.69432900  0.65285500  0.00002700  1
  Fe  Fe4  1  0.31543400  0.84232300  0.00001000  1
  Fe  Fe5  1  0.68456100  0.65767800  0.50000300  1
  Fe  Fe6  1  0.31546500  0.34233100  0.00004600  1
  Fe  Fe7  1  0.68452300  0.15767700  0.50003800  1
  Si  Si8  1  0.18003000  0.09006100  0.24999900  1
  Si  Si9  1  0.18005100  0.59005800  0.24999400  1
  Si  Si10  1  0.81996800  0.40994200  0.75000300  1
  Si  Si11  1  0.81995100  0.90994100  0.74999400  1
  O  O12  1  0.13167400  0.38253700  0.76262300  1
  O  O13  1  0.13166800  0.88256300  0.76259900  1
  O  O14  1  0.23478000  0.43411300  0.23736000  1
  O  O15  1  0.23477300  0.93412300  0.23735100  1
  O  O16  1  0.76522000  0.06588700  0.73735600  1
  O  O17  1  0.76522700  0.56587900  0.73734400  1
  O  O18  1  0.86832300  0.11746100  0.26262200  1
  O  O19  1  0.86833600  0.61743500  0.26259900  1
  O  O20  1  0.32266500  0.15121800  0.44927300  1
  O  O21  1  0.32265900  0.65121200  0.44927100  1
  O  O22  1  0.30251400  0.16129400  0.05071500  1
  O  O23  1  0.30252500  0.66128700  0.05071500  1
  O  O24  1  0.69748800  0.33870600  0.55072000  1
  O  O25  1  0.69747800  0.83871200  0.55071400  1
  O  O26  1  0.67733600  0.34878200  0.94927800  1
  O  O27  1  0.67733800  0.84878700  0.94927200  1
