# generated using pymatgen
data_Li2VOF4
_symmetry_space_group_name_H-M   'P 1'
_cell_length_a   5.42919500
_cell_length_b   7.22568900
_cell_length_c   9.62198000
_cell_angle_alpha   90.00000000
_cell_angle_beta   90.00000000
_cell_angle_gamma   90.00000000
_symmetry_Int_Tables_number   1
_chemical_formula_structural   Li2VOF4
_chemical_formula_sum   'Li8 V4 O4 F16'
_cell_volume   377.46714431
_cell_formula_units_Z   4
loop_
 _symmetry_equiv_pos_site_id
 _symmetry_equiv_pos_as_xyz
  1  'x, y, z'
loop_
 _atom_site_type_symbol
 _atom_site_label
 _atom_site_symmetry_multiplicity
 _atom_site_fract_x
 _atom_site_fract_y
 _atom_site_fract_z
 _atom_site_occupancy
  Li  Li0  1  0.25785000  0.04766000  0.72027300  1
  Li  Li1  1  0.74412500  0.88393800  0.57198900  1
  Li  Li2  1  0.24412500  0.61606200  0.07198900  1
  Li  Li3  1  0.75785000  0.45234000  0.22027300  1
  Li  Li4  1  0.25785000  0.54766000  0.77972700  1
  Li  Li5  1  0.74412500  0.38393800  0.92801100  1
  Li  Li6  1  0.24412500  0.11606200  0.42801100  1
  Li  Li7  1  0.75785000  0.95234000  0.27972700  1
  V  V8  1  0.74161600  0.80397600  0.94899500  1
  V  V9  1  0.24161600  0.69602400  0.44899500  1
  V  V10  1  0.74161600  0.30397600  0.55100500  1
  V  V11  1  0.24161600  0.19602400  0.05100500  1
  O  O12  1  0.00991300  0.84440600  0.42068700  1
  O  O13  1  0.50991300  0.65559400  0.92068700  1
  O  O14  1  0.00991300  0.34440600  0.07931300  1
  O  O15  1  0.50991300  0.15559400  0.57931300  1
  F  F16  1  0.05416400  0.97730900  0.99481500  1
  F  F17  1  0.77473700  0.89903700  0.76488600  1
  F  F18  1  0.51284900  0.86659700  0.41330200  1
  F  F19  1  0.28179000  0.75884200  0.64922300  1
  F  F20  1  0.78179000  0.74115800  0.14922300  1
  F  F21  1  0.01284900  0.63340300  0.91330200  1
  F  F22  1  0.27473700  0.60096300  0.26488600  1
  F  F23  1  0.55416400  0.52269100  0.49481500  1
  F  F24  1  0.05416400  0.47730900  0.50518500  1
  F  F25  1  0.77473700  0.39903700  0.73511400  1
  F  F26  1  0.51284900  0.36659700  0.08669800  1
  F  F27  1  0.28179000  0.25884200  0.85077700  1
  F  F28  1  0.78179000  0.24115800  0.35077700  1
  F  F29  1  0.01284900  0.13340300  0.58669800  1
  F  F30  1  0.27473700  0.10096300  0.23511400  1
  F  F31  1  0.55416400  0.02269100  0.00518500  1
