# generated using pymatgen
data_LiVPO5
_symmetry_space_group_name_H-M   'P 1'
_cell_length_a   10.44463000
_cell_length_b   8.59316900
_cell_length_c   9.30783407
_cell_angle_alpha   89.92455632
_cell_angle_beta   90.00000000
_cell_angle_gamma   90.00000000
_symmetry_Int_Tables_number   1
_chemical_formula_structural   LiVPO5
_chemical_formula_sum   'Li8 V8 P8 O40'
_cell_volume   835.40038065
_cell_formula_units_Z   8
loop_
 _symmetry_equiv_pos_site_id
 _symmetry_equiv_pos_as_xyz
  1  'x, y, z'
loop_
 _atom_site_type_symbol
 _atom_site_label
 _atom_site_symmetry_multiplicity
 _atom_site_fract_x
 _atom_site_fract_y
 _atom_site_fract_z
 _atom_site_occupancy
  Li  Li0  1  0.00113300  0.24865100  0.18924600  1
  Li  Li1  1  0.89282300  0.03741800  0.86006300  1
  Li  Li2  1  0.39282300  0.96258200  0.13993700  1
  Li  Li3  1  0.50113300  0.75134900  0.81075400  1
  Li  Li4  1  0.95170400  0.68524600  0.46182800  1
  Li  Li5  1  0.60232700  0.54122900  0.13478300  1
  Li  Li6  1  0.10232700  0.45877100  0.86521700  1
  Li  Li7  1  0.45170400  0.31475400  0.53817200  1
  V  V8  1  0.37730300  0.11473000  0.84495900  1
  V  V9  1  0.09904700  0.09509600  0.64117900  1
  V  V10  1  0.59904700  0.90490400  0.35882100  1
  V  V11  1  0.87730300  0.88527000  0.15504100  1
  V  V12  1  0.10729500  0.61060600  0.16212700  1
  V  V13  1  0.38956100  0.60693400  0.35374900  1
  V  V14  1  0.88956100  0.39306600  0.64625100  1
  V  V15  1  0.60729500  0.38939400  0.83787300  1
  P  P16  1  0.85743900  0.09778600  0.44235600  1
  P  P17  1  0.62537900  0.07938100  0.04179500  1
  P  P18  1  0.12537900  0.92061900  0.95820500  1
  P  P19  1  0.35743900  0.90221400  0.55764400  1
  P  P20  1  0.64762900  0.60152000  0.55474400  1
  P  P21  1  0.87155300  0.57499700  0.95508000  1
  P  P22  1  0.37155300  0.42500300  0.04492000  1
  P  P23  1  0.14762900  0.39848000  0.44525600  1
  O  O24  1  0.01251900  0.24764300  0.73086000  1
  O  O25  1  0.49926700  0.26644000  0.74890200  1
  O  O26  1  0.36956800  0.24862500  0.01307300  1
  O  O27  1  0.13241400  0.22343700  0.47081000  1
  O  O28  1  0.25193100  0.17915800  0.74290900  1
  O  O29  1  0.90699100  0.07301700  0.28663300  1
  O  O30  1  0.57200600  0.05337400  0.19562800  1
  O  O31  1  0.71551700  0.04923900  0.45254300  1
  O  O32  1  0.43923800  0.99713500  0.44742700  1
  O  O33  1  0.26396200  0.98117000  0.97861400  1
  O  O34  1  0.02808100  0.00798500  0.05830700  1
  O  O35  1  0.52808100  0.99201500  0.94169300  1
  O  O36  1  0.76396200  0.01883000  0.02138600  1
  O  O37  1  0.93923800  0.00286500  0.55257300  1
  O  O38  1  0.21551700  0.95076100  0.54745700  1
  O  O39  1  0.07200600  0.94662600  0.80437200  1
  O  O40  1  0.40699100  0.92698300  0.71336700  1
  O  O41  1  0.75193100  0.82084200  0.25709100  1
  O  O42  1  0.63241400  0.77656300  0.52919000  1
  O  O43  1  0.86956800  0.75137500  0.98692700  1
  O  O44  1  0.51251900  0.75235700  0.26914000  1
  O  O45  1  0.99926700  0.73356000  0.25109800  1
  O  O46  1  0.12719600  0.74623700  0.99206600  1
  O  O47  1  0.36637800  0.72610600  0.52855300  1
  O  O48  1  0.25999900  0.67973800  0.25851800  1
  O  O49  1  0.60406000  0.57619500  0.71457500  1
  O  O50  1  0.92566900  0.55063400  0.80148400  1
  O  O51  1  0.79220500  0.56180200  0.53799500  1
  O  O52  1  0.05824900  0.49747200  0.54322000  1
  O  O53  1  0.23374400  0.48382100  0.02330900  1
  O  O54  1  0.46891200  0.51410300  0.94471900  1
  O  O55  1  0.96891200  0.48589700  0.05528100  1
  O  O56  1  0.73374400  0.51617900  0.97669100  1
  O  O57  1  0.55824900  0.50252800  0.45678000  1
  O  O58  1  0.29220500  0.43819800  0.46200500  1
  O  O59  1  0.42566900  0.44936600  0.19851600  1
  O  O60  1  0.10406000  0.42380500  0.28542500  1
  O  O61  1  0.75999900  0.32026200  0.74148200  1
  O  O62  1  0.86637800  0.27389400  0.47144700  1
  O  O63  1  0.62719600  0.25376300  0.00793400  1
