# generated using pymatgen
data_Li13Mn8O24
_symmetry_space_group_name_H-M   'P 1'
_cell_length_a   8.60629800
_cell_length_b   4.99490900
_cell_length_c   9.72288545
_cell_angle_alpha   80.58517821
_cell_angle_beta   90.00000000
_cell_angle_gamma   90.00000000
_symmetry_Int_Tables_number   1
_chemical_formula_structural   Li13Mn8O24
_chemical_formula_sum   'Li13 Mn8 O24'
_cell_volume   412.33421385
_cell_formula_units_Z   1
loop_
 _symmetry_equiv_pos_site_id
 _symmetry_equiv_pos_as_xyz
  1  'x, y, z'
loop_
 _atom_site_type_symbol
 _atom_site_label
 _atom_site_symmetry_multiplicity
 _atom_site_fract_x
 _atom_site_fract_y
 _atom_site_fract_z
 _atom_site_occupancy
  Li  Li0  1  0.50000000  0.00000000  0.00000000  1
  Li  Li1  1  0.84709500  0.75328000  0.74938900  1
  Li  Li2  1  0.34716700  0.74583100  0.25402100  1
  Li  Li3  1  0.00000000  0.74939200  0.25008900  1
  Li  Li4  1  0.65283300  0.74583100  0.25402100  1
  Li  Li5  1  0.15290500  0.75328000  0.74938900  1
  Li  Li6  1  0.50000000  0.74220400  0.74856800  1
  Li  Li7  1  0.34716700  0.25416900  0.74597900  1
  Li  Li8  1  0.84709500  0.24672000  0.25061100  1
  Li  Li9  1  0.50000000  0.25779600  0.25143200  1
  Li  Li10  1  0.15290500  0.24672000  0.25061100  1
  Li  Li11  1  0.65283300  0.25416900  0.74597900  1
  Li  Li12  1  0.00000000  0.25060800  0.74991100  1
  Mn  Mn13  1  0.66731100  0.00000000  0.50000000  1
  Mn  Mn14  1  0.33268900  0.00000000  0.50000000  1
  Mn  Mn15  1  0.16943600  0.00000000  0.00000000  1
  Mn  Mn16  1  0.83056400  0.00000000  0.00000000  1
  Mn  Mn17  1  0.16703800  0.50000000  0.50000000  1
  Mn  Mn18  1  0.83296200  0.50000000  0.50000000  1
  Mn  Mn19  1  0.67525900  0.50000000  0.00000000  1
  Mn  Mn20  1  0.32474100  0.50000000  0.00000000  1
  O  O21  1  0.50000000  0.91044400  0.38353100  1
  O  O22  1  0.81472200  0.85128500  0.38607200  1
  O  O23  1  0.18527800  0.85128500  0.38607200  1
  O  O24  1  0.00000000  0.90803200  0.88300900  1
  O  O25  1  0.68600600  0.64870000  0.61451400  1
  O  O26  1  0.31399400  0.64870000  0.61451400  1
  O  O27  1  0.68469600  0.85635200  0.88791000  1
  O  O28  1  0.31530400  0.85635200  0.88791000  1
  O  O29  1  0.00000000  0.59003600  0.61625900  1
  O  O30  1  0.82064600  0.64825700  0.11414500  1
  O  O31  1  0.17935400  0.64825700  0.11414500  1
  O  O32  1  0.50000000  0.60563800  0.11356000  1
  O  O33  1  0.00000000  0.40996400  0.38374100  1
  O  O34  1  0.31399400  0.35130000  0.38548600  1
  O  O35  1  0.68600600  0.35130000  0.38548600  1
  O  O36  1  0.50000000  0.39436200  0.88644000  1
  O  O37  1  0.18527800  0.14871500  0.61392800  1
  O  O38  1  0.81472200  0.14871500  0.61392800  1
  O  O39  1  0.17935400  0.35174300  0.88585500  1
  O  O40  1  0.82064600  0.35174300  0.88585500  1
  O  O41  1  0.50000000  0.08955600  0.61646900  1
  O  O42  1  0.31530400  0.14364800  0.11209000  1
  O  O43  1  0.68469600  0.14364800  0.11209000  1
  O  O44  1  0.00000000  0.09196800  0.11699100  1
