# generated using pymatgen
data_Li2Ti3Sn(PO4)6
_symmetry_space_group_name_H-M   'P 1'
_cell_length_a   8.68457622
_cell_length_b   8.68457622
_cell_length_c   8.68457594
_cell_angle_alpha   59.79163320
_cell_angle_beta   59.79163320
_cell_angle_gamma   59.79163222
_symmetry_Int_Tables_number   1
_chemical_formula_structural   Li2Ti3Sn(PO4)6
_chemical_formula_sum   'Li2 Ti3 Sn1 P6 O24'
_cell_volume   460.96891373
_cell_formula_units_Z   1
loop_
 _symmetry_equiv_pos_site_id
 _symmetry_equiv_pos_as_xyz
  1  'x, y, z'
loop_
 _atom_site_type_symbol
 _atom_site_label
 _atom_site_symmetry_multiplicity
 _atom_site_fract_x
 _atom_site_fract_y
 _atom_site_fract_z
 _atom_site_occupancy
  Li  Li0  1  0.00248300  0.00248300  0.00248300  1
  Li  Li1  1  0.50003800  0.50003800  0.50003800  1
  Ti  Ti2  1  0.14180000  0.14180000  0.14180000  1
  Ti  Ti3  1  0.35758700  0.35758700  0.35758700  1
  Ti  Ti4  1  0.64213000  0.64213000  0.64213000  1
  Sn  Sn5  1  0.85796200  0.85796200  0.85796200  1
  P  P6  1  0.74930500  0.04255300  0.45504200  1
  P  P7  1  0.04255300  0.45504200  0.74930500  1
  P  P8  1  0.45504200  0.74930500  0.04255300  1
  P  P9  1  0.53814700  0.25298100  0.95971900  1
  P  P10  1  0.95971900  0.53814700  0.25298100  1
  P  P11  1  0.25298100  0.95971900  0.53814700  1
  O  O12  1  0.30746200  0.12342500  0.49590800  1
  O  O13  1  0.49590800  0.30746200  0.12342500  1
  O  O14  1  0.91637800  0.05906800  0.26592500  1
  O  O15  1  0.12342500  0.49590800  0.30746200  1
  O  O16  1  0.80036100  0.01524300  0.61427000  1
  O  O17  1  0.58273200  0.23093900  0.43483500  1
  O  O18  1  0.05906800  0.26592500  0.91637800  1
  O  O19  1  0.23093900  0.43483500  0.58273200  1
  O  O20  1  0.37521700  0.19621600  0.00031900  1
  O  O21  1  0.43483500  0.58273200  0.23093900  1
  O  O22  1  0.73019000  0.08832700  0.94633300  1
  O  O23  1  0.00031900  0.37521700  0.19621600  1
  O  O24  1  0.01524300  0.61427000  0.80036100  1
  O  O25  1  0.26592500  0.91637800  0.05906800  1
  O  O26  1  0.55599700  0.41852900  0.76999100  1
  O  O27  1  0.61427000  0.80036100  0.01524300  1
  O  O28  1  0.76999100  0.55599700  0.41852900  1
  O  O29  1  0.94633300  0.73019000  0.08832700  1
  O  O30  1  0.41852900  0.76999100  0.55599700  1
  O  O31  1  0.19621600  0.00031900  0.37521700  1
  O  O32  1  0.87422500  0.50069500  0.69766100  1
  O  O33  1  0.08832700  0.94633300  0.73019000  1
  O  O34  1  0.50069500  0.69766100  0.87422500  1
  O  O35  1  0.69766100  0.87422500  0.50069500  1
