# generated using pymatgen
data_LiMn(CO3)2
_symmetry_space_group_name_H-M   'P 1'
_cell_length_a   5.00122198
_cell_length_b   10.34572252
_cell_length_c   10.34523724
_cell_angle_alpha   79.81964047
_cell_angle_beta   77.81147301
_cell_angle_gamma   102.21856515
_symmetry_Int_Tables_number   1
_chemical_formula_structural   LiMn(CO3)2
_chemical_formula_sum   'Li4 Mn4 C8 O24'
_cell_volume   497.43123917
_cell_formula_units_Z   4
loop_
 _symmetry_equiv_pos_site_id
 _symmetry_equiv_pos_as_xyz
  1  'x, y, z'
loop_
 _atom_site_type_symbol
 _atom_site_label
 _atom_site_symmetry_multiplicity
 _atom_site_fract_x
 _atom_site_fract_y
 _atom_site_fract_z
 _atom_site_occupancy
  Li  Li0  1  0.34375200  0.33557800  0.71748500  1
  Li  Li1  1  0.34386000  0.83552200  0.21744300  1
  Li  Li2  1  0.65572400  0.71739900  0.83561500  1
  Li  Li3  1  0.65589700  0.21741000  0.33562000  1
  Mn  Mn4  1  0.01184000  0.00669300  0.99113200  1
  Mn  Mn5  1  0.98869700  0.99150400  0.50639200  1
  Mn  Mn6  1  0.01136800  0.50665200  0.49153500  1
  Mn  Mn7  1  0.98835400  0.49131900  0.00666300  1
  C  C8  1  0.87104200  0.18876300  0.07339100  1
  C  C9  1  0.87105500  0.68888000  0.57342500  1
  C  C10  1  0.12924700  0.57330000  0.18881800  1
  C  C11  1  0.12948500  0.07339200  0.68870000  1
  C  C12  1  0.84443600  0.43670300  0.80780900  1
  C  C13  1  0.84461000  0.93674700  0.30774600  1
  C  C14  1  0.15500900  0.80773600  0.93675900  1
  C  C15  1  0.15512900  0.30784300  0.43680600  1
  O  O16  1  0.11666100  0.16168500  0.07290000  1
  O  O17  1  0.11655600  0.66173200  0.57302700  1
  O  O18  1  0.88351900  0.57281500  0.16196700  1
  O  O19  1  0.88377600  0.07294500  0.66185500  1
  O  O20  1  0.71707400  0.11141500  0.01544400  1
  O  O21  1  0.71703300  0.61143000  0.51556500  1
  O  O22  1  0.28343000  0.51573900  0.11121500  1
  O  O23  1  0.28374100  0.01584000  0.61110300  1
  O  O24  1  0.79288400  0.28017700  0.12828800  1
  O  O25  1  0.79298700  0.78038100  0.62820600  1
  O  O26  1  0.20756300  0.62795800  0.28041000  1
  O  O27  1  0.20778900  0.12801400  0.78030500  1
  O  O28  1  0.07906000  0.41624900  0.83651900  1
  O  O29  1  0.07928400  0.91634000  0.33642900  1
  O  O30  1  0.92058900  0.83667000  0.91624000  1
  O  O31  1  0.92064100  0.33667800  0.41634500  1
  O  O32  1  0.71544600  0.50293600  0.88807200  1
  O  O33  1  0.71573900  0.00303200  0.38798000  1
  O  O34  1  0.28391100  0.88799000  0.00310500  1
  O  O35  1  0.28391600  0.38797000  0.50323900  1
  O  O36  1  0.75193800  0.39545200  0.71381900  1
  O  O37  1  0.75201500  0.89542300  0.21378700  1
  O  O38  1  0.24732500  0.71376900  0.89544100  1
  O  O39  1  0.24761800  0.21389700  0.39537700  1
