# generated using pymatgen
data_NaLi5Mn2P2(CO7)2
_symmetry_space_group_name_H-M   'P 1'
_cell_length_a   6.63461200
_cell_length_b   8.65647369
_cell_length_c   9.98593477
_cell_angle_alpha   91.55015372
_cell_angle_beta   90.08113037
_cell_angle_gamma   90.44381063
_symmetry_Int_Tables_number   1
_chemical_formula_structural   NaLi5Mn2P2(CO7)2
_chemical_formula_sum   'Na2 Li10 Mn4 P4 C4 O28'
_cell_volume   573.28779558
_cell_formula_units_Z   2
loop_
 _symmetry_equiv_pos_site_id
 _symmetry_equiv_pos_as_xyz
  1  'x, y, z'
loop_
 _atom_site_type_symbol
 _atom_site_label
 _atom_site_symmetry_multiplicity
 _atom_site_fract_x
 _atom_site_fract_y
 _atom_site_fract_z
 _atom_site_occupancy
  Na  Na0  1  0.25323900  0.08412900  0.12311700  1
  Na  Na1  1  0.99793400  0.25024500  0.87410300  1
  Li  Li2  1  0.25690900  0.08023700  0.62284000  1
  Li  Li3  1  0.02014000  0.26333200  0.38481500  1
  Li  Li4  1  0.47847000  0.26474900  0.38628000  1
  Li  Li5  1  0.48243600  0.26648800  0.88166700  1
  Li  Li6  1  0.52004500  0.73515100  0.11555600  1
  Li  Li7  1  0.98017600  0.73475900  0.11483600  1
  Li  Li8  1  0.51567600  0.73831100  0.61691800  1
  Li  Li9  1  0.98466100  0.73940100  0.61710000  1
  Li  Li10  1  0.74947200  0.91605400  0.37522500  1
  Li  Li11  1  0.74193500  0.91415200  0.87461600  1
  Mn  Mn12  1  0.74672100  0.35821600  0.11529600  1
  Mn  Mn13  1  0.74887400  0.35617700  0.60990200  1
  Mn  Mn14  1  0.25047000  0.64774800  0.38804800  1
  Mn  Mn15  1  0.24947300  0.64359400  0.88758300  1
  P  P16  1  0.24978200  0.41364400  0.15048600  1
  P  P17  1  0.25444100  0.40725500  0.64564300  1
  P  P18  1  0.75029100  0.59472600  0.35363600  1
  P  P19  1  0.74543100  0.59471100  0.85281600  1
  C  C20  1  0.74938500  0.04231800  0.13482800  1
  C  C21  1  0.74799900  0.04191000  0.63299900  1
  C  C22  1  0.25008600  0.95798800  0.37143300  1
  C  C23  1  0.25840800  0.94696200  0.85904500  1
  O  O24  1  0.24811100  0.10694000  0.35564400  1
  O  O25  1  0.27583800  0.09514400  0.84283800  1
  O  O26  1  0.75044400  0.08878000  0.01223500  1
  O  O27  1  0.74959200  0.08904300  0.51116400  1
  O  O28  1  0.74648000  0.14212400  0.23426200  1
  O  O29  1  0.74411500  0.14139600  0.73284200  1
  O  O30  1  0.06097900  0.32242200  0.10153200  1
  O  O31  1  0.43241200  0.32123500  0.09484000  1
  O  O32  1  0.06506700  0.31187700  0.60030300  1
  O  O33  1  0.43431100  0.31183600  0.58919700  1
  O  O34  1  0.25456200  0.41634500  0.30740400  1
  O  O35  1  0.75043800  0.42364400  0.39916900  1
  O  O36  1  0.26716200  0.41599700  0.80186400  1
  O  O37  1  0.73276400  0.42665800  0.90258100  1
  O  O38  1  0.25133200  0.58430000  0.10456800  1
  O  O39  1  0.74962300  0.58894900  0.19674600  1
  O  O40  1  0.25123300  0.57632200  0.59711900  1
  O  O41  1  0.74894500  0.58551700  0.69594600  1
  O  O42  1  0.56683200  0.68872900  0.40612600  1
  O  O43  1  0.93525100  0.68900500  0.40664200  1
  O  O44  1  0.56626900  0.69600400  0.90245100  1
  O  O45  1  0.93394500  0.68423900  0.90639700  1
  O  O46  1  0.25034800  0.86386800  0.26797500  1
  O  O47  1  0.24749300  0.85481000  0.75408600  1
  O  O48  1  0.25202900  0.90351000  0.49126000  1
  O  O49  1  0.25101600  0.88924500  0.97717300  1
  O  O50  1  0.75081700  0.89513200  0.16016200  1
  O  O51  1  0.75013700  0.89467500  0.65868700  1
