# generated using pymatgen
data_LiMnPO4
_symmetry_space_group_name_H-M   'P 1'
_cell_length_a   7.57982000
_cell_length_b   8.52424300
_cell_length_c   17.09840043
_cell_angle_alpha   60.77507495
_cell_angle_beta   90.00000000
_cell_angle_gamma   90.00000000
_symmetry_Int_Tables_number   1
_chemical_formula_structural   LiMnPO4
_chemical_formula_sum   'Li12 Mn12 P12 O48'
_cell_volume   964.13984777
_cell_formula_units_Z   12
loop_
 _symmetry_equiv_pos_site_id
 _symmetry_equiv_pos_as_xyz
  1  'x, y, z'
loop_
 _atom_site_type_symbol
 _atom_site_label
 _atom_site_symmetry_multiplicity
 _atom_site_fract_x
 _atom_site_fract_y
 _atom_site_fract_z
 _atom_site_occupancy
  Li  Li0  1  0.33113800  0.34327900  0.59251400  1
  Li  Li1  1  0.81861400  0.32055600  0.75899400  1
  Li  Li2  1  0.17291000  0.98488100  0.42006000  1
  Li  Li3  1  0.82709000  0.01511900  0.57994000  1
  Li  Li4  1  0.67291000  0.01511900  0.07994000  1
  Li  Li5  1  0.18138600  0.67944400  0.24100600  1
  Li  Li6  1  0.66886200  0.65672100  0.40748600  1
  Li  Li7  1  0.16886200  0.34327900  0.09251400  1
  Li  Li8  1  0.83113800  0.65672100  0.90748600  1
  Li  Li9  1  0.32709000  0.98488100  0.92006000  1
  Li  Li10  1  0.68138600  0.32055600  0.25899400  1
  Li  Li11  1  0.31861400  0.67944400  0.74100600  1
  Mn  Mn12  1  0.45700600  0.00057400  0.25595000  1
  Mn  Mn13  1  0.95700600  0.99942600  0.24405000  1
  Mn  Mn14  1  0.96819500  0.30573200  0.92686300  1
  Mn  Mn15  1  0.46819500  0.69426800  0.57313700  1
  Mn  Mn16  1  0.04299400  0.00057400  0.75595000  1
  Mn  Mn17  1  0.53180500  0.30573200  0.42686300  1
  Mn  Mn18  1  0.03180500  0.69426800  0.07313700  1
  Mn  Mn19  1  0.46461200  0.65077400  0.08733900  1
  Mn  Mn20  1  0.96461200  0.34922600  0.41266100  1
  Mn  Mn21  1  0.03538800  0.65077400  0.58733900  1
  Mn  Mn22  1  0.54299400  0.99942600  0.74405000  1
  Mn  Mn23  1  0.53538800  0.34922600  0.91266100  1
  P  P24  1  0.27045300  0.03182800  0.07726100  1
  P  P25  1  0.76409500  0.35383000  0.08926600  1
  P  P26  1  0.23077500  0.31231400  0.76917900  1
  P  P27  1  0.72954700  0.96817200  0.92273900  1
  P  P28  1  0.76922500  0.68768600  0.23082100  1
  P  P29  1  0.77045300  0.96817200  0.42273900  1
  P  P30  1  0.73590500  0.35383000  0.58926600  1
  P  P31  1  0.23590500  0.64617000  0.91073400  1
  P  P32  1  0.26922500  0.31231400  0.26917900  1
  P  P33  1  0.73077500  0.68768600  0.73082100  1
  P  P34  1  0.22954700  0.03182800  0.57726100  1
  P  P35  1  0.26409500  0.64617000  0.41073400  1
  O  O36  1  0.77753200  0.14482400  0.13912600  1
  O  O37  1  0.23557500  0.51668700  0.69937700  1
  O  O38  1  0.89014500  0.40777600  0.63056900  1
  O  O39  1  0.11865700  0.17114300  0.04741900  1
  O  O40  1  0.73557500  0.48331300  0.80062300  1
  O  O41  1  0.26387200  0.58277400  0.01256100  1
  O  O42  1  0.75178000  0.79753200  0.78191800  1
  O  O43  1  0.10985500  0.59222400  0.36943100  1
  O  O44  1  0.76442500  0.48331300  0.30062300  1
  O  O45  1  0.25178000  0.20246800  0.71808200  1
  O  O46  1  0.71940000  0.07453100  0.81820200  1
  O  O47  1  0.06288700  0.56582000  0.89686800  1
  O  O48  1  0.23769100  0.89355700  0.04340800  1
  O  O49  1  0.24822000  0.20246800  0.21808200  1
  O  O50  1  0.44597700  0.13284000  0.04015100  1
  O  O51  1  0.12366300  0.25382100  0.34096800  1
  O  O52  1  0.76230900  0.10644300  0.95659200  1
  O  O53  1  0.60985500  0.40777600  0.13056900  1
  O  O54  1  0.87633700  0.74617900  0.65903200  1
  O  O55  1  0.39014500  0.59222400  0.86943100  1
  O  O56  1  0.88134300  0.82885700  0.95258100  1
  O  O57  1  0.28060000  0.92546900  0.18179800  1
  O  O58  1  0.43711300  0.56582000  0.39686800  1
  O  O59  1  0.73769100  0.10644300  0.45659200  1
  O  O60  1  0.62366300  0.74617900  0.15903200  1
  O  O61  1  0.94597700  0.86716000  0.45984900  1
  O  O62  1  0.56288700  0.43418000  0.60313200  1
  O  O63  1  0.22246800  0.85517600  0.86087400  1
  O  O64  1  0.72246800  0.14482400  0.63912600  1
  O  O65  1  0.26442500  0.51668700  0.19937700  1
  O  O66  1  0.61865700  0.82885700  0.45258100  1
  O  O67  1  0.26230900  0.89355700  0.54340800  1
  O  O68  1  0.27753200  0.85517600  0.36087400  1
  O  O69  1  0.54985700  0.74104400  0.68118700  1
  O  O70  1  0.95014300  0.74104400  0.18118700  1
  O  O71  1  0.23612800  0.58277400  0.51256100  1
  O  O72  1  0.55402300  0.86716000  0.95984900  1
  O  O73  1  0.93711300  0.43418000  0.10313200  1
  O  O74  1  0.78060000  0.07453100  0.31820200  1
  O  O75  1  0.04985700  0.25895600  0.81881300  1
  O  O76  1  0.38134300  0.17114300  0.54741900  1
  O  O77  1  0.21940000  0.92546900  0.68179800  1
  O  O78  1  0.45014300  0.25895600  0.31881300  1
  O  O79  1  0.73612800  0.41722600  0.98743900  1
  O  O80  1  0.74822000  0.79753200  0.28191800  1
  O  O81  1  0.37633700  0.25382100  0.84096800  1
  O  O82  1  0.05402300  0.13284000  0.54015100  1
  O  O83  1  0.76387200  0.41722600  0.48743900  1
