# generated using pymatgen
data_Li5V(PO4)3
_symmetry_space_group_name_H-M   'P 1'
_cell_length_a   8.51153500
_cell_length_b   8.56546293
_cell_length_c   8.58421616
_cell_angle_alpha   62.66639648
_cell_angle_beta   62.22763341
_cell_angle_gamma   62.65724062
_symmetry_Int_Tables_number   1
_chemical_formula_structural   Li5V(PO4)3
_chemical_formula_sum   'Li10 V2 P6 O24'
_cell_volume   467.33531969
_cell_formula_units_Z   2
loop_
 _symmetry_equiv_pos_site_id
 _symmetry_equiv_pos_as_xyz
  1  'x, y, z'
loop_
 _atom_site_type_symbol
 _atom_site_label
 _atom_site_symmetry_multiplicity
 _atom_site_fract_x
 _atom_site_fract_y
 _atom_site_fract_z
 _atom_site_occupancy
  Li  Li0  1  0.49039000  0.10110400  0.79927700  1
  Li  Li1  1  0.57990100  0.99500200  0.41632100  1
  Li  Li2  1  0.99443100  0.41859000  0.57992100  1
  Li  Li3  1  0.39959000  0.41063000  0.40926300  1
  Li  Li4  1  0.26210100  0.27287600  0.25439300  1
  Li  Li5  1  0.59655600  0.58681200  0.59588400  1
  Li  Li6  1  0.74699900  0.73434400  0.72309400  1
  Li  Li7  1  0.20170300  0.90244500  0.50354300  1
  Li  Li8  1  0.79944400  0.50490800  0.10185200  1
  Li  Li9  1  0.41252900  0.57101700  0.99093400  1
  V  V10  1  0.09898500  0.10969200  0.11314200  1
  V  V11  1  0.89442100  0.88879500  0.89949800  1
  P  P12  1  0.28864500  0.00148500  0.71104600  1
  P  P13  1  0.19157400  0.49801300  0.81040600  1
  P  P14  1  0.80659700  0.19314500  0.51102400  1
  P  P15  1  0.71457500  0.28897600  0.99835500  1
  P  P16  1  0.00129500  0.70981000  0.28517500  1
  P  P17  1  0.49733600  0.80652700  0.19904800  1
  O  O18  1  0.80204100  0.13098700  0.91263300  1
  O  O19  1  0.22797700  0.09350900  0.85777000  1
  O  O20  1  0.28981100  0.14355200  0.51794100  1
  O  O21  1  0.70721600  0.47997100  0.85121700  1
  O  O22  1  0.62896000  0.21527700  0.48781900  1
  O  O23  1  0.35420300  0.54402600  0.79011100  1
  O  O24  1  0.99835300  0.15284100  0.34966000  1
  O  O25  1  0.99136400  0.65009600  0.85572200  1
  O  O26  1  0.21123700  0.45938200  0.64513400  1
  O  O27  1  0.79714300  0.35596600  0.54715300  1
  O  O28  1  0.33012000  0.98882600  0.17162400  1
  O  O29  1  0.65150300  0.85524400  0.00395200  1
  O  O30  1  0.84883400  0.25291200  0.09762800  1
  O  O31  1  0.14933300  0.90041000  0.76447300  1
  O  O32  1  0.48609400  0.86383400  0.70521500  1
  O  O33  1  0.52179400  0.28437200  0.14121100  1
  O  O34  1  0.15829700  0.52568700  0.28556400  1
  O  O35  1  0.85504100  0.70546600  0.47737400  1
  O  O36  1  0.16448100  0.33317600  0.00032600  1
  O  O37  1  0.83986100  0.00006800  0.66827400  1
  O  O38  1  0.51803000  0.79318400  0.37353400  1
  O  O39  1  0.48777600  0.62729000  0.21015700  1
  O  O40  1  0.07852200  0.87242100  0.21497800  1
  O  O41  1  0.90675700  0.75925400  0.14389400  1
