# generated using pymatgen
data_LiMn(PO3)3
_symmetry_space_group_name_H-M   'P 1'
_cell_length_a   5.27263300
_cell_length_b   12.20590000
_cell_length_c   12.80900400
_cell_angle_alpha   90.00000000
_cell_angle_beta   90.00000000
_cell_angle_gamma   90.00000000
_symmetry_Int_Tables_number   1
_chemical_formula_structural   LiMn(PO3)3
_chemical_formula_sum   'Li4 Mn4 P12 O36'
_cell_volume   824.35203103
_cell_formula_units_Z   4
loop_
 _symmetry_equiv_pos_site_id
 _symmetry_equiv_pos_as_xyz
  1  'x, y, z'
loop_
 _atom_site_type_symbol
 _atom_site_label
 _atom_site_symmetry_multiplicity
 _atom_site_fract_x
 _atom_site_fract_y
 _atom_site_fract_z
 _atom_site_occupancy
  Li  Li0  1  0.05683600  0.11144200  0.25000000  1
  Li  Li1  1  0.05683600  0.38855800  0.75000000  1
  Li  Li2  1  0.94316400  0.61144200  0.25000000  1
  Li  Li3  1  0.94316400  0.88855800  0.75000000  1
  Mn  Mn4  1  0.00000000  0.00000000  0.00000000  1
  Mn  Mn5  1  0.00000000  0.50000000  0.00000000  1
  Mn  Mn6  1  0.00000000  0.00000000  0.50000000  1
  Mn  Mn7  1  0.00000000  0.50000000  0.50000000  1
  P  P8  1  0.23958100  0.75000000  0.00000000  1
  P  P9  1  0.23958100  0.75000000  0.50000000  1
  P  P10  1  0.49581800  0.08177500  0.63605000  1
  P  P11  1  0.49581800  0.41822500  0.13605000  1
  P  P12  1  0.49581800  0.08177500  0.86395000  1
  P  P13  1  0.49581800  0.41822500  0.36395000  1
  P  P14  1  0.50418200  0.58177500  0.63605000  1
  P  P15  1  0.50418200  0.91822500  0.36395000  1
  P  P16  1  0.50418200  0.91822500  0.13605000  1
  P  P17  1  0.50418200  0.58177500  0.86395000  1
  P  P18  1  0.76041900  0.25000000  0.00000000  1
  P  P19  1  0.76041900  0.25000000  0.50000000  1
  O  O20  1  0.09668200  0.66595600  0.06309900  1
  O  O21  1  0.09668200  0.66595600  0.43690100  1
  O  O22  1  0.09668200  0.83404400  0.56309900  1
  O  O23  1  0.09668200  0.83404400  0.93690100  1
  O  O24  1  0.21661600  0.44001800  0.13000100  1
  O  O25  1  0.21661600  0.05998200  0.63000100  1
  O  O26  1  0.21661600  0.44001800  0.36999900  1
  O  O27  1  0.21661600  0.05998200  0.86999900  1
  O  O28  1  0.32006700  0.00898900  0.10950300  1
  O  O29  1  0.32006700  0.00898900  0.39049700  1
  O  O30  1  0.32006700  0.49101100  0.89049700  1
  O  O31  1  0.32006700  0.49101100  0.60950300  1
  O  O32  1  0.43520300  0.87208500  0.25000000  1
  O  O33  1  0.43520300  0.62791500  0.75000000  1
  O  O34  1  0.44501500  0.69235700  0.57436400  1
  O  O35  1  0.44501500  0.80764300  0.07436400  1
  O  O36  1  0.44501500  0.69235700  0.92563600  1
  O  O37  1  0.44501500  0.80764300  0.42563600  1
  O  O38  1  0.55498500  0.19235700  0.57436400  1
  O  O39  1  0.55498500  0.30764300  0.07436400  1
  O  O40  1  0.55498500  0.30764300  0.42563600  1
  O  O41  1  0.55498500  0.19235700  0.92563600  1
  O  O42  1  0.56479700  0.12791500  0.75000000  1
  O  O43  1  0.56479700  0.37208500  0.25000000  1
  O  O44  1  0.67993300  0.50898900  0.39049700  1
  O  O45  1  0.67993300  0.99101100  0.60950300  1
  O  O46  1  0.67993300  0.50898900  0.10950300  1
  O  O47  1  0.67993300  0.99101100  0.89049700  1
  O  O48  1  0.78338400  0.55998200  0.86999900  1
  O  O49  1  0.78338400  0.55998200  0.63000100  1
  O  O50  1  0.78338400  0.94001800  0.36999900  1
  O  O51  1  0.78338400  0.94001800  0.13000100  1
  O  O52  1  0.90331800  0.16595600  0.43690100  1
  O  O53  1  0.90331800  0.33404400  0.56309900  1
  O  O54  1  0.90331800  0.16595600  0.06309900  1
  O  O55  1  0.90331800  0.33404400  0.93690100  1
