# generated using pymatgen
data_LiCoPO4
_symmetry_space_group_name_H-M   'P 1'
_cell_length_a   4.96153453
_cell_length_b   9.75700118
_cell_length_c   6.18112251
_cell_angle_alpha   90.07867151
_cell_angle_beta   89.98329826
_cell_angle_gamma   89.95071832
_symmetry_Int_Tables_number   1
_chemical_formula_structural   LiCoPO4
_chemical_formula_sum   'Li4 Co4 P4 O16'
_cell_volume   299.22587028
_cell_formula_units_Z   4
loop_
 _symmetry_equiv_pos_site_id
 _symmetry_equiv_pos_as_xyz
  1  'x, y, z'
loop_
 _atom_site_type_symbol
 _atom_site_label
 _atom_site_symmetry_multiplicity
 _atom_site_fract_x
 _atom_site_fract_y
 _atom_site_fract_z
 _atom_site_occupancy
  Li  Li0  1  0.00044600  0.00013300  0.99924900  1
  Li  Li1  1  0.00056600  0.99972300  0.50047200  1
  Li  Li2  1  0.49972200  0.49979200  0.00005600  1
  Li  Li3  1  0.50017000  0.49999400  0.49993400  1
  Co  Co4  1  0.03060500  0.66317800  0.75001000  1
  Co  Co5  1  0.53098400  0.83717100  0.25020600  1
  Co  Co6  1  0.46941000  0.16244600  0.74860800  1
  Co  Co7  1  0.96895800  0.33739500  0.25038200  1
  P  P8  1  0.45864800  0.17749900  0.24922900  1
  P  P9  1  0.95864500  0.32244600  0.75065600  1
  P  P10  1  0.04162200  0.67724200  0.25000800  1
  P  P11  1  0.54120900  0.82290800  0.75013800  1
  O  O12  1  0.76977400  0.15733400  0.25000500  1
  O  O13  1  0.26961100  0.34257200  0.75077800  1
  O  O14  1  0.73051600  0.65683700  0.25000100  1
  O  O15  1  0.22994900  0.84356700  0.75024100  1
  O  O16  1  0.88096700  0.16595300  0.75055600  1
  O  O17  1  0.38032900  0.33395000  0.25009600  1
  O  O18  1  0.61871300  0.66628400  0.74945200  1
  O  O19  1  0.11921100  0.83374200  0.25041700  1
  O  O20  1  0.33441700  0.10862200  0.04573500  1
  O  O21  1  0.33338900  0.10841000  0.45221500  1
  O  O22  1  0.83343500  0.39155800  0.95387300  1
  O  O23  1  0.83363500  0.39122800  0.54736600  1
  O  O24  1  0.16651300  0.60831300  0.04648400  1
  O  O25  1  0.16626000  0.60810700  0.45314300  1
  O  O26  1  0.66589400  0.89206800  0.54717300  1
  O  O27  1  0.66640100  0.89152800  0.95351800  1
