# generated using pymatgen
data_Li10Zn3(GeO4)4
_symmetry_space_group_name_H-M   'P 1'
_cell_length_a   5.37419000
_cell_length_b   6.49135798
_cell_length_c   11.05642419
_cell_angle_alpha   91.97588643
_cell_angle_beta   91.86255598
_cell_angle_gamma   91.49985041
_symmetry_Int_Tables_number   1
_chemical_formula_structural   Li10Zn3(GeO4)4
_chemical_formula_sum   'Li10 Zn3 Ge4 O16'
_cell_volume   385.13523987
_cell_formula_units_Z   1
loop_
 _symmetry_equiv_pos_site_id
 _symmetry_equiv_pos_as_xyz
  1  'x, y, z'
loop_
 _atom_site_type_symbol
 _atom_site_label
 _atom_site_symmetry_multiplicity
 _atom_site_fract_x
 _atom_site_fract_y
 _atom_site_fract_z
 _atom_site_occupancy
  Li  Li0  1  0.35213000  0.74285600  0.92171400  1
  Li  Li1  1  0.85339700  0.54686800  0.82514100  1
  Li  Li2  1  0.82731800  0.26414500  0.56801200  1
  Li  Li3  1  0.17634200  0.92590400  0.50978000  1
  Li  Li4  1  0.82670800  0.03494100  0.34289600  1
  Li  Li5  1  0.39031100  0.94804300  0.18554600  1
  Li  Li6  1  0.07583700  0.20172700  0.19752200  1
  Li  Li7  1  0.37488900  0.54313600  0.16909200  1
  Li  Li8  1  0.63319600  0.25727500  0.06474500  1
  Li  Li9  1  0.01098900  0.47449900  0.05505200  1
  Zn  Zn10  1  0.68016000  0.02849900  0.81973600  1
  Zn  Zn11  1  0.22503600  0.49621000  0.65550200  1
  Zn  Zn12  1  0.85167100  0.54816100  0.33468100  1
  Ge  Ge13  1  0.18884000  0.23939600  0.90737700  1
  Ge  Ge14  1  0.70753100  0.76221300  0.58228800  1
  Ge  Ge15  1  0.33987600  0.27556700  0.39992300  1
  Ge  Ge16  1  0.85197600  0.80863600  0.08117000  1
  O  O17  1  0.73285000  0.77714800  0.92920800  1
  O  O18  1  0.85276800  0.26244400  0.92030400  1
  O  O19  1  0.31632700  0.01605700  0.84864500  1
  O  O20  1  0.24920600  0.47710900  0.83475100  1
  O  O21  1  0.84493900  0.54672500  0.65213700  1
  O  O22  1  0.78813800  0.00463900  0.65590800  1
  O  O23  1  0.38268200  0.72005200  0.57394800  1
  O  O24  1  0.21714000  0.24662200  0.54582900  1
  O  O25  1  0.67224800  0.29880500  0.40028500  1
  O  O26  1  0.83685100  0.79669100  0.43745000  1
  O  O27  1  0.22732500  0.04262500  0.32349900  1
  O  O28  1  0.19437800  0.45844300  0.30472200  1
  O  O29  1  0.73364900  0.57494000  0.15381100  1
  O  O30  1  0.75344300  0.03020000  0.16176200  1
  O  O31  1  0.17696400  0.75562800  0.08242800  1
  O  O32  1  0.27931600  0.28400800  0.06510800  1
