# generated using pymatgen
data_LiCr(SiO3)2
_symmetry_space_group_name_H-M   'P 1'
_cell_length_a   5.28162700
_cell_length_b   8.74929500
_cell_length_c   18.17071500
_cell_angle_alpha   90.00000000
_cell_angle_beta   90.00000000
_cell_angle_gamma   90.00000000
_symmetry_Int_Tables_number   1
_chemical_formula_structural   LiCr(SiO3)2
_chemical_formula_sum   'Li8 Cr8 Si16 O48'
_cell_volume   839.67805633
_cell_formula_units_Z   8
loop_
 _symmetry_equiv_pos_site_id
 _symmetry_equiv_pos_as_xyz
  1  'x, y, z'
loop_
 _atom_site_type_symbol
 _atom_site_label
 _atom_site_symmetry_multiplicity
 _atom_site_fract_x
 _atom_site_fract_y
 _atom_site_fract_z
 _atom_site_occupancy
  Li  Li0  1  0.12752300  0.50936400  0.12320700  1
  Li  Li1  1  0.62752300  0.99063600  0.12320700  1
  Li  Li2  1  0.62752300  0.49063600  0.37679300  1
  Li  Li3  1  0.12752300  0.00936400  0.37679300  1
  Li  Li4  1  0.87247700  0.99063600  0.62320700  1
  Li  Li5  1  0.37247700  0.50936400  0.62320700  1
  Li  Li6  1  0.87247700  0.49063600  0.87679300  1
  Li  Li7  1  0.37247700  0.00936400  0.87679300  1
  Cr  Cr8  1  0.12516300  0.15472400  0.12480500  1
  Cr  Cr9  1  0.62516300  0.34527600  0.12480500  1
  Cr  Cr10  1  0.62516300  0.84527600  0.37519500  1
  Cr  Cr11  1  0.12516300  0.65472400  0.37519500  1
  Cr  Cr12  1  0.87483700  0.34527600  0.62480500  1
  Cr  Cr13  1  0.37483700  0.15472400  0.62480500  1
  Cr  Cr14  1  0.87483700  0.84527600  0.87519500  1
  Cr  Cr15  1  0.37483700  0.65472400  0.87519500  1
  Si  Si16  1  0.70528100  0.66232700  0.02665400  1
  Si  Si17  1  0.20528100  0.83767300  0.02665400  1
  Si  Si18  1  0.94996000  0.84093800  0.22571200  1
  Si  Si19  1  0.44996000  0.65906200  0.22571200  1
  Si  Si20  1  0.94996000  0.34093800  0.27428800  1
  Si  Si21  1  0.44996000  0.15906200  0.27428800  1
  Si  Si22  1  0.20528100  0.33767300  0.47334600  1
  Si  Si23  1  0.70528100  0.16232700  0.47334600  1
  Si  Si24  1  0.29471900  0.83767300  0.52665400  1
  Si  Si25  1  0.79471900  0.66232700  0.52665400  1
  Si  Si26  1  0.55004000  0.84093800  0.72571200  1
  Si  Si27  1  0.05004000  0.65906200  0.72571200  1
  Si  Si28  1  0.55004000  0.34093800  0.77428800  1
  Si  Si29  1  0.05004000  0.15906200  0.77428800  1
  Si  Si30  1  0.29471900  0.33767300  0.97334600  1
  Si  Si31  1  0.79471900  0.16232700  0.97334600  1
  O  O32  1  0.91492900  0.79249900  0.05274100  1
  O  O33  1  0.41492900  0.70750100  0.05274100  1
  O  O34  1  0.29780600  0.33240800  0.06507700  1
  O  O35  1  0.79780600  0.16759200  0.06507700  1
  O  O36  1  0.29043600  0.99623500  0.06440600  1
  O  O37  1  0.79043600  0.50376500  0.06440600  1
  O  O38  1  0.95260300  0.33386400  0.18280200  1
  O  O39  1  0.45260300  0.16613600  0.18280200  1
  O  O40  1  0.45628900  0.49050800  0.19069700  1
  O  O41  1  0.95628900  0.00949200  0.19069700  1
  O  O42  1  0.17864100  0.73002700  0.19613700  1
  O  O43  1  0.67864100  0.76997300  0.19613700  1
  O  O44  1  0.67864100  0.26997300  0.30386300  1
  O  O45  1  0.17864100  0.23002700  0.30386300  1
  O  O46  1  0.45628900  0.99050800  0.30930300  1
  O  O47  1  0.95628900  0.50949200  0.30930300  1
  O  O48  1  0.95260300  0.83386400  0.31719800  1
  O  O49  1  0.45260300  0.66613600  0.31719800  1
  O  O50  1  0.29043600  0.49623500  0.43559400  1
  O  O51  1  0.79043600  0.00376500  0.43559400  1
  O  O52  1  0.29780600  0.83240800  0.43492300  1
  O  O53  1  0.79780600  0.66759200  0.43492300  1
  O  O54  1  0.91492900  0.29249900  0.44725900  1
  O  O55  1  0.41492900  0.20750100  0.44725900  1
  O  O56  1  0.58507100  0.79249900  0.55274100  1
  O  O57  1  0.08507100  0.70750100  0.55274100  1
  O  O58  1  0.20219400  0.33240800  0.56507700  1
  O  O59  1  0.70219400  0.16759200  0.56507700  1
  O  O60  1  0.20956400  0.99623500  0.56440600  1
  O  O61  1  0.70956400  0.50376500  0.56440600  1
  O  O62  1  0.54739700  0.33386400  0.68280200  1
  O  O63  1  0.04739700  0.16613600  0.68280200  1
  O  O64  1  0.04371100  0.49050800  0.69069700  1
  O  O65  1  0.54371100  0.00949200  0.69069700  1
  O  O66  1  0.82135900  0.76997300  0.69613700  1
  O  O67  1  0.32135900  0.73002700  0.69613700  1
  O  O68  1  0.82135900  0.26997300  0.80386300  1
  O  O69  1  0.32135900  0.23002700  0.80386300  1
  O  O70  1  0.04371100  0.99050800  0.80930300  1
  O  O71  1  0.54371100  0.50949200  0.80930300  1
  O  O72  1  0.54739700  0.83386400  0.81719800  1
  O  O73  1  0.04739700  0.66613600  0.81719800  1
  O  O74  1  0.20956400  0.49623500  0.93559400  1
  O  O75  1  0.70956400  0.00376500  0.93559400  1
  O  O76  1  0.20219400  0.83240800  0.93492300  1
  O  O77  1  0.70219400  0.66759200  0.93492300  1
  O  O78  1  0.58507100  0.29249900  0.94725900  1
  O  O79  1  0.08507100  0.20750100  0.94725900  1
