# generated using pymatgen
data_Li3Bi(PO4)2
_symmetry_space_group_name_H-M   'P 1'
_cell_length_a   19.03047200
_cell_length_b   5.09676400
_cell_length_c   8.28281240
_cell_angle_alpha   52.99803327
_cell_angle_beta   90.00000000
_cell_angle_gamma   90.00000000
_symmetry_Int_Tables_number   1
_chemical_formula_structural   Li3Bi(PO4)2
_chemical_formula_sum   'Li12 Bi4 P8 O32'
_cell_volume   641.59252006
_cell_formula_units_Z   4
loop_
 _symmetry_equiv_pos_site_id
 _symmetry_equiv_pos_as_xyz
  1  'x, y, z'
loop_
 _atom_site_type_symbol
 _atom_site_label
 _atom_site_symmetry_multiplicity
 _atom_site_fract_x
 _atom_site_fract_y
 _atom_site_fract_z
 _atom_site_occupancy
  Li  Li0  1  0.70164000  0.37509200  0.82650400  1
  Li  Li1  1  0.87963600  0.73145900  0.49758600  1
  Li  Li2  1  0.04599600  0.95421100  0.31558600  1
  Li  Li3  1  0.37963600  0.26854100  0.00241400  1
  Li  Li4  1  0.54599600  0.04578900  0.18441400  1
  Li  Li5  1  0.20164000  0.62490800  0.67349600  1
  Li  Li6  1  0.79836000  0.37509200  0.32650400  1
  Li  Li7  1  0.45400400  0.95421100  0.81558600  1
  Li  Li8  1  0.62036400  0.73145900  0.99758600  1
  Li  Li9  1  0.95400400  0.04578900  0.68441400  1
  Li  Li10  1  0.12036400  0.26854100  0.50241400  1
  Li  Li11  1  0.29836000  0.62490800  0.17349600  1
  Bi  Bi12  1  0.87836500  0.18406800  0.01428600  1
  Bi  Bi13  1  0.37836500  0.81593200  0.48571400  1
  Bi  Bi14  1  0.62163500  0.18406800  0.51428600  1
  Bi  Bi15  1  0.12163500  0.81593200  0.98571400  1
  P  P16  1  0.71560500  0.90018400  0.28949700  1
  P  P17  1  0.53437900  0.46461200  0.74841800  1
  P  P18  1  0.03437900  0.53538800  0.75158200  1
  P  P19  1  0.21560500  0.09981600  0.21050300  1
  P  P20  1  0.78439500  0.90018400  0.78949700  1
  P  P21  1  0.96562100  0.46461200  0.24841800  1
  P  P22  1  0.46562100  0.53538800  0.25158200  1
  P  P23  1  0.28439500  0.09981600  0.71050300  1
  O  O24  1  0.20480900  0.80312600  0.20125500  1
  O  O25  1  0.68900100  0.58032900  0.49311300  1
  O  O26  1  0.44603600  0.86384100  0.22031500  1
  O  O27  1  0.67671700  0.96163100  0.10802600  1
  O  O28  1  0.05374700  0.23492500  0.97002000  1
  O  O29  1  0.07210700  0.53029300  0.59092400  1
  O  O30  1  0.79666000  0.84265600  0.28143500  1
  O  O31  1  0.45213500  0.45456100  0.77390300  1
  O  O32  1  0.95213500  0.54543900  0.72609700  1
  O  O33  1  0.29666000  0.15734400  0.21856500  1
  O  O34  1  0.57210700  0.46970700  0.90907600  1
  O  O35  1  0.55374700  0.76507500  0.52998000  1
  O  O36  1  0.17671700  0.03836900  0.39197400  1
  O  O37  1  0.94603600  0.13615900  0.27968500  1
  O  O38  1  0.18900100  0.41967100  0.00688700  1
  O  O39  1  0.70480900  0.19687400  0.29874500  1
  O  O40  1  0.29519100  0.80312600  0.70125500  1
  O  O41  1  0.81099900  0.58032900  0.99311300  1
  O  O42  1  0.05396400  0.86384100  0.72031500  1
  O  O43  1  0.82328300  0.96163100  0.60802600  1
  O  O44  1  0.44625300  0.23492500  0.47002000  1
  O  O45  1  0.42789300  0.53029300  0.09092400  1
  O  O46  1  0.70334000  0.84265600  0.78143500  1
  O  O47  1  0.04786500  0.45456100  0.27390300  1
  O  O48  1  0.54786500  0.54543900  0.22609700  1
  O  O49  1  0.20334000  0.15734400  0.71856500  1
  O  O50  1  0.92789300  0.46970700  0.40907600  1
  O  O51  1  0.94625300  0.76507500  0.02998000  1
  O  O52  1  0.32328300  0.03836900  0.89197400  1
  O  O53  1  0.55396400  0.13615900  0.77968500  1
  O  O54  1  0.31099900  0.41967100  0.50688700  1
  O  O55  1  0.79519100  0.19687400  0.79874500  1
