# generated using pymatgen
data_LiCoCO4
_symmetry_space_group_name_H-M   'P 1'
_cell_length_a   8.34284822
_cell_length_b   8.34284822
_cell_length_c   5.79405800
_cell_angle_alpha   90.00000000
_cell_angle_beta   90.00000000
_cell_angle_gamma   120.95149873
_symmetry_Int_Tables_number   1
_chemical_formula_structural   LiCoCO4
_chemical_formula_sum   'Li4 Co4 C4 O16'
_cell_volume   345.85798197
_cell_formula_units_Z   4
loop_
 _symmetry_equiv_pos_site_id
 _symmetry_equiv_pos_as_xyz
  1  'x, y, z'
loop_
 _atom_site_type_symbol
 _atom_site_label
 _atom_site_symmetry_multiplicity
 _atom_site_fract_x
 _atom_site_fract_y
 _atom_site_fract_z
 _atom_site_occupancy
  Li  Li0  1  0.20814300  0.03462800  0.49993000  1
  Li  Li1  1  0.03462800  0.20814300  0.99993000  1
  Li  Li2  1  0.96537200  0.79185700  0.99993000  1
  Li  Li3  1  0.79185700  0.96537200  0.49993000  1
  Co  Co4  1  0.69568700  0.27591200  0.76710100  1
  Co  Co5  1  0.72408800  0.30431300  0.26710100  1
  Co  Co6  1  0.27591200  0.69568700  0.26710100  1
  Co  Co7  1  0.30431300  0.72408800  0.76710100  1
  C  C8  1  0.35776100  0.15489700  0.02498500  1
  C  C9  1  0.84510300  0.64223900  0.52498500  1
  C  C10  1  0.15489700  0.35776100  0.52498500  1
  C  C11  1  0.64223900  0.84510300  0.02498500  1
  O  O12  1  0.18198000  0.07997200  0.03815300  1
  O  O13  1  0.43587800  0.17731600  0.82054100  1
  O  O14  1  0.45789800  0.20711700  0.21368900  1
  O  O15  1  0.71699800  0.16204800  0.50209000  1
  O  O16  1  0.83795200  0.28300200  0.00209000  1
  O  O17  1  0.07997200  0.18198000  0.53815300  1
  O  O18  1  0.79288300  0.54210200  0.71368900  1
  O  O19  1  0.82268400  0.56412200  0.32054100  1
  O  O20  1  0.17731600  0.43587800  0.32054100  1
  O  O21  1  0.20711700  0.45789800  0.71368900  1
  O  O22  1  0.92002800  0.81802000  0.53815300  1
  O  O23  1  0.16204800  0.71699800  0.00209000  1
  O  O24  1  0.28300200  0.83795200  0.50209000  1
  O  O25  1  0.54210200  0.79288300  0.21368900  1
  O  O26  1  0.56412200  0.82268400  0.82054100  1
  O  O27  1  0.81802000  0.92002800  0.03815300  1
