# generated using pymatgen
data_Li24Ti7Cr5O36
_symmetry_space_group_name_H-M   'P 1'
_cell_length_a   5.06155300
_cell_length_b   9.81615878
_cell_length_c   13.43502822
_cell_angle_alpha   80.81990090
_cell_angle_beta   79.22514199
_cell_angle_gamma   85.44132500
_symmetry_Int_Tables_number   1
_chemical_formula_structural   Li24Ti7Cr5O36
_chemical_formula_sum   'Li24 Ti7 Cr5 O36'
_cell_volume   646.50258215
_cell_formula_units_Z   1
loop_
 _symmetry_equiv_pos_site_id
 _symmetry_equiv_pos_as_xyz
  1  'x, y, z'
loop_
 _atom_site_type_symbol
 _atom_site_label
 _atom_site_symmetry_multiplicity
 _atom_site_fract_x
 _atom_site_fract_y
 _atom_site_fract_z
 _atom_site_occupancy
  Li  Li0  1  0.67413800  0.00011700  0.16514900  1
  Li  Li1  1  0.56017800  0.00075100  0.38736000  1
  Li  Li2  1  0.24983200  0.75010700  0.74933500  1
  Li  Li3  1  0.58220300  0.75038300  0.08483400  1
  Li  Li4  1  0.06697300  0.49943900  0.88863700  1
  Li  Li5  1  0.39851700  0.49972400  0.22052900  1
  Li  Li6  1  0.17160600  0.50104300  0.66612000  1
  Li  Li7  1  0.50690900  0.49860800  0.99929400  1
  Li  Li8  1  0.26308700  0.49986300  0.44703900  1
  Li  Li9  1  0.08050500  0.25005300  0.58282100  1
  Li  Li10  1  0.00891500  0.00027400  0.49875200  1
  Li  Li11  1  0.76726000  0.00099300  0.94720100  1
  Li  Li12  1  0.10356900  0.99931300  0.27977100  1
  Li  Li13  1  0.89382600  0.00202300  0.71909200  1
  Li  Li14  1  0.22743200  0.99959500  0.05363300  1
  Li  Li15  1  0.91645300  0.74994000  0.41706800  1
  Li  Li16  1  0.73002700  0.49996900  0.55384700  1
  Li  Li17  1  0.83949300  0.49998800  0.33227600  1
  Li  Li18  1  0.59632000  0.49915500  0.77907200  1
  Li  Li19  1  0.92942400  0.50132900  0.11239500  1
  Li  Li20  1  0.41405800  0.24978600  0.91619300  1
  Li  Li21  1  0.33739000  0.00009300  0.83293600  1
  Li  Li22  1  0.74772900  0.24993100  0.24893200  1
  Li  Li23  1  0.43692900  0.99869700  0.61395900  1
  Ti  Ti24  1  0.47483400  0.74927200  0.30425300  1
  Ti  Ti25  1  0.97409100  0.24963100  0.80651100  1
  Ti  Ti26  1  0.30789800  0.24904000  0.13988300  1
  Ti  Ti27  1  0.69554900  0.74924500  0.86063000  1
  Ti  Ti28  1  0.80623300  0.75035700  0.63791100  1
  Ti  Ti29  1  0.64061700  0.24971600  0.47292100  1
  Ti  Ti30  1  0.13634900  0.75115600  0.97435400  1
  Cr  Cr31  1  0.86034800  0.25068500  0.02695900  1
  Cr  Cr32  1  0.36347000  0.75003200  0.52566300  1
  Cr  Cr33  1  0.19334200  0.25050200  0.36001200  1
  Cr  Cr34  1  0.02985800  0.74945600  0.19625300  1
  Cr  Cr35  1  0.52641800  0.25060700  0.69333800  1
  O  O36  1  0.92536700  0.86155800  0.07364900  1
  O  O37  1  0.71201800  0.63344100  0.21563800  1
  O  O38  1  0.42677200  0.36147900  0.57444900  1
  O  O39  1  0.49495100  0.36198700  0.35634300  1
  O  O40  1  0.61571500  0.36638500  0.11939800  1
  O  O41  1  0.26125100  0.86185000  0.40524700  1
  O  O42  1  0.22210400  0.13571700  0.71436800  1
  O  O43  1  0.33026000  0.13869900  0.47514800  1
  O  O44  1  0.55629000  0.13564300  0.04748700  1
  O  O45  1  0.00022300  0.86357100  0.85739400  1
  O  O46  1  0.12010000  0.86491600  0.61752200  1
  O  O47  1  0.33526000  0.86377700  0.19031900  1
  O  O48  1  0.40823900  0.13559800  0.26115400  1
  O  O49  1  0.83222000  0.63631500  0.97742400  1
  O  O50  1  0.05352300  0.63548200  0.54651700  1
  O  O51  1  0.16093900  0.63802700  0.30905900  1
  O  O52  1  0.90394100  0.63608700  0.76180000  1
  O  O53  1  0.23578700  0.63838100  0.09898300  1
  O  O54  1  0.76086400  0.36182800  0.90788500  1
  O  O55  1  0.09452400  0.36138200  0.24098500  1
  O  O56  1  0.82791900  0.36182200  0.68989400  1
  O  O57  1  0.94870500  0.36666700  0.45233600  1
  O  O58  1  0.16270000  0.36180600  0.02314500  1
  O  O59  1  0.59511100  0.86332900  0.73681900  1
  O  O60  1  0.66342100  0.13847200  0.80899700  1
  O  O61  1  0.88938700  0.13553600  0.38079800  1
  O  O62  1  0.99667200  0.13860100  0.14213300  1
  O  O63  1  0.45209300  0.86578000  0.95190600  1
  O  O64  1  0.66302500  0.86243500  0.52117600  1
  O  O65  1  0.79268800  0.86438400  0.28326800  1
  O  O66  1  0.74084800  0.13631000  0.59454700  1
  O  O67  1  0.38014600  0.63409000  0.88312800  1
  O  O68  1  0.49836000  0.63803000  0.64232800  1
  O  O69  1  0.57055700  0.63693200  0.42960800  1
  O  O70  1  0.28225600  0.36652700  0.78599100  1
  O  O71  1  0.07397700  0.13628400  0.92823100  1
