# generated using pymatgen
data_Li2V3CuO8
_symmetry_space_group_name_H-M   'P 1'
_cell_length_a   8.60488123
_cell_length_b   8.61144325
_cell_length_c   8.07928510
_cell_angle_alpha   90.01349823
_cell_angle_beta   89.99660481
_cell_angle_gamma   90.02505327
_symmetry_Int_Tables_number   1
_chemical_formula_structural   Li2V3CuO8
_chemical_formula_sum   'Li8 V12 Cu4 O32'
_cell_volume   598.67855735
_cell_formula_units_Z   4
loop_
 _symmetry_equiv_pos_site_id
 _symmetry_equiv_pos_as_xyz
  1  'x, y, z'
loop_
 _atom_site_type_symbol
 _atom_site_label
 _atom_site_symmetry_multiplicity
 _atom_site_fract_x
 _atom_site_fract_y
 _atom_site_fract_z
 _atom_site_occupancy
  Li  Li0  1  0.00431200  0.00207900  0.00251800  1
  Li  Li1  1  0.25256200  0.24923100  0.24846500  1
  Li  Li2  1  0.24717000  0.75073800  0.74807300  1
  Li  Li3  1  0.49590400  0.99782300  0.50265900  1
  Li  Li4  1  0.50081200  0.50333200  0.99857700  1
  Li  Li5  1  0.74775200  0.25388200  0.75247900  1
  Li  Li6  1  0.75198100  0.74624800  0.25239900  1
  Li  Li7  1  0.99914700  0.49645800  0.49839100  1
  V  V8  1  0.12536900  0.13216300  0.62041200  1
  V  V9  1  0.12437000  0.37741300  0.88107400  1
  V  V10  1  0.12561500  0.62464900  0.13221500  1
  V  V11  1  0.37420200  0.37557600  0.63193800  1
  V  V12  1  0.37593900  0.62263200  0.38079000  1
  V  V13  1  0.37460100  0.86794700  0.12027200  1
  V  V14  1  0.61818000  0.37426700  0.36912600  1
  V  V15  1  0.61653700  0.11893600  0.12011100  1
  V  V16  1  0.63063400  0.86644500  0.87054800  1
  V  V17  1  0.86930000  0.13345800  0.37058900  1
  V  V18  1  0.88349100  0.88077700  0.61988200  1
  V  V19  1  0.88190100  0.62572100  0.86924200  1
  Cu  Cu20  1  0.13334700  0.88341800  0.37509200  1
  Cu  Cu21  1  0.36719500  0.11696300  0.87506400  1
  Cu  Cu22  1  0.63572200  0.61645800  0.62399500  1
  Cu  Cu23  1  0.86382300  0.38372800  0.12383100  1
  O  O24  1  0.09938600  0.14081500  0.39253800  1
  O  O25  1  0.11153300  0.90256100  0.62254700  1
  O  O26  1  0.11579900  0.61256400  0.88910600  1
  O  O27  1  0.12686200  0.14894900  0.85962400  1
  O  O28  1  0.13545600  0.39006700  0.10284100  1
  O  O29  1  0.13834800  0.36657400  0.63907700  1
  O  O30  1  0.13953400  0.61498000  0.35365900  1
  O  O31  1  0.14616300  0.85653600  0.12963900  1
  O  O32  1  0.35388200  0.14370200  0.62925200  1
  O  O33  1  0.36057400  0.38507400  0.85349000  1
  O  O34  1  0.36156300  0.63350900  0.13892500  1
  O  O35  1  0.36428300  0.60996500  0.60250100  1
  O  O36  1  0.37380600  0.85099700  0.35954200  1
  O  O37  1  0.38433100  0.38740300  0.38881400  1
  O  O38  1  0.38856900  0.09751400  0.12306800  1
  O  O39  1  0.40040100  0.85937700  0.89248400  1
  O  O40  1  0.60185800  0.37856800  0.61021400  1
  O  O41  1  0.60743400  0.60275200  0.37802400  1
  O  O42  1  0.61598200  0.88589600  0.11291400  1
  O  O43  1  0.60896900  0.34947800  0.14138800  1
  O  O44  1  0.62026800  0.10579200  0.89378500  1
  O  O45  1  0.63508700  0.13446500  0.36257900  1
  O  O46  1  0.64377000  0.86896700  0.64417800  1
  O  O47  1  0.65278200  0.63911300  0.87442200  1
  O  O48  1  0.84720800  0.36088500  0.37406300  1
  O  O49  1  0.85611800  0.13025500  0.14430700  1
  O  O50  1  0.86484600  0.86559700  0.86241000  1
  O  O51  1  0.87923600  0.89410400  0.39382700  1
  O  O52  1  0.89128500  0.65026000  0.64160700  1
  O  O53  1  0.88396500  0.11398200  0.61303200  1
  O  O54  1  0.89269300  0.39719100  0.87825500  1
  O  O55  1  0.89814400  0.62190700  0.11028200  1
