# generated using pymatgen
data_LiFeSiO4
_symmetry_space_group_name_H-M   'P 1'
_cell_length_a   5.22291400
_cell_length_b   10.57414900
_cell_length_c   12.96302700
_cell_angle_alpha   90.00000000
_cell_angle_beta   90.00000000
_cell_angle_gamma   90.00000000
_symmetry_Int_Tables_number   1
_chemical_formula_structural   LiFeSiO4
_chemical_formula_sum   'Li8 Fe8 Si8 O32'
_cell_volume   715.92038098
_cell_formula_units_Z   8
loop_
 _symmetry_equiv_pos_site_id
 _symmetry_equiv_pos_as_xyz
  1  'x, y, z'
loop_
 _atom_site_type_symbol
 _atom_site_label
 _atom_site_symmetry_multiplicity
 _atom_site_fract_x
 _atom_site_fract_y
 _atom_site_fract_z
 _atom_site_occupancy
  Li  Li0  1  0.07697200  0.04959100  0.24435400  1
  Li  Li1  1  0.57074500  0.20930800  0.99969000  1
  Li  Li2  1  0.57074500  0.29069200  0.49969000  1
  Li  Li3  1  0.07697200  0.45040900  0.74435400  1
  Li  Li4  1  0.92302800  0.54959100  0.24435400  1
  Li  Li5  1  0.42925500  0.70930800  0.99969000  1
  Li  Li6  1  0.42925500  0.79069200  0.49969000  1
  Li  Li7  1  0.92302800  0.95040900  0.74435400  1
  Fe  Fe8  1  0.41593900  0.04251700  0.62610500  1
  Fe  Fe9  1  0.05738300  0.21243000  0.87280000  1
  Fe  Fe10  1  0.05738300  0.28757000  0.37280000  1
  Fe  Fe11  1  0.41593900  0.45748300  0.12610500  1
  Fe  Fe12  1  0.58406100  0.54251700  0.62610500  1
  Fe  Fe13  1  0.94261700  0.71243000  0.87280000  1
  Fe  Fe14  1  0.94261700  0.78757000  0.37280000  1
  Fe  Fe15  1  0.58406100  0.95748300  0.12610500  1
  Si  Si16  1  0.90346600  0.03527000  0.49582300  1
  Si  Si17  1  0.56065700  0.20640600  0.25066900  1
  Si  Si18  1  0.56065700  0.29359400  0.75066900  1
  Si  Si19  1  0.90346600  0.46473000  0.99582300  1
  Si  Si20  1  0.09653400  0.53527000  0.49582300  1
  Si  Si21  1  0.43934300  0.70640600  0.25066900  1
  Si  Si22  1  0.43934300  0.79359400  0.75066900  1
  Si  Si23  1  0.09653400  0.96473000  0.99582300  1
  O  O24  1  0.93200800  0.99881800  0.10168900  1
  O  O25  1  0.60873900  0.98354800  0.51261800  1
  O  O26  1  0.46230400  0.05978900  0.23547000  1
  O  O27  1  0.98021000  0.03797200  0.89289000  1
  O  O28  1  0.48418600  0.21590800  0.64450900  1
  O  O29  1  0.91224200  0.19041700  0.48067700  1
  O  O30  1  0.87486100  0.28784500  0.76316700  1
  O  O31  1  0.41582800  0.23645500  0.85393900  1
  O  O32  1  0.41582800  0.26354500  0.35393900  1
  O  O33  1  0.87486100  0.21215500  0.26316700  1
  O  O34  1  0.91224200  0.30958300  0.98067700  1
  O  O35  1  0.48418600  0.28409200  0.14450900  1
  O  O36  1  0.98021000  0.46202800  0.39289000  1
  O  O37  1  0.46230400  0.44021100  0.73547000  1
  O  O38  1  0.60873900  0.51645200  0.01261800  1
  O  O39  1  0.93200800  0.50118200  0.60168900  1
  O  O40  1  0.06799200  0.49881800  0.10168900  1
  O  O41  1  0.39126100  0.48354800  0.51261800  1
  O  O42  1  0.53769600  0.55978900  0.23547000  1
  O  O43  1  0.01979000  0.53797200  0.89289000  1
  O  O44  1  0.51581400  0.71590800  0.64450900  1
  O  O45  1  0.08775800  0.69041700  0.48067700  1
  O  O46  1  0.12513900  0.78784500  0.76316700  1
  O  O47  1  0.58417200  0.73645500  0.85393900  1
  O  O48  1  0.58417200  0.76354500  0.35393900  1
  O  O49  1  0.12513900  0.71215500  0.26316700  1
  O  O50  1  0.08775800  0.80958300  0.98067700  1
  O  O51  1  0.51581400  0.78409200  0.14450900  1
  O  O52  1  0.01979000  0.96202800  0.39289000  1
  O  O53  1  0.53769600  0.94021100  0.73547000  1
  O  O54  1  0.39126100  0.01645200  0.01261800  1
  O  O55  1  0.06799200  0.00118200  0.60168900  1
