# generated using pymatgen
data_LiFe(PO3)3
_symmetry_space_group_name_H-M   'P 1'
_cell_length_a   5.20853700
_cell_length_b   12.08291700
_cell_length_c   12.53166900
_cell_angle_alpha   90.00000000
_cell_angle_beta   90.00000000
_cell_angle_gamma   90.00000000
_symmetry_Int_Tables_number   1
_chemical_formula_structural   LiFe(PO3)3
_chemical_formula_sum   'Li4 Fe4 P12 O36'
_cell_volume   788.67207027
_cell_formula_units_Z   4
loop_
 _symmetry_equiv_pos_site_id
 _symmetry_equiv_pos_as_xyz
  1  'x, y, z'
loop_
 _atom_site_type_symbol
 _atom_site_label
 _atom_site_symmetry_multiplicity
 _atom_site_fract_x
 _atom_site_fract_y
 _atom_site_fract_z
 _atom_site_occupancy
  Li  Li0  1  0.05067700  0.09828500  0.25000000  1
  Li  Li1  1  0.05067700  0.40171500  0.75000000  1
  Li  Li2  1  0.94932300  0.59828500  0.25000000  1
  Li  Li3  1  0.94932300  0.90171500  0.75000000  1
  Fe  Fe4  1  0.00000000  0.00000000  0.00000000  1
  Fe  Fe5  1  0.00000000  0.50000000  0.00000000  1
  Fe  Fe6  1  0.00000000  0.00000000  0.50000000  1
  Fe  Fe7  1  0.00000000  0.50000000  0.50000000  1
  P  P8  1  0.22713100  0.75000000  0.00000000  1
  P  P9  1  0.22713100  0.75000000  0.50000000  1
  P  P10  1  0.49735100  0.07640900  0.63427800  1
  P  P11  1  0.49735100  0.42359100  0.13427800  1
  P  P12  1  0.49735100  0.07640900  0.86572200  1
  P  P13  1  0.49735100  0.42359100  0.36572200  1
  P  P14  1  0.50264900  0.57640900  0.63427800  1
  P  P15  1  0.50264900  0.92359100  0.13427800  1
  P  P16  1  0.50264900  0.92359100  0.36572200  1
  P  P17  1  0.50264900  0.57640900  0.86572200  1
  P  P18  1  0.77286900  0.25000000  0.00000000  1
  P  P19  1  0.77286900  0.25000000  0.50000000  1
  O  O20  1  0.08400600  0.67052200  0.07113500  1
  O  O21  1  0.08400600  0.67052200  0.42886500  1
  O  O22  1  0.08400600  0.82947800  0.57113500  1
  O  O23  1  0.08400600  0.82947800  0.92886500  1
  O  O24  1  0.21414800  0.44613800  0.12603100  1
  O  O25  1  0.21414800  0.05386200  0.62603100  1
  O  O26  1  0.21414800  0.44613800  0.37396900  1
  O  O27  1  0.21414800  0.05386200  0.87396900  1
  O  O28  1  0.31598200  0.01723700  0.38687100  1
  O  O29  1  0.31598200  0.01723700  0.11312900  1
  O  O30  1  0.31598200  0.48276300  0.88687100  1
  O  O31  1  0.31598200  0.48276300  0.61312900  1
  O  O32  1  0.44554800  0.87291100  0.25000000  1
  O  O33  1  0.44554800  0.62708900  0.75000000  1
  O  O34  1  0.43956300  0.68378700  0.56770700  1
  O  O35  1  0.43956300  0.81621300  0.06770700  1
  O  O36  1  0.43956300  0.68378700  0.93229300  1
  O  O37  1  0.43956300  0.81621300  0.43229300  1
  O  O38  1  0.56043700  0.18378700  0.56770700  1
  O  O39  1  0.56043700  0.31621300  0.06770700  1
  O  O40  1  0.56043700  0.31621300  0.43229300  1
  O  O41  1  0.56043700  0.18378700  0.93229300  1
  O  O42  1  0.55445200  0.12708900  0.75000000  1
  O  O43  1  0.55445200  0.37291100  0.25000000  1
  O  O44  1  0.68401800  0.51723700  0.38687100  1
  O  O45  1  0.68401800  0.98276300  0.61312900  1
  O  O46  1  0.68401800  0.51723700  0.11312900  1
  O  O47  1  0.68401800  0.98276300  0.88687100  1
  O  O48  1  0.78585200  0.55386200  0.87396900  1
  O  O49  1  0.78585200  0.55386200  0.62603100  1
  O  O50  1  0.78585200  0.94613800  0.37396900  1
  O  O51  1  0.78585200  0.94613800  0.12603100  1
  O  O52  1  0.91599400  0.17052200  0.42886500  1
  O  O53  1  0.91599400  0.32947800  0.57113500  1
  O  O54  1  0.91599400  0.17052200  0.07113500  1
  O  O55  1  0.91599400  0.32947800  0.92886500  1
