# generated using pymatgen
data_Li6Fe2O5F2
_symmetry_space_group_name_H-M   'P 1'
_cell_length_a   5.91689400
_cell_length_b   5.91737694
_cell_length_c   9.96991936
_cell_angle_alpha   93.19609549
_cell_angle_beta   97.05917475
_cell_angle_gamma   118.91062888
_symmetry_Int_Tables_number   1
_chemical_formula_structural   Li6Fe2O5F2
_chemical_formula_sum   'Li12 Fe4 O10 F4'
_cell_volume   300.57583720
_cell_formula_units_Z   2
loop_
 _symmetry_equiv_pos_site_id
 _symmetry_equiv_pos_as_xyz
  1  'x, y, z'
loop_
 _atom_site_type_symbol
 _atom_site_label
 _atom_site_symmetry_multiplicity
 _atom_site_fract_x
 _atom_site_fract_y
 _atom_site_fract_z
 _atom_site_occupancy
  Li  Li0  1  0.12644700  0.20851100  0.09212400  1
  Li  Li1  1  0.13533600  0.47513600  0.60645800  1
  Li  Li2  1  0.12258500  0.91922000  0.58236000  1
  Li  Li3  1  0.13056900  0.68288500  0.09877200  1
  Li  Li4  1  0.41489500  0.33592700  0.88868500  1
  Li  Li5  1  0.41374100  0.07316600  0.39286700  1
  Li  Li6  1  0.58625900  0.92683400  0.60713300  1
  Li  Li7  1  0.58510500  0.66407300  0.11131500  1
  Li  Li8  1  0.86943100  0.31711500  0.90122800  1
  Li  Li9  1  0.87741500  0.08078000  0.41764000  1
  Li  Li10  1  0.86466400  0.52486400  0.39354200  1
  Li  Li11  1  0.87355300  0.79148900  0.90787600  1
  Fe  Fe12  1  0.39034100  0.79129300  0.88525100  1
  Fe  Fe13  1  0.38141400  0.54617500  0.38124400  1
  Fe  Fe14  1  0.61858600  0.45382500  0.61875600  1
  Fe  Fe15  1  0.60965900  0.20870700  0.11474900  1
  O  O16  1  0.24000900  0.49493900  0.97920000  1
  O  O17  1  0.24503300  0.73680000  0.47149300  1
  O  O18  1  0.26157700  0.26006300  0.50162800  1
  O  O19  1  0.50961300  0.63420800  0.74931100  1
  O  O20  1  0.26415200  0.99645200  0.99608900  1
  O  O21  1  0.73584800  0.00354800  0.00391100  1
  O  O22  1  0.49038700  0.36579200  0.25068900  1
  O  O23  1  0.73842300  0.73993700  0.49837200  1
  O  O24  1  0.75496700  0.26320000  0.52850700  1
  O  O25  1  0.75999100  0.50506100  0.02080000  1
  F  F26  1  0.50657100  0.13547200  0.75425700  1
  F  F27  1  0.49342900  0.86452800  0.24574300  1
  F  F28  1  0.01634100  0.66834100  0.74672900  1
  F  F29  1  0.98365900  0.33165900  0.25327100  1
