# generated using pymatgen
data_Li2NbCr3O8
_symmetry_space_group_name_H-M   'P 1'
_cell_length_a   5.98706700
_cell_length_b   5.98713828
_cell_length_c   9.62720700
_cell_angle_alpha   89.99987883
_cell_angle_beta   90.00013117
_cell_angle_gamma   120.00064783
_symmetry_Int_Tables_number   1
_chemical_formula_structural   Li2NbCr3O8
_chemical_formula_sum   'Li4 Nb2 Cr6 O16'
_cell_volume   298.85567953
_cell_formula_units_Z   2
loop_
 _symmetry_equiv_pos_site_id
 _symmetry_equiv_pos_as_xyz
  1  'x, y, z'
loop_
 _atom_site_type_symbol
 _atom_site_label
 _atom_site_symmetry_multiplicity
 _atom_site_fract_x
 _atom_site_fract_y
 _atom_site_fract_z
 _atom_site_occupancy
  Li  Li0  1  0.33333500  0.66668200  0.90133800  1
  Li  Li1  1  0.00001500  0.00000100  0.99255300  1
  Li  Li2  1  0.99999100  0.00001500  0.49250100  1
  Li  Li3  1  0.66668000  0.33334800  0.40136500  1
  Nb  Nb4  1  0.33335100  0.66666400  0.49299800  1
  Nb  Nb5  1  0.66666300  0.33336200  0.99301800  1
  Cr  Cr6  1  0.17012900  0.82985100  0.21519600  1
  Cr  Cr7  1  0.17013900  0.34028900  0.21519400  1
  Cr  Cr8  1  0.65980000  0.82995800  0.21520400  1
  Cr  Cr9  1  0.34009800  0.17002000  0.71527200  1
  Cr  Cr10  1  0.82986000  0.65983900  0.71531600  1
  Cr  Cr11  1  0.82988500  0.17011300  0.71533000  1
  O  O12  1  0.16687900  0.83310200  0.59389000  1
  O  O13  1  0.04002200  0.52000400  0.34121500  1
  O  O14  1  0.33335200  0.66669000  0.10812800  1
  O  O15  1  0.00002700  0.00003800  0.30771800  1
  O  O16  1  0.99998300  0.00000500  0.80784300  1
  O  O17  1  0.16689200  0.33379000  0.59389400  1
  O  O18  1  0.48004400  0.96008600  0.34119900  1
  O  O19  1  0.48007300  0.52000200  0.34119700  1
  O  O20  1  0.33380500  0.16689900  0.09386700  1
  O  O21  1  0.66621300  0.83312400  0.59389500  1
  O  O22  1  0.51991000  0.47998400  0.84125300  1
  O  O23  1  0.51993600  0.03990100  0.84123600  1
  O  O24  1  0.66665700  0.33334000  0.60822300  1
  O  O25  1  0.83311400  0.66622200  0.09386800  1
  O  O26  1  0.96001900  0.48004900  0.84126600  1
  O  O27  1  0.83312800  0.16691900  0.09386100  1
