# generated using pymatgen
data_Li3MnV(PO4)3
_symmetry_space_group_name_H-M   'P 1'
_cell_length_a   8.36153900
_cell_length_b   8.43583741
_cell_length_c   9.24947497
_cell_angle_alpha   63.20100820
_cell_angle_beta   63.79914624
_cell_angle_gamma   60.47205196
_symmetry_Int_Tables_number   1
_chemical_formula_structural   Li3MnV(PO4)3
_chemical_formula_sum   'Li6 Mn2 V2 P6 O24'
_cell_volume   486.09133608
_cell_formula_units_Z   2
loop_
 _symmetry_equiv_pos_site_id
 _symmetry_equiv_pos_as_xyz
  1  'x, y, z'
loop_
 _atom_site_type_symbol
 _atom_site_label
 _atom_site_symmetry_multiplicity
 _atom_site_fract_x
 _atom_site_fract_y
 _atom_site_fract_z
 _atom_site_occupancy
  Li  Li0  1  0.06797300  0.33005700  0.85933300  1
  Li  Li1  1  0.44402700  0.74768900  0.62556400  1
  Li  Li2  1  0.53351100  0.26273600  0.40545900  1
  Li  Li3  1  0.25931900  0.92478500  0.14219900  1
  Li  Li4  1  0.70317900  0.25681100  0.08571400  1
  Li  Li5  1  0.94586900  0.69186900  0.11464400  1
  Mn  Mn6  1  0.85811500  0.84834700  0.43757200  1
  Mn  Mn7  1  0.13498800  0.14408400  0.56799400  1
  V  V8  1  0.34807000  0.34319400  0.96515000  1
  V  V9  1  0.66333400  0.66336700  0.02816100  1
  P  P10  1  0.73462300  0.46298200  0.75158600  1
  P  P11  1  0.05019300  0.73584000  0.75530300  1
  P  P12  1  0.45300800  0.05000000  0.76268300  1
  P  P13  1  0.54864200  0.95285100  0.24193700  1
  P  P14  1  0.94587300  0.26543500  0.24269500  1
  P  P15  1  0.27307300  0.53056400  0.24258900  1
  O  O16  1  0.78476200  0.48073000  0.89119700  1
  O  O17  1  0.87032400  0.26562700  0.73752300  1
  O  O18  1  0.51816800  0.48130700  0.82177300  1
  O  O19  1  0.16449900  0.51572900  0.83111800  1
  O  O20  1  0.85667800  0.78150100  0.90299000  1
  O  O21  1  0.49719800  0.84140400  0.89212000  1
  O  O22  1  0.73638100  0.63246100  0.59196600  1
  O  O23  1  0.16242600  0.84904900  0.73011200  1
  O  O24  1  0.01483300  0.76500400  0.59734400  1
  O  O25  1  0.46959800  0.17283300  0.83795300  1
  O  O26  1  0.24536800  0.12703700  0.76215500  1
  O  O27  1  0.59644500  0.04449400  0.59074400  1
  O  O28  1  0.41010800  0.95848800  0.41677100  1
  O  O29  1  0.75918100  0.86619300  0.24128600  1
  O  O30  1  0.51299800  0.83700100  0.17260700  1
  O  O31  1  0.97688500  0.22998900  0.40342000  1
  O  O32  1  0.82621000  0.15887600  0.26253100  1
  O  O33  1  0.25881600  0.37394100  0.41140500  1
  O  O34  1  0.51431600  0.16297800  0.11677700  1
  O  O35  1  0.13976600  0.20957200  0.10038700  1
  O  O36  1  0.83029800  0.48629200  0.16886900  1
  O  O37  1  0.49080600  0.50666200  0.16955800  1
  O  O38  1  0.14416700  0.73531000  0.24951700  1
  O  O39  1  0.21475700  0.50078000  0.11646600  1
