# generated using pymatgen
data_Li4Nb3V3(SbO8)2
_symmetry_space_group_name_H-M   'P 1'
_cell_length_a   6.12984666
_cell_length_b   6.12984666
_cell_length_c   10.62909367
_cell_angle_alpha   89.58249026
_cell_angle_beta   89.58249026
_cell_angle_gamma   59.84293043
_symmetry_Int_Tables_number   1
_chemical_formula_structural   Li4Nb3V3(SbO8)2
_chemical_formula_sum   'Li4 Nb3 V3 Sb2 O16'
_cell_volume   345.31956490
_cell_formula_units_Z   1
loop_
 _symmetry_equiv_pos_site_id
 _symmetry_equiv_pos_as_xyz
  1  'x, y, z'
loop_
 _atom_site_type_symbol
 _atom_site_label
 _atom_site_symmetry_multiplicity
 _atom_site_fract_x
 _atom_site_fract_y
 _atom_site_fract_z
 _atom_site_occupancy
  Li  Li0  1  0.66656300  0.66656300  0.09827100  1
  Li  Li1  1  0.00377500  0.00377500  0.00784900  1
  Li  Li2  1  0.00228600  0.00228600  0.50604100  1
  Li  Li3  1  0.33906700  0.33906700  0.60767200  1
  Nb  Nb4  1  0.82482800  0.82482800  0.77366200  1
  Nb  Nb5  1  0.16991700  0.64372400  0.27871000  1
  Nb  Nb6  1  0.64372400  0.16991700  0.27871000  1
  V  V7  1  0.34016100  0.82582600  0.78471700  1
  V  V8  1  0.82582600  0.34016100  0.78471700  1
  V  V9  1  0.16984700  0.16984700  0.28920300  1
  Sb  Sb10  1  0.65891000  0.65891000  0.48945400  1
  Sb  Sb11  1  0.33020500  0.33020500  0.98338600  1
  O  O12  1  0.31745600  0.82870800  0.39644900  1
  O  O13  1  0.51346600  0.51346600  0.68453000  1
  O  O14  1  0.67623400  0.67623400  0.89267900  1
  O  O15  1  0.99477000  0.99477000  0.68761600  1
  O  O16  1  0.99805200  0.99805200  0.18914500  1
  O  O17  1  0.82870800  0.31745600  0.39644900  1
  O  O18  1  0.51510000  0.98478300  0.67994000  1
  O  O19  1  0.98478300  0.51510000  0.67994000  1
  O  O20  1  0.15676300  0.15676300  0.88803600  1
  O  O21  1  0.84461800  0.84461800  0.39740000  1
  O  O22  1  0.00978900  0.51036000  0.17743600  1
  O  O23  1  0.51036000  0.00978900  0.17743600  1
  O  O24  1  0.33767800  0.33767800  0.40430700  1
  O  O25  1  0.15664400  0.68878800  0.89559100  1
  O  O26  1  0.49103200  0.49103200  0.16724500  1
  O  O27  1  0.68878800  0.15664400  0.89559100  1
