# generated using pymatgen
data_Li3CoPCO7
_symmetry_space_group_name_H-M   'P 1'
_cell_length_a   6.39209700
_cell_length_b   9.44892000
_cell_length_c   9.73247832
_cell_angle_alpha   64.59275210
_cell_angle_beta   90.00000000
_cell_angle_gamma   90.00000000
_symmetry_Int_Tables_number   1
_chemical_formula_structural   Li3CoPCO7
_chemical_formula_sum   'Li12 Co4 P4 C4 O28'
_cell_volume   530.97229525
_cell_formula_units_Z   4
loop_
 _symmetry_equiv_pos_site_id
 _symmetry_equiv_pos_as_xyz
  1  'x, y, z'
loop_
 _atom_site_type_symbol
 _atom_site_label
 _atom_site_symmetry_multiplicity
 _atom_site_fract_x
 _atom_site_fract_y
 _atom_site_fract_z
 _atom_site_occupancy
  Li  Li0  1  0.24135100  0.10769000  0.55734100  1
  Li  Li1  1  0.25864900  0.10769000  0.05734100  1
  Li  Li2  1  0.50066500  0.28166200  0.73633500  1
  Li  Li3  1  0.99933500  0.28166200  0.23633500  1
  Li  Li4  1  0.74714500  0.35500700  0.93453300  1
  Li  Li5  1  0.75285500  0.35500700  0.43453300  1
  Li  Li6  1  0.24714500  0.64499300  0.56546700  1
  Li  Li7  1  0.25285500  0.64499300  0.06546700  1
  Li  Li8  1  0.00066500  0.71833800  0.76366500  1
  Li  Li9  1  0.49933500  0.71833800  0.26366500  1
  Li  Li10  1  0.74135100  0.89231000  0.94265900  1
  Li  Li11  1  0.75864900  0.89231000  0.44265900  1
  Co  Co12  1  0.00773300  0.26530700  0.74118000  1
  Co  Co13  1  0.49226700  0.26530700  0.24118000  1
  Co  Co14  1  0.50773300  0.73469300  0.75882000  1
  Co  Co15  1  0.99226700  0.73469300  0.25882000  1
  P  P16  1  0.25843300  0.40835800  0.93403100  1
  P  P17  1  0.24156700  0.40835800  0.43403100  1
  P  P18  1  0.75843300  0.59164200  0.56596900  1
  P  P19  1  0.74156700  0.59164200  0.06596900  1
  C  C20  1  0.74033600  0.04309500  0.62864800  1
  C  C21  1  0.75966400  0.04309500  0.12864800  1
  C  C22  1  0.24033600  0.95690500  0.87135200  1
  C  C23  1  0.25966400  0.95690500  0.37135200  1
  O  O24  1  0.76504900  0.06642000  0.98940900  1
  O  O25  1  0.73495100  0.06642000  0.48940900  1
  O  O26  1  0.23160800  0.10238000  0.76180900  1
  O  O27  1  0.75385800  0.15752300  0.66818300  1
  O  O28  1  0.26839200  0.10238000  0.26180900  1
  O  O29  1  0.74614200  0.15752300  0.16818300  1
  O  O30  1  0.05852800  0.31637500  0.92703500  1
  O  O31  1  0.44241300  0.30585300  0.92744400  1
  O  O32  1  0.05758700  0.30585300  0.42744400  1
  O  O33  1  0.44147200  0.31637500  0.42703500  1
  O  O34  1  0.75922600  0.42308900  0.69513600  1
  O  O35  1  0.23745100  0.41821500  0.59078100  1
  O  O36  1  0.74077400  0.42308900  0.19513600  1
  O  O37  1  0.26254900  0.41821500  0.09078100  1
  O  O38  1  0.73745100  0.58178500  0.90921900  1
  O  O39  1  0.25922600  0.57691100  0.80486400  1
  O  O40  1  0.76254900  0.58178500  0.40921900  1
  O  O41  1  0.24077400  0.57691100  0.30486400  1
  O  O42  1  0.94241300  0.69414700  0.57255600  1
  O  O43  1  0.55852800  0.68362500  0.57296500  1
  O  O44  1  0.94147200  0.68362500  0.07296500  1
  O  O45  1  0.55758700  0.69414700  0.07255600  1
  O  O46  1  0.25385800  0.84247700  0.83181700  1
  O  O47  1  0.73160800  0.89762000  0.73819100  1
  O  O48  1  0.24614200  0.84247700  0.33181700  1
  O  O49  1  0.76839200  0.89762000  0.23819100  1
  O  O50  1  0.26504900  0.93358000  0.51059100  1
  O  O51  1  0.23495100  0.93358000  0.01059100  1
