# generated using pymatgen
data_LiFe2(PO4)2
_symmetry_space_group_name_H-M   'P 1'
_cell_length_a   7.48661000
_cell_length_b   7.52881233
_cell_length_c   9.52521856
_cell_angle_alpha   91.91309661
_cell_angle_beta   89.74852311
_cell_angle_gamma   119.39302754
_symmetry_Int_Tables_number   1
_chemical_formula_structural   LiFe2(PO4)2
_chemical_formula_sum   'Li3 Fe6 P6 O24'
_cell_volume   467.47437449
_cell_formula_units_Z   3
loop_
 _symmetry_equiv_pos_site_id
 _symmetry_equiv_pos_as_xyz
  1  'x, y, z'
loop_
 _atom_site_type_symbol
 _atom_site_label
 _atom_site_symmetry_multiplicity
 _atom_site_fract_x
 _atom_site_fract_y
 _atom_site_fract_z
 _atom_site_occupancy
  Li  Li0  1  0.81272800  0.75655800  0.75159600  1
  Li  Li1  1  0.18729800  0.94048000  0.25090500  1
  Li  Li2  1  0.95899800  0.20958500  0.75995900  1
  Fe  Fe3  1  0.45087500  0.39060100  0.96691500  1
  Fe  Fe4  1  0.58937300  0.05191500  0.97250200  1
  Fe  Fe5  1  0.94488000  0.54045900  0.98253500  1
  Fe  Fe6  1  0.05679400  0.59507200  0.47745500  1
  Fe  Fe7  1  0.56250200  0.95414200  0.45272800  1
  Fe  Fe8  1  0.38294400  0.45012400  0.46833100  1
  P  P9  1  0.00398600  0.00371500  0.50532300  1
  P  P10  1  0.00318800  0.00349200  0.00594900  1
  P  P11  1  0.65622500  0.33841400  0.66969300  1
  P  P12  1  0.65993100  0.33288400  0.27485700  1
  P  P13  1  0.33225600  0.65556300  0.77355500  1
  P  P14  1  0.34894900  0.67390100  0.17402700  1
  O  O15  1  0.99152800  0.00537000  0.66414300  1
  O  O16  1  0.01179000  0.00704600  0.16265300  1
  O  O17  1  0.23199100  0.12556700  0.94651400  1
  O  O18  1  0.45662400  0.31964200  0.61056100  1
  O  O19  1  0.57744000  0.47172900  0.33179500  1
  O  O20  1  0.50660000  0.10952800  0.31866500  1
  O  O21  1  0.65783000  0.33748200  0.10722800  1
  O  O22  1  0.64853900  0.32854000  0.83655800  1
  O  O23  1  0.91023300  0.78307900  0.93779200  1
  O  O24  1  0.84028900  0.54443900  0.63334000  1
  O  O25  1  0.68316300  0.15642500  0.61191100  1
  O  O26  1  0.10925800  0.88512900  0.44567700  1
  O  O27  1  0.87338800  0.39637200  0.33045300  1
  O  O28  1  0.15573600  0.68919200  0.14215900  1
  O  O29  1  0.88424800  0.10683800  0.94385500  1
  O  O30  1  0.11581900  0.50045100  0.81994900  1
  O  O31  1  0.39896300  0.87466200  0.81721500  1
  O  O32  1  0.33433600  0.64636900  0.60313400  1
  O  O33  1  0.35798100  0.67582600  0.34569900  1
  O  O34  1  0.11566600  0.22640800  0.45007000  1
  O  O35  1  0.32744900  0.47073500  0.11541100  1
  O  O36  1  0.54421200  0.85507300  0.12508200  1
  O  O37  1  0.49048900  0.59247700  0.82468600  1
  O  O38  1  0.77767400  0.89908300  0.44448900  1
