# generated using pymatgen
data_Li5TiMn9O20
_symmetry_space_group_name_H-M   'P 1'
_cell_length_a   5.87694803
_cell_length_b   6.05119546
_cell_length_c   24.44071327
_cell_angle_alpha   89.18143537
_cell_angle_beta   95.54408911
_cell_angle_gamma   120.15124955
_symmetry_Int_Tables_number   1
_chemical_formula_structural   Li5TiMn9O20
_chemical_formula_sum   'Li10 Ti2 Mn18 O40'
_cell_volume   747.46922990
_cell_formula_units_Z   2
loop_
 _symmetry_equiv_pos_site_id
 _symmetry_equiv_pos_as_xyz
  1  'x, y, z'
loop_
 _atom_site_type_symbol
 _atom_site_label
 _atom_site_symmetry_multiplicity
 _atom_site_fract_x
 _atom_site_fract_y
 _atom_site_fract_z
 _atom_site_occupancy
  Li  Li0  1  0.98860541  0.00078839  0.99767549  1
  Li  Li1  1  0.71154069  0.35397002  0.05168588  1
  Li  Li2  1  0.50558719  0.75784313  0.25167322  1
  Li  Li3  1  0.79494013  0.39458072  0.19973991  1
  Li  Li4  1  0.60895121  0.78845550  0.40071688  1
  Li  Li5  1  0.29342573  0.13538234  0.44754274  1
  Li  Li6  1  0.10083453  0.55646053  0.65042291  1
  Li  Li7  1  0.40622879  0.21242393  0.59974078  1
  Li  Li8  1  0.18654084  0.58989989  0.79764428  1
  Li  Li9  1  0.90526165  0.96035719  0.85224783  1
  Ti  Ti10  1  0.25567760  0.88215916  0.12619071  1
  Ti  Ti11  1  0.75582531  0.89595136  0.62185802  1
  Mn  Mn12  1  0.35072168  0.67629718  0.02506147  1
  Mn  Mn13  1  0.25002566  0.37663060  0.12445003  1
  Mn  Mn14  1  0.05892019  0.77081890  0.32635852  1
  Mn  Mn15  1  0.75132538  0.87814767  0.12472882  1
  Mn  Mn16  1  0.14506435  0.08064351  0.22581352  1
  Mn  Mn17  1  0.05700707  0.27199282  0.32528667  1
  Mn  Mn18  1  0.55311991  0.26844864  0.32516648  1
  Mn  Mn19  1  0.34809263  0.67228555  0.52439504  1
  Mn  Mn20  1  0.84838970  0.67014087  0.52361215  1
  Mn  Mn21  1  0.95134855  0.45095166  0.42438018  1
  Mn  Mn22  1  0.64408411  0.57235783  0.72361607  1
  Mn  Mn23  1  0.14493086  0.06899354  0.72440179  1
  Mn  Mn24  1  0.44553202  0.97968903  0.92482094  1
  Mn  Mn25  1  0.85010477  0.17536178  0.52362328  1
  Mn  Mn26  1  0.44717540  0.48071945  0.92457641  1
  Mn  Mn27  1  0.64121004  0.06860636  0.72453952  1
  Mn  Mn28  1  0.54686599  0.27522536  0.82467896  1
  Mn  Mn29  1  0.94708106  0.48306383  0.92455736  1
  O  O30  1  0.09509410  0.54842762  0.07817105  1
  O  O31  1  0.54621802  0.00090791  0.07958620  1
  O  O32  1  0.34766745  0.94266245  0.28253502  1
  O  O33  1  0.55217306  0.55495703  0.08107481  1
  O  O34  1  0.45622325  0.75349261  0.16949821  1
  O  O35  1  0.04434169  0.99603764  0.07992407  1
  O  O36  1  0.22163904  0.57867711  0.37453836  1
  O  O37  1  0.40670375  0.20638397  0.17200714  1
  O  O38  1  0.95618041  0.76035449  0.17267609  1
  O  O39  1  0.88887285  0.96090889  0.27886301  1
  O  O40  1  0.33120216  0.39687694  0.27692082  1
  O  O41  1  0.12670708  0.76671273  0.47327491  1
  O  O42  1  0.12181028  0.31749743  0.47505334  1
  O  O43  1  0.03986068  0.52312059  0.56579063  1
  O  O44  1  0.24622647  0.12771911  0.36701850  1
  O  O45  1  0.94494395  0.20114518  0.16575608  1
  O  O46  1  0.77386355  0.58867645  0.37398781  1
  O  O47  1  0.86364155  0.41479578  0.28374286  1
  O  O48  1  0.65975667  0.82561975  0.48407009  1
  O  O49  1  0.02711387  0.03798945  0.57492299  1
  O  O50  1  0.78374020  0.15090932  0.37549928  1
  O  O51  1  0.34419340  0.93951343  0.76720692  1
  O  O52  1  0.57240082  0.57351332  0.57610036  1
  O  O53  1  0.67850416  0.31150715  0.47434265  1
  O  O54  1  0.48761438  0.75255544  0.67916835  1
  O  O55  1  0.84790476  0.94471704  0.76817167  1
  O  O56  1  0.93707807  0.75479438  0.67812029  1
  O  O57  1  0.24474609  0.65775670  0.88050257  1
  O  O58  1  0.58089311  0.03167558  0.57605174  1
  O  O59  1  0.44106726  0.19705480  0.68090468  1
  O  O60  1  0.35030172  0.38852429  0.76949414  1
  O  O61  1  0.15036275  0.80260162  0.96923187  1
  O  O62  1  0.80048710  0.39005949  0.76884777  1
  O  O63  1  0.60274788  0.81284625  0.97051699  1
  O  O64  1  0.15018253  0.35547087  0.96753679  1
  O  O65  1  0.29051149  0.14785983  0.87854690  1
  O  O66  1  0.93774658  0.19363878  0.67869979  1
  O  O67  1  0.74432114  0.60932242  0.88183463  1
  O  O68  1  0.74102242  0.16026420  0.87838141  1
  O  O69  1  0.64830881  0.30272225  0.96824435  1
