# generated using pymatgen
data_LiFe(PO3)4
_symmetry_space_group_name_H-M   'P 1'
_cell_length_a   7.21207048
_cell_length_b   7.21207048
_cell_length_c   10.06200433
_cell_angle_alpha   66.53833801
_cell_angle_beta   66.53833801
_cell_angle_gamma   70.23578799
_symmetry_Int_Tables_number   1
_chemical_formula_structural   LiFe(PO3)4
_chemical_formula_sum   'Li2 Fe2 P8 O24'
_cell_volume   430.25305427
_cell_formula_units_Z   2
loop_
 _symmetry_equiv_pos_site_id
 _symmetry_equiv_pos_as_xyz
  1  'x, y, z'
loop_
 _atom_site_type_symbol
 _atom_site_label
 _atom_site_symmetry_multiplicity
 _atom_site_fract_x
 _atom_site_fract_y
 _atom_site_fract_z
 _atom_site_occupancy
  Li  Li0  1  0.99890600  0.50720000  0.99975300  1
  Li  Li1  1  0.50720000  0.99890600  0.49975300  1
  Fe  Fe2  1  0.05193900  0.95152300  0.75071600  1
  Fe  Fe3  1  0.95152300  0.05193900  0.25071600  1
  P  P4  1  0.27044700  0.75374400  0.02261600  1
  P  P5  1  0.69108400  0.71557200  0.80141200  1
  P  P6  1  0.28690600  0.31442800  0.69809700  1
  P  P7  1  0.24968600  0.73426000  0.48008500  1
  P  P8  1  0.75374400  0.27044700  0.52261600  1
  P  P9  1  0.71557200  0.69108400  0.30141200  1
  P  P10  1  0.31442800  0.28690600  0.19809700  1
  P  P11  1  0.73426000  0.24968600  0.98008500  1
  O  O12  1  0.18940100  0.73208600  0.91292400  1
  O  O13  1  0.35182000  0.19131200  0.34506600  1
  O  O14  1  0.26795700  0.12236700  0.68001300  1
  O  O15  1  0.29847200  0.53860800  0.15342600  1
  O  O16  1  0.50178300  0.78892100  0.93881200  1
  O  O17  1  0.15324700  0.91966200  0.09753300  1
  O  O18  1  0.21016200  0.50423100  0.56207800  1
  O  O19  1  0.19131200  0.35182000  0.84506600  1
  O  O20  1  0.73208600  0.18940100  0.41292400  1
  O  O21  1  0.08594700  0.85727200  0.40417000  1
  O  O22  1  0.88057000  0.73706100  0.82118400  1
  O  O23  1  0.53860800  0.29847200  0.65342600  1
  O  O24  1  0.46557700  0.70188900  0.35095600  1
  O  O25  1  0.12236700  0.26795700  0.18001300  1
  O  O26  1  0.91966200  0.15324700  0.59753300  1
  O  O27  1  0.27270500  0.81329600  0.59043500  1
  O  O28  1  0.80722500  0.65347800  0.15281800  1
  O  O29  1  0.78892100  0.50178300  0.43881200  1
  O  O30  1  0.85727200  0.08594700  0.90417000  1
  O  O31  1  0.50423100  0.21016200  0.06207800  1
  O  O32  1  0.70188900  0.46557700  0.85095600  1
  O  O33  1  0.73706100  0.88057000  0.32118400  1
  O  O34  1  0.65347800  0.80722500  0.65281800  1
  O  O35  1  0.81329500  0.27270500  0.09043500  1
