# generated using pymatgen
data_LiVSiO4
_symmetry_space_group_name_H-M   'P 1'
_cell_length_a   10.89236493
_cell_length_b   10.89236493
_cell_length_c   12.19847500
_cell_angle_alpha   90.00000000
_cell_angle_beta   90.00000000
_cell_angle_gamma   120.00000562
_symmetry_Int_Tables_number   1
_chemical_formula_structural   LiVSiO4
_chemical_formula_sum   'Li12 V12 Si12 O48'
_cell_volume   1253.37351564
_cell_formula_units_Z   12
loop_
 _symmetry_equiv_pos_site_id
 _symmetry_equiv_pos_as_xyz
  1  'x, y, z'
loop_
 _atom_site_type_symbol
 _atom_site_label
 _atom_site_symmetry_multiplicity
 _atom_site_fract_x
 _atom_site_fract_y
 _atom_site_fract_z
 _atom_site_occupancy
  Li  Li0  1  0.00000000  0.50000000  0.00785800  1
  Li  Li1  1  0.00000000  0.50000000  0.65880900  1
  Li  Li2  1  0.00000000  0.50000000  0.33333300  1
  Li  Li3  1  0.00000000  0.00000000  0.16666700  1
  Li  Li4  1  0.00000000  0.00000000  0.50000000  1
  Li  Li5  1  0.00000000  0.00000000  0.83333300  1
  Li  Li6  1  0.50000000  0.50000000  0.34119100  1
  Li  Li7  1  0.50000000  0.50000000  0.66666700  1
  Li  Li8  1  0.50000000  0.50000000  0.99214200  1
  Li  Li9  1  0.50000000  0.00000000  0.32547600  1
  Li  Li10  1  0.50000000  0.00000000  0.00000000  1
  Li  Li11  1  0.50000000  0.00000000  0.67452400  1
  V  V12  1  0.00000000  0.74887900  0.83333300  1
  V  V13  1  0.00000000  0.25112100  0.83333300  1
  V  V14  1  0.25094300  0.74905700  0.16666700  1
  V  V15  1  0.25094300  0.50188700  0.50000000  1
  V  V16  1  0.49811300  0.74905700  0.83333300  1
  V  V17  1  0.25112100  0.25112100  0.16666700  1
  V  V18  1  0.25112100  0.00000000  0.50000000  1
  V  V19  1  0.74887900  0.74887900  0.16666700  1
  V  V20  1  0.50188700  0.25094300  0.83333300  1
  V  V21  1  0.74905700  0.49811300  0.50000000  1
  V  V22  1  0.74905700  0.25094300  0.16666700  1
  V  V23  1  0.74887900  0.00000000  0.50000000  1
  Si  Si24  1  0.00000000  0.75466900  0.33333300  1
  Si  Si25  1  0.24773900  0.75226100  0.66666700  1
  Si  Si26  1  0.00000000  0.24533100  0.33333300  1
  Si  Si27  1  0.24773900  0.49547700  0.00000000  1
  Si  Si28  1  0.24533100  0.24533100  0.66666700  1
  Si  Si29  1  0.50452300  0.75226100  0.33333300  1
  Si  Si30  1  0.24533100  0.00000000  0.00000000  1
  Si  Si31  1  0.49547700  0.24773900  0.33333300  1
  Si  Si32  1  0.75466900  0.75466900  0.66666700  1
  Si  Si33  1  0.75226100  0.50452300  0.00000000  1
  Si  Si34  1  0.75226100  0.24773900  0.66666700  1
  Si  Si35  1  0.75466900  0.00000000  0.00000000  1
  O  O36  1  0.07502300  0.88391900  0.42342100  1
  O  O37  1  0.11608100  0.92497700  0.90991300  1
  O  O38  1  0.09787500  0.69413300  0.73342600  1
  O  O39  1  0.10462100  0.70750400  0.27138900  1
  O  O40  1  0.29249600  0.89537900  0.06194500  1
  O  O41  1  0.30586700  0.90212500  0.59990700  1
  O  O42  1  0.19792800  0.61399900  0.58705400  1
  O  O43  1  0.09787500  0.40374100  0.93324000  1
  O  O44  1  0.19792800  0.58392900  0.07961300  1
  O  O45  1  0.10462100  0.39711700  0.39527800  1
  O  O46  1  0.07502300  0.19110400  0.24324600  1
  O  O47  1  0.38600100  0.80207200  0.74627900  1
  O  O48  1  0.41607100  0.80207200  0.25372100  1
  O  O49  1  0.11608100  0.19110400  0.75675400  1
  O  O50  1  0.29249600  0.39711700  0.60472200  1
  O  O51  1  0.38600100  0.58392900  0.92038700  1
  O  O52  1  0.30586700  0.40374100  0.06676000  1
  O  O53  1  0.41607100  0.61399900  0.41294600  1
  O  O54  1  0.19110400  0.11608100  0.57657900  1
  O  O55  1  0.19110400  0.07502300  0.09008700  1
  O  O56  1  0.59625900  0.90212500  0.40009300  1
  O  O57  1  0.60288300  0.89537900  0.93805500  1
  O  O58  1  0.60288300  0.70750400  0.72861100  1
  O  O59  1  0.40374100  0.30586700  0.26657400  1
  O  O60  1  0.59625900  0.69413300  0.26657400  1
  O  O61  1  0.39711700  0.29249600  0.72861100  1
  O  O62  1  0.39711700  0.10462100  0.93805500  1
  O  O63  1  0.40374100  0.09787500  0.40009300  1
  O  O64  1  0.80889600  0.92497700  0.09008700  1
  O  O65  1  0.80889600  0.88391900  0.57657900  1
  O  O66  1  0.58392900  0.38600100  0.41294600  1
  O  O67  1  0.69413300  0.59625900  0.06676000  1
  O  O68  1  0.61399900  0.41607100  0.92038700  1
  O  O69  1  0.70750400  0.60288300  0.60472200  1
  O  O70  1  0.88391900  0.80889600  0.75675400  1
  O  O71  1  0.58392900  0.19792800  0.25372100  1
  O  O72  1  0.61399900  0.19792800  0.74627900  1
  O  O73  1  0.92497700  0.80889600  0.24324600  1
  O  O74  1  0.89537900  0.60288300  0.39527800  1
  O  O75  1  0.80207200  0.41607100  0.07961300  1
  O  O76  1  0.90212500  0.59625900  0.93324000  1
  O  O77  1  0.80207200  0.38600100  0.58705400  1
  O  O78  1  0.69413300  0.09787500  0.59990700  1
  O  O79  1  0.70750400  0.10462100  0.06194500  1
  O  O80  1  0.89537900  0.29249600  0.27138900  1
  O  O81  1  0.90212500  0.30586700  0.73342600  1
  O  O82  1  0.88391900  0.07502300  0.90991300  1
  O  O83  1  0.92497700  0.11608100  0.42342100  1
