# generated using pymatgen
data_Li4Mn7O16
_symmetry_space_group_name_H-M   'P 1'
_cell_length_a   7.61520408
_cell_length_b   7.61520408
_cell_length_c   5.22130472
_cell_angle_alpha   77.80424063
_cell_angle_beta   77.80424063
_cell_angle_gamma   97.99936983
_symmetry_Int_Tables_number   1
_chemical_formula_structural   Li4Mn7O16
_chemical_formula_sum   'Li4 Mn7 O16'
_cell_volume   283.87433353
_cell_formula_units_Z   1
loop_
 _symmetry_equiv_pos_site_id
 _symmetry_equiv_pos_as_xyz
  1  'x, y, z'
loop_
 _atom_site_type_symbol
 _atom_site_label
 _atom_site_symmetry_multiplicity
 _atom_site_fract_x
 _atom_site_fract_y
 _atom_site_fract_z
 _atom_site_occupancy
  Li  Li0  1  0.74807600  0.74807600  0.49204100  1
  Li  Li1  1  0.87310400  0.12689600  0.50000000  1
  Li  Li2  1  0.25192400  0.25192400  0.50795900  1
  Li  Li3  1  0.12689600  0.87310400  0.50000000  1
  Mn  Mn4  1  0.87832500  0.63118900  0.00485100  1
  Mn  Mn5  1  0.75492100  0.24507900  0.00000000  1
  Mn  Mn6  1  0.63118900  0.87832500  0.00485100  1
  Mn  Mn7  1  0.50000000  0.50000000  0.00000000  1
  Mn  Mn8  1  0.24507900  0.75492100  0.00000000  1
  Mn  Mn9  1  0.36881100  0.12167500  0.99514900  1
  Mn  Mn10  1  0.12167500  0.36881100  0.99514900  1
  O  O11  1  0.99179100  0.26052200  0.78335900  1
  O  O12  1  0.85255200  0.85255200  0.77491600  1
  O  O13  1  0.74051600  0.49510800  0.80382900  1
  O  O14  1  0.88490900  0.37517200  0.20410800  1
  O  O15  1  0.73947800  0.00820900  0.21664100  1
  O  O16  1  0.62482800  0.11509100  0.79589200  1
  O  O17  1  0.63528000  0.63528000  0.20874000  1
  O  O18  1  0.49510800  0.74051600  0.80382900  1
  O  O19  1  0.36472000  0.36472000  0.79126000  1
  O  O20  1  0.50489200  0.25948400  0.19617100  1
  O  O21  1  0.26052200  0.99179100  0.78335900  1
  O  O22  1  0.37517200  0.88490900  0.20410800  1
  O  O23  1  0.11509100  0.62482800  0.79589200  1
  O  O24  1  0.25948400  0.50489200  0.19617100  1
  O  O25  1  0.00820900  0.73947800  0.21664100  1
  O  O26  1  0.14744800  0.14744800  0.22508400  1
