# generated using pymatgen
data_Li3MnV(PO4)3
_symmetry_space_group_name_H-M   'P 1'
_cell_length_a   9.72486600
_cell_length_b   9.82232128
_cell_length_c   9.84587474
_cell_angle_alpha   84.67539544
_cell_angle_beta   86.24314777
_cell_angle_gamma   87.32484590
_symmetry_Int_Tables_number   1
_chemical_formula_structural   Li3MnV(PO4)3
_chemical_formula_sum   'Li12 Mn4 V4 P12 O48'
_cell_volume   933.63465783
_cell_formula_units_Z   4
loop_
 _symmetry_equiv_pos_site_id
 _symmetry_equiv_pos_as_xyz
  1  'x, y, z'
loop_
 _atom_site_type_symbol
 _atom_site_label
 _atom_site_symmetry_multiplicity
 _atom_site_fract_x
 _atom_site_fract_y
 _atom_site_fract_z
 _atom_site_occupancy
  Li  Li0  1  0.23400000  0.50675100  0.98684500  1
  Li  Li1  1  0.39396100  0.25873200  0.99798300  1
  Li  Li2  1  0.47835000  0.55570200  0.78520500  1
  Li  Li3  1  0.17985000  0.72969700  0.76061800  1
  Li  Li4  1  0.60628100  0.00115400  0.74340700  1
  Li  Li5  1  0.79835600  0.74376100  0.62957500  1
  Li  Li6  1  0.76244800  0.01177300  0.49535900  1
  Li  Li7  1  0.52635700  0.21492400  0.44620500  1
  Li  Li8  1  0.96223300  0.93534400  0.28849700  1
  Li  Li9  1  0.81888900  0.24086900  0.26825300  1
  Li  Li10  1  0.20099700  0.37706000  0.25021400  1
  Li  Li11  1  0.03524000  0.70699300  0.06572400  1
  Mn  Mn12  1  0.00071300  0.24286100  0.75657200  1
  Mn  Mn13  1  0.50390500  0.53280100  0.46829800  1
  Mn  Mn14  1  0.49727200  0.75728600  0.24891000  1
  Mn  Mn15  1  0.72063100  0.73853200  0.03267300  1
  V  V16  1  0.78495700  0.25141200  0.97094300  1
  V  V17  1  0.21646700  0.02844100  0.74893000  1
  V  V18  1  0.00204300  0.46461500  0.53280500  1
  V  V19  1  0.27983700  0.96795700  0.25423500  1
  P  P20  1  0.40418300  0.82150900  0.94962000  1
  P  P21  1  0.90058600  0.94407300  0.82719800  1
  P  P22  1  0.92710600  0.55361500  0.83903200  1
  P  P23  1  0.30378000  0.33902400  0.68135200  1
  P  P24  1  0.69805100  0.31725200  0.66430900  1
  P  P25  1  0.42790900  0.83659500  0.55841900  1
  P  P26  1  0.07294500  0.15584800  0.44650600  1
  P  P27  1  0.80309100  0.67945400  0.34668100  1
  P  P28  1  0.19681200  0.65456700  0.31492100  1
  P  P29  1  0.57315900  0.44316200  0.16282300  1
  P  P30  1  0.59433600  0.05302100  0.18331200  1
  P  P31  1  0.09657800  0.17443300  0.05442600  1
  O  O32  1  0.86080000  0.87145100  0.97093000  1
  O  O33  1  0.56277400  0.81863100  0.91768900  1
  O  O34  1  0.78775900  0.62004900  0.88442900  1
  O  O35  1  0.34579800  0.96056500  0.88608400  1
  O  O36  1  0.33670500  0.69736900  0.90292200  1
  O  O37  1  0.92098300  0.39513600  0.88080000  1
  O  O38  1  0.05513900  0.60545900  0.89928200  1
  O  O39  1  0.12244200  0.16398200  0.89298500  1
  O  O40  1  0.87594900  0.10472300  0.83922700  1
  O  O41  1  0.66486100  0.30425400  0.82240400  1
  O  O42  1  0.05662400  0.90683600  0.79996600  1
  O  O43  1  0.35061900  0.40195800  0.80610800  1
  O  O44  1  0.81227700  0.91228900  0.71371000  1
  O  O45  1  0.93902600  0.58653400  0.68037700  1
  O  O46  1  0.33426500  0.18204200  0.68902300  1
  O  O47  1  0.14118300  0.37169500  0.67491700  1
  O  O48  1  0.28871800  0.87603900  0.63372500  1
  O  O49  1  0.55340900  0.90431300  0.59962800  1
  O  O50  1  0.86286100  0.32141300  0.63045900  1
  O  O51  1  0.63696400  0.45801100  0.61435000  1
  O  O52  1  0.44255400  0.67486300  0.59134300  1
  O  O53  1  0.65046900  0.19309500  0.59977000  1
  O  O54  1  0.08052100  0.11702400  0.60421900  1
  O  O55  1  0.37095800  0.39247000  0.54057200  1
  O  O56  1  0.84274100  0.80456000  0.41539100  1
  O  O57  1  0.13926400  0.59330900  0.45462000  1
  O  O58  1  0.86312300  0.54236100  0.40719800  1
  O  O59  1  0.41272500  0.87634400  0.40107500  1
  O  O60  1  0.63887100  0.66935400  0.37369600  1
  O  O61  1  0.94236800  0.09934800  0.39600400  1
  O  O62  1  0.07114000  0.31441900  0.41168200  1
  O  O63  1  0.20930600  0.09933200  0.38007800  1
  O  O64  1  0.35973400  0.63113700  0.32246000  1
  O  O65  1  0.15346000  0.81020700  0.29704800  1
  O  O66  1  0.55758000  0.41020000  0.32373300  1
  O  O67  1  0.65812900  0.10625300  0.30531100  1
  O  O68  1  0.84409800  0.69429100  0.18961400  1
  O  O69  1  0.62606500  0.89282400  0.18351600  1
  O  O70  1  0.15563900  0.58196800  0.19317100  1
  O  O71  1  0.43614100  0.08632400  0.18112000  1
  O  O72  1  0.58815200  0.60358800  0.12305800  1
  O  O73  1  0.37068800  0.83008700  0.11010500  1
  O  O74  1  0.71171400  0.37024200  0.12022600  1
  O  O75  1  0.94012300  0.20385100  0.09361900  1
  O  O76  1  0.44732100  0.40202700  0.09684900  1
  O  O77  1  0.13147800  0.03199600  0.12429300  1
  O  O78  1  0.18745700  0.28822100  0.08569000  1
  O  O79  1  0.65770300  0.11113800  0.04287600  1
