# generated using pymatgen
data_Li4Mn3Nb2V3O16
_symmetry_space_group_name_H-M   'P 1'
_cell_length_a   5.92107500
_cell_length_b   6.09308680
_cell_length_c   9.80416094
_cell_angle_alpha   92.22315653
_cell_angle_beta   89.99851562
_cell_angle_gamma   118.94247331
_symmetry_Int_Tables_number   1
_chemical_formula_structural   Li4Mn3Nb2V3O16
_chemical_formula_sum   'Li4 Mn3 Nb2 V3 O16'
_cell_volume   309.23041574
_cell_formula_units_Z   1
loop_
 _symmetry_equiv_pos_site_id
 _symmetry_equiv_pos_as_xyz
  1  'x, y, z'
loop_
 _atom_site_type_symbol
 _atom_site_label
 _atom_site_symmetry_multiplicity
 _atom_site_fract_x
 _atom_site_fract_y
 _atom_site_fract_z
 _atom_site_occupancy
  Li  Li0  1  0.65879700  0.31507300  0.90013600  1
  Li  Li1  1  0.99791200  0.00067100  0.99062600  1
  Li  Li2  1  0.00333800  0.00959000  0.48920900  1
  Li  Li3  1  0.33242400  0.66140000  0.40207300  1
  Mn  Mn4  1  0.83234800  0.66612800  0.21028600  1
  Mn  Mn5  1  0.16833500  0.82844800  0.71511200  1
  Mn  Mn6  1  0.66009600  0.82917700  0.71485100  1
  Nb  Nb7  1  0.66790500  0.34017100  0.49416100  1
  Nb  Nb8  1  0.32315200  0.64713100  0.99495800  1
  V  V9  1  0.34529500  0.17461300  0.21492000  1
  V  V10  1  0.82373400  0.17546400  0.22078400  1
  V  V11  1  0.17012600  0.34190200  0.71866300  1
  O  O12  1  0.34210300  0.18665900  0.58934700  1
  O  O13  1  0.52863700  0.03858500  0.34423400  1
  O  O14  1  0.66798200  0.30377600  0.10597300  1
  O  O15  1  0.00329500  0.02547900  0.30157800  1
  O  O16  1  0.00147400  0.00340600  0.80303200  1
  O  O17  1  0.84498600  0.18935800  0.59006300  1
  O  O18  1  0.50968600  0.46710300  0.34584100  1
  O  O19  1  0.96063900  0.46570900  0.34628800  1
  O  O20  1  0.16473900  0.33756400  0.09884900  1
  O  O21  1  0.84092600  0.68150800  0.59056700  1
  O  O22  1  0.03114400  0.50412100  0.84990200  1
  O  O23  1  0.47168000  0.50255400  0.85114400  1
  O  O24  1  0.33152000  0.66281800  0.61428500  1
  O  O25  1  0.17996600  0.84619800  0.08714100  1
  O  O26  1  0.47559700  0.95143900  0.83655200  1
  O  O27  1  0.66186600  0.84395700  0.08726500  1
