# generated using pymatgen
data_Li6V3P8O29
_symmetry_space_group_name_H-M   'P 1'
_cell_length_a   9.79936400
_cell_length_b   9.81027101
_cell_length_c   13.97345098
_cell_angle_alpha   90.27601183
_cell_angle_beta   90.14700524
_cell_angle_gamma   119.94060735
_symmetry_Int_Tables_number   1
_chemical_formula_structural   Li6V3P8O29
_chemical_formula_sum   'Li12 V6 P16 O58'
_cell_volume   1164.02048968
_cell_formula_units_Z   2
loop_
 _symmetry_equiv_pos_site_id
 _symmetry_equiv_pos_as_xyz
  1  'x, y, z'
loop_
 _atom_site_type_symbol
 _atom_site_label
 _atom_site_symmetry_multiplicity
 _atom_site_fract_x
 _atom_site_fract_y
 _atom_site_fract_z
 _atom_site_occupancy
  Li  Li0  1  0.76388200  0.66827000  0.55780400  1
  Li  Li1  1  0.67845300  0.34513700  0.88913400  1
  Li  Li2  1  0.77617900  0.08429100  0.06235200  1
  Li  Li3  1  0.30985300  0.22027600  0.06258800  1
  Li  Li4  1  0.66528000  0.90462400  0.43791000  1
  Li  Li5  1  0.33052700  0.09609100  0.55916400  1
  Li  Li6  1  0.69332800  0.77695500  0.94286800  1
  Li  Li7  1  0.22626200  0.90597400  0.94550800  1
  Li  Li8  1  0.09818500  0.76485800  0.43686200  1
  Li  Li9  1  0.23595600  0.33759500  0.43940700  1
  Li  Li10  1  0.09421300  0.32093500  0.93943900  1
  Li  Li11  1  0.98776000  0.03447700  0.50112800  1
  V  V12  1  0.56683000  0.00030900  0.25085200  1
  V  V13  1  0.43479800  0.99899300  0.74769800  1
  V  V14  1  0.56426500  0.56460900  0.75091500  1
  V  V15  1  0.43536800  0.43688500  0.25033300  1
  V  V16  1  0.00095500  0.56536800  0.24875800  1
  V  V17  1  0.99633800  0.43329100  0.74594300  1
  P  P18  1  0.91308800  0.68616500  0.84205400  1
  P  P19  1  0.77449700  0.68790900  0.34078100  1
  P  P20  1  0.91754100  0.22589100  0.33980100  1
  P  P21  1  0.66481900  0.33206200  0.13027700  1
  P  P22  1  0.66480300  0.33506900  0.62841300  1
  P  P23  1  0.77126500  0.09053700  0.84079200  1
  P  P24  1  0.68800400  0.91330900  0.65520800  1
  P  P25  1  0.32223800  0.22808200  0.84227900  1
  P  P26  1  0.68043500  0.76917800  0.15773700  1
  P  P27  1  0.31399900  0.08846000  0.34392300  1
  P  P28  1  0.22889900  0.90847000  0.16111600  1
  P  P29  1  0.33601100  0.66756800  0.37221500  1
  P  P30  1  0.33036500  0.66541600  0.87058400  1
  P  P31  1  0.08295900  0.76947400  0.65524000  1
  P  P32  1  0.22591700  0.31193300  0.65824100  1
  P  P33  1  0.08699200  0.31798500  0.15515400  1
  O  O34  1  0.99782500  0.76910500  0.56454600  1
  O  O35  1  0.91973700  0.66618900  0.34116600  1
  O  O36  1  0.75337400  0.75859900  0.06691700  1
  O  O37  1  0.74637600  0.66739700  0.84413400  1
  O  O38  1  0.89068100  0.51818400  0.82835300  1
  O  O39  1  0.81048200  0.47783600  0.17496300  1
  O  O40  1  0.92362300  0.38486300  0.33380400  1
  O  O41  1  0.99843200  0.24480700  0.06334200  1
  O  O42  1  0.92075400  0.25316700  0.84393700  1
  O  O43  1  0.67359400  0.48926200  0.67181800  1
  O  O44  1  0.62059300  0.52959000  0.33033900  1
  O  O45  1  0.80865400  0.32946100  0.67524600  1
  O  O46  1  0.65902100  0.32923900  0.02259000  1
  O  O47  1  0.66616300  0.34184400  0.52230400  1
  O  O48  1  0.66823300  0.18277600  0.16671800  1
  O  O49  1  0.48991800  0.37118300  0.82609300  1
  O  O50  1  0.51181900  0.32877400  0.16995600  1
  O  O51  1  0.74483000  0.08716200  0.34115200  1
  O  O52  1  0.79248400  0.00235000  0.74940300  1
  O  O53  1  0.77526700  0.99136300  0.56556900  1
  O  O54  1  0.74998300  0.99607700  0.92961400  1
  O  O55  1  0.62873000  0.11621900  0.82244900  1
  O  O56  1  0.50954500  0.18710800  0.66687900  1
  O  O57  1  0.66673100  0.92053500  0.16171000  1
  O  O58  1  0.47081500  0.09284100  0.33099300  1
  O  O59  1  0.33353900  0.25386000  0.34358500  1
  O  O60  1  0.79453300  0.79291300  0.24826100  1
  O  O61  1  0.77561800  0.77841100  0.42967700  1
  O  O62  1  0.22034000  0.21988600  0.56893000  1
  O  O63  1  0.66130400  0.74492500  0.66020700  1
  O  O64  1  0.53179000  0.91488600  0.66777600  1
  O  O65  1  0.33596300  0.07801600  0.84398200  1
  O  O66  1  0.49128700  0.81169800  0.33418600  1
  O  O67  1  0.38162400  0.90129300  0.17994500  1
  O  O68  1  0.24545700  0.99919600  0.07110700  1
  O  O69  1  0.22405900  0.99921900  0.43219900  1
  O  O70  1  0.20689000  0.00057200  0.25031500  1
  O  O71  1  0.24877800  0.91696500  0.65886500  1
  O  O72  1  0.47908900  0.66251600  0.82799900  1
  O  O73  1  0.51819300  0.62344200  0.17742100  1
  O  O74  1  0.33493600  0.81704200  0.82877500  1
  O  O75  1  0.33153900  0.66373100  0.97682800  1
  O  O76  1  0.33684900  0.66005500  0.47911700  1
  O  O77  1  0.19086900  0.67805700  0.33301900  1
  O  O78  1  0.38320300  0.46698200  0.66842500  1
  O  O79  1  0.32498000  0.51126700  0.32919700  1
  O  O80  1  0.08680800  0.74274400  0.16217400  1
  O  O81  1  0.98814000  0.78482100  0.74423900  1
  O  O82  1  0.01301800  0.77490600  0.92492000  1
  O  O83  1  0.09112500  0.61814200  0.66811300  1
  O  O84  1  0.18028800  0.51737300  0.82779300  1
  O  O85  1  0.10589700  0.48001300  0.17678200  1
  O  O86  1  0.24882700  0.32838100  0.15731100  1
  O  O87  1  0.24704500  0.24689400  0.93109500  1
  O  O88  1  0.21336800  0.20619600  0.75087500  1
  O  O89  1  0.08491200  0.33598700  0.66309400  1
  O  O90  1  0.00929300  0.20877900  0.42069400  1
  O  O91  1  0.98718700  0.20069200  0.24067000  1
