# generated using pymatgen
data_Li5Mn8(BO3)8
_symmetry_space_group_name_H-M   'P 1'
_cell_length_a   5.33506800
_cell_length_b   9.02482194
_cell_length_c   11.51976556
_cell_angle_alpha   112.44387631
_cell_angle_beta   101.32618475
_cell_angle_gamma   90.50815566
_symmetry_Int_Tables_number   1
_chemical_formula_structural   Li5Mn8(BO3)8
_chemical_formula_sum   'Li5 Mn8 B8 O24'
_cell_volume   500.50151822
_cell_formula_units_Z   1
loop_
 _symmetry_equiv_pos_site_id
 _symmetry_equiv_pos_as_xyz
  1  'x, y, z'
loop_
 _atom_site_type_symbol
 _atom_site_label
 _atom_site_symmetry_multiplicity
 _atom_site_fract_x
 _atom_site_fract_y
 _atom_site_fract_z
 _atom_site_occupancy
  Li  Li0  1  0.93221000  0.06343500  0.16518400  1
  Li  Li1  1  0.87239900  0.70800300  0.42217600  1
  Li  Li2  1  0.69720200  0.84901500  0.66291000  1
  Li  Li3  1  0.59260100  0.45566200  0.92252600  1
  Li  Li4  1  0.35340500  0.21966300  0.40651000  1
  Mn  Mn5  1  0.91472000  0.71128800  0.12841200  1
  Mn  Mn6  1  0.84757600  0.35302700  0.37798400  1
  Mn  Mn7  1  0.65420400  0.17610400  0.62545000  1
  Mn  Mn8  1  0.40567800  0.23329000  0.12696600  1
  Mn  Mn9  1  0.60404500  0.79366600  0.89007800  1
  Mn  Mn10  1  0.35310500  0.86451500  0.38311700  1
  Mn  Mn11  1  0.17461100  0.62460900  0.63271900  1
  Mn  Mn12  1  0.08486000  0.24652300  0.86870700  1
  B  B13  1  0.87842500  0.36725300  0.11252500  1
  B  B14  1  0.86586500  0.01402400  0.37763100  1
  B  B15  1  0.63114600  0.49663700  0.61720400  1
  B  B16  1  0.41276700  0.90250600  0.14654000  1
  B  B17  1  0.60383000  0.12068100  0.86334700  1
  B  B18  1  0.36573200  0.53035000  0.38656900  1
  B  B19  1  0.14665300  0.97412800  0.62302200  1
  B  B20  1  0.09844100  0.59286000  0.87071900  1
  O  O21  1  0.99638600  0.13450000  0.36330800  1
  O  O22  1  0.96072700  0.86291200  0.35153700  1
  O  O23  1  0.80977200  0.27122600  0.17442100  1
  O  O24  1  0.75307900  0.49557200  0.10918900  1
  O  O25  1  0.86764500  0.47879700  0.58305000  1
  O  O26  1  0.63944300  0.87418000  0.09999400  1
  O  O27  1  0.87532900  0.63365700  0.91859300  1
  O  O28  1  0.63274700  0.04181500  0.41857700  1
  O  O29  1  0.70154500  0.24040000  0.82711200  1
  O  O30  1  0.71165300  0.98093800  0.84283900  1
  O  O31  1  0.50349700  0.66214800  0.39347100  1
  O  O32  1  0.44408300  0.37595700  0.33557400  1
  O  O33  1  0.55071200  0.65159800  0.66507600  1
  O  O34  1  0.31852100  0.79613200  0.19694900  1
  O  O35  1  0.47652600  0.36360200  0.59466500  1
  O  O36  1  0.27582600  0.02691600  0.14251800  1
  O  O37  1  0.37302500  0.97193900  0.57382200  1
  O  O38  1  0.08227200  0.31755300  0.05139300  1
  O  O39  1  0.39851900  0.15805700  0.92242000  1
  O  O40  1  0.13784900  0.54534300  0.43491900  1
  O  O41  1  0.22565400  0.46623600  0.87695600  1
  O  O42  1  0.20146100  0.69437800  0.81814700  1
  O  O43  1  0.05346000  0.12335100  0.68008400  1
  O  O44  1  0.02132700  0.83512000  0.61037500  1
