# generated using pymatgen
data_LiMn2(PO4)2
_symmetry_space_group_name_H-M   'P 1'
_cell_length_a   6.76133800
_cell_length_b   8.56015398
_cell_length_c   8.71644391
_cell_angle_alpha   91.36358901
_cell_angle_beta   108.92422899
_cell_angle_gamma   108.49045272
_symmetry_Int_Tables_number   1
_chemical_formula_structural   LiMn2(PO4)2
_chemical_formula_sum   'Li3 Mn6 P6 O24'
_cell_volume   448.05365092
_cell_formula_units_Z   3
loop_
 _symmetry_equiv_pos_site_id
 _symmetry_equiv_pos_as_xyz
  1  'x, y, z'
loop_
 _atom_site_type_symbol
 _atom_site_label
 _atom_site_symmetry_multiplicity
 _atom_site_fract_x
 _atom_site_fract_y
 _atom_site_fract_z
 _atom_site_occupancy
  Li  Li0  1  0.74372500  0.00967100  0.00660800  1
  Li  Li1  1  0.25627500  0.99032900  0.99339200  1
  Li  Li2  1  0.00000000  0.50000000  0.50000000  1
  Mn  Mn3  1  0.35992700  0.93601200  0.61815400  1
  Mn  Mn4  1  0.74076500  0.71882500  0.28222400  1
  Mn  Mn5  1  0.86131800  0.61852600  0.94033000  1
  Mn  Mn6  1  0.13868200  0.38147400  0.05967000  1
  Mn  Mn7  1  0.25923500  0.28117500  0.71777600  1
  Mn  Mn8  1  0.64007300  0.06398800  0.38184600  1
  P  P9  1  0.37547600  0.66111900  0.88226400  1
  P  P10  1  0.75506200  0.29839400  0.71080700  1
  P  P11  1  0.88542600  0.87594800  0.66550600  1
  P  P12  1  0.11457400  0.12405200  0.33449400  1
  P  P13  1  0.24493800  0.70160600  0.28919300  1
  P  P14  1  0.62452400  0.33888100  0.11773600  1
  O  O15  1  0.39701100  0.84323800  0.84953400  1
  O  O16  1  0.96004100  0.26399400  0.83348500  1
  O  O17  1  0.19484400  0.59729500  0.96581200  1
  O  O18  1  0.77465400  0.27944200  0.54043900  1
  O  O19  1  0.69608300  0.45978900  0.27318200  1
  O  O20  1  0.60576400  0.67474400  0.00917300  1
  O  O21  1  0.88754600  0.98414600  0.30977400  1
  O  O22  1  0.84983200  0.73076100  0.54341500  1
  O  O23  1  0.75007600  0.47718000  0.73526200  1
  O  O24  1  0.30705100  0.05127500  0.39287700  1
  O  O25  1  0.53780500  0.17914500  0.72905900  1
  O  O26  1  0.91164400  0.83138900  0.84495300  1
  O  O27  1  0.08835600  0.16861100  0.15504700  1
  O  O28  1  0.46219500  0.82085500  0.27094100  1
  O  O29  1  0.69294900  0.94872500  0.60712300  1
  O  O30  1  0.24992400  0.52282000  0.26473800  1
  O  O31  1  0.15016800  0.26923900  0.45658500  1
  O  O32  1  0.11245400  0.01585400  0.69022600  1
  O  O33  1  0.39423600  0.32525600  0.99082700  1
  O  O34  1  0.30391700  0.54021100  0.72681800  1
  O  O35  1  0.22534600  0.72055800  0.45956100  1
  O  O36  1  0.80515600  0.40270500  0.03418800  1
  O  O37  1  0.03995900  0.73600600  0.16651500  1
  O  O38  1  0.60298900  0.15676200  0.15046600  1
