# generated using pymatgen
data_Li10Mn2Fe3Ni3O16
_symmetry_space_group_name_H-M   'P 1'
_cell_length_a   5.95210087
_cell_length_b   5.95210087
_cell_length_c   9.78657612
_cell_angle_alpha   89.27648286
_cell_angle_beta   89.27648286
_cell_angle_gamma   60.35450807
_symmetry_Int_Tables_number   1
_chemical_formula_structural   Li10Mn2Fe3Ni3O16
_chemical_formula_sum   'Li10 Mn2 Fe3 Ni3 O16'
_cell_volume   301.29782227
_cell_formula_units_Z   1
loop_
 _symmetry_equiv_pos_site_id
 _symmetry_equiv_pos_as_xyz
  1  'x, y, z'
loop_
 _atom_site_type_symbol
 _atom_site_label
 _atom_site_symmetry_multiplicity
 _atom_site_fract_x
 _atom_site_fract_y
 _atom_site_fract_z
 _atom_site_occupancy
  Li  Li0  1  0.60795000  0.19930900  0.05123000  1
  Li  Li1  1  0.19930900  0.60795000  0.05123000  1
  Li  Li2  1  0.32762200  0.32762200  0.26693800  1
  Li  Li3  1  0.19612400  0.19612400  0.04829400  1
  Li  Li4  1  0.99576900  0.99576900  0.98057200  1
  Li  Li5  1  0.99552100  0.99552100  0.47608800  1
  Li  Li6  1  0.80135600  0.80135600  0.54500900  1
  Li  Li7  1  0.80432100  0.38889700  0.53940000  1
  Li  Li8  1  0.65733200  0.65733200  0.76775500  1
  Li  Li9  1  0.38889700  0.80432100  0.53940000  1
  Mn  Mn10  1  0.32661800  0.32661800  0.52151700  1
  Mn  Mn11  1  0.66079400  0.66079400  0.02393700  1
  Fe  Fe12  1  0.65276500  0.16481200  0.77837100  1
  Fe  Fe13  1  0.16481200  0.65276500  0.77837100  1
  Fe  Fe14  1  0.82247300  0.82247300  0.27608600  1
  Ni  Ni15  1  0.16077000  0.16077000  0.77834200  1
  Ni  Ni16  1  0.82841800  0.33483500  0.27942600  1
  Ni  Ni17  1  0.33483500  0.82841800  0.27942600  1
  O  O18  1  0.65129300  0.16235000  0.40766900  1
  O  O19  1  0.48173700  0.48173700  0.64844800  1
  O  O20  1  0.99287800  0.99287800  0.17287300  1
  O  O21  1  0.48287200  0.02400400  0.64907200  1
  O  O22  1  0.16235000  0.65129300  0.40766900  1
  O  O23  1  0.33068200  0.33068200  0.89629500  1
  O  O24  1  0.98700400  0.98700400  0.66748100  1
  O  O25  1  0.02400400  0.48287200  0.64907200  1
  O  O26  1  0.16802000  0.16802000  0.41417000  1
  O  O27  1  0.99415900  0.50332200  0.15759700  1
  O  O28  1  0.82258200  0.82258200  0.89882000  1
  O  O29  1  0.50332200  0.99415900  0.15759700  1
  O  O30  1  0.66619600  0.66619600  0.39836100  1
  O  O31  1  0.81511400  0.32749000  0.89845700  1
  O  O32  1  0.51262000  0.51262000  0.14791000  1
  O  O33  1  0.32749000  0.81511400  0.89845700  1
