# generated using pymatgen
data_Li5CoO4
_symmetry_space_group_name_H-M   'P 1'
_cell_length_a   5.08305200
_cell_length_b   9.72075700
_cell_length_c   16.13645100
_cell_angle_alpha   90.00000000
_cell_angle_beta   90.00000000
_cell_angle_gamma   90.00000000
_symmetry_Int_Tables_number   1
_chemical_formula_structural   Li5CoO4
_chemical_formula_sum   'Li40 Co8 O32'
_cell_volume   797.32000879
_cell_formula_units_Z   8
loop_
 _symmetry_equiv_pos_site_id
 _symmetry_equiv_pos_as_xyz
  1  'x, y, z'
loop_
 _atom_site_type_symbol
 _atom_site_label
 _atom_site_symmetry_multiplicity
 _atom_site_fract_x
 _atom_site_fract_y
 _atom_site_fract_z
 _atom_site_occupancy
  Li  Li0  1  0.91886800  0.94037500  0.42969600  1
  Li  Li1  1  0.58113200  0.94037500  0.92969600  1
  Li  Li2  1  0.03032200  0.95631100  0.27284200  1
  Li  Li3  1  0.46967800  0.95631100  0.77284200  1
  Li  Li4  1  0.39886200  0.80406300  0.48143800  1
  Li  Li5  1  0.10113800  0.80406300  0.98143800  1
  Li  Li6  1  0.59536800  0.81446200  0.32128000  1
  Li  Li7  1  0.90463200  0.81446200  0.82128000  1
  Li  Li8  1  0.39523600  0.80883200  0.16581600  1
  Li  Li9  1  0.10476400  0.80883200  0.66581600  1
  Li  Li10  1  0.89523600  0.69116800  0.16581600  1
  Li  Li11  1  0.60476400  0.69116800  0.66581600  1
  Li  Li12  1  0.40463200  0.68553800  0.82128000  1
  Li  Li13  1  0.09536800  0.68553800  0.32128000  1
  Li  Li14  1  0.89886200  0.69593700  0.48143800  1
  Li  Li15  1  0.60113800  0.69593700  0.98143800  1
  Li  Li16  1  0.53032200  0.54368900  0.27284200  1
  Li  Li17  1  0.96967800  0.54368900  0.77284200  1
  Li  Li18  1  0.08113200  0.55962500  0.92969600  1
  Li  Li19  1  0.41886800  0.55962500  0.42969600  1
  Li  Li20  1  0.91886800  0.44037500  0.07030400  1
  Li  Li21  1  0.58113200  0.44037500  0.57030400  1
  Li  Li22  1  0.46967800  0.45631100  0.72715800  1
  Li  Li23  1  0.03032200  0.45631100  0.22715800  1
  Li  Li24  1  0.39886200  0.30406300  0.01856200  1
  Li  Li25  1  0.10113800  0.30406300  0.51856200  1
  Li  Li26  1  0.59536800  0.31446200  0.17872000  1
  Li  Li27  1  0.90463200  0.31446200  0.67872000  1
  Li  Li28  1  0.10476400  0.30883200  0.83418400  1
  Li  Li29  1  0.39523600  0.30883200  0.33418400  1
  Li  Li30  1  0.89523600  0.19116800  0.33418400  1
  Li  Li31  1  0.60476400  0.19116800  0.83418400  1
  Li  Li32  1  0.40463200  0.18553800  0.67872000  1
  Li  Li33  1  0.09536800  0.18553800  0.17872000  1
  Li  Li34  1  0.60113800  0.19593700  0.51856200  1
  Li  Li35  1  0.89886200  0.19593700  0.01856200  1
  Li  Li36  1  0.96967800  0.04368900  0.72715800  1
  Li  Li37  1  0.53032200  0.04368900  0.22715800  1
  Li  Li38  1  0.08113200  0.05962500  0.57030400  1
  Li  Li39  1  0.41886800  0.05962500  0.07030400  1
  Co  Co40  1  0.87529600  0.95289800  0.11594100  1
  Co  Co41  1  0.62470400  0.95289800  0.61594100  1
  Co  Co42  1  0.37529600  0.54710200  0.11594100  1
  Co  Co43  1  0.12470400  0.54710200  0.61594100  1
  Co  Co44  1  0.87529600  0.45289800  0.38405900  1
  Co  Co45  1  0.62470400  0.45289800  0.88405900  1
  Co  Co46  1  0.37529600  0.04710200  0.38405900  1
  Co  Co47  1  0.12470400  0.04710200  0.88405900  1
  O  O48  1  0.21193100  0.97774000  0.15165600  1
  O  O49  1  0.28806900  0.97774000  0.65165600  1
  O  O50  1  0.73189300  0.85354000  0.20859300  1
  O  O51  1  0.76810700  0.85354000  0.70859300  1
  O  O52  1  0.75319800  0.86568500  0.02363900  1
  O  O53  1  0.74680200  0.86568500  0.52363900  1
  O  O54  1  0.26861500  0.86109000  0.87510300  1
  O  O55  1  0.23138500  0.86109000  0.37510300  1
  O  O56  1  0.73138500  0.63891000  0.37510300  1
  O  O57  1  0.76861500  0.63891000  0.87510300  1
  O  O58  1  0.25319800  0.63431500  0.02363900  1
  O  O59  1  0.24680200  0.63431500  0.52363900  1
  O  O60  1  0.23189300  0.64646000  0.20859300  1
  O  O61  1  0.26810700  0.64646000  0.70859300  1
  O  O62  1  0.71193100  0.52226000  0.15165600  1
  O  O63  1  0.78806900  0.52226000  0.65165600  1
  O  O64  1  0.21193100  0.47774000  0.34834400  1
  O  O65  1  0.28806900  0.47774000  0.84834400  1
  O  O66  1  0.76810700  0.35354000  0.79140700  1
  O  O67  1  0.73189300  0.35354000  0.29140700  1
  O  O68  1  0.74680200  0.36568500  0.97636100  1
  O  O69  1  0.75319800  0.36568500  0.47636100  1
  O  O70  1  0.26861500  0.36109000  0.62489700  1
  O  O71  1  0.23138500  0.36109000  0.12489700  1
  O  O72  1  0.76861500  0.13891000  0.62489700  1
  O  O73  1  0.73138500  0.13891000  0.12489700  1
  O  O74  1  0.25319800  0.13431500  0.47636100  1
  O  O75  1  0.24680200  0.13431500  0.97636100  1
  O  O76  1  0.26810700  0.14646000  0.79140700  1
  O  O77  1  0.23189300  0.14646000  0.29140700  1
  O  O78  1  0.78806900  0.02226000  0.84834400  1
  O  O79  1  0.71193100  0.02226000  0.34834400  1
