# generated using pymatgen
data_Li24Ti5Cr7O36
_symmetry_space_group_name_H-M   'P 1'
_cell_length_a   5.05055600
_cell_length_b   9.79533582
_cell_length_c   13.41015186
_cell_angle_alpha   80.77661283
_cell_angle_beta   79.23298079
_cell_angle_gamma   85.37121825
_symmetry_Int_Tables_number   1
_chemical_formula_structural   Li24Ti5Cr7O36
_chemical_formula_sum   'Li24 Ti5 Cr7 O36'
_cell_volume   642.43760849
_cell_formula_units_Z   1
loop_
 _symmetry_equiv_pos_site_id
 _symmetry_equiv_pos_as_xyz
  1  'x, y, z'
loop_
 _atom_site_type_symbol
 _atom_site_label
 _atom_site_symmetry_multiplicity
 _atom_site_fract_x
 _atom_site_fract_y
 _atom_site_fract_z
 _atom_site_occupancy
  Li  Li0  1  0.67062800  0.00055200  0.16710000  1
  Li  Li1  1  0.56183800  0.00099300  0.38415800  1
  Li  Li2  1  0.24803800  0.74877500  0.75072800  1
  Li  Li3  1  0.58428300  0.75032400  0.08148900  1
  Li  Li4  1  0.06430900  0.49852000  0.88804000  1
  Li  Li5  1  0.40179100  0.49888300  0.22220500  1
  Li  Li6  1  0.16097200  0.49822400  0.66717700  1
  Li  Li7  1  0.49799900  0.50183500  0.00140600  1
  Li  Li8  1  0.26446500  0.50074700  0.44381300  1
  Li  Li9  1  0.08221400  0.25023800  0.58347600  1
  Li  Li10  1  0.99488900  0.00033900  0.50091800  1
  Li  Li11  1  0.76862400  0.00024000  0.94681900  1
  Li  Li12  1  0.10524100  0.99852900  0.28209000  1
  Li  Li13  1  0.90118900  0.00100400  0.71893200  1
  Li  Li14  1  0.23027000  0.00014700  0.05113800  1
  Li  Li15  1  0.91574500  0.75094600  0.41707800  1
  Li  Li16  1  0.73731900  0.50113900  0.55480800  1
  Li  Li17  1  0.83384500  0.50061500  0.33385400  1
  Li  Li18  1  0.60453400  0.50195200  0.77889500  1
  Li  Li19  1  0.93117600  0.49999100  0.11065400  1
  Li  Li20  1  0.41688200  0.25058400  0.91701700  1
  Li  Li21  1  0.33147600  0.99970500  0.83441500  1
  Li  Li22  1  0.74852700  0.25005200  0.24847000  1
  Li  Li23  1  0.43623700  0.99894200  0.61323900  1
  Ti  Ti24  1  0.35786600  0.75503300  0.52588600  1
  Ti  Ti25  1  0.30905800  0.24700200  0.13999200  1
  Ti  Ti26  1  0.03010500  0.74686600  0.19295300  1
  Ti  Ti27  1  0.53114900  0.24697800  0.69519100  1
  Ti  Ti28  1  0.63296400  0.25479600  0.47191300  1
  Cr  Cr29  1  0.86011400  0.25302300  0.02561900  1
  Cr  Cr30  1  0.47542800  0.75019300  0.30546300  1
  Cr  Cr31  1  0.97650200  0.24852300  0.80806000  1
  Cr  Cr32  1  0.18926600  0.24949600  0.36000200  1
  Cr  Cr33  1  0.69904000  0.74841400  0.86418900  1
  Cr  Cr34  1  0.79804900  0.75029200  0.64127000  1
  Cr  Cr35  1  0.14200600  0.74950200  0.96976900  1
  O  O36  1  0.93343700  0.86245500  0.06914200  1
  O  O37  1  0.71682600  0.63376100  0.21392500  1
  O  O38  1  0.42845500  0.36521900  0.57137600  1
  O  O39  1  0.49753000  0.36168500  0.35490900  1
  O  O40  1  0.61572100  0.36680600  0.11845800  1
  O  O41  1  0.25727500  0.86394000  0.40441900  1
  O  O42  1  0.21749200  0.13301500  0.71513400  1
  O  O43  1  0.33025700  0.13869200  0.47536300  1
  O  O44  1  0.55575300  0.13425100  0.04734400  1
  O  O45  1  0.00421700  0.86180300  0.85953500  1
  O  O46  1  0.11597100  0.86422000  0.61950300  1
  O  O47  1  0.33914900  0.86128600  0.19064400  1
  O  O48  1  0.40990800  0.13530900  0.26103000  1
  O  O49  1  0.82986000  0.63719500  0.97515000  1
  O  O50  1  0.04435700  0.63556300  0.55049000  1
  O  O51  1  0.16943400  0.63760000  0.31087200  1
  O  O52  1  0.90064300  0.63820200  0.76585700  1
  O  O53  1  0.23819500  0.63656900  0.09406500  1
  O  O54  1  0.75758400  0.36036900  0.90833500  1
  O  O55  1  0.09493800  0.36159400  0.24104300  1
  O  O56  1  0.83509200  0.36179900  0.69258800  1
  O  O57  1  0.94897500  0.36648600  0.45280100  1
  O  O58  1  0.16273300  0.36212800  0.02257900  1
  O  O59  1  0.59884500  0.86053300  0.73584600  1
  O  O60  1  0.66913400  0.13736600  0.81184700  1
  O  O61  1  0.88936500  0.13607000  0.38038500  1
  O  O62  1  0.99844300  0.13745500  0.14136100  1
  O  O63  1  0.45894600  0.86477200  0.94810200  1
  O  O64  1  0.66443500  0.86430800  0.52222800  1
  O  O65  1  0.77993600  0.86440700  0.28535700  1
  O  O66  1  0.73646700  0.13604400  0.59586300  1
  O  O67  1  0.37507500  0.63691100  0.88399300  1
  O  O68  1  0.50746300  0.63694900  0.64443300  1
  O  O69  1  0.57166300  0.63812200  0.42563000  1
  O  O70  1  0.27691500  0.36484200  0.78661800  1
  O  O71  1  0.07547200  0.13887700  0.92555000  1
