# generated using pymatgen
data_Li5CrO4
_symmetry_space_group_name_H-M   'P 1'
_cell_length_a   9.12651500
_cell_length_b   9.17979100
_cell_length_c   9.46679600
_cell_angle_alpha   90.00000000
_cell_angle_beta   90.00000000
_cell_angle_gamma   90.00000000
_symmetry_Int_Tables_number   1
_chemical_formula_structural   Li5CrO4
_chemical_formula_sum   'Li40 Cr8 O32'
_cell_volume   793.12343793
_cell_formula_units_Z   8
loop_
 _symmetry_equiv_pos_site_id
 _symmetry_equiv_pos_as_xyz
  1  'x, y, z'
loop_
 _atom_site_type_symbol
 _atom_site_label
 _atom_site_symmetry_multiplicity
 _atom_site_fract_x
 _atom_site_fract_y
 _atom_site_fract_z
 _atom_site_occupancy
  Li  Li0  1  0.10855900  0.60758200  0.14113600  1
  Li  Li1  1  0.10855900  0.89241800  0.64113600  1
  Li  Li2  1  0.11473200  0.11175300  0.83973400  1
  Li  Li3  1  0.11473200  0.38824700  0.33973400  1
  Li  Li4  1  0.12501100  0.85154900  0.38034600  1
  Li  Li5  1  0.12501100  0.64845100  0.88034600  1
  Li  Li6  1  0.15041000  0.87200000  0.11403800  1
  Li  Li7  1  0.15041000  0.62800000  0.61403800  1
  Li  Li8  1  0.16116800  0.11555500  0.39389700  1
  Li  Li9  1  0.16116800  0.38444500  0.89389700  1
  Li  Li10  1  0.33883200  0.88444500  0.89389700  1
  Li  Li11  1  0.33883200  0.61555500  0.39389700  1
  Li  Li12  1  0.34959000  0.37200000  0.11403800  1
  Li  Li13  1  0.34959000  0.12800000  0.61403800  1
  Li  Li14  1  0.37498900  0.35154900  0.38034600  1
  Li  Li15  1  0.37498900  0.14845100  0.88034600  1
  Li  Li16  1  0.38526800  0.88824700  0.33973400  1
  Li  Li17  1  0.38526800  0.61175300  0.83973400  1
  Li  Li18  1  0.39144100  0.10758200  0.14113600  1
  Li  Li19  1  0.39144100  0.39241800  0.64113600  1
  Li  Li20  1  0.60855900  0.60758200  0.35886400  1
  Li  Li21  1  0.60855900  0.89241800  0.85886400  1
  Li  Li22  1  0.61473200  0.11175300  0.66026600  1
  Li  Li23  1  0.61473200  0.38824700  0.16026600  1
  Li  Li24  1  0.62501100  0.64845100  0.61965400  1
  Li  Li25  1  0.62501100  0.85154900  0.11965400  1
  Li  Li26  1  0.65041000  0.62800000  0.88596200  1
  Li  Li27  1  0.65041000  0.87200000  0.38596200  1
  Li  Li28  1  0.66116800  0.11555500  0.10610300  1
  Li  Li29  1  0.66116800  0.38444500  0.60610300  1
  Li  Li30  1  0.83883200  0.61555500  0.10610300  1
  Li  Li31  1  0.83883200  0.88444500  0.60610300  1
  Li  Li32  1  0.84959000  0.37200000  0.38596200  1
  Li  Li33  1  0.84959000  0.12800000  0.88596200  1
  Li  Li34  1  0.87498900  0.14845100  0.61965400  1
  Li  Li35  1  0.87498900  0.35154900  0.11965400  1
  Li  Li36  1  0.88526800  0.61175300  0.66026600  1
  Li  Li37  1  0.88526800  0.88824700  0.16026600  1
  Li  Li38  1  0.89144100  0.10758200  0.35886400  1
  Li  Li39  1  0.89144100  0.39241800  0.85886400  1
  Cr  Cr40  1  0.10826800  0.14768500  0.11926700  1
  Cr  Cr41  1  0.10826800  0.35231500  0.61926700  1
  Cr  Cr42  1  0.39173200  0.64768500  0.11926700  1
  Cr  Cr43  1  0.39173200  0.85231500  0.61926700  1
  Cr  Cr44  1  0.60826800  0.14768500  0.38073300  1
  Cr  Cr45  1  0.60826800  0.35231500  0.88073300  1
  Cr  Cr46  1  0.89173200  0.64768500  0.38073300  1
  Cr  Cr47  1  0.89173200  0.85231500  0.88073300  1
  O  O48  1  0.00456300  0.24936100  0.47645200  1
  O  O49  1  0.00456300  0.25063900  0.97645200  1
  O  O50  1  0.04037500  0.00224500  0.25328300  1
  O  O51  1  0.04037500  0.49775500  0.75328300  1
  O  O52  1  0.23592200  0.03516600  0.00016300  1
  O  O53  1  0.23592200  0.46483400  0.50016300  1
  O  O54  1  0.24557900  0.24065600  0.24478200  1
  O  O55  1  0.24557900  0.25934400  0.74478200  1
  O  O56  1  0.25442100  0.74065600  0.24478200  1
  O  O57  1  0.25442100  0.75934400  0.74478200  1
  O  O58  1  0.26407800  0.53516600  0.00016300  1
  O  O59  1  0.26407800  0.96483400  0.50016300  1
  O  O60  1  0.45962500  0.50224500  0.25328300  1
  O  O61  1  0.45962500  0.99775500  0.75328300  1
  O  O62  1  0.49543700  0.74936100  0.47645200  1
  O  O63  1  0.49543700  0.75063900  0.97645200  1
  O  O64  1  0.50456300  0.24936100  0.02354800  1
  O  O65  1  0.50456300  0.25063900  0.52354800  1
  O  O66  1  0.54037500  0.00224500  0.24671700  1
  O  O67  1  0.54037500  0.49775500  0.74671700  1
  O  O68  1  0.73592200  0.03516600  0.49983700  1
  O  O69  1  0.73592200  0.46483400  0.99983700  1
  O  O70  1  0.74557900  0.24065600  0.25521800  1
  O  O71  1  0.74557900  0.25934400  0.75521800  1
  O  O72  1  0.75442100  0.74065600  0.25521800  1
  O  O73  1  0.75442100  0.75934400  0.75521800  1
  O  O74  1  0.76407800  0.53516600  0.49983700  1
  O  O75  1  0.76407800  0.96483400  0.99983700  1
  O  O76  1  0.95962500  0.50224500  0.24671700  1
  O  O77  1  0.95962500  0.99775500  0.74671700  1
  O  O78  1  0.99543700  0.74936100  0.02354800  1
  O  O79  1  0.99543700  0.75063900  0.52354800  1
