# generated using pymatgen
data_Li2CrP2O7
_symmetry_space_group_name_H-M   'P 1'
_cell_length_a   9.86951400
_cell_length_b   9.91448700
_cell_length_c   11.41667318
_cell_angle_alpha   77.75030371
_cell_angle_beta   90.00000000
_cell_angle_gamma   90.00000000
_symmetry_Int_Tables_number   1
_chemical_formula_structural   Li2CrP2O7
_chemical_formula_sum   'Li16 Cr8 P16 O56'
_cell_volume   1091.70014071
_cell_formula_units_Z   8
loop_
 _symmetry_equiv_pos_site_id
 _symmetry_equiv_pos_as_xyz
  1  'x, y, z'
loop_
 _atom_site_type_symbol
 _atom_site_label
 _atom_site_symmetry_multiplicity
 _atom_site_fract_x
 _atom_site_fract_y
 _atom_site_fract_z
 _atom_site_occupancy
  Li  Li0  1  0.72000700  0.61000300  0.55416800  1
  Li  Li1  1  0.42390700  0.67037300  0.45326500  1
  Li  Li2  1  0.10766500  0.58497900  0.97368100  1
  Li  Li3  1  0.91195900  0.84120600  0.04141000  1
  Li  Li4  1  0.41195900  0.65879400  0.95859000  1
  Li  Li5  1  0.60766500  0.91502100  0.02631900  1
  Li  Li6  1  0.92390700  0.82962700  0.54673500  1
  Li  Li7  1  0.22000700  0.88999700  0.44583200  1
  Li  Li8  1  0.77999300  0.11000300  0.55416800  1
  Li  Li9  1  0.07609300  0.17037300  0.45326500  1
  Li  Li10  1  0.39233500  0.08497900  0.97368100  1
  Li  Li11  1  0.58804100  0.34120600  0.04141000  1
  Li  Li12  1  0.08804100  0.15879400  0.95859000  1
  Li  Li13  1  0.89233500  0.41502100  0.02631900  1
  Li  Li14  1  0.57609300  0.32962700  0.54673500  1
  Li  Li15  1  0.27999300  0.38999700  0.44583200  1
  Cr  Cr16  1  0.92541000  0.70062700  0.32759700  1
  Cr  Cr17  1  0.21561500  0.76850700  0.17254400  1
  Cr  Cr18  1  0.71561500  0.73149300  0.82745600  1
  Cr  Cr19  1  0.42541000  0.79937300  0.67240300  1
  Cr  Cr20  1  0.57459000  0.20062700  0.32759700  1
  Cr  Cr21  1  0.28438500  0.26850700  0.17254400  1
  Cr  Cr22  1  0.78438500  0.23149300  0.82745600  1
  Cr  Cr23  1  0.07459000  0.29937300  0.67240300  1
  P  P24  1  0.45059500  0.52884700  0.23801000  1
  P  P25  1  0.70185000  0.61892400  0.10465200  1
  P  P26  1  0.93795400  0.55921800  0.75494000  1
  P  P27  1  0.15527800  0.62513500  0.57607300  1
  P  P28  1  0.65527800  0.87486500  0.42392700  1
  P  P29  1  0.43795400  0.94078200  0.24506000  1
  P  P30  1  0.04940500  0.02884700  0.23801000  1
  P  P31  1  0.20185000  0.88107600  0.89534800  1
  P  P32  1  0.79815000  0.11892400  0.10465200  1
  P  P33  1  0.95059500  0.97115300  0.76199000  1
  P  P34  1  0.56204600  0.05921800  0.75494000  1
  P  P35  1  0.34472200  0.12513500  0.57607300  1
  P  P36  1  0.84472200  0.37486500  0.42392700  1
  P  P37  1  0.06204600  0.44078200  0.24506000  1
  P  P38  1  0.29815000  0.38107600  0.89534800  1
  P  P39  1  0.54940500  0.47115300  0.76199000  1
  O  O40  1  0.41566400  0.52447100  0.36825000  1
  O  O41  1  0.83714300  0.52114500  0.44586100  1
  O  O42  1  0.07910400  0.58322300  0.27589700  1
  O  O43  1  0.35874500  0.62120900  0.14538800  1
  O  O44  1  0.60033000  0.59443200  0.22056100  1
  O  O45  1  0.82770600  0.68248700  0.14718900  1
  O  O46  1  0.62793200  0.72255700  0.00141600  1
  O  O47  1  0.27994700  0.51967000  0.92847900  1
  O  O48  1  0.08583400  0.61765500  0.70606000  1
  O  O49  1  0.93965400  0.55958200  0.88701900  1
  O  O50  1  0.54118800  0.61951100  0.78891300  1
  O  O51  1  0.29709400  0.68666400  0.58471600  1
  O  O52  1  0.83047000  0.66344300  0.68829800  1
  O  O53  1  0.07090900  0.72897700  0.48642100  1
  O  O54  1  0.57090900  0.77102300  0.51357900  1
  O  O55  1  0.33047000  0.83655700  0.31170200  1
  O  O56  1  0.79709400  0.81333600  0.41528400  1
  O  O57  1  0.04118800  0.88048900  0.21108700  1
  O  O58  1  0.58583400  0.88234500  0.29394000  1
  O  O59  1  0.43965400  0.94041800  0.11298100  1
  O  O60  1  0.77994700  0.98033000  0.07152100  1
  O  O61  1  0.12793200  0.77744300  0.99858400  1
  O  O62  1  0.32770600  0.81751300  0.85281100  1
  O  O63  1  0.10033000  0.90556800  0.77943900  1
  O  O64  1  0.57910400  0.91677700  0.72410300  1
  O  O65  1  0.85874500  0.87879100  0.85461200  1
  O  O66  1  0.08433600  0.02447100  0.36825000  1
  O  O67  1  0.33714300  0.97885500  0.55413900  1
  O  O68  1  0.66285700  0.02114500  0.44586100  1
  O  O69  1  0.91566400  0.97552900  0.63175000  1
  O  O70  1  0.14125500  0.12120900  0.14538800  1
  O  O71  1  0.42089600  0.08322300  0.27589700  1
  O  O72  1  0.89967000  0.09443200  0.22056100  1
  O  O73  1  0.67229400  0.18248700  0.14718900  1
  O  O74  1  0.87206800  0.22255700  0.00141600  1
  O  O75  1  0.22005300  0.01967000  0.92847900  1
  O  O76  1  0.56034600  0.05958200  0.88701900  1
  O  O77  1  0.41416600  0.11765500  0.70606000  1
  O  O78  1  0.95881200  0.11951100  0.78891300  1
  O  O79  1  0.20290600  0.18666400  0.58471600  1
  O  O80  1  0.66953000  0.16344300  0.68829800  1
  O  O81  1  0.42909100  0.22897700  0.48642100  1
  O  O82  1  0.92909100  0.27102300  0.51357900  1
  O  O83  1  0.16953000  0.33655700  0.31170200  1
  O  O84  1  0.70290600  0.31333600  0.41528400  1
  O  O85  1  0.45881200  0.38048900  0.21108700  1
  O  O86  1  0.06034600  0.44041800  0.11298100  1
  O  O87  1  0.91416600  0.38234500  0.29394000  1
  O  O88  1  0.72005300  0.48033000  0.07152100  1
  O  O89  1  0.37206800  0.27744300  0.99858400  1
  O  O90  1  0.17229400  0.31751300  0.85281100  1
  O  O91  1  0.39967000  0.40556800  0.77943900  1
  O  O92  1  0.64125500  0.37879100  0.85461200  1
  O  O93  1  0.92089600  0.41677700  0.72410300  1
  O  O94  1  0.16285700  0.47885500  0.55413900  1
  O  O95  1  0.58433600  0.47552900  0.63175000  1
