# generated using pymatgen
data_K4Li5(FeO4)2
_symmetry_space_group_name_H-M   'P 1'
_cell_length_a   5.60363600
_cell_length_b   8.91281040
_cell_length_c   10.88302416
_cell_angle_alpha   91.32738120
_cell_angle_beta   98.65964108
_cell_angle_gamma   90.39181861
_symmetry_Int_Tables_number   1
_chemical_formula_structural   K4Li5(FeO4)2
_chemical_formula_sum   'K8 Li10 Fe4 O16'
_cell_volume   537.17353014
_cell_formula_units_Z   2
loop_
 _symmetry_equiv_pos_site_id
 _symmetry_equiv_pos_as_xyz
  1  'x, y, z'
loop_
 _atom_site_type_symbol
 _atom_site_label
 _atom_site_symmetry_multiplicity
 _atom_site_fract_x
 _atom_site_fract_y
 _atom_site_fract_z
 _atom_site_occupancy
  K  K0  1  0.17339500  0.99453000  0.87526400  1
  K  K1  1  0.09519300  0.74175200  0.36274700  1
  K  K2  1  0.42161500  0.50849600  0.65051100  1
  K  K3  1  0.32634200  0.25951100  0.13565700  1
  K  K4  1  0.67828700  0.72819100  0.86884900  1
  K  K5  1  0.56168800  0.53666000  0.31645900  1
  K  K6  1  0.88413100  0.25242100  0.65726100  1
  K  K7  1  0.78698900  0.96413200  0.14560300  1
  Li  Li8  1  0.09978900  0.75402700  0.69562900  1
  Li  Li9  1  0.27493000  0.48407000  0.92514400  1
  Li  Li10  1  0.19698700  0.98858500  0.57089100  1
  Li  Li11  1  0.40390900  0.24403900  0.80436400  1
  Li  Li12  1  0.37845100  0.97140100  0.29489600  1
  Li  Li13  1  0.59250400  0.01563700  0.69895600  1
  Li  Li14  1  0.72064600  0.50841700  0.06713000  1
  Li  Li15  1  0.80141300  0.02869900  0.43207000  1
  Li  Li16  1  0.91430200  0.25389200  0.30399500  1
  Li  Li17  1  0.95368100  0.47237500  0.49270300  1
  Fe  Fe18  1  0.33674100  0.21784900  0.45029200  1
  Fe  Fe19  1  0.67336700  0.79738500  0.55156600  1
  Fe  Fe20  1  0.20451200  0.71840900  0.05871900  1
  Fe  Fe21  1  0.81279800  0.27031300  0.94421600  1
  O  O22  1  0.11338400  0.28350500  0.89456300  1
  O  O23  1  0.18089800  0.70248200  0.88225300  1
  O  O24  1  0.12236600  0.05844400  0.38098800  1
  O  O25  1  0.16727000  0.39835600  0.40511000  1
  O  O26  1  0.37553300  0.18885700  0.62664900  1
  O  O27  1  0.27755200  0.91387100  0.11340700  1
  O  O28  1  0.40244600  0.82061100  0.63758100  1
  O  O29  1  0.38759100  0.55430700  0.09426600  1
  O  O30  1  0.59403400  0.41694300  0.88178100  1
  O  O31  1  0.62062100  0.20813300  0.37504300  1
  O  O32  1  0.66898900  0.09908300  0.86705900  1
  O  O33  1  0.61444100  0.83694900  0.38128100  1
  O  O34  1  0.84665500  0.61327100  0.58786500  1
  O  O35  1  0.88742200  0.95235800  0.62525500  1
  O  O36  1  0.83594700  0.29802300  0.11317500  1
  O  O37  1  0.92681400  0.68240500  0.11793800  1
