# generated using pymatgen
data_LiMn2(BO3)2
_symmetry_space_group_name_H-M   'P 1'
_cell_length_a   5.30145500
_cell_length_b   5.77978740
_cell_length_c   22.21411806
_cell_angle_alpha   89.11124888
_cell_angle_beta   89.28641379
_cell_angle_gamma   65.84593157
_symmetry_Int_Tables_number   1
_chemical_formula_structural   LiMn2(BO3)2
_chemical_formula_sum   'Li5 Mn10 B10 O30'
_cell_volume   620.98680459
_cell_formula_units_Z   5
loop_
 _symmetry_equiv_pos_site_id
 _symmetry_equiv_pos_as_xyz
  1  'x, y, z'
loop_
 _atom_site_type_symbol
 _atom_site_label
 _atom_site_symmetry_multiplicity
 _atom_site_fract_x
 _atom_site_fract_y
 _atom_site_fract_z
 _atom_site_occupancy
  Li  Li0  1  0.02841600  0.14286400  0.81303700  1
  Li  Li1  1  0.77341600  0.25689300  0.58725700  1
  Li  Li2  1  0.22668100  0.74323800  0.41324700  1
  Li  Li3  1  0.97988200  0.85390800  0.18781400  1
  Li  Li4  1  0.57599600  0.65568300  0.98841500  1
  Mn  Mn5  1  0.52616900  0.13545600  0.87997900  1
  Mn  Mn6  1  0.27610900  0.26571300  0.52054500  1
  Mn  Mn7  1  0.86990700  0.07755400  0.32545900  1
  Mn  Mn8  1  0.32539600  0.52554200  0.27711700  1
  Mn  Mn9  1  0.92962700  0.32278800  0.07648800  1
  Mn  Mn10  1  0.07638300  0.66814800  0.92265600  1
  Mn  Mn11  1  0.67176300  0.47573600  0.72498200  1
  Mn  Mn12  1  0.12860900  0.92412400  0.67521600  1
  Mn  Mn13  1  0.72369500  0.73438900  0.47976800  1
  Mn  Mn14  1  0.47555500  0.86427000  0.12238900  1
  B  B15  1  0.57671400  0.00239900  0.74954500  1
  B  B16  1  0.22344600  0.39796800  0.65061700  1
  B  B17  1  0.82670900  0.19751900  0.45580900  1
  B  B18  1  0.37622300  0.40136400  0.14558100  1
  B  B19  1  0.97263200  0.20404300  0.94392800  1
  B  B20  1  0.02069300  0.80106900  0.05259100  1
  B  B21  1  0.62780500  0.59804700  0.85635000  1
  B  B22  1  0.17207700  0.80308500  0.54428100  1
  B  B23  1  0.77686400  0.60228700  0.35004600  1
  B  B24  1  0.42563200  0.99429500  0.25081300  1
  O  O25  1  0.00468900  0.11521900  0.40807500  1
  O  O26  1  0.40779300  0.06824700  0.79855300  1
  O  O27  1  0.48332600  0.13500600  0.29476100  1
  O  O28  1  0.01000900  0.31432700  0.65904100  1
  O  O29  1  0.62132600  0.11358300  0.46643900  1
  O  O30  1  0.17763500  0.29059900  0.93233200  1
  O  O31  1  0.79115700  0.08507500  0.74068600  1
  O  O32  1  0.34964400  0.22654900  0.10541400  1
  O  O33  1  0.94326900  0.04643500  0.89833500  1
  O  O34  1  0.39394300  0.33292600  0.60158400  1
  O  O35  1  0.20294800  0.48818800  0.19292300  1
  O  O36  1  0.79723800  0.28696900  0.99081100  1
  O  O37  1  0.26872400  0.54612300  0.69470700  1
  O  O38  1  0.86281600  0.34988700  0.50129500  1
  O  O39  1  0.42310400  0.51282400  0.86829000  1
  O  O40  1  0.57312600  0.49703500  0.13047200  1
  O  O41  1  0.14012200  0.64738500  0.49869300  1
  O  O42  1  0.74040300  0.44769800  0.30603700  1
  O  O43  1  0.19341300  0.74450800  0.00409700  1
  O  O44  1  0.80296100  0.51390000  0.80879600  1
  O  O45  1  0.60480600  0.66698600  0.39824200  1
  O  O46  1  0.07410600  0.92393900  0.10221300  1
  O  O47  1  0.66199900  0.75428800  0.90144300  1
  O  O48  1  0.20412700  0.92413500  0.25899500  1
  O  O49  1  0.79675300  0.73396900  0.05670200  1
  O  O50  1  0.37746200  0.88875800  0.53304300  1
  O  O51  1  0.98785700  0.69174400  0.34174100  1
  O  O52  1  0.53049800  0.85435300  0.70539100  1
  O  O53  1  0.59940400  0.91988000  0.20187600  1
  O  O54  1  0.99545800  0.88585100  0.59133200  1
