# generated using pymatgen
data_Li6Mn(BO3)3
_symmetry_space_group_name_H-M   'P 1'
_cell_length_a   16.35957600
_cell_length_b   6.97857900
_cell_length_c   6.98972439
_cell_angle_alpha   74.71123360
_cell_angle_beta   90.00000000
_cell_angle_gamma   90.00000000
_symmetry_Int_Tables_number   1
_chemical_formula_structural   Li6Mn(BO3)3
_chemical_formula_sum   'Li24 Mn4 B12 O36'
_cell_volume   769.75136017
_cell_formula_units_Z   4
loop_
 _symmetry_equiv_pos_site_id
 _symmetry_equiv_pos_as_xyz
  1  'x, y, z'
loop_
 _atom_site_type_symbol
 _atom_site_label
 _atom_site_symmetry_multiplicity
 _atom_site_fract_x
 _atom_site_fract_y
 _atom_site_fract_z
 _atom_site_occupancy
  Li  Li0  1  0.00748800  0.32996600  0.06244600  1
  Li  Li1  1  0.44888300  0.41693200  0.14487100  1
  Li  Li2  1  0.49251200  0.82996600  0.06244600  1
  Li  Li3  1  0.53922400  0.04575300  0.31618000  1
  Li  Li4  1  0.05111700  0.91693200  0.14487100  1
  Li  Li5  1  0.29907900  0.37959900  0.26857100  1
  Li  Li6  1  0.96077600  0.54575300  0.31618000  1
  Li  Li7  1  0.70980800  0.05015700  0.39675700  1
  Li  Li8  1  0.04811100  0.16856300  0.45897400  1
  Li  Li9  1  0.20092100  0.87959900  0.26857100  1
  Li  Li10  1  0.79019200  0.55015700  0.39675700  1
  Li  Li11  1  0.45188900  0.66856300  0.45897400  1
  Li  Li12  1  0.54811100  0.33143700  0.54102600  1
  Li  Li13  1  0.20980800  0.44984300  0.60324300  1
  Li  Li14  1  0.79907900  0.12040100  0.73142900  1
  Li  Li15  1  0.95188900  0.83143700  0.54102600  1
  Li  Li16  1  0.29019200  0.94984300  0.60324300  1
  Li  Li17  1  0.03922400  0.45424700  0.68382000  1
  Li  Li18  1  0.70092100  0.62040100  0.73142900  1
  Li  Li19  1  0.94888300  0.08306800  0.85512900  1
  Li  Li20  1  0.46077600  0.95424700  0.68382000  1
  Li  Li21  1  0.50748800  0.17003400  0.93755400  1
  Li  Li22  1  0.55111700  0.58306800  0.85512900  1
  Li  Li23  1  0.99251200  0.67003400  0.93755400  1
  Mn  Mn24  1  0.80539700  0.32274800  0.05751500  1
  Mn  Mn25  1  0.69460300  0.82274800  0.05751500  1
  Mn  Mn26  1  0.30539700  0.17725200  0.94248500  1
  Mn  Mn27  1  0.19460300  0.67725200  0.94248500  1
  B  B28  1  0.63480400  0.35864500  0.08185800  1
  B  B29  1  0.86519600  0.85864500  0.08185800  1
  B  B30  1  0.13065700  0.50831800  0.27075300  1
  B  B31  1  0.89100000  0.19569100  0.42210700  1
  B  B32  1  0.36934300  0.00831800  0.27075300  1
  B  B33  1  0.60900000  0.69569100  0.42210700  1
  B  B34  1  0.39100000  0.30430900  0.57789300  1
  B  B35  1  0.63065700  0.99168200  0.72924700  1
  B  B36  1  0.10900000  0.80430900  0.57789300  1
  B  B37  1  0.86934300  0.49168200  0.72924700  1
  B  B38  1  0.13480400  0.14135500  0.91814200  1
  B  B39  1  0.36519600  0.64135500  0.91814200  1
  O  O40  1  0.34431800  0.44590500  0.99643400  1
  O  O41  1  0.41178000  0.04065300  0.09260500  1
  O  O42  1  0.55327800  0.30564000  0.11351400  1
  O  O43  1  0.69498200  0.21251400  0.11599300  1
  O  O44  1  0.15568200  0.94590500  0.99643400  1
  O  O45  1  0.08822000  0.54065300  0.09260500  1
  O  O46  1  0.28844700  0.07867400  0.24210700  1
  O  O47  1  0.94672200  0.80564000  0.11351400  1
  O  O48  1  0.80501800  0.71251400  0.11599300  1
  O  O49  1  0.95494600  0.27175900  0.30074600  1
  O  O50  1  0.21155300  0.57867400  0.24210700  1
  O  O51  1  0.54505400  0.77175900  0.30074600  1
  O  O52  1  0.81049300  0.25384700  0.35818800  1
  O  O53  1  0.40367200  0.43475200  0.39442100  1
  O  O54  1  0.60041900  0.07621600  0.54490500  1
  O  O55  1  0.10041900  0.42378400  0.45509500  1
  O  O56  1  0.68950700  0.75384700  0.35818800  1
  O  O57  1  0.90367200  0.06524800  0.60557900  1
  O  O58  1  0.09632800  0.93475200  0.39442100  1
  O  O59  1  0.31049300  0.24615300  0.64181200  1
  O  O60  1  0.89958100  0.57621600  0.54490500  1
  O  O61  1  0.39958100  0.92378400  0.45509500  1
  O  O62  1  0.59632800  0.56524800  0.60557900  1
  O  O63  1  0.18950700  0.74615300  0.64181200  1
  O  O64  1  0.45494600  0.22824100  0.69925400  1
  O  O65  1  0.78844700  0.42132600  0.75789300  1
  O  O66  1  0.04505400  0.72824100  0.69925400  1
  O  O67  1  0.19498200  0.28748600  0.88400700  1
  O  O68  1  0.05327800  0.19436000  0.88648600  1
  O  O69  1  0.71155300  0.92132600  0.75789300  1
  O  O70  1  0.91178000  0.45934700  0.90739500  1
  O  O71  1  0.84431800  0.05409500  0.00356600  1
  O  O72  1  0.30501800  0.78748600  0.88400700  1
  O  O73  1  0.44672200  0.69436000  0.88648600  1
  O  O74  1  0.58822000  0.95934700  0.90739500  1
  O  O75  1  0.65568200  0.55409500  0.00356600  1
