# generated using pymatgen
data_Li2V3(PO4)3
_symmetry_space_group_name_H-M   'P 1'
_cell_length_a   8.57751060
_cell_length_b   8.57751060
_cell_length_c   8.51725269
_cell_angle_alpha   63.19951458
_cell_angle_beta   63.19951458
_cell_angle_gamma   63.14732607
_symmetry_Int_Tables_number   1
_chemical_formula_structural   Li2V3(PO4)3
_chemical_formula_sum   'Li4 V6 P6 O24'
_cell_volume   474.36384958
_cell_formula_units_Z   2
loop_
 _symmetry_equiv_pos_site_id
 _symmetry_equiv_pos_as_xyz
  1  'x, y, z'
loop_
 _atom_site_type_symbol
 _atom_site_label
 _atom_site_symmetry_multiplicity
 _atom_site_fract_x
 _atom_site_fract_y
 _atom_site_fract_z
 _atom_site_occupancy
  Li  Li0  1  0.36025000  0.63975000  0.50000000  1
  Li  Li1  1  0.65461000  0.34539000  0.00000000  1
  Li  Li2  1  0.25142400  0.15139300  0.60059800  1
  Li  Li3  1  0.84860700  0.74857600  0.39940200  1
  V  V4  1  0.50098000  0.00209800  0.24326900  1
  V  V5  1  0.14436500  0.64800300  0.89238300  1
  V  V6  1  0.65168700  0.14930500  0.39730900  1
  V  V7  1  0.99790200  0.49902000  0.75673100  1
  V  V8  1  0.35199700  0.85563500  0.10761700  1
  V  V9  1  0.85069500  0.34831300  0.60269100  1
  P  P10  1  0.75283800  0.56066400  0.18778800  1
  P  P11  1  0.43933600  0.24716200  0.81221200  1
  P  P12  1  0.05894800  0.94105200  0.50000000  1
  P  P13  1  0.95576900  0.04423100  0.00000000  1
  P  P14  1  0.54168300  0.74850000  0.69787100  1
  P  P15  1  0.25150000  0.45831700  0.30212900  1
  O  O16  1  0.59476900  0.30669300  0.78772100  1
  O  O17  1  0.03428300  0.09395500  0.56161300  1
  O  O18  1  0.81172700  0.53378600  0.34571100  1
  O  O19  1  0.58992200  0.74768100  0.17873300  1
  O  O20  1  0.69330700  0.40523100  0.21227900  1
  O  O21  1  0.90903700  0.58232100  0.99687800  1
  O  O22  1  0.41767900  0.09096300  0.00312200  1
  O  O23  1  0.25231900  0.41007800  0.82126700  1
  O  O24  1  0.10639000  0.99950700  0.07563300  1
  O  O25  1  0.08556800  0.74345600  0.65052500  1
  O  O26  1  0.75991900  0.06352500  0.14989800  1
  O  O27  1  0.48167400  0.81149400  0.86226500  1
  O  O28  1  0.46621400  0.18827300  0.65428900  1
  O  O29  1  0.25654400  0.91443200  0.34947500  1
  O  O30  1  0.93647500  0.24008100  0.85010200  1
  O  O31  1  0.90604500  0.96571700  0.43838700  1
  O  O32  1  0.73595400  0.59758600  0.68719200  1
  O  O33  1  0.56931100  0.90228300  0.50445900  1
  O  O34  1  0.09771700  0.43068900  0.49554100  1
  O  O35  1  0.31911400  0.60497000  0.28733200  1
  O  O36  1  0.40241400  0.26404600  0.31280800  1
  O  O37  1  0.18850600  0.51832600  0.13773500  1
  O  O38  1  0.00049300  0.89361000  0.92436700  1
  O  O39  1  0.39503000  0.68088600  0.71266800  1
