# generated using pymatgen
data_Li8(NiO2)11
_symmetry_space_group_name_H-M   'P 1'
_cell_length_a   7.47880028
_cell_length_b   7.66748448
_cell_length_c   14.01238405
_cell_angle_alpha   84.04039372
_cell_angle_beta   84.38809216
_cell_angle_gamma   68.80664466
_symmetry_Int_Tables_number   1
_chemical_formula_structural   Li8(NiO2)11
_chemical_formula_sum   'Li16 Ni22 O44'
_cell_volume   743.55118898
_cell_formula_units_Z   2
loop_
 _symmetry_equiv_pos_site_id
 _symmetry_equiv_pos_as_xyz
  1  'x, y, z'
loop_
 _atom_site_type_symbol
 _atom_site_label
 _atom_site_symmetry_multiplicity
 _atom_site_fract_x
 _atom_site_fract_y
 _atom_site_fract_z
 _atom_site_occupancy
  Li  Li0  1  0.86878500  0.80654000  0.40718700  1
  Li  Li1  1  0.68683900  0.90004500  0.94792300  1
  Li  Li2  1  0.90212500  0.55355200  0.27737400  1
  Li  Li3  1  0.96391900  0.27146500  0.13052100  1
  Li  Li4  1  0.78261800  0.36680500  0.68278400  1
  Li  Li5  1  0.49077200  0.99596800  0.50195900  1
  Li  Li6  1  0.82804900  0.09000300  0.54710600  1
  Li  Li7  1  0.37136700  0.81405500  0.90627500  1
  Li  Li8  1  0.57367000  0.47051200  0.23561700  1
  Li  Li9  1  0.40105100  0.55159300  0.77687200  1
  Li  Li10  1  0.63010100  0.18144400  0.08588600  1
  Li  Li11  1  0.44242600  0.27740600  0.63597900  1
  Li  Li12  1  0.19575300  0.89811400  0.44920600  1
  Li  Li13  1  0.00773600  0.00083300  0.99701700  1
  Li  Li14  1  0.27265300  0.36785800  0.18220000  1
  Li  Li15  1  0.07886200  0.46666400  0.73443100  1
  Ni  Ni16  1  0.93399300  0.90842100  0.20500700  1
  Ni  Ni17  1  0.75192500  0.99575300  0.75088200  1
  Ni  Ni18  1  0.97572500  0.64043300  0.07010300  1
  Ni  Ni19  1  0.79589700  0.72807100  0.61018600  1
  Ni  Ni20  1  0.84156800  0.45076800  0.47769900  1
  Ni  Ni21  1  0.88529100  0.18136100  0.33825500  1
  Ni  Ni22  1  0.70531600  0.27250500  0.88466700  1
  Ni  Ni23  1  0.61142900  0.82099400  0.15764100  1
  Ni  Ni24  1  0.43319100  0.91138900  0.70275300  1
  Ni  Ni25  1  0.65856100  0.54298800  0.02489000  1
  Ni  Ni26  1  0.48063900  0.63330500  0.56999900  1
  Ni  Ni27  1  0.52138300  0.36970600  0.43073300  1
  Ni  Ni28  1  0.33781800  0.45163900  0.97623900  1
  Ni  Ni29  1  0.25142800  0.99918100  0.24913500  1
  Ni  Ni30  1  0.57136000  0.08959700  0.29851600  1
  Ni  Ni31  1  0.38786100  0.17895500  0.84044300  1
  Ni  Ni32  1  0.29238900  0.72771600  0.11166100  1
  Ni  Ni33  1  0.11382200  0.81854100  0.66030000  1
  Ni  Ni34  1  0.15912600  0.54803400  0.52645600  1
  Ni  Ni35  1  0.20266800  0.27263900  0.38797800  1
  Ni  Ni36  1  0.01938700  0.36842200  0.93120400  1
  Ni  Ni37  1  0.07215800  0.09070600  0.79560700  1
  O  O38  1  0.98391400  0.80367400  0.53698600  1
  O  O39  1  0.91161900  0.74644300  0.72124500  1
  O  O40  1  0.85059300  0.63196600  0.96426400  1
  O  O41  1  0.96152000  0.48156300  0.59666100  1
  O  O42  1  0.90238900  0.33641300  0.80986800  1
  O  O43  1  0.80631300  0.89191700  0.08823300  1
  O  O44  1  0.62589000  0.97743900  0.62518000  1
  O  O45  1  0.95009100  0.07157600  0.68473500  1
  O  O46  1  0.74399800  0.84418200  0.27965600  1
  O  O47  1  0.54956200  0.93131300  0.81944500  1
  O  O48  1  0.87987700  0.02602700  0.87088500  1
  O  O49  1  0.78963700  0.56778000  0.14673800  1
  O  O50  1  0.69004100  0.71492000  0.49827400  1
  O  O51  1  0.60782100  0.64218600  0.67613200  1
  O  O52  1  0.72043600  0.42693700  0.35575800  1
  O  O53  1  0.81600100  0.28857200  0.01496000  1
  O  O54  1  0.52732500  0.51971800  0.90375600  1
  O  O55  1  0.65469400  0.37278700  0.54947900  1
  O  O56  1  0.76131400  0.17370100  0.22858100  1
  O  O57  1  0.57559300  0.24830800  0.76369700  1
  O  O58  1  0.69712200  0.10187600  0.40688700  1
  O  O59  1  0.48662100  0.79066600  0.03807900  1
  O  O60  1  0.51619300  0.18232100  0.94980000  1
  O  O61  1  0.31114600  0.88905100  0.59018700  1
  O  O62  1  0.41268000  0.74894300  0.22030500  1
  O  O63  1  0.24624900  0.84497900  0.77860900  1
  O  O64  1  0.35304500  0.62556600  0.46327100  1
  O  O65  1  0.45617500  0.47662400  0.09655000  1
  O  O66  1  0.27256900  0.56447500  0.65115700  1
  O  O67  1  0.16856600  0.72005200  0.00446600  1
  O  O68  1  0.40632500  0.33607800  0.31215800  1
  O  O69  1  0.23704500  0.42727900  0.85794300  1
  O  O70  1  0.33610700  0.29833600  0.50467000  1
  O  O71  1  0.12237700  0.97319000  0.12870300  1
  O  O72  1  0.45348300  0.07762900  0.18674900  1
  O  O73  1  0.26047800  0.17965000  0.73209000  1
  O  O74  1  0.05379400  0.93494500  0.32079900  1
  O  O75  1  0.37565500  0.02680400  0.37273600  1
  O  O76  1  0.19456500  0.09721000  0.90417000  1
  O  O77  1  0.10066100  0.64773100  0.17925800  1
  O  O78  1  0.02809700  0.51808100  0.40314100  1
  O  O79  1  0.14029100  0.39567000  0.05481800  1
  O  O80  1  0.07592600  0.24953100  0.26455400  1
  O  O81  1  0.99938400  0.18643200  0.44873100  1
