# generated using pymatgen
data_Li5Mn8(BO3)8
_symmetry_space_group_name_H-M   'P 1'
_cell_length_a   5.31812900
_cell_length_b   9.23108626
_cell_length_c   11.41704791
_cell_angle_alpha   112.95094392
_cell_angle_beta   102.74213196
_cell_angle_gamma   89.06266485
_symmetry_Int_Tables_number   1
_chemical_formula_structural   Li5Mn8(BO3)8
_chemical_formula_sum   'Li5 Mn8 B8 O24'
_cell_volume   501.89177511
_cell_formula_units_Z   1
loop_
 _symmetry_equiv_pos_site_id
 _symmetry_equiv_pos_as_xyz
  1  'x, y, z'
loop_
 _atom_site_type_symbol
 _atom_site_label
 _atom_site_symmetry_multiplicity
 _atom_site_fract_x
 _atom_site_fract_y
 _atom_site_fract_z
 _atom_site_occupancy
  Li  Li0  1  0.97065700  0.96535400  0.10208200  1
  Li  Li1  1  0.72371500  0.74902000  0.33894500  1
  Li  Li2  1  0.51038600  0.48299200  0.82869200  1
  Li  Li3  1  0.21576100  0.25511100  0.33966500  1
  Li  Li4  1  0.01520800  0.98094700  0.82884100  1
  Mn  Mn5  1  0.98784300  0.64034600  0.12320100  1
  Mn  Mn6  1  0.75155500  0.43943900  0.37388800  1
  Mn  Mn7  1  0.72040800  0.06991300  0.61962600  1
  Mn  Mn8  1  0.47685000  0.15676400  0.11846300  1
  Mn  Mn9  1  0.53192400  0.84398000  0.86944200  1
  Mn  Mn10  1  0.24290700  0.93735600  0.37324700  1
  Mn  Mn11  1  0.22665800  0.56866100  0.61994100  1
  Mn  Mn12  1  0.02604500  0.33989500  0.86976100  1
  B  B13  1  0.96135400  0.30514600  0.11931500  1
  B  B14  1  0.74698500  0.11130800  0.37064700  1
  B  B15  1  0.75110900  0.39306000  0.62925500  1
  B  B16  1  0.48330300  0.82672300  0.13198300  1
  B  B17  1  0.51859900  0.18098000  0.86477600  1
  B  B18  1  0.26465500  0.60963800  0.37884100  1
  B  B19  1  0.24204200  0.89259400  0.62583000  1
  B  B20  1  0.03081300  0.68141900  0.87243200  1
  O  O21  1  0.99317700  0.10412700  0.35542500  1
  O  O22  1  0.99897000  0.91899700  0.64240900  1
  O  O23  1  0.74655300  0.34328800  0.17170800  1
  O  O24  1  0.87418700  0.46467200  0.56821300  1
  O  O25  1  0.89696600  0.28663400  0.67440100  1
  O  O26  1  0.63935100  0.72024600  0.15641700  1
  O  O27  1  0.56317800  0.92255400  0.07471400  1
  O  O28  1  0.93065300  0.82458500  0.89184800  1
  O  O29  1  0.92327500  0.57327000  0.90961000  1
  O  O30  1  0.65114000  0.01698000  0.42687700  1
  O  O31  1  0.57450800  0.20687400  0.32835800  1
  O  O32  1  0.74951800  0.14107600  0.81802600  1
  O  O33  1  0.51549300  0.61348600  0.37538000  1
  O  O34  1  0.50893100  0.42076400  0.64438600  1
  O  O35  1  0.24190900  0.84641400  0.16615600  1
  O  O36  1  0.36302300  0.97535400  0.57165100  1
  O  O37  1  0.38597700  0.78368000  0.66547100  1
  O  O38  1  0.09721100  0.18115200  0.12934900  1
  O  O39  1  0.03499700  0.39861300  0.05936100  1
  O  O40  1  0.40368100  0.31229200  0.86476900  1
  O  O41  1  0.42110500  0.07946900  0.91108300  1
  O  O42  1  0.16348600  0.50325800  0.42397400  1
  O  O43  1  0.09136700  0.70345500  0.33585500  1
  O  O44  1  0.25056600  0.64226400  0.81840800  1
