# generated using pymatgen
data_Li5AuO4
_symmetry_space_group_name_H-M   'P 1'
_cell_length_a   10.30318479
_cell_length_b   10.05455658
_cell_length_c   4.78016714
_cell_angle_alpha   79.33560541
_cell_angle_beta   73.53915055
_cell_angle_gamma   27.12524404
_symmetry_Int_Tables_number   1
_chemical_formula_structural   Li5AuO4
_chemical_formula_sum   'Li10 Au2 O8'
_cell_volume   213.95690627
_cell_formula_units_Z   2
loop_
 _symmetry_equiv_pos_site_id
 _symmetry_equiv_pos_as_xyz
  1  'x, y, z'
loop_
 _atom_site_type_symbol
 _atom_site_label
 _atom_site_symmetry_multiplicity
 _atom_site_fract_x
 _atom_site_fract_y
 _atom_site_fract_z
 _atom_site_occupancy
  Li  Li0  1  0.25000000  0.25000000  0.25000000  1
  Li  Li1  1  0.64588100  0.64588100  0.35411900  1
  Li  Li2  1  0.35411900  0.35411900  0.64588100  1
  Li  Li3  1  0.39085100  0.39085100  0.10914900  1
  Li  Li4  1  0.89588100  0.89588100  0.60411900  1
  Li  Li5  1  0.10914900  0.10914900  0.39085100  1
  Li  Li6  1  0.60411900  0.60411900  0.89588100  1
  Li  Li7  1  0.00000000  0.00000000  0.00000000  1
  Li  Li8  1  0.85914900  0.85914900  0.14085100  1
  Li  Li9  1  0.14085100  0.14085100  0.85914900  1
  Au  Au10  1  0.50000000  0.50000000  0.50000000  1
  Au  Au11  1  0.75000000  0.75000000  0.75000000  1
  O  O12  1  0.18164500  0.67104300  0.82697200  1
  O  O13  1  0.82697200  0.32033900  0.18164500  1
  O  O14  1  0.42302800  0.92966100  0.06835500  1
  O  O15  1  0.06835500  0.57895700  0.42302800  1
  O  O16  1  0.57895700  0.06835500  0.92966100  1
  O  O17  1  0.92966100  0.42302800  0.57895700  1
  O  O18  1  0.67104300  0.18164500  0.32033900  1
  O  O19  1  0.32033900  0.82697200  0.67104300  1
