# generated using pymatgen
data_LiTi(PO3)4
_symmetry_space_group_name_H-M   'P 1'
_cell_length_a   10.51518482
_cell_length_b   10.51518482
_cell_length_c   5.27033852
_cell_angle_alpha   80.94868931
_cell_angle_beta   80.94868931
_cell_angle_gamma   70.20668016
_symmetry_Int_Tables_number   1
_chemical_formula_structural   LiTi(PO3)4
_chemical_formula_sum   'Li2 Ti2 P8 O24'
_cell_volume   538.07581918
_cell_formula_units_Z   2
loop_
 _symmetry_equiv_pos_site_id
 _symmetry_equiv_pos_as_xyz
  1  'x, y, z'
loop_
 _atom_site_type_symbol
 _atom_site_label
 _atom_site_symmetry_multiplicity
 _atom_site_fract_x
 _atom_site_fract_y
 _atom_site_fract_z
 _atom_site_occupancy
  Li  Li0  1  0.43453500  0.43453500  0.63546700  1
  Li  Li1  1  0.56546500  0.56546500  0.36453300  1
  Ti  Ti2  1  0.50000000  0.00000000  0.00000000  1
  Ti  Ti3  1  0.00000000  0.50000000  0.00000000  1
  P  P4  1  0.36629100  0.78454300  0.82742900  1
  P  P5  1  0.78454300  0.36629100  0.82742900  1
  P  P6  1  0.93693500  0.69526300  0.46258100  1
  P  P7  1  0.69526300  0.93693500  0.46258100  1
  P  P8  1  0.06306500  0.30473700  0.53741900  1
  P  P9  1  0.30473700  0.06306500  0.53741900  1
  P  P10  1  0.21545700  0.63370900  0.17257100  1
  P  P11  1  0.63370900  0.21545700  0.17257100  1
  O  O12  1  0.22783600  0.77216400  0.00000000  1
  O  O13  1  0.77216400  0.22783600  0.00000000  1
  O  O14  1  0.66431300  0.91736700  0.75248400  1
  O  O15  1  0.91736700  0.66431300  0.75248400  1
  O  O16  1  0.17094300  0.55711300  0.00161400  1
  O  O17  1  0.55711300  0.17094300  0.00161400  1
  O  O18  1  0.43632600  0.66328300  0.68624200  1
  O  O19  1  0.66328300  0.43632600  0.68624200  1
  O  O20  1  0.91391700  0.29678300  0.62346100  1
  O  O21  1  0.29678300  0.91391700  0.62346100  1
  O  O22  1  0.85101600  0.85101600  0.38511700  1
  O  O23  1  0.09916600  0.39398900  0.69188100  1
  O  O24  1  0.39398900  0.09916600  0.69188100  1
  O  O25  1  0.60601100  0.90083400  0.30811900  1
  O  O26  1  0.90083400  0.60601100  0.30811900  1
  O  O27  1  0.14898400  0.14898400  0.61488300  1
  O  O28  1  0.08608300  0.70321700  0.37653900  1
  O  O29  1  0.70321700  0.08608300  0.37653900  1
  O  O30  1  0.33671700  0.56367400  0.31375800  1
  O  O31  1  0.56367400  0.33671700  0.31375800  1
  O  O32  1  0.44288700  0.82905700  0.99838600  1
  O  O33  1  0.82905700  0.44288700  0.99838600  1
  O  O34  1  0.08263300  0.33568700  0.24751600  1
  O  O35  1  0.33568700  0.08263300  0.24751600  1
