# generated using pymatgen
data_Li6MnV3(PO4)6
_symmetry_space_group_name_H-M   'P 1'
_cell_length_a   8.83966600
_cell_length_b   8.49177700
_cell_length_c   12.42245186
_cell_angle_alpha   87.82909100
_cell_angle_beta   90.00000000
_cell_angle_gamma   90.00000000
_symmetry_Int_Tables_number   1
_chemical_formula_structural   Li6MnV3(PO4)6
_chemical_formula_sum   'Li12 Mn2 V6 P12 O48'
_cell_volume   931.81553079
_cell_formula_units_Z   2
loop_
 _symmetry_equiv_pos_site_id
 _symmetry_equiv_pos_as_xyz
  1  'x, y, z'
loop_
 _atom_site_type_symbol
 _atom_site_label
 _atom_site_symmetry_multiplicity
 _atom_site_fract_x
 _atom_site_fract_y
 _atom_site_fract_z
 _atom_site_occupancy
  Li  Li0  1  0.99915200  0.00008600  0.74934000  1
  Li  Li1  1  0.10032600  0.00000000  0.00000000  1
  Li  Li2  1  0.99915200  0.99991400  0.25066000  1
  Li  Li3  1  0.89763500  0.00000000  0.50000000  1
  Li  Li4  1  0.80579600  0.29321200  0.79870700  1
  Li  Li5  1  0.19780200  0.29081300  0.30038500  1
  Li  Li6  1  0.50196200  0.50706600  0.74921300  1
  Li  Li7  1  0.40294600  0.50000000  0.00000000  1
  Li  Li8  1  0.50196200  0.49293400  0.25078700  1
  Li  Li9  1  0.60100800  0.50000000  0.50000000  1
  Li  Li10  1  0.80579600  0.70678800  0.20129300  1
  Li  Li11  1  0.19780200  0.70918700  0.69961500  1
  Mn  Mn12  1  0.49939500  0.20903500  0.39757500  1
  Mn  Mn13  1  0.49939500  0.79096500  0.60242500  1
  V  V14  1  0.49953100  0.21246700  0.89396000  1
  V  V15  1  0.99662500  0.28353600  0.10814600  1
  V  V16  1  0.00303900  0.28471000  0.60893600  1
  V  V17  1  0.99662500  0.71646400  0.89185400  1
  V  V18  1  0.00303900  0.71529000  0.39106400  1
  V  V19  1  0.49953100  0.78753300  0.10604000  1
  P  P20  1  0.79601400  0.00000000  0.00000000  1
  P  P21  1  0.19820200  0.00000000  0.50000000  1
  P  P22  1  0.35423000  0.15680300  0.14395200  1
  P  P23  1  0.64591700  0.15598400  0.64683100  1
  P  P24  1  0.14728100  0.35029500  0.85369400  1
  P  P25  1  0.85374800  0.35148500  0.35320000  1
  P  P26  1  0.70698800  0.50000000  0.00000000  1
  P  P27  1  0.29326100  0.50000000  0.50000000  1
  P  P28  1  0.14728100  0.64970500  0.14630600  1
  P  P29  1  0.85374800  0.64851500  0.64680000  1
  P  P30  1  0.35423000  0.84319700  0.85604800  1
  P  P31  1  0.64591700  0.84401600  0.35316900  1
  O  O32  1  0.41240500  0.01186300  0.85448700  1
  O  O33  1  0.59015900  0.01437500  0.35441500  1
  O  O34  1  0.90548500  0.06734000  0.08591100  1
  O  O35  1  0.08731100  0.06936600  0.58507300  1
  O  O36  1  0.70176000  0.12709000  0.94014700  1
  O  O37  1  0.28940200  0.12602100  0.43748500  1
  O  O38  1  0.17740000  0.14187500  0.15631000  1
  O  O39  1  0.82280500  0.14506600  0.66214800  1
  O  O40  1  0.40257700  0.24578200  0.03887400  1
  O  O41  1  0.06317200  0.25220400  0.76843700  1
  O  O42  1  0.40560500  0.25871600  0.23794000  1
  O  O43  1  0.60069900  0.25442800  0.54655300  1
  O  O44  1  0.93909400  0.25317600  0.26840400  1
  O  O45  1  0.09508100  0.27489200  0.96258600  1
  O  O46  1  0.59147100  0.24910100  0.74557300  1
  O  O47  1  0.90501200  0.27669600  0.46261100  1
  O  O48  1  0.32206900  0.34599700  0.84056100  1
  O  O49  1  0.67983800  0.35317500  0.34034100  1
  O  O50  1  0.80481000  0.38228900  0.06373900  1
  O  O51  1  0.19617500  0.38190600  0.56397900  1
  O  O52  1  0.59946100  0.42773800  0.91483200  1
  O  O53  1  0.39941800  0.42495700  0.41434600  1
  O  O54  1  0.10768700  0.47312200  0.15829300  1
  O  O55  1  0.89843400  0.47225400  0.65947600  1
  O  O56  1  0.10768700  0.52687800  0.84170700  1
  O  O57  1  0.89843400  0.52774600  0.34052400  1
  O  O58  1  0.59946100  0.57226200  0.08516800  1
  O  O59  1  0.39941800  0.57504300  0.58565400  1
  O  O60  1  0.80481000  0.61771100  0.93626100  1
  O  O61  1  0.19617500  0.61809400  0.43602100  1
  O  O62  1  0.32206900  0.65400300  0.15943900  1
  O  O63  1  0.67983800  0.64682500  0.65965900  1
  O  O64  1  0.09508100  0.72510800  0.03741400  1
  O  O65  1  0.40560500  0.74128400  0.76206000  1
  O  O66  1  0.90501200  0.72330400  0.53738900  1
  O  O67  1  0.06317200  0.74779600  0.23156300  1
  O  O68  1  0.40257700  0.75421800  0.96112600  1
  O  O69  1  0.59147100  0.75089900  0.25442700  1
  O  O70  1  0.93909400  0.74682400  0.73159600  1
  O  O71  1  0.60069900  0.74557200  0.45344700  1
  O  O72  1  0.17740000  0.85812500  0.84369000  1
  O  O73  1  0.82280500  0.85493400  0.33785200  1
  O  O74  1  0.70176000  0.87291000  0.05985300  1
  O  O75  1  0.28940200  0.87397900  0.56251500  1
  O  O76  1  0.90548500  0.93266000  0.91408900  1
  O  O77  1  0.08731100  0.93063400  0.41492700  1
  O  O78  1  0.41240500  0.98813700  0.14551300  1
  O  O79  1  0.59015900  0.98562500  0.64558500  1
