# generated using pymatgen
data_Li8Fe3Co7O20
_symmetry_space_group_name_H-M   'P 1'
_cell_length_a   20.50750105
_cell_length_b   2.87642100
_cell_length_c   5.92033179
_cell_angle_alpha   90.00000000
_cell_angle_beta   83.14895588
_cell_angle_gamma   90.00000000
_symmetry_Int_Tables_number   1
_chemical_formula_structural   Li8Fe3Co7O20
_chemical_formula_sum   'Li8 Fe3 Co7 O20'
_cell_volume   346.73612521
_cell_formula_units_Z   1
loop_
 _symmetry_equiv_pos_site_id
 _symmetry_equiv_pos_as_xyz
  1  'x, y, z'
loop_
 _atom_site_type_symbol
 _atom_site_label
 _atom_site_symmetry_multiplicity
 _atom_site_fract_x
 _atom_site_fract_y
 _atom_site_fract_z
 _atom_site_occupancy
  Li  Li0  1  0.10696300  0.50000000  0.24001600  1
  Li  Li1  1  0.28908400  0.50000000  0.56308900  1
  Li  Li2  1  0.39847200  0.00000000  0.79517900  1
  Li  Li3  1  0.49973200  0.50000000  0.99949800  1
  Li  Li4  1  0.60342800  0.00000000  0.21050800  1
  Li  Li5  1  0.79718800  0.00000000  0.58890900  1
  Li  Li6  1  0.90287100  0.50000000  0.79455900  1
  Li  Li7  1  0.00171600  0.00000000  0.00598900  1
  Fe  Fe8  1  0.39840800  0.00000000  0.29816300  1
  Fe  Fe9  1  0.60158500  0.00000000  0.68121700  1
  Fe  Fe10  1  0.80031600  0.00000000  0.11794500  1
  Co  Co11  1  0.00155600  0.00000000  0.50355500  1
  Co  Co12  1  0.10057600  0.50000000  0.70144700  1
  Co  Co13  1  0.19847700  0.00000000  0.90168200  1
  Co  Co14  1  0.29674900  0.50000000  0.09712400  1
  Co  Co15  1  0.49843800  0.50000000  0.49916600  1
  Co  Co16  1  0.70065700  0.50000000  0.89986100  1
  Co  Co17  1  0.90373100  0.50000000  0.30176800  1
  O  O18  1  0.00539600  0.50000000  0.72517100  1
  O  O19  1  0.09512900  0.00000000  0.48623800  1
  O  O20  1  0.10527700  0.00000000  0.92289300  1
  O  O21  1  0.20272800  0.50000000  0.10885600  1
  O  O22  1  0.19455500  0.50000000  0.69395100  1
  O  O23  1  0.29984400  0.00000000  0.31586300  1
  O  O24  1  0.29143100  0.00000000  0.87825800  1
  O  O25  1  0.39387900  0.50000000  0.05850300  1
  O  O26  1  0.40134400  0.50000000  0.53656800  1
  O  O27  1  0.49814100  0.00000000  0.27430500  1
  O  O28  1  0.50109400  0.00000000  0.72441000  1
  O  O29  1  0.59347000  0.50000000  0.45626300  1
  O  O30  1  0.60678400  0.50000000  0.92759100  1
  O  O31  1  0.70122100  0.00000000  0.10924100  1
  O  O32  1  0.70014500  0.00000000  0.68981700  1
  O  O33  1  0.80831600  0.50000000  0.34311200  1
  O  O34  1  0.79455100  0.50000000  0.87161600  1
  O  O35  1  0.90115800  0.00000000  0.07442300  1
  O  O36  1  0.90646300  0.00000000  0.52193000  1
  O  O37  1  0.99885000  0.50000000  0.28134200  1
