# generated using pymatgen
data_Li2VCrO4
_symmetry_space_group_name_H-M   'P 1'
_cell_length_a   5.97822975
_cell_length_b   5.97822975
_cell_length_c   5.97822975
_cell_angle_alpha   120.58609175
_cell_angle_beta   120.44603977
_cell_angle_gamma   89.10849155
_symmetry_Int_Tables_number   1
_chemical_formula_structural   Li2VCrO4
_chemical_formula_sum   'Li4 V2 Cr2 O8'
_cell_volume   149.88012795
_cell_formula_units_Z   2
loop_
 _symmetry_equiv_pos_site_id
 _symmetry_equiv_pos_as_xyz
  1  'x, y, z'
loop_
 _atom_site_type_symbol
 _atom_site_label
 _atom_site_symmetry_multiplicity
 _atom_site_fract_x
 _atom_site_fract_y
 _atom_site_fract_z
 _atom_site_occupancy
  Li  Li0  1  0.00000000  0.00000000  0.00000000  1
  Li  Li1  1  0.50000000  0.00000000  0.00000000  1
  Li  Li2  1  0.50000000  0.00000000  0.50000000  1
  Li  Li3  1  0.50000000  0.50000000  0.50000000  1
  V  V4  1  0.00000000  0.00000000  0.50000000  1
  V  V5  1  0.00000000  0.50000000  0.00000000  1
  Cr  Cr6  1  0.00000000  0.50000000  0.50000000  1
  Cr  Cr7  1  0.50000000  0.50000000  0.00000000  1
  O  O8  1  0.75364700  0.73729400  0.48364600  1
  O  O9  1  0.75200000  0.73947100  0.01252900  1
  O  O10  1  0.22694100  0.73947100  0.48747100  1
  O  O11  1  0.24635300  0.72999900  0.98364600  1
  O  O12  1  0.75364700  0.27000100  0.01635400  1
  O  O13  1  0.77305900  0.26052900  0.51252900  1
  O  O14  1  0.24800000  0.26052900  0.98747100  1
  O  O15  1  0.24635300  0.26270600  0.51635400  1
