# generated using pymatgen
data_LiVOF4
_symmetry_space_group_name_H-M   'P 1'
_cell_length_a   5.03805600
_cell_length_b   7.82287522
_cell_length_c   10.20362028
_cell_angle_alpha   111.90949948
_cell_angle_beta   90.58895923
_cell_angle_gamma   91.80584426
_symmetry_Int_Tables_number   1
_chemical_formula_structural   LiVOF4
_chemical_formula_sum   'Li4 V4 O4 F16'
_cell_volume   372.81007947
_cell_formula_units_Z   4
loop_
 _symmetry_equiv_pos_site_id
 _symmetry_equiv_pos_as_xyz
  1  'x, y, z'
loop_
 _atom_site_type_symbol
 _atom_site_label
 _atom_site_symmetry_multiplicity
 _atom_site_fract_x
 _atom_site_fract_y
 _atom_site_fract_z
 _atom_site_occupancy
  Li  Li0  1  0.03111100  0.63492100  0.31285300  1
  Li  Li1  1  0.43670600  0.65354500  0.80127500  1
  Li  Li2  1  0.98848800  0.12932700  0.36529700  1
  Li  Li3  1  0.52090000  0.13078800  0.86399900  1
  V  V4  1  0.53506400  0.94958200  0.49720600  1
  V  V5  1  0.50703700  0.46417600  0.49195300  1
  V  V6  1  0.96567200  0.54251800  0.99758800  1
  V  V7  1  0.02337200  0.04490600  0.00293400  1
  O  O8  1  0.64797800  0.75202600  0.48897300  1
  O  O9  1  0.84167400  0.72382300  0.98334200  1
  O  O10  1  0.16506200  0.23314100  0.00070900  1
  O  O11  1  0.75997700  0.37834000  0.39287100  1
  F  F12  1  0.65467000  0.96256200  0.33136900  1
  F  F13  1  0.20100500  0.88795400  0.41014500  1
  F  F14  1  0.23641900  0.63564100  0.12676700  1
  F  F15  1  0.83183300  0.95995200  0.83384400  1
  F  F16  1  0.79281500  0.52556900  0.15196500  1
  F  F17  1  0.29186200  0.88861400  0.91306900  1
  F  F18  1  0.27792200  0.63337300  0.62367200  1
  F  F19  1  0.28432800  0.48641500  0.35566800  1
  F  F20  1  0.70107700  0.52131700  0.65739100  1
  F  F21  1  0.70686300  0.12207600  0.08007000  1
  F  F22  1  0.21602000  0.48169400  0.85938900  1
  F  F23  1  0.32957100  0.25580600  0.49015300  1
  F  F24  1  0.13061100  0.04135200  0.17442500  1
  F  F25  1  0.73839000  0.35494600  0.88715600  1
  F  F26  1  0.80193800  0.11708600  0.57594600  1
  F  F27  1  0.37294500  0.04021100  0.66748800  1
