# generated using pymatgen
data_Li2TiCo3O8
_symmetry_space_group_name_H-M   'P 1'
_cell_length_a   8.51973417
_cell_length_b   8.51973417
_cell_length_c   8.16691096
_cell_angle_alpha   89.88325412
_cell_angle_beta   89.88325412
_cell_angle_gamma   90.08867759
_symmetry_Int_Tables_number   1
_chemical_formula_structural   Li2TiCo3O8
_chemical_formula_sum   'Li8 Ti4 Co12 O32'
_cell_volume   592.79916457
_cell_formula_units_Z   4
loop_
 _symmetry_equiv_pos_site_id
 _symmetry_equiv_pos_as_xyz
  1  'x, y, z'
loop_
 _atom_site_type_symbol
 _atom_site_label
 _atom_site_symmetry_multiplicity
 _atom_site_fract_x
 _atom_site_fract_y
 _atom_site_fract_z
 _atom_site_occupancy
  Li  Li0  1  0.99854100  0.74816600  0.62937100  1
  Li  Li1  1  0.25183400  0.00145900  0.37062900  1
  Li  Li2  1  0.75165100  0.99672300  0.87901300  1
  Li  Li3  1  0.49882500  0.25044400  0.61855300  1
  Li  Li4  1  0.00327700  0.24834900  0.12098700  1
  Li  Li5  1  0.74955600  0.50117500  0.38144700  1
  Li  Li6  1  0.24633300  0.49672900  0.86897600  1
  Li  Li7  1  0.50327100  0.75366700  0.13102400  1
  Ti  Ti8  1  0.37815300  0.88675900  0.74237800  1
  Ti  Ti9  1  0.88855800  0.11144200  0.50000000  1
  Ti  Ti10  1  0.61629100  0.38370900  0.00000000  1
  Ti  Ti11  1  0.11324100  0.62184700  0.25762200  1
  Co  Co12  1  0.62408700  0.87205900  0.49765500  1
  Co  Co13  1  0.87509400  0.87912900  0.24438900  1
  Co  Co14  1  0.12929000  0.87071000  0.00000000  1
  Co  Co15  1  0.62949400  0.12665500  0.24778900  1
  Co  Co16  1  0.37078300  0.11826100  0.00810400  1
  Co  Co17  1  0.12087100  0.12490600  0.75561100  1
  Co  Co18  1  0.37497200  0.37029700  0.25305900  1
  Co  Co19  1  0.12794100  0.37591300  0.50234500  1
  Co  Co20  1  0.87334500  0.37050600  0.75221100  1
  Co  Co21  1  0.37346900  0.62653100  0.50000000  1
  Co  Co22  1  0.62970300  0.62502800  0.74694100  1
  Co  Co23  1  0.88173900  0.62921700  0.99189600  1
  O  O24  1  0.38420700  0.86409000  0.50926000  1
  O  O25  1  0.60412500  0.86530900  0.74350800  1
  O  O26  1  0.89540300  0.86328500  0.00752400  1
  O  O27  1  0.86518200  0.89040400  0.49134000  1
  O  O28  1  0.11531900  0.85797200  0.23889900  1
  O  O29  1  0.64378500  0.89614000  0.25616700  1
  O  O30  1  0.36029700  0.87705600  0.98833800  1
  O  O31  1  0.14202800  0.88468100  0.76110100  1
  O  O32  1  0.63692800  0.11384900  0.47360100  1
  O  O33  1  0.86996200  0.11842100  0.26337400  1
  O  O34  1  0.13671500  0.10459700  0.99247600  1
  O  O35  1  0.61874600  0.13646400  0.02401500  1
  O  O36  1  0.36828800  0.10817900  0.76394500  1
  O  O37  1  0.38290300  0.13796700  0.23654300  1
  O  O38  1  0.10959600  0.13481800  0.50866000  1
  O  O39  1  0.88157900  0.13003800  0.73662600  1
  O  O40  1  0.61748000  0.35660000  0.23918100  1
  O  O41  1  0.39276100  0.36739400  0.00971700  1
  O  O42  1  0.10386000  0.35621500  0.74383300  1
  O  O43  1  0.13469100  0.39587500  0.25649200  1
  O  O44  1  0.88615100  0.36307200  0.52639900  1
  O  O45  1  0.35931200  0.38859300  0.48798700  1
  O  O46  1  0.64340000  0.38252000  0.76081900  1
  O  O47  1  0.86353600  0.38125400  0.97598500  1
  O  O48  1  0.36356500  0.61776900  0.27684900  1
  O  O49  1  0.13591000  0.61579300  0.49074000  1
  O  O50  1  0.86203300  0.61709700  0.76345700  1
  O  O51  1  0.38223100  0.63643500  0.72315100  1
  O  O52  1  0.63260600  0.60723900  0.99028300  1
  O  O53  1  0.61140700  0.64068800  0.51201300  1
  O  O54  1  0.89182100  0.63171200  0.23605500  1
  O  O55  1  0.12294400  0.63970300  0.01166200  1
