# generated using pymatgen
data_Li2Mn3(BO3)3
_symmetry_space_group_name_H-M   'P 1'
_cell_length_a   5.86048000
_cell_length_b   8.23022244
_cell_length_c   9.09964939
_cell_angle_alpha   112.28643080
_cell_angle_beta   102.80890007
_cell_angle_gamma   102.07465182
_symmetry_Int_Tables_number   1
_chemical_formula_structural   Li2Mn3(BO3)3
_chemical_formula_sum   'Li4 Mn6 B6 O18'
_cell_volume   374.50982726
_cell_formula_units_Z   2
loop_
 _symmetry_equiv_pos_site_id
 _symmetry_equiv_pos_as_xyz
  1  'x, y, z'
loop_
 _atom_site_type_symbol
 _atom_site_label
 _atom_site_symmetry_multiplicity
 _atom_site_fract_x
 _atom_site_fract_y
 _atom_site_fract_z
 _atom_site_occupancy
  Li  Li0  1  0.94945800  0.60918000  0.26776300  1
  Li  Li1  1  0.74974400  0.05208600  0.05726900  1
  Li  Li2  1  0.05054200  0.39082000  0.73223700  1
  Li  Li3  1  0.25025600  0.94791400  0.94273100  1
  Mn  Mn4  1  0.85612700  0.61391300  0.61579600  1
  Mn  Mn5  1  0.75592500  0.99967900  0.68444900  1
  Mn  Mn6  1  0.14387300  0.38608700  0.38420400  1
  Mn  Mn7  1  0.24407500  0.00032100  0.31555100  1
  Mn  Mn8  1  0.55972800  0.30603500  0.93077000  1
  Mn  Mn9  1  0.44027200  0.69396500  0.06923000  1
  B  B10  1  0.78962400  0.05178800  0.39308400  1
  B  B11  1  0.89322200  0.64836700  0.96910100  1
  B  B12  1  0.10677800  0.35163300  0.03089900  1
  B  B13  1  0.21037600  0.94821200  0.60691600  1
  B  B14  1  0.43186000  0.70128600  0.73144600  1
  B  B15  1  0.56814000  0.29871400  0.26855400  1
  O  O16  1  0.82678900  0.53506800  0.80060800  1
  O  O17  1  0.78783800  0.44693200  0.36129000  1
  O  O18  1  0.75436200  0.59503700  0.06049800  1
  O  O19  1  0.87610500  0.14065000  0.56480300  1
  O  O20  1  0.93950900  0.08704100  0.29945900  1
  O  O21  1  0.89660500  0.19460700  0.94531600  1
  O  O22  1  0.21216200  0.55306800  0.63871000  1
  O  O23  1  0.06049100  0.91295900  0.70054100  1
  O  O24  1  0.17321100  0.46493200  0.19939200  1
  O  O25  1  0.12389500  0.85935000  0.43519700  1
  O  O26  1  0.24563800  0.40496300  0.93950200  1
  O  O27  1  0.10339500  0.80539300  0.05468400  1
  O  O28  1  0.45055000  0.07209300  0.69611700  1
  O  O29  1  0.41993800  0.25712700  0.35971300  1
  O  O30  1  0.50305500  0.19128100  0.09938200  1
  O  O31  1  0.58006200  0.74287300  0.64028700  1
  O  O32  1  0.54945000  0.92790700  0.30388300  1
  O  O33  1  0.49694500  0.80871900  0.90061800  1
