# generated using pymatgen
data_Li3Mn3O8
_symmetry_space_group_name_H-M   'P 1'
_cell_length_a   8.27511600
_cell_length_b   8.27511600
_cell_length_c   8.27511600
_cell_angle_alpha   90.00000000
_cell_angle_beta   90.00000000
_cell_angle_gamma   90.00000000
_symmetry_Int_Tables_number   1
_chemical_formula_structural   Li3Mn3O8
_chemical_formula_sum   'Li12 Mn12 O32'
_cell_volume   566.65962673
_cell_formula_units_Z   4
loop_
 _symmetry_equiv_pos_site_id
 _symmetry_equiv_pos_as_xyz
  1  'x, y, z'
loop_
 _atom_site_type_symbol
 _atom_site_label
 _atom_site_symmetry_multiplicity
 _atom_site_fract_x
 _atom_site_fract_y
 _atom_site_fract_z
 _atom_site_occupancy
  Li  Li0  1  0.00358300  0.00358300  0.00358300  1
  Li  Li1  1  0.12500000  0.87500000  0.37500000  1
  Li  Li2  1  0.24641700  0.24641700  0.24641700  1
  Li  Li3  1  0.25358300  0.75358300  0.74641700  1
  Li  Li4  1  0.37500000  0.12500000  0.87500000  1
  Li  Li5  1  0.49641700  0.99641700  0.50358300  1
  Li  Li6  1  0.50358300  0.49641700  0.99641700  1
  Li  Li7  1  0.62500000  0.62500000  0.62500000  1
  Li  Li8  1  0.74641700  0.25358300  0.75358300  1
  Li  Li9  1  0.75358300  0.74641700  0.25358300  1
  Li  Li10  1  0.87500000  0.37500000  0.12500000  1
  Li  Li11  1  0.99641700  0.50358300  0.49641700  1
  Mn  Mn12  1  0.12233000  0.12767000  0.62500000  1
  Mn  Mn13  1  0.12500000  0.37767000  0.87233000  1
  Mn  Mn14  1  0.12767000  0.62500000  0.12233000  1
  Mn  Mn15  1  0.37233000  0.37500000  0.62233000  1
  Mn  Mn16  1  0.37500000  0.62233000  0.37233000  1
  Mn  Mn17  1  0.37767000  0.87233000  0.12500000  1
  Mn  Mn18  1  0.62233000  0.37233000  0.37500000  1
  Mn  Mn19  1  0.62500000  0.12233000  0.12767000  1
  Mn  Mn20  1  0.62767000  0.87500000  0.87767000  1
  Mn  Mn21  1  0.87233000  0.12500000  0.37767000  1
  Mn  Mn22  1  0.87500000  0.87767000  0.62767000  1
  Mn  Mn23  1  0.87767000  0.62767000  0.87500000  1
  O  O24  1  0.09887100  0.13006300  0.39334000  1
  O  O25  1  0.10666000  0.90112900  0.63006300  1
  O  O26  1  0.11531400  0.61531400  0.88468600  1
  O  O27  1  0.13006300  0.39334000  0.09887100  1
  O  O28  1  0.11993700  0.15112900  0.85666000  1
  O  O29  1  0.13468600  0.36531400  0.63468600  1
  O  O30  1  0.14334000  0.61993700  0.34887100  1
  O  O31  1  0.15112900  0.85666000  0.11993700  1
  O  O32  1  0.34887100  0.14334000  0.61993700  1
  O  O33  1  0.35666000  0.38006300  0.84887100  1
  O  O34  1  0.36531400  0.63468600  0.13468600  1
  O  O35  1  0.38006300  0.84887100  0.35666000  1
  O  O36  1  0.36993700  0.60666000  0.59887100  1
  O  O37  1  0.38468600  0.38468600  0.38468600  1
  O  O38  1  0.39334000  0.09887100  0.13006300  1
  O  O39  1  0.40112900  0.86993700  0.89334000  1
  O  O40  1  0.59887100  0.36993700  0.60666000  1
  O  O41  1  0.60666000  0.59887100  0.36993700  1
  O  O42  1  0.61531400  0.88468600  0.11531400  1
  O  O43  1  0.63006300  0.10666000  0.90112900  1
  O  O44  1  0.61993700  0.34887100  0.14334000  1
  O  O45  1  0.63468600  0.13468600  0.36531400  1
  O  O46  1  0.64334000  0.88006300  0.65112900  1
  O  O47  1  0.65112900  0.64334000  0.88006300  1
  O  O48  1  0.84887100  0.35666000  0.38006300  1
  O  O49  1  0.85666000  0.11993700  0.15112900  1
  O  O50  1  0.86531400  0.86531400  0.86531400  1
  O  O51  1  0.88006300  0.65112900  0.64334000  1
  O  O52  1  0.86993700  0.89334000  0.40112900  1
  O  O53  1  0.88468600  0.11531400  0.61531400  1
  O  O54  1  0.89334000  0.40112900  0.86993700  1
  O  O55  1  0.90112900  0.63006300  0.10666000  1
