# generated using pymatgen
data_Li9V3P8O29
_symmetry_space_group_name_H-M   'P 1'
_cell_length_a   9.88946500
_cell_length_b   9.90331109
_cell_length_c   13.78929574
_cell_angle_alpha   90.09011101
_cell_angle_beta   90.01094867
_cell_angle_gamma   119.83625758
_symmetry_Int_Tables_number   1
_chemical_formula_structural   Li9V3P8O29
_chemical_formula_sum   'Li18 V6 P16 O58'
_cell_volume   1171.49203512
_cell_formula_units_Z   2
loop_
 _symmetry_equiv_pos_site_id
 _symmetry_equiv_pos_as_xyz
  1  'x, y, z'
loop_
 _atom_site_type_symbol
 _atom_site_label
 _atom_site_symmetry_multiplicity
 _atom_site_fract_x
 _atom_site_fract_y
 _atom_site_fract_z
 _atom_site_occupancy
  Li  Li0  1  0.23431900  0.90404700  0.05997400  1
  Li  Li1  1  0.10263500  0.76810900  0.57020500  1
  Li  Li2  1  0.66559900  0.89887500  0.57566100  1
  Li  Li3  1  0.33350600  0.66460600  0.38260900  1
  Li  Li4  1  0.34756400  0.68740900  0.87696600  1
  Li  Li5  1  0.66866900  0.76645900  0.06018200  1
  Li  Li6  1  0.09904100  0.33029800  0.06130500  1
  Li  Li7  1  0.76914900  0.67399000  0.43815900  1
  Li  Li8  1  0.24087000  0.33868600  0.56422900  1
  Li  Li9  1  0.90110300  0.66733700  0.93450300  1
  Li  Li10  1  0.33444800  0.23272800  0.93565900  1
  Li  Li11  1  0.66415000  0.31093700  0.62463800  1
  Li  Li12  1  0.66551500  0.33500000  0.11676100  1
  Li  Li13  1  0.32656600  0.09278600  0.43851100  1
  Li  Li14  1  0.56209700  0.99739700  0.74988300  1
  Li  Li15  1  0.76067600  0.09684100  0.92491400  1
  Li  Li16  1  0.00394000  0.99658200  0.98828900  1
  Li  Li17  1  0.01317400  0.98993700  0.51384300  1
  V  V18  1  0.56494700  0.56756100  0.25028300  1
  V  V19  1  0.43511000  0.43460100  0.75076500  1
  V  V20  1  0.00082900  0.56698500  0.75061600  1
  V  V21  1  0.00391900  0.43818800  0.24331900  1
  V  V22  1  0.88784800  0.25581900  0.44809300  1
  V  V23  1  0.43347100  0.99880800  0.24850400  1
  P  P24  1  0.22658800  0.91015500  0.84496900  1
  P  P25  1  0.08925800  0.77258700  0.34472600  1
  P  P26  1  0.68437300  0.91250000  0.34328200  1
  P  P27  1  0.33537800  0.66786600  0.12160700  1
  P  P28  1  0.33326500  0.65992600  0.62322000  1
  P  P29  1  0.68415500  0.77441800  0.84459000  1
  P  P30  1  0.77274800  0.68317200  0.65617600  1
  P  P31  1  0.09146500  0.31691400  0.84546000  1
  P  P32  1  0.91044400  0.68584800  0.15472900  1
  P  P33  1  0.22707900  0.31658900  0.34475200  1
  P  P34  1  0.31691600  0.22789800  0.15635800  1
  P  P35  1  0.66617400  0.33144400  0.37506000  1
  P  P36  1  0.66926700  0.34027400  0.87665700  1
  P  P37  1  0.31778100  0.09157700  0.65568400  1
  P  P38  1  0.90979700  0.22408500  0.65901200  1
  P  P39  1  0.77310800  0.08980900  0.15333200  1
  O  O40  1  0.21399000  0.00045500  0.56831800  1
  O  O41  1  0.25058100  0.91968600  0.34433500  1
  O  O42  1  0.00328600  0.77664000  0.06691800  1
  O  O43  1  0.07392800  0.75109400  0.84177000  1
  O  O44  1  0.36773900  0.89064900  0.84105000  1
  O  O45  1  0.32480300  0.81120900  0.16076000  1
  O  O46  1  0.51962200  0.89078400  0.33417600  1
  O  O47  1  0.76933200  0.99574700  0.06572100  1
  O  O48  1  0.66747800  0.91635700  0.84624400  1
  O  O49  1  0.18669500  0.66580400  0.66074400  1
  O  O50  1  0.10643900  0.62659200  0.33457700  1
  O  O51  1  0.48346300  0.80175800  0.65374500  1
  O  O52  1  0.33483700  0.66459000  0.01273000  1
  O  O53  1  0.31436600  0.62530100  0.51491200  1
  O  O54  1  0.48730500  0.67646200  0.16260200  1
  O  O55  1  0.10872000  0.47857900  0.83559900  1
  O  O56  1  0.19119500  0.51466700  0.16092200  1
  O  O57  1  0.67414700  0.75301600  0.34517800  1
  O  O58  1  0.78794600  0.78459300  0.75005800  1
  O  O59  1  0.77196800  0.77348000  0.56665700  1
  O  O60  1  0.77156300  0.76343700  0.93311900  1
  O  O61  1  0.52144000  0.62441700  0.83132600  1
  O  O62  1  0.32820600  0.50887700  0.67216000  1
  O  O63  1  0.74961900  0.67304100  0.15671600  1
  O  O64  1  0.36741700  0.48107900  0.33224700  1
  O  O65  1  0.07580100  0.32720600  0.34569000  1
  O  O66  1  0.99927700  0.78484700  0.25062300  1
  O  O67  1  0.99888500  0.77231800  0.43409500  1
  O  O68  1  0.01238800  0.23627600  0.57008200  1
  O  O69  1  0.91785500  0.66559600  0.65296300  1
  O  O70  1  0.62428200  0.52033600  0.66539000  1
  O  O71  1  0.25409500  0.33091200  0.84510100  1
  O  O72  1  0.66961100  0.48459300  0.34750500  1
  O  O73  1  0.48103400  0.37014400  0.17090700  1
  O  O74  1  0.23104300  0.23403500  0.06694900  1
  O  O75  1  0.23291100  0.22906200  0.43328100  1
  O  O76  1  0.21170100  0.21469000  0.24990700  1
  O  O77  1  0.32615800  0.25272500  0.65823900  1
  O  O78  1  0.81217800  0.49319600  0.83904000  1
  O  O79  1  0.89072200  0.52159900  0.16327800  1
  O  O80  1  0.51695700  0.33659800  0.82802000  1
  O  O81  1  0.64831800  0.35154200  0.98480800  1
  O  O82  1  0.69787600  0.32294200  0.48347500  1
  O  O83  1  0.51132600  0.18828500  0.34167200  1
  O  O84  1  0.89570900  0.37245900  0.66738600  1
  O  O85  1  0.80630800  0.32441200  0.32481700  1
  O  O86  1  0.32742500  0.07861000  0.15615500  1
  O  O87  1  0.21727000  0.00239600  0.75015700  1
  O  O88  1  0.21642300  0.00230600  0.93246000  1
  O  O89  1  0.47770900  0.10922000  0.65644400  1
  O  O90  1  0.67621500  0.19849200  0.84345100  1
  O  O91  1  0.62923300  0.11084200  0.16536500  1
  O  O92  1  0.92205500  0.24974000  0.15316300  1
  O  O93  1  0.00060400  0.22388500  0.93399000  1
  O  O94  1  0.00190300  0.21239100  0.75200400  1
  O  O95  1  0.75311100  0.08079500  0.65184800  1
  O  O96  1  0.77475500  0.00792500  0.43220700  1
  O  O97  1  0.78584500  0.00196100  0.24945800  1
