# generated using pymatgen
data_LiMnPO4
_symmetry_space_group_name_H-M   'P 1'
_cell_length_a   7.72862200
_cell_length_b   8.49363700
_cell_length_c   17.19110727
_cell_angle_alpha   61.02002376
_cell_angle_beta   90.00000000
_cell_angle_gamma   90.00000000
_symmetry_Int_Tables_number   1
_chemical_formula_structural   LiMnPO4
_chemical_formula_sum   'Li12 Mn12 P12 O48'
_cell_volume   987.19504980
_cell_formula_units_Z   12
loop_
 _symmetry_equiv_pos_site_id
 _symmetry_equiv_pos_as_xyz
  1  'x, y, z'
loop_
 _atom_site_type_symbol
 _atom_site_label
 _atom_site_symmetry_multiplicity
 _atom_site_fract_x
 _atom_site_fract_y
 _atom_site_fract_z
 _atom_site_occupancy
  Li  Li0  1  0.76983700  0.84979900  0.59359500  1
  Li  Li1  1  0.72415500  0.18030500  0.23232500  1
  Li  Li2  1  0.77686400  0.46453900  0.92247600  1
  Li  Li3  1  0.27686400  0.53546100  0.57752400  1
  Li  Li4  1  0.22415500  0.81969500  0.26767500  1
  Li  Li5  1  0.26983700  0.15020100  0.90640500  1
  Li  Li6  1  0.73016300  0.84979900  0.09359500  1
  Li  Li7  1  0.77584500  0.18030500  0.73232500  1
  Li  Li8  1  0.72313600  0.46453900  0.42247600  1
  Li  Li9  1  0.22313600  0.53546100  0.07752400  1
  Li  Li10  1  0.27584500  0.81969500  0.76767500  1
  Li  Li11  1  0.23016300  0.15020100  0.40640500  1
  Mn  Mn12  1  0.47402100  0.20163900  0.06667300  1
  Mn  Mn13  1  0.52428300  0.85014100  0.40851700  1
  Mn  Mn14  1  0.43103400  0.50991200  0.75200800  1
  Mn  Mn15  1  0.93103400  0.49008800  0.74799200  1
  Mn  Mn16  1  0.02428300  0.14985900  0.09148300  1
  Mn  Mn17  1  0.97402100  0.79836100  0.43332700  1
  Mn  Mn18  1  0.02597900  0.20163900  0.56667300  1
  Mn  Mn19  1  0.97571700  0.85014100  0.90851700  1
  Mn  Mn20  1  0.06896600  0.50991200  0.25200800  1
  Mn  Mn21  1  0.56896600  0.49008800  0.24799200  1
  Mn  Mn22  1  0.47571700  0.14985900  0.59148300  1
  Mn  Mn23  1  0.52597900  0.79836100  0.93332700  1
  P  P24  1  0.17801800  0.85624100  0.59080900  1
  P  P25  1  0.32054400  0.18870300  0.23103800  1
  P  P26  1  0.17742900  0.47386300  0.92431000  1
  P  P27  1  0.67742900  0.52613700  0.57569000  1
  P  P28  1  0.82054400  0.81129700  0.26896200  1
  P  P29  1  0.67801800  0.14375900  0.90919100  1
  P  P30  1  0.32198200  0.85624100  0.09080900  1
  P  P31  1  0.17945600  0.18870300  0.73103800  1
  P  P32  1  0.32257100  0.47386300  0.42431000  1
  P  P33  1  0.82257100  0.52613700  0.07569000  1
  P  P34  1  0.67945600  0.81129700  0.76896200  1
  P  P35  1  0.82198200  0.14375900  0.40919100  1
  O  O36  1  0.99578600  0.08526600  0.38537700  1
  O  O37  1  0.85995000  0.32175800  0.12465900  1
  O  O38  1  0.71305200  0.97014900  0.46507400  1
  O  O39  1  0.77623500  0.63433300  0.79050500  1
  O  O40  1  0.29355900  0.41906900  0.00799300  1
  O  O41  1  0.49494300  0.24801800  0.17844000  1
  O  O42  1  0.35816400  0.07594500  0.33193000  1
  O  O43  1  0.27195100  0.72921800  0.67962600  1
  O  O44  1  0.00679600  0.36377600  0.95499200  1
  O  O45  1  0.14342400  0.75293700  0.53849000  1
  O  O46  1  0.26896000  0.41686500  0.86073400  1
  O  O47  1  0.21628600  0.08030700  0.19566900  1
  O  O48  1  0.76896000  0.58313500  0.63926600  1
  O  O49  1  0.71628600  0.91969300  0.30433100  1
  O  O50  1  0.64342400  0.24706300  0.96151000  1
  O  O51  1  0.50679600  0.63622400  0.54500800  1
  O  O52  1  0.77195100  0.27078200  0.82037400  1
  O  O53  1  0.85816400  0.92405500  0.16807000  1
  O  O54  1  0.99494300  0.75198200  0.32156000  1
  O  O55  1  0.27623500  0.36566700  0.70949500  1
  O  O56  1  0.79355900  0.58093100  0.49200700  1
  O  O57  1  0.21305200  0.02985100  0.03492600  1
  O  O58  1  0.35995000  0.67824200  0.37534100  1
  O  O59  1  0.49578600  0.91473400  0.11462300  1
  O  O60  1  0.50421400  0.08526600  0.88537700  1
  O  O61  1  0.64005000  0.32175800  0.62465900  1
  O  O62  1  0.78694800  0.97014900  0.96507400  1
  O  O63  1  0.20644100  0.41906900  0.50799300  1
  O  O64  1  0.72376500  0.63433300  0.29050500  1
  O  O65  1  0.00505700  0.24801800  0.67844000  1
  O  O66  1  0.14183600  0.07594500  0.83193000  1
  O  O67  1  0.22804900  0.72921800  0.17962600  1
  O  O68  1  0.49320400  0.36377600  0.45499200  1
  O  O69  1  0.35657600  0.75293700  0.03849000  1
  O  O70  1  0.28371400  0.08030700  0.69566900  1
  O  O71  1  0.23104000  0.41686500  0.36073400  1
  O  O72  1  0.78371400  0.91969300  0.80433100  1
  O  O73  1  0.73104000  0.58313500  0.13926600  1
  O  O74  1  0.85657600  0.24706300  0.46151000  1
  O  O75  1  0.99320400  0.63622400  0.04500800  1
  O  O76  1  0.72804900  0.27078200  0.32037400  1
  O  O77  1  0.64183600  0.92405500  0.66807000  1
  O  O78  1  0.50505700  0.75198200  0.82156000  1
  O  O79  1  0.70644100  0.58093100  0.99200700  1
  O  O80  1  0.22376500  0.36566700  0.20949500  1
  O  O81  1  0.28694800  0.02985100  0.53492600  1
  O  O82  1  0.14005000  0.67824200  0.87534100  1
  O  O83  1  0.00421400  0.91473400  0.61462300  1
