# generated using pymatgen
data_LiB2SbO6
_symmetry_space_group_name_H-M   'P 1'
_cell_length_a   8.97975500
_cell_length_b   5.13288400
_cell_length_c   11.29798894
_cell_angle_alpha   72.78513109
_cell_angle_beta   90.00000000
_cell_angle_gamma   90.00000000
_symmetry_Int_Tables_number   1
_chemical_formula_structural   LiB2SbO6
_chemical_formula_sum   'Li4 B8 Sb4 O24'
_cell_volume   497.41871276
_cell_formula_units_Z   4
loop_
 _symmetry_equiv_pos_site_id
 _symmetry_equiv_pos_as_xyz
  1  'x, y, z'
loop_
 _atom_site_type_symbol
 _atom_site_label
 _atom_site_symmetry_multiplicity
 _atom_site_fract_x
 _atom_site_fract_y
 _atom_site_fract_z
 _atom_site_occupancy
  Li  Li0  1  0.96143300  0.92963500  0.89339100  1
  Li  Li1  1  0.46143300  0.07036500  0.60660900  1
  Li  Li2  1  0.53856700  0.92963500  0.39339100  1
  Li  Li3  1  0.03856700  0.07036500  0.10660900  1
  B  B4  1  0.30226700  0.45153500  0.38476300  1
  B  B5  1  0.63525400  0.98413900  0.86596500  1
  B  B6  1  0.80226700  0.54846500  0.11523700  1
  B  B7  1  0.13525400  0.01586100  0.63403500  1
  B  B8  1  0.86474600  0.98413900  0.36596500  1
  B  B9  1  0.19773300  0.45153500  0.88476300  1
  B  B10  1  0.36474600  0.01586100  0.13403500  1
  B  B11  1  0.69773300  0.54846500  0.61523700  1
  Sb  Sb12  1  0.30093600  0.01405800  0.86914100  1
  Sb  Sb13  1  0.80093600  0.98594200  0.63085900  1
  Sb  Sb14  1  0.19906400  0.01405800  0.36914100  1
  Sb  Sb15  1  0.69906400  0.98594200  0.13085900  1
  O  O16  1  0.35446500  0.88208200  0.04540000  1
  O  O17  1  0.65411700  0.29962600  0.60343000  1
  O  O18  1  0.88949900  0.78551500  0.08529200  1
  O  O19  1  0.00159500  0.07545600  0.68058900  1
  O  O20  1  0.16036200  0.40960000  0.34639900  1
  O  O21  1  0.26543900  0.08081700  0.68591800  1
  O  O22  1  0.66036200  0.59040000  0.15360100  1
  O  O23  1  0.76543900  0.91918300  0.81408200  1
  O  O24  1  0.50159500  0.92454400  0.81941100  1
  O  O25  1  0.38949900  0.21448500  0.41470800  1
  O  O26  1  0.85446500  0.11791800  0.45460000  1
  O  O27  1  0.15411700  0.70037400  0.89657000  1
  O  O28  1  0.84588300  0.29962600  0.10343000  1
  O  O29  1  0.14553500  0.88208200  0.54540000  1
  O  O30  1  0.61050100  0.78551500  0.58529200  1
  O  O31  1  0.49840500  0.07545600  0.18058900  1
  O  O32  1  0.23456100  0.08081700  0.18591800  1
  O  O33  1  0.33963800  0.40960000  0.84639900  1
  O  O34  1  0.73456100  0.91918300  0.31408200  1
  O  O35  1  0.83963800  0.59040000  0.65360100  1
  O  O36  1  0.99840500  0.92454400  0.31941100  1
  O  O37  1  0.11050100  0.21448500  0.91470800  1
  O  O38  1  0.34588300  0.70037400  0.39657000  1
  O  O39  1  0.64553500  0.11791800  0.95460000  1
