# generated using pymatgen
data_Li24Mn5Cr7O36
_symmetry_space_group_name_H-M   'P 1'
_cell_length_a   5.02761200
_cell_length_b   9.76979889
_cell_length_c   13.27310582
_cell_angle_alpha   96.92629758
_cell_angle_beta   100.50049867
_cell_angle_gamma   94.94423451
_symmetry_Int_Tables_number   1
_chemical_formula_structural   Li24Mn5Cr7O36
_chemical_formula_sum   'Li24 Mn5 Cr7 O36'
_cell_volume   632.44281235
_cell_formula_units_Z   1
loop_
 _symmetry_equiv_pos_site_id
 _symmetry_equiv_pos_as_xyz
  1  'x, y, z'
loop_
 _atom_site_type_symbol
 _atom_site_label
 _atom_site_symmetry_multiplicity
 _atom_site_fract_x
 _atom_site_fract_y
 _atom_site_fract_z
 _atom_site_occupancy
  Li  Li0  1  0.16806400  0.99949700  0.83309600  1
  Li  Li1  1  0.05141000  0.00038400  0.61315200  1
  Li  Li2  1  0.00065200  0.75036600  0.25062300  1
  Li  Li3  1  0.33670900  0.75028000  0.91679500  1
  Li  Li4  1  0.04953100  0.49852100  0.11201200  1
  Li  Li5  1  0.38604100  0.49958200  0.77995500  1
  Li  Li6  1  0.16716200  0.49972700  0.33342100  1
  Li  Li7  1  0.50124400  0.49936800  0.00035100  1
  Li  Li8  1  0.28293500  0.49986200  0.55350500  1
  Li  Li9  1  0.33348500  0.24997200  0.41660700  1
  Li  Li10  1  0.49479200  0.00157100  0.49915400  1
  Li  Li11  1  0.28678100  0.00038800  0.05394900  1
  Li  Li12  1  0.61719000  0.99998100  0.72130100  1
  Li  Li13  1  0.38134100  0.00050500  0.28016900  1
  Li  Li14  1  0.71230000  0.99934100  0.94631500  1
  Li  Li15  1  0.67046300  0.74960200  0.58404200  1
  Li  Li16  1  0.71838400  0.49944800  0.44611600  1
  Li  Li17  1  0.83094800  0.50040300  0.66610200  1
  Li  Li18  1  0.61415900  0.49993000  0.22064700  1
  Li  Li19  1  0.94700300  0.50171400  0.88770300  1
  Li  Li20  1  0.66415600  0.25028300  0.08209900  1
  Li  Li21  1  0.83694800  0.99957100  0.16638400  1
  Li  Li22  1  0.99956900  0.24997400  0.74990200  1
  Li  Li23  1  0.95187800  0.99988800  0.38647400  1
  Mn  Mn24  1  0.10882100  0.74853500  0.47195900  1
  Mn  Mn25  1  0.22262400  0.25084300  0.19462400  1
  Mn  Mn26  1  0.44559100  0.25074900  0.63919600  1
  Mn  Mn27  1  0.55405900  0.24880700  0.86054600  1
  Mn  Mn28  1  0.77702700  0.75070000  0.80543000  1
  Cr  Cr29  1  0.10482100  0.24996200  0.97117000  1
  Cr  Cr30  1  0.22812200  0.74964100  0.69380600  1
  Cr  Cr31  1  0.44332200  0.75073800  0.14143700  1
  Cr  Cr32  1  0.56020800  0.75110100  0.36418200  1
  Cr  Cr33  1  0.77224100  0.24844300  0.30400200  1
  Cr  Cr34  1  0.89523500  0.25091500  0.52853800  1
  Cr  Cr35  1  0.89265000  0.74925900  0.02586300  1
  O  O36  1  0.99814200  0.86150500  0.92853500  1
  O  O37  1  0.06682400  0.63680600  0.78371600  1
  O  O38  1  0.99449900  0.36109900  0.42977100  1
  O  O39  1  0.14613900  0.36164200  0.64352600  1
  O  O40  1  0.26571800  0.36305600  0.88324500  1
  O  O41  1  0.32809100  0.86095700  0.59591400  1
  O  O42  1  0.07392200  0.13499200  0.28396300  1
  O  O43  1  0.19306300  0.13814100  0.52514100  1
  O  O44  1  0.40590700  0.13501800  0.95092100  1
  O  O45  1  0.15256200  0.86248000  0.14245800  1
  O  O46  1  0.25912000  0.86462300  0.38257900  1
  O  O47  1  0.48129500  0.86226900  0.81073300  1
  O  O48  1  0.33161200  0.13826400  0.73796900  1
  O  O49  1  0.18065100  0.63770500  0.02389500  1
  O  O50  1  0.40114100  0.63664600  0.45107300  1
  O  O51  1  0.52124500  0.63894200  0.69086400  1
  O  O52  1  0.33828000  0.63885700  0.23853700  1
  O  O53  1  0.66201800  0.63718700  0.90181400  1
  O  O54  1  0.33456300  0.36249500  0.09622000  1
  O  O55  1  0.66804000  0.36109000  0.76190600  1
  O  O56  1  0.47251600  0.36240700  0.30896400  1
  O  O57  1  0.59361400  0.36467500  0.54927700  1
  O  O58  1  0.80695700  0.36179800  0.97509900  1
  O  O59  1  0.66474700  0.86270700  0.26441200  1
  O  O60  1  0.52309100  0.13921600  0.19075500  1
  O  O61  1  0.73372800  0.13629800  0.61700300  1
  O  O62  1  0.85428600  0.13865900  0.85704100  1
  O  O63  1  0.60169700  0.86464800  0.04883600  1
  O  O64  1  0.81058200  0.86110400  0.47612400  1
  O  O65  1  0.92962600  0.86414000  0.71495800  1
  O  O66  1  0.67184400  0.13796800  0.40357400  1
  O  O67  1  0.73161800  0.63645400  0.11677500  1
  O  O68  1  0.86149300  0.63769800  0.35729200  1
  O  O69  1  0.99598500  0.63650500  0.56927800  1
  O  O70  1  0.93218100  0.36340500  0.21639300  1
  O  O71  1  0.00533600  0.13869300  0.07081600  1
