# generated using pymatgen
data_Li4Fe3P4O15
_symmetry_space_group_name_H-M   'P 1'
_cell_length_a   6.50377200
_cell_length_b   10.57120300
_cell_length_c   17.60136700
_cell_angle_alpha   90.00000000
_cell_angle_beta   90.00000000
_cell_angle_gamma   90.00000000
_symmetry_Int_Tables_number   1
_chemical_formula_structural   Li4Fe3P4O15
_chemical_formula_sum   'Li16 Fe12 P16 O60'
_cell_volume   1210.14140070
_cell_formula_units_Z   4
loop_
 _symmetry_equiv_pos_site_id
 _symmetry_equiv_pos_as_xyz
  1  'x, y, z'
loop_
 _atom_site_type_symbol
 _atom_site_label
 _atom_site_symmetry_multiplicity
 _atom_site_fract_x
 _atom_site_fract_y
 _atom_site_fract_z
 _atom_site_occupancy
  Li  Li0  1  0.32410800  0.48094100  0.99548100  1
  Li  Li1  1  0.32410800  0.01905900  0.49548100  1
  Li  Li2  1  0.82410800  0.98094100  0.50451900  1
  Li  Li3  1  0.43658900  0.31909500  0.59433800  1
  Li  Li4  1  0.85901200  0.75977600  0.20540200  1
  Li  Li5  1  0.70308800  0.55191400  0.53432300  1
  Li  Li6  1  0.93658900  0.81909500  0.90566200  1
  Li  Li7  1  0.20308800  0.05191400  0.96567700  1
  Li  Li8  1  0.20308800  0.44808600  0.46567700  1
  Li  Li9  1  0.82410800  0.51905900  0.00451900  1
  Li  Li10  1  0.70308800  0.94808600  0.03432300  1
  Li  Li11  1  0.85901200  0.74022400  0.70540200  1
  Li  Li12  1  0.35901200  0.24022400  0.79459800  1
  Li  Li13  1  0.43658900  0.18090500  0.09433800  1
  Li  Li14  1  0.93658900  0.68090500  0.40566200  1
  Li  Li15  1  0.35901200  0.25977600  0.29459800  1
  Fe  Fe16  1  0.60455800  0.49910400  0.33559900  1
  Fe  Fe17  1  0.59192900  0.49319000  0.86425100  1
  Fe  Fe18  1  0.10455800  0.50089600  0.66440100  1
  Fe  Fe19  1  0.32645400  0.75756900  0.26030700  1
  Fe  Fe20  1  0.59192900  0.00681000  0.36425100  1
  Fe  Fe21  1  0.82645400  0.25756900  0.23969300  1
  Fe  Fe22  1  0.82645400  0.24243100  0.73969300  1
  Fe  Fe23  1  0.09192900  0.99319000  0.63574900  1
  Fe  Fe24  1  0.32645400  0.74243100  0.76030700  1
  Fe  Fe25  1  0.10455800  0.99910400  0.16440100  1
  Fe  Fe26  1  0.60455800  0.00089600  0.83559900  1
  Fe  Fe27  1  0.09192900  0.50681000  0.13574900  1
  P  P28  1  0.46114700  0.74487400  0.44022600  1
  P  P29  1  0.63574900  0.27428900  0.44977900  1
  P  P30  1  0.96114700  0.24487400  0.05977400  1
  P  P31  1  0.13574900  0.77428900  0.05022100  1
  P  P32  1  0.59870000  0.50495900  0.70258200  1
  P  P33  1  0.63574900  0.22571100  0.94977900  1
  P  P34  1  0.59870000  0.99504100  0.20258200  1
  P  P35  1  0.46114700  0.75512600  0.94022600  1
  P  P36  1  0.09870000  0.49504100  0.29741800  1
  P  P37  1  0.09870000  0.00495900  0.79741800  1
  P  P38  1  0.08606800  0.01686000  0.32809100  1
  P  P39  1  0.08606800  0.48314000  0.82809100  1
  P  P40  1  0.96114700  0.25512600  0.55977400  1
  P  P41  1  0.58606800  0.98314000  0.67190900  1
  P  P42  1  0.13574900  0.72571100  0.55022100  1
  P  P43  1  0.58606800  0.51686000  0.17190900  1
  O  O44  1  0.05347700  0.12481000  0.54397300  1
  O  O45  1  0.90064500  0.00243200  0.38110800  1
  O  O46  1  0.55347700  0.62481000  0.95602700  1
  O  O47  1  0.40064500  0.50243200  0.11889200  1
  O  O48  1  0.28672800  0.03513500  0.84827900  1
  O  O49  1  0.99962700  0.62961200  0.50778200  1
  O  O50  1  0.49962700  0.12961200  0.99221800  1
  O  O51  1  0.10040200  0.89750500  0.27480300  1
  O  O52  1  0.55347700  0.87519000  0.45602700  1
  O  O53  1  0.78471600  0.25819000  0.61690700  1
  O  O54  1  0.49962700  0.37038800  0.49221800  1
  O  O55  1  0.78672800  0.53513500  0.65172100  1
  O  O56  1  0.62927500  0.64552500  0.42311700  1
  O  O57  1  0.87124100  0.19472000  0.97822400  1
  O  O58  1  0.13935400  0.69756200  0.63585900  1
  O  O59  1  0.07323200  0.11527600  0.73908500  1
  O  O60  1  0.91612000  0.98507000  0.85143500  1
  O  O61  1  0.09118700  0.86377100  0.53171600  1
  O  O62  1  0.61443400  0.38541100  0.75487100  1
  O  O63  1  0.63935400  0.30243800  0.36414100  1
  O  O64  1  0.87124100  0.30528000  0.47822400  1
  O  O65  1  0.56655400  0.62999900  0.23060400  1
  O  O66  1  0.90064500  0.49756800  0.88110800  1
  O  O67  1  0.57323200  0.61527600  0.76091500  1
  O  O68  1  0.06655400  0.37000100  0.76939600  1
  O  O69  1  0.78128900  0.95801100  0.62480200  1
  O  O70  1  0.59118700  0.13622900  0.46828400  1
  O  O71  1  0.28128900  0.45801100  0.87519800  1
  O  O72  1  0.37124100  0.69472000  0.52177600  1
  O  O73  1  0.41612000  0.48507000  0.64856500  1
  O  O74  1  0.37124100  0.80528000  0.02177600  1
  O  O75  1  0.62927500  0.85447500  0.92311700  1
  O  O76  1  0.13935400  0.80243800  0.13585900  1
  O  O77  1  0.28672800  0.46486500  0.34827900  1
  O  O78  1  0.12927500  0.35447500  0.57688300  1
  O  O79  1  0.11443400  0.88541100  0.74512900  1
  O  O80  1  0.28471600  0.75819000  0.88309300  1
  O  O81  1  0.59118700  0.36377100  0.96828400  1
  O  O82  1  0.28471600  0.74181000  0.38309300  1
  O  O83  1  0.41612000  0.01493000  0.14856500  1
  O  O84  1  0.63935400  0.19756200  0.86414100  1
  O  O85  1  0.56655400  0.87000100  0.73060400  1
  O  O86  1  0.60040200  0.39750500  0.22519700  1
  O  O87  1  0.28128900  0.04198900  0.37519800  1
  O  O88  1  0.99962700  0.87038800  0.00778200  1
  O  O89  1  0.11443400  0.61458900  0.24512900  1
  O  O90  1  0.78128900  0.54198900  0.12480200  1
  O  O91  1  0.40064500  0.99756800  0.61889200  1
  O  O92  1  0.09118700  0.63622900  0.03171600  1
  O  O93  1  0.07323200  0.38472400  0.23908500  1
  O  O94  1  0.57323200  0.88472400  0.26091500  1
  O  O95  1  0.78672800  0.96486500  0.15172100  1
  O  O96  1  0.61443400  0.11458900  0.25487100  1
  O  O97  1  0.91612000  0.51493000  0.35143500  1
  O  O98  1  0.06655400  0.12999900  0.26939600  1
  O  O99  1  0.60040200  0.10249500  0.72519700  1
  O  O100  1  0.10040200  0.60249500  0.77480300  1
  O  O101  1  0.12927500  0.14552500  0.07688300  1
  O  O102  1  0.05347700  0.37519000  0.04397300  1
  O  O103  1  0.78471600  0.24181000  0.11690700  1
