# generated using pymatgen
data_Li2FeF4
_symmetry_space_group_name_H-M   'P 1'
_cell_length_a   5.42863700
_cell_length_b   5.99933000
_cell_length_c   9.64524500
_cell_angle_alpha   90.00000000
_cell_angle_beta   90.00000000
_cell_angle_gamma   90.00000000
_symmetry_Int_Tables_number   1
_chemical_formula_structural   Li2FeF4
_chemical_formula_sum   'Li8 Fe4 F16'
_cell_volume   314.12812173
_cell_formula_units_Z   4
loop_
 _symmetry_equiv_pos_site_id
 _symmetry_equiv_pos_as_xyz
  1  'x, y, z'
loop_
 _atom_site_type_symbol
 _atom_site_label
 _atom_site_symmetry_multiplicity
 _atom_site_fract_x
 _atom_site_fract_y
 _atom_site_fract_z
 _atom_site_occupancy
  Li  Li0  1  0.78898400  0.00991700  0.22907800  1
  Li  Li1  1  0.37198100  0.16640800  0.02352500  1
  Li  Li2  1  0.87198100  0.33359200  0.52352500  1
  Li  Li3  1  0.28898400  0.49008300  0.72907800  1
  Li  Li4  1  0.78898400  0.50991700  0.27092200  1
  Li  Li5  1  0.37198100  0.66640800  0.47647500  1
  Li  Li6  1  0.87198100  0.83359200  0.97647500  1
  Li  Li7  1  0.28898400  0.99008300  0.77092200  1
  Fe  Fe8  1  0.31359300  0.16339900  0.38874400  1
  Fe  Fe9  1  0.81359300  0.33660100  0.88874400  1
  Fe  Fe10  1  0.31359300  0.66339900  0.11125600  1
  Fe  Fe11  1  0.81359300  0.83660100  0.61125600  1
  F  F12  1  0.63344400  0.10060200  0.50052200  1
  F  F13  1  0.71836500  0.09846600  0.03897700  1
  F  F14  1  0.94635600  0.08295400  0.75169100  1
  F  F15  1  0.47302400  0.25548300  0.80772600  1
  F  F16  1  0.97302400  0.24451700  0.30772600  1
  F  F17  1  0.44635600  0.41704600  0.25169100  1
  F  F18  1  0.21836500  0.40153400  0.53897700  1
  F  F19  1  0.13344400  0.39939800  0.00052200  1
  F  F20  1  0.63344400  0.60060200  0.99947800  1
  F  F21  1  0.71836500  0.59846600  0.46102300  1
  F  F22  1  0.94635600  0.58295400  0.74830900  1
  F  F23  1  0.47302400  0.75548300  0.69227400  1
  F  F24  1  0.97302400  0.74451700  0.19227400  1
  F  F25  1  0.44635600  0.91704600  0.24830900  1
  F  F26  1  0.21836500  0.90153400  0.96102300  1
  F  F27  1  0.13344400  0.89939800  0.49947800  1
