# generated using pymatgen
data_Li10Mn3Cr3(FeO8)2
_symmetry_space_group_name_H-M   'P 1'
_cell_length_a   5.96645200
_cell_length_b   6.05571692
_cell_length_c   9.96310150
_cell_angle_alpha   91.30205342
_cell_angle_beta   90.59983639
_cell_angle_gamma   119.24064283
_symmetry_Int_Tables_number   1
_chemical_formula_structural   Li10Mn3Cr3(FeO8)2
_chemical_formula_sum   'Li10 Mn3 Cr3 Fe2 O16'
_cell_volume   313.93121071
_cell_formula_units_Z   1
loop_
 _symmetry_equiv_pos_site_id
 _symmetry_equiv_pos_as_xyz
  1  'x, y, z'
loop_
 _atom_site_type_symbol
 _atom_site_label
 _atom_site_symmetry_multiplicity
 _atom_site_fract_x
 _atom_site_fract_y
 _atom_site_fract_z
 _atom_site_occupancy
  Li  Li0  1  0.67828900  0.32512500  0.72203400  1
  Li  Li1  1  0.82179300  0.60330100  0.93685300  1
  Li  Li2  1  0.80753000  0.19915000  0.94731000  1
  Li  Li3  1  0.39409500  0.20232700  0.93979700  1
  Li  Li4  1  0.61086600  0.82266800  0.43072800  1
  Li  Li5  1  0.30736300  0.65433900  0.22094900  1
  Li  Li6  1  0.20536100  0.40306500  0.44725500  1
  Li  Li7  1  0.98855900  0.98468800  0.01748500  1
  Li  Li8  1  0.00246400  0.00500900  0.51682200  1
  Li  Li9  1  0.19134100  0.80405000  0.43935000  1
  Mn  Mn10  1  0.32230900  0.16436600  0.21674700  1
  Mn  Mn11  1  0.17754700  0.33757200  0.71642000  1
  Mn  Mn12  1  0.17869800  0.83012000  0.71432300  1
  Cr  Cr13  1  0.81629100  0.65896200  0.21376000  1
  Cr  Cr14  1  0.67627900  0.83266100  0.71455100  1
  Cr  Cr15  1  0.81779000  0.16270500  0.21451300  1
  Fe  Fe16  1  0.66535200  0.34557700  0.47210700  1
  Fe  Fe17  1  0.33931500  0.66809600  0.97317000  1
  O  O18  1  0.84758700  0.16050000  0.60907200  1
  O  O19  1  0.97327900  0.48931900  0.33288600  1
  O  O20  1  0.86282000  0.68816000  0.59920400  1
  O  O21  1  0.49554300  0.02437300  0.32800100  1
  O  O22  1  0.67623800  0.33816000  0.09213400  1
  O  O23  1  0.49351800  0.49298900  0.32452500  1
  O  O24  1  0.66851300  0.83571300  0.09815100  1
  O  O25  1  0.33363400  0.19979900  0.58864900  1
  O  O26  1  0.50406300  0.50869100  0.82609400  1
  O  O27  1  0.95735100  0.98267000  0.33171900  1
  O  O28  1  0.00621300  0.96799200  0.83114800  1
  O  O29  1  0.14697300  0.30353900  0.10334500  1
  O  O30  1  0.35251100  0.70027500  0.59207100  1
  O  O31  1  0.49706100  0.98364300  0.82986600  1
  O  O32  1  0.02529500  0.48244700  0.83803500  1
  O  O33  1  0.14958300  0.83243400  0.10614200  1
