# generated using pymatgen
data_LiV2(PO4)3
_symmetry_space_group_name_H-M   'P 1'
_cell_length_a   8.63004500
_cell_length_b   8.68360800
_cell_length_c   14.63168873
_cell_angle_alpha   54.80450556
_cell_angle_beta   90.00000000
_cell_angle_gamma   90.00000000
_symmetry_Int_Tables_number   1
_chemical_formula_structural   LiV2(PO4)3
_chemical_formula_sum   'Li4 V8 P12 O48'
_cell_volume   896.04719936
_cell_formula_units_Z   4
loop_
 _symmetry_equiv_pos_site_id
 _symmetry_equiv_pos_as_xyz
  1  'x, y, z'
loop_
 _atom_site_type_symbol
 _atom_site_label
 _atom_site_symmetry_multiplicity
 _atom_site_fract_x
 _atom_site_fract_y
 _atom_site_fract_z
 _atom_site_occupancy
  Li  Li0  1  0.70743400  0.32409900  0.76180500  1
  Li  Li1  1  0.20743400  0.67590100  0.73819500  1
  Li  Li2  1  0.79256600  0.32409900  0.26180500  1
  Li  Li3  1  0.29256600  0.67590100  0.23819500  1
  V  V4  1  0.02735200  0.36543000  0.88602800  1
  V  V5  1  0.96474100  0.86882300  0.38326200  1
  V  V6  1  0.46474100  0.13117700  0.11673800  1
  V  V7  1  0.52735200  0.63457000  0.61397200  1
  V  V8  1  0.47264800  0.36543000  0.38602800  1
  V  V9  1  0.53525900  0.86882300  0.88326200  1
  V  V10  1  0.03525900  0.13117700  0.61673800  1
  V  V11  1  0.97264800  0.63457000  0.11397200  1
  P  P12  1  0.24663400  0.53659000  0.49519800  1
  P  P13  1  0.38633700  0.24919300  0.85481400  1
  P  P14  1  0.10661300  0.96414500  0.14629000  1
  P  P15  1  0.60661300  0.03585500  0.35371000  1
  P  P16  1  0.88633700  0.75080700  0.64518600  1
  P  P17  1  0.74663400  0.46341000  0.00480200  1
  P  P18  1  0.25336600  0.53659000  0.99519800  1
  P  P19  1  0.11366300  0.24919300  0.35481400  1
  P  P20  1  0.39338700  0.96414500  0.64629000  1
  P  P21  1  0.89338700  0.03585500  0.85371000  1
  P  P22  1  0.61366300  0.75080700  0.14518600  1
  P  P23  1  0.75336600  0.46341000  0.50480200  1
  O  O24  1  0.84294800  0.64491500  0.42520400  1
  O  O25  1  0.66426500  0.46614500  0.59551100  1
  O  O26  1  0.90397300  0.21901000  0.84993800  1
  O  O27  1  0.59915200  0.91496700  0.15556500  1
  O  O28  1  0.36365300  0.55580800  0.57089400  1
  O  O29  1  0.43003200  0.18252300  0.97536200  1
  O  O30  1  0.21804200  0.32663900  0.82866200  1
  O  O31  1  0.99498100  0.93905300  0.23639200  1
  O  O32  1  0.15127200  0.71728200  0.43427200  1
  O  O33  1  0.27819500  0.96082600  0.17677000  1
  O  O34  1  0.06156200  0.14216700  0.03395400  1
  O  O35  1  0.50229900  0.40830900  0.77472900  1
  O  O36  1  0.00229900  0.59169100  0.72527100  1
  O  O37  1  0.56156200  0.85783300  0.46604600  1
  O  O38  1  0.77819500  0.03917400  0.32323000  1
  O  O39  1  0.65127200  0.28271800  0.06572800  1
  O  O40  1  0.49498100  0.06094700  0.26360800  1
  O  O41  1  0.71804200  0.67336100  0.67133800  1
  O  O42  1  0.93003200  0.81747700  0.52463800  1
  O  O43  1  0.86365300  0.44419200  0.92910600  1
  O  O44  1  0.09915200  0.08503300  0.34443500  1
  O  O45  1  0.40397300  0.78099000  0.65006200  1
  O  O46  1  0.16426500  0.53385500  0.90448900  1
  O  O47  1  0.34294800  0.35508500  0.07479600  1
  O  O48  1  0.65705200  0.64491500  0.92520400  1
  O  O49  1  0.83573500  0.46614500  0.09551100  1
  O  O50  1  0.59602700  0.21901000  0.34993800  1
  O  O51  1  0.90084800  0.91496700  0.65556500  1
  O  O52  1  0.13634700  0.55580800  0.07089400  1
  O  O53  1  0.06996800  0.18252300  0.47536200  1
  O  O54  1  0.28195800  0.32663900  0.32866200  1
  O  O55  1  0.50501900  0.93905300  0.73639200  1
  O  O56  1  0.34872800  0.71728200  0.93427200  1
  O  O57  1  0.22180500  0.96082600  0.67677000  1
  O  O58  1  0.43843800  0.14216700  0.53395400  1
  O  O59  1  0.99770100  0.40830900  0.27472900  1
  O  O60  1  0.49770100  0.59169100  0.22527100  1
  O  O61  1  0.93843800  0.85783300  0.96604600  1
  O  O62  1  0.72180500  0.03917400  0.82323000  1
  O  O63  1  0.84872800  0.28271800  0.56572800  1
  O  O64  1  0.00501900  0.06094700  0.76360800  1
  O  O65  1  0.78195800  0.67336100  0.17133800  1
  O  O66  1  0.56996800  0.81747700  0.02463800  1
  O  O67  1  0.63634700  0.44419200  0.42910600  1
  O  O68  1  0.40084800  0.08503300  0.84443500  1
  O  O69  1  0.09602700  0.78099000  0.15006200  1
  O  O70  1  0.33573500  0.53385500  0.40448900  1
  O  O71  1  0.15705200  0.35508500  0.57479600  1
