# generated using pymatgen
data_LiCuCO3
_symmetry_space_group_name_H-M   'P 1'
_cell_length_a   3.05134200
_cell_length_b   14.37116448
_cell_length_c   14.37378063
_cell_angle_alpha   60.04097520
_cell_angle_beta   89.55599233
_cell_angle_gamma   89.32054787
_symmetry_Int_Tables_number   1
_chemical_formula_structural   LiCuCO3
_chemical_formula_sum   'Li9 Cu9 C9 O27'
_cell_volume   546.04967913
_cell_formula_units_Z   9
loop_
 _symmetry_equiv_pos_site_id
 _symmetry_equiv_pos_as_xyz
  1  'x, y, z'
loop_
 _atom_site_type_symbol
 _atom_site_label
 _atom_site_symmetry_multiplicity
 _atom_site_fract_x
 _atom_site_fract_y
 _atom_site_fract_z
 _atom_site_occupancy
  Li  Li0  1  0.51196600  0.88135400  0.90552300  1
  Li  Li1  1  0.48244200  0.56424400  0.88262900  1
  Li  Li2  1  0.55613000  0.88170400  0.55353800  1
  Li  Li3  1  0.51091600  0.21302400  0.88205500  1
  Li  Li4  1  0.45497300  0.55367300  0.56518000  1
  Li  Li5  1  0.50331900  0.25417200  0.54385400  1
  Li  Li6  1  0.49083900  0.90569300  0.21304700  1
  Li  Li7  1  0.48834300  0.54369000  0.20246500  1
  Li  Li8  1  0.50372000  0.20189200  0.25491400  1
  Cu  Cu9  1  0.06488300  0.79122100  0.76753900  1
  Cu  Cu10  1  0.01028300  0.44130200  0.79237900  1
  Cu  Cu11  1  0.01922700  0.11567200  0.77042500  1
  Cu  Cu12  1  0.93974100  0.76756600  0.44179800  1
  Cu  Cu13  1  0.96736100  0.46428100  0.43332800  1
  Cu  Cu14  1  0.03851100  0.10280700  0.46469600  1
  Cu  Cu15  1  0.98459200  0.77031300  0.11467300  1
  Cu  Cu16  1  0.98045000  0.43249500  0.10375300  1
  Cu  Cu17  1  0.00522700  0.11394200  0.11600000  1
  C  C18  1  0.00132900  0.66336800  0.99198200  1
  C  C19  1  0.99764700  0.66672800  0.66715700  1
  C  C20  1  0.98992500  0.34487500  0.66415300  1
  C  C21  1  0.00956200  0.99157300  0.34520900  1
  C  C22  1  0.52703100  0.01211000  0.66739900  1
  C  C23  1  0.46759400  0.66705000  0.32123800  1
  C  C24  1  0.99750000  0.33305400  0.33399200  1
  C  C25  1  0.00358500  0.99985800  0.00029500  1
  C  C26  1  0.50520800  0.32027900  0.01315000  1
  O  O27  1  0.00136200  0.91932100  0.98280200  1
  O  O28  1  0.97953000  0.58402900  0.97264000  1
  O  O29  1  0.06057200  0.76185100  0.91328200  1
  O  O30  1  0.55756900  0.92230000  0.66708800  1
  O  O31  1  0.50353900  0.41046800  0.92321200  1
  O  O32  1  0.00751500  0.58850000  0.76642900  1
  O  O33  1  0.05200700  0.76526800  0.64514800  1
  O  O34  1  0.01751100  0.09766200  0.91949600  1
  O  O35  1  0.04396800  0.97203300  0.44363700  1
  O  O36  1  0.04176600  0.32443100  0.76312600  1
  O  O37  1  0.93751900  0.64654200  0.58951300  1
  O  O38  1  0.93655100  0.91324600  0.32544800  1
  O  O39  1  0.96718700  0.26524400  0.64578000  1
  O  O40  1  0.96658600  0.44378600  0.58493900  1
  O  O41  1  0.51087100  0.01191800  0.75860700  1
  O  O42  1  0.45070600  0.66718400  0.41123300  1
  O  O43  1  0.47400300  0.57608900  0.32087400  1
  O  O44  1  0.51558700  0.10325500  0.57641900  1
  O  O45  1  0.99656800  0.98245100  0.09852600  1
  O  O46  1  0.47589000  0.75832500  0.23033600  1
  O  O47  1  0.00235200  0.32579600  0.42795400  1
  O  O48  1  0.00113300  0.24635100  0.32660200  1
  O  O49  1  0.98948100  0.42716600  0.24742100  1
  O  O50  1  0.96635700  0.64501300  0.08992300  1
  O  O51  1  0.04491700  0.08931300  0.26572500  1
  O  O52  1  0.49758100  0.32018900  0.10424800  1
  O  O53  1  0.51488700  0.22923700  0.01274800  1
