# generated using pymatgen
data_Li2Co2Si2O7
_symmetry_space_group_name_H-M   'P 1'
_cell_length_a   4.98182304
_cell_length_b   5.33508618
_cell_length_c   13.43080500
_cell_angle_alpha   90.00104591
_cell_angle_beta   89.99845846
_cell_angle_gamma   62.18253093
_symmetry_Int_Tables_number   1
_chemical_formula_structural   Li2Co2Si2O7
_chemical_formula_sum   'Li4 Co4 Si4 O14'
_cell_volume   315.71813942
_cell_formula_units_Z   2
loop_
 _symmetry_equiv_pos_site_id
 _symmetry_equiv_pos_as_xyz
  1  'x, y, z'
loop_
 _atom_site_type_symbol
 _atom_site_label
 _atom_site_symmetry_multiplicity
 _atom_site_fract_x
 _atom_site_fract_y
 _atom_site_fract_z
 _atom_site_occupancy
  Li  Li0  1  0.01312900  0.99958500  0.99990200  1
  Li  Li1  1  0.01310600  0.99961100  0.50008700  1
  Li  Li2  1  0.97497200  0.02224600  0.25000300  1
  Li  Li3  1  0.99685200  0.97837800  0.74999600  1
  Co  Co4  1  0.34510600  0.44017100  0.08096900  1
  Co  Co5  1  0.34509700  0.44016700  0.41903600  1
  Co  Co6  1  0.78541800  0.55979100  0.58093200  1
  Co  Co7  1  0.78542300  0.55979500  0.91906900  1
  Si  Si8  1  0.65613800  0.78441700  0.13876400  1
  Si  Si9  1  0.65613800  0.78439300  0.36123900  1
  Si  Si10  1  0.44057200  0.21561000  0.63872400  1
  Si  Si11  1  0.44058600  0.21560100  0.86127700  1
  O  O12  1  0.79637900  0.64765700  0.25000200  1
  O  O13  1  0.44415600  0.35217700  0.74999900  1
  O  O14  1  0.31729100  0.81395300  0.12241200  1
  O  O15  1  0.31731500  0.81393400  0.37758200  1
  O  O16  1  0.13133600  0.18595600  0.87760500  1
  O  O17  1  0.13133800  0.18596400  0.62240000  1
  O  O18  1  0.75099700  0.91364900  0.86944900  1
  O  O19  1  0.75097200  0.91367300  0.63054600  1
  O  O20  1  0.66447400  0.08642600  0.36935800  1
  O  O21  1  0.66446000  0.08648300  0.13065400  1
  O  O22  1  0.90659600  0.55047200  0.06168600  1
  O  O23  1  0.90656400  0.55044700  0.43829800  1
  O  O24  1  0.45688400  0.44972600  0.56169600  1
  O  O25  1  0.45691000  0.44972000  0.93831300  1
