# generated using pymatgen
data_Li4VP2O9
_symmetry_space_group_name_H-M   'P 1'
_cell_length_a   5.27753700
_cell_length_b   8.83091400
_cell_length_c   15.77035600
_cell_angle_alpha   90.00000000
_cell_angle_beta   90.00000000
_cell_angle_gamma   90.00000000
_symmetry_Int_Tables_number   1
_chemical_formula_structural   Li4VP2O9
_chemical_formula_sum   'Li16 V4 P8 O36'
_cell_volume   734.98493827
_cell_formula_units_Z   4
loop_
 _symmetry_equiv_pos_site_id
 _symmetry_equiv_pos_as_xyz
  1  'x, y, z'
loop_
 _atom_site_type_symbol
 _atom_site_label
 _atom_site_symmetry_multiplicity
 _atom_site_fract_x
 _atom_site_fract_y
 _atom_site_fract_z
 _atom_site_occupancy
  Li  Li0  1  0.28707200  0.47824600  0.10128000  1
  Li  Li1  1  0.69853000  0.32239300  0.05638100  1
  Li  Li2  1  0.71630500  0.87684900  0.19822800  1
  Li  Li3  1  0.19034900  0.72854800  0.14742800  1
  Li  Li4  1  0.69034900  0.22854800  0.35257200  1
  Li  Li5  1  0.21630500  0.37684900  0.30177200  1
  Li  Li6  1  0.19853000  0.82239300  0.44361900  1
  Li  Li7  1  0.78707200  0.97824600  0.39872000  1
  Li  Li8  1  0.21292800  0.47824600  0.60128000  1
  Li  Li9  1  0.80147000  0.32239300  0.55638100  1
  Li  Li10  1  0.78369500  0.87684900  0.69822800  1
  Li  Li11  1  0.30965100  0.72854800  0.64742800  1
  Li  Li12  1  0.80965100  0.22854800  0.85257200  1
  Li  Li13  1  0.28369500  0.37684900  0.80177200  1
  Li  Li14  1  0.30147000  0.82239300  0.94361900  1
  Li  Li15  1  0.71292800  0.97824600  0.89872000  1
  V  V16  1  0.11860100  0.09997400  0.12297900  1
  V  V17  1  0.61860100  0.59997400  0.37702100  1
  V  V18  1  0.38139900  0.09997400  0.62297900  1
  V  V19  1  0.88139900  0.59997400  0.87702100  1
  P  P20  1  0.69602300  0.68511800  0.02848200  1
  P  P21  1  0.79790700  0.51780000  0.22430800  1
  P  P22  1  0.29790700  0.01780000  0.27569200  1
  P  P23  1  0.19602300  0.18511800  0.47151800  1
  P  P24  1  0.80397700  0.68511800  0.52848200  1
  P  P25  1  0.70209300  0.51780000  0.72430800  1
  P  P26  1  0.20209300  0.01780000  0.77569200  1
  P  P27  1  0.30397700  0.18511800  0.97151800  1
  O  O28  1  0.21316700  0.02530000  0.00568200  1
  O  O29  1  0.41058300  0.68625000  0.04828800  1
  O  O30  1  0.85780800  0.75436100  0.09806900  1
  O  O31  1  0.25913900  0.27609400  0.05867300  1
  O  O32  1  0.80588000  0.10190900  0.12412300  1
  O  O33  1  0.26649400  0.92596800  0.18820000  1
  O  O34  1  0.62356200  0.45148100  0.15728500  1
  O  O35  1  0.08022200  0.51723500  0.20048400  1
  O  O36  1  0.21015700  0.17663500  0.23934100  1
  O  O37  1  0.71015700  0.67663500  0.26065900  1
  O  O38  1  0.58022200  0.01723500  0.29951600  1
  O  O39  1  0.12356200  0.95148100  0.34271500  1
  O  O40  1  0.76649400  0.42596800  0.31180000  1
  O  O41  1  0.30588000  0.60190900  0.37587700  1
  O  O42  1  0.75913900  0.77609400  0.44132700  1
  O  O43  1  0.35780800  0.25436100  0.40193100  1
  O  O44  1  0.91058300  0.18625000  0.45171200  1
  O  O45  1  0.71316700  0.52530000  0.49431800  1
  O  O46  1  0.28683300  0.02530000  0.50568200  1
  O  O47  1  0.08941700  0.68625000  0.54828800  1
  O  O48  1  0.64219200  0.75436100  0.59806900  1
  O  O49  1  0.24086100  0.27609400  0.55867300  1
  O  O50  1  0.69412000  0.10190900  0.62412300  1
  O  O51  1  0.23350600  0.92596800  0.68820000  1
  O  O52  1  0.87643800  0.45148100  0.65728500  1
  O  O53  1  0.41977800  0.51723500  0.70048400  1
  O  O54  1  0.28984300  0.17663500  0.73934100  1
  O  O55  1  0.78984300  0.67663500  0.76065900  1
  O  O56  1  0.91977800  0.01723500  0.79951600  1
  O  O57  1  0.37643800  0.95148100  0.84271500  1
  O  O58  1  0.73350600  0.42596800  0.81180000  1
  O  O59  1  0.19412000  0.60190900  0.87587700  1
  O  O60  1  0.74086100  0.77609400  0.94132700  1
  O  O61  1  0.14219200  0.25436100  0.90193100  1
  O  O62  1  0.58941700  0.18625000  0.95171200  1
  O  O63  1  0.78683300  0.52530000  0.99431800  1
