# generated using pymatgen
data_Li24Ti7Cr5O36
_symmetry_space_group_name_H-M   'P 1'
_cell_length_a   5.06305700
_cell_length_b   9.80866811
_cell_length_c   13.42998063
_cell_angle_alpha   80.65960644
_cell_angle_beta   79.35058173
_cell_angle_gamma   85.37195615
_symmetry_Int_Tables_number   1
_chemical_formula_structural   Li24Ti7Cr5O36
_chemical_formula_sum   'Li24 Ti7 Cr5 O36'
_cell_volume   645.89529748
_cell_formula_units_Z   1
loop_
 _symmetry_equiv_pos_site_id
 _symmetry_equiv_pos_as_xyz
  1  'x, y, z'
loop_
 _atom_site_type_symbol
 _atom_site_label
 _atom_site_symmetry_multiplicity
 _atom_site_fract_x
 _atom_site_fract_y
 _atom_site_fract_z
 _atom_site_occupancy
  Li  Li0  1  0.67374200  0.00117800  0.16605000  1
  Li  Li1  1  0.56733700  0.00066400  0.38875600  1
  Li  Li2  1  0.25012300  0.74987000  0.75014900  1
  Li  Li3  1  0.58195800  0.74990000  0.08407700  1
  Li  Li4  1  0.06480700  0.49855200  0.88791800  1
  Li  Li5  1  0.39509500  0.50185300  0.21940600  1
  Li  Li6  1  0.16181000  0.50003000  0.66661200  1
  Li  Li7  1  0.50421200  0.50064000  0.00051200  1
  Li  Li8  1  0.27084100  0.49969800  0.44832300  1
  Li  Li9  1  0.08581800  0.25024200  0.58432500  1
  Li  Li10  1  0.99849700  0.00034600  0.49912000  1
  Li  Li11  1  0.76633500  0.00155600  0.94564400  1
  Li  Li12  1  0.09680000  0.99894300  0.27917700  1
  Li  Li13  1  0.90107700  0.00177800  0.72173300  1
  Li  Li14  1  0.22948200  0.99871200  0.05489300  1
  Li  Li15  1  0.91612500  0.75021400  0.41617900  1
  Li  Li16  1  0.72977100  0.49896500  0.55198000  1
  Li  Li17  1  0.83647200  0.49897700  0.33240400  1
  Li  Li18  1  0.60297200  0.49971300  0.78024700  1
  Li  Li19  1  0.93385900  0.49977300  0.11278800  1
  Li  Li20  1  0.41685000  0.24970700  0.91662900  1
  Li  Li21  1  0.33107100  0.99865000  0.83281700  1
  Li  Li22  1  0.74969800  0.25012900  0.24968800  1
  Li  Li23  1  0.43713100  0.99932500  0.61163400  1
  Ti  Ti24  1  0.46730500  0.75435200  0.30688100  1
  Ti  Ti25  1  0.19831900  0.24584500  0.36128800  1
  Ti  Ti26  1  0.30145600  0.25329900  0.13861800  1
  Ti  Ti27  1  0.69867600  0.75213900  0.85931600  1
  Ti  Ti28  1  0.80881100  0.75020700  0.63534700  1
  Ti  Ti29  1  0.52657000  0.25087300  0.69344300  1
  Ti  Ti30  1  0.14214700  0.74552400  0.97427700  1
  Cr  Cr31  1  0.85590900  0.25087400  0.02581400  1
  Cr  Cr32  1  0.36282600  0.74852400  0.52866600  1
  Cr  Cr33  1  0.97523200  0.24802300  0.80733600  1
  Cr  Cr34  1  0.02280500  0.74950100  0.19436700  1
  Cr  Cr35  1  0.64289800  0.25100200  0.47305000  1
  O  O36  1  0.92732200  0.86151900  0.07449700  1
  O  O37  1  0.72110500  0.63599200  0.21557000  1
  O  O38  1  0.42553500  0.36389800  0.57199300  1
  O  O39  1  0.50219100  0.36225900  0.35815900  1
  O  O40  1  0.61562200  0.36584300  0.11877200  1
  O  O41  1  0.26032100  0.86248000  0.40646200  1
  O  O42  1  0.21770500  0.13321200  0.71464300  1
  O  O43  1  0.33636700  0.13852700  0.47823700  1
  O  O44  1  0.55619900  0.13511000  0.04729400  1
  O  O45  1  0.99993500  0.86402200  0.85653400  1
  O  O46  1  0.12682800  0.86382100  0.61570000  1
  O  O47  1  0.32959000  0.86246200  0.18967500  1
  O  O48  1  0.40254500  0.13516100  0.26262600  1
  O  O49  1  0.83260500  0.63640200  0.97769100  1
  O  O50  1  0.04352200  0.63321100  0.54783200  1
  O  O51  1  0.16445700  0.63786600  0.30869400  1
  O  O52  1  0.90459000  0.63649100  0.76229000  1
  O  O53  1  0.24383900  0.63620800  0.09579100  1
  O  O54  1  0.75871700  0.36074300  0.90786000  1
  O  O55  1  0.09604700  0.36410000  0.23757400  1
  O  O56  1  0.83421000  0.36232300  0.69208200  1
  O  O57  1  0.94340700  0.36443300  0.45282800  1
  O  O58  1  0.16397300  0.36180600  0.02149600  1
  O  O59  1  0.59568700  0.86382100  0.73638100  1
  O  O60  1  0.67087100  0.13812300  0.81070700  1
  O  O61  1  0.88366700  0.13460700  0.38075600  1
  O  O62  1  0.99837800  0.13805900  0.14098100  1
  O  O63  1  0.45132700  0.86609800  0.95175300  1
  O  O64  1  0.67120200  0.86385500  0.52217400  1
  O  O65  1  0.78351500  0.86599200  0.28552000  1
  O  O66  1  0.73998900  0.13792200  0.59256700  1
  O  O67  1  0.38046200  0.63383900  0.88192600  1
  O  O68  1  0.49326200  0.63750200  0.64145800  1
  O  O69  1  0.56803400  0.63860600  0.43120500  1
  O  O70  1  0.27772200  0.36497900  0.78553900  1
  O  O71  1  0.07441700  0.13913000  0.92526900  1
