# generated using pymatgen
data_Li3V2(O2F)2
_symmetry_space_group_name_H-M   'P 1'
_cell_length_a   5.94032000
_cell_length_b   7.84390180
_cell_length_c   7.95708175
_cell_angle_alpha   106.12327384
_cell_angle_beta   101.25146363
_cell_angle_gamma   100.04931873
_symmetry_Int_Tables_number   1
_chemical_formula_structural   Li3V2(O2F)2
_chemical_formula_sum   'Li9 V6 O12 F6'
_cell_volume   338.88813684
_cell_formula_units_Z   3
loop_
 _symmetry_equiv_pos_site_id
 _symmetry_equiv_pos_as_xyz
  1  'x, y, z'
loop_
 _atom_site_type_symbol
 _atom_site_label
 _atom_site_symmetry_multiplicity
 _atom_site_fract_x
 _atom_site_fract_y
 _atom_site_fract_z
 _atom_site_occupancy
  Li  Li0  1  0.83954500  0.00976400  0.36748800  1
  Li  Li1  1  0.98973900  0.31471400  0.64376100  1
  Li  Li2  1  0.70186700  0.36194900  0.36114400  1
  Li  Li3  1  0.83228200  0.67589700  0.63777000  1
  Li  Li4  1  0.50923100  0.68901300  0.36916800  1
  Li  Li5  1  0.34565600  0.00344300  0.36333900  1
  Li  Li6  1  0.48834600  0.32216500  0.63356800  1
  Li  Li7  1  0.29920600  0.64373700  0.60631600  1
  Li  Li8  1  0.15097800  0.96078600  0.62420100  1
  V  V9  1  0.99515400  0.00165600  0.99694900  1
  V  V10  1  0.83955800  0.33804400  0.00862700  1
  V  V11  1  0.50130900  0.99831000  0.98982000  1
  V  V12  1  0.66864900  0.66663500  0.00863900  1
  V  V13  1  0.33652500  0.33342600  0.00536800  1
  V  V14  1  0.16666200  0.66717500  0.00084400  1
  O  O15  1  0.99734900  0.82752400  0.13873700  1
  O  O16  1  0.81135100  0.15926900  0.14314400  1
  O  O17  1  0.84583400  0.50724600  0.86231800  1
  O  O18  1  0.67073800  0.48190400  0.14945800  1
  O  O19  1  0.65942300  0.84219900  0.85973900  1
  O  O20  1  0.51630800  0.17736500  0.86043500  1
  O  O21  1  0.48551100  0.82683700  0.14593000  1
  O  O22  1  0.33180200  0.14226400  0.13357200  1
  O  O23  1  0.34218000  0.50997300  0.85882500  1
  O  O24  1  0.16409700  0.50583700  0.14154600  1
  O  O25  1  0.00049300  0.18777800  0.86400500  1
  O  O26  1  0.17115600  0.83160900  0.84721300  1
  F  F27  1  0.99093100  0.49958600  0.53437300  1
  F  F28  1  0.82915600  0.83549800  0.49549700  1
  F  F29  1  0.66269400  0.17907100  0.48373100  1
  F  F30  1  0.52025400  0.51432600  0.51165900  1
  F  F31  1  0.33174600  0.82971200  0.49542200  1
  F  F32  1  0.16847900  0.15282600  0.51668500  1
