# generated using pymatgen
data_Li2CoSiO4
_symmetry_space_group_name_H-M   'P 1'
_cell_length_a   5.09589900
_cell_length_b   6.36846700
_cell_length_c   10.77205377
_cell_angle_alpha   89.38687014
_cell_angle_beta   90.00000000
_cell_angle_gamma   90.00000000
_symmetry_Int_Tables_number   1
_chemical_formula_structural   Li2CoSiO4
_chemical_formula_sum   'Li8 Co4 Si4 O16'
_cell_volume   349.56614098
_cell_formula_units_Z   4
loop_
 _symmetry_equiv_pos_site_id
 _symmetry_equiv_pos_as_xyz
  1  'x, y, z'
loop_
 _atom_site_type_symbol
 _atom_site_label
 _atom_site_symmetry_multiplicity
 _atom_site_fract_x
 _atom_site_fract_y
 _atom_site_fract_z
 _atom_site_occupancy
  Li  Li0  1  0.19331300  0.00431200  0.83101800  1
  Li  Li1  1  0.30668700  0.00431200  0.33101800  1
  Li  Li2  1  0.30264100  0.22561800  0.57330000  1
  Li  Li3  1  0.19735900  0.22561800  0.07330000  1
  Li  Li4  1  0.80264100  0.77438200  0.92670000  1
  Li  Li5  1  0.69735900  0.77438200  0.42670000  1
  Li  Li6  1  0.69331300  0.99568800  0.66898200  1
  Li  Li7  1  0.80668700  0.99568800  0.16898200  1
  Co  Co8  1  0.19533700  0.50037500  0.83926100  1
  Co  Co9  1  0.69533700  0.49962500  0.66073900  1
  Co  Co10  1  0.30466300  0.50037500  0.33926100  1
  Co  Co11  1  0.80466300  0.49962500  0.16073900  1
  Si  Si12  1  0.69237900  0.24485100  0.91155200  1
  Si  Si13  1  0.80762100  0.24485100  0.41155200  1
  Si  Si14  1  0.19237900  0.75514900  0.58844800  1
  Si  Si15  1  0.30762100  0.75514900  0.08844800  1
  O  O16  1  0.80310500  0.04083100  0.83968600  1
  O  O17  1  0.69689500  0.04083100  0.33968600  1
  O  O18  1  0.36706500  0.25061500  0.91034900  1
  O  O19  1  0.69979000  0.25049000  0.55589400  1
  O  O20  1  0.13293500  0.25061500  0.41034900  1
  O  O21  1  0.79526100  0.46805700  0.83959400  1
  O  O22  1  0.80021000  0.25049000  0.05589400  1
  O  O23  1  0.70473900  0.46805700  0.33959400  1
  O  O24  1  0.29526100  0.53194300  0.66040600  1
  O  O25  1  0.19979000  0.74951000  0.94410600  1
  O  O26  1  0.20473900  0.53194300  0.16040600  1
  O  O27  1  0.86706500  0.74938500  0.58965100  1
  O  O28  1  0.30021000  0.74951000  0.44410600  1
  O  O29  1  0.63293500  0.74938500  0.08965100  1
  O  O30  1  0.30310500  0.95916900  0.66031400  1
  O  O31  1  0.19689500  0.95916900  0.16031400  1
