# generated using pymatgen
data_Li32Ti3Cr13O48
_symmetry_space_group_name_H-M   'P 1'
_cell_length_a   5.06137800
_cell_length_b   8.73376106
_cell_length_c   19.55836626
_cell_angle_alpha   98.25294139
_cell_angle_beta   94.97986868
_cell_angle_gamma   89.90477116
_symmetry_Int_Tables_number   1
_chemical_formula_structural   Li32Ti3Cr13O48
_chemical_formula_sum   'Li32 Ti3 Cr13 O48'
_cell_volume   852.34056251
_cell_formula_units_Z   1
loop_
 _symmetry_equiv_pos_site_id
 _symmetry_equiv_pos_as_xyz
  1  'x, y, z'
loop_
 _atom_site_type_symbol
 _atom_site_label
 _atom_site_symmetry_multiplicity
 _atom_site_fract_x
 _atom_site_fract_y
 _atom_site_fract_z
 _atom_site_occupancy
  Li  Li0  1  0.98428900  0.16839900  0.24938800  1
  Li  Li1  1  0.87414200  0.37413300  0.37482900  1
  Li  Li2  1  0.74974400  0.25212100  0.00060800  1
  Li  Li3  1  0.74292200  0.92113500  0.00069900  1
  Li  Li4  1  0.99134500  0.16933000  0.74991900  1
  Li  Li5  1  0.75218700  0.57732100  0.50015400  1
  Li  Li6  1  0.87241000  0.37539600  0.87607400  1
  Li  Li7  1  0.74981800  0.24989400  0.49983600  1
  Li  Li8  1  0.74737600  0.92268800  0.49944800  1
  Li  Li9  1  0.62677200  0.12540600  0.12479800  1
  Li  Li10  1  0.75770000  0.57860000  0.99998100  1
  Li  Li11  1  0.51034500  0.33114200  0.24973600  1
  Li  Li12  1  0.62620200  0.12633500  0.62524200  1
  Li  Li13  1  0.50176800  0.00014400  0.24971400  1
  Li  Li14  1  0.49396300  0.66965900  0.24929600  1
  Li  Li15  1  0.51663900  0.33421200  0.75073400  1
  Li  Li16  1  0.37273800  0.87537100  0.37558800  1
  Li  Li17  1  0.50009700  0.00015700  0.75014100  1
  Li  Li18  1  0.25531300  0.74900000  0.99930700  1
  Li  Li19  1  0.48290600  0.66567100  0.74932100  1
  Li  Li20  1  0.24361800  0.42014200  0.99975200  1
  Li  Li21  1  0.37397100  0.87399100  0.87490100  1
  Li  Li22  1  0.25545300  0.07858300  0.49909200  1
  Li  Li23  1  0.25004800  0.74959900  0.49985800  1
  Li  Li24  1  0.12319400  0.62422200  0.12504600  1
  Li  Li25  1  0.24474300  0.42177200  0.50069500  1
  Li  Li26  1  0.00968100  0.83232500  0.25049300  1
  Li  Li27  1  0.25304000  0.07792900  0.00020400  1
  Li  Li28  1  0.12748500  0.62436600  0.62391600  1
  Li  Li29  1  0.00118300  0.49803600  0.25013800  1
  Li  Li30  1  0.00864400  0.83070400  0.75043100  1
  Li  Li31  1  0.00002500  0.50029000  0.75001400  1
  Ti  Ti32  1  0.86831900  0.71120100  0.87306100  1
  Ti  Ti33  1  0.36913800  0.21142600  0.37298000  1
  Ti  Ti34  1  0.13128400  0.28857000  0.62712900  1
  Cr  Cr35  1  0.87943500  0.70326400  0.37595900  1
  Cr  Cr36  1  0.86938900  0.03808400  0.37436700  1
  Cr  Cr37  1  0.88020300  0.04770700  0.87602300  1
  Cr  Cr38  1  0.62921300  0.79666700  0.12583700  1
  Cr  Cr39  1  0.62010900  0.46139200  0.12536600  1
  Cr  Cr40  1  0.62055400  0.79708400  0.62378800  1
  Cr  Cr41  1  0.63091700  0.46188800  0.62511400  1
  Cr  Cr42  1  0.37973300  0.54795300  0.37523900  1
  Cr  Cr43  1  0.36884300  0.53784400  0.87509600  1
  Cr  Cr44  1  0.38034200  0.20283900  0.87652400  1
  Cr  Cr45  1  0.12267600  0.95286500  0.12428400  1
  Cr  Cr46  1  0.12971500  0.28843400  0.12454200  1
  Cr  Cr47  1  0.12044100  0.95222500  0.62443400  1
  O  O48  1  0.96404000  0.10095600  0.06846000  1
  O  O49  1  0.93388700  0.78686800  0.06871900  1
  O  O50  1  0.92591100  0.42727900  0.06862600  1
  O  O51  1  0.96548100  0.10377200  0.56895400  1
  O  O52  1  0.81638200  0.96368800  0.18130800  1
  O  O53  1  0.82407700  0.32327900  0.18138800  1
  O  O54  1  0.93541600  0.78784700  0.56856600  1
  O  O55  1  0.91942000  0.42896400  0.56761400  1
  O  O56  1  0.78531000  0.64945100  0.18170200  1
  O  O57  1  0.71563900  0.85884400  0.31983200  1
  O  O58  1  0.81381300  0.95887400  0.68130800  1
  O  O59  1  0.82726900  0.32101500  0.68407400  1
  O  O60  1  0.68707600  0.54108800  0.31867500  1
  O  O61  1  0.67281700  0.17877000  0.31579900  1
  O  O62  1  0.78217500  0.64118600  0.67988800  1
  O  O63  1  0.71231800  0.86040000  0.81847600  1
  O  O64  1  0.46876100  0.60435100  0.06942400  1
  O  O65  1  0.56480100  0.71228200  0.43123900  1
  O  O66  1  0.58015700  0.07080900  0.43210400  1
  O  O67  1  0.67414300  0.53301700  0.81906800  1
  O  O68  1  0.68676000  0.17439300  0.81826500  1
  O  O69  1  0.43307000  0.92233900  0.06777500  1
  O  O70  1  0.41622700  0.28330700  0.06876000  1
  O  O71  1  0.53489500  0.39623400  0.43098100  1
  O  O72  1  0.46202900  0.61177500  0.56856800  1
  O  O73  1  0.56821800  0.71234400  0.93117100  1
  O  O74  1  0.56644900  0.07419100  0.93308100  1
  O  O75  1  0.31768000  0.82719500  0.18224300  1
  O  O76  1  0.33355700  0.46666100  0.18132200  1
  O  O77  1  0.43383600  0.92549000  0.56728800  1
  O  O78  1  0.43194100  0.28738700  0.56906900  1
  O  O79  1  0.53713400  0.38794300  0.93167800  1
  O  O80  1  0.28053800  0.14508500  0.18062600  1
  O  O81  1  0.21309000  0.36050500  0.31813800  1
  O  O82  1  0.31334700  0.82553500  0.68207700  1
  O  O83  1  0.32576200  0.46712000  0.68113600  1
  O  O84  1  0.18667300  0.67461300  0.31761200  1
  O  O85  1  0.17354800  0.03272000  0.31854500  1
  O  O86  1  0.28772800  0.13976300  0.68187100  1
  O  O87  1  0.21771900  0.35891100  0.82029800  1
  O  O88  1  0.06631800  0.57469900  0.43246400  1
  O  O89  1  0.06816100  0.21260400  0.43078800  1
  O  O90  1  0.17260700  0.67910600  0.81620500  1
  O  O91  1  0.18609200  0.04128800  0.81896600  1
  O  O92  1  0.03760900  0.88851100  0.43111100  1
  O  O93  1  0.08081400  0.57124300  0.93270700  1
  O  O94  1  0.06434000  0.21255900  0.93156500  1
  O  O95  1  0.03489400  0.89622200  0.93137100  1
