# generated using pymatgen
data_KLi2AlSi4(O5F)2
_symmetry_space_group_name_H-M   'P 1'
_cell_length_a   6.34963100
_cell_length_b   7.06862322
_cell_length_c   33.22366106
_cell_angle_alpha   91.11782814
_cell_angle_beta   92.34159731
_cell_angle_gamma   116.00317029
_symmetry_Int_Tables_number   1
_chemical_formula_structural   KLi2AlSi4(O5F)2
_chemical_formula_sum   'K5 Li10 Al5 Si20 O50 F10'
_cell_volume   1337.94755463
_cell_formula_units_Z   5
loop_
 _symmetry_equiv_pos_site_id
 _symmetry_equiv_pos_as_xyz
  1  'x, y, z'
loop_
 _atom_site_type_symbol
 _atom_site_label
 _atom_site_symmetry_multiplicity
 _atom_site_fract_x
 _atom_site_fract_y
 _atom_site_fract_z
 _atom_site_occupancy
  K  K0  1  0.85278600  0.22510500  0.68412300  1
  K  K1  1  0.00000000  0.00000000  0.50000000  1
  K  K2  1  0.14721400  0.77489500  0.31587700  1
  K  K3  1  0.01280600  0.44654100  0.09782500  1
  K  K4  1  0.98719400  0.55345900  0.90217500  1
  Li  Li5  1  0.26820800  0.33602400  0.75282100  1
  Li  Li6  1  0.07811800  0.76388400  0.80881900  1
  Li  Li7  1  0.16263700  0.56036600  0.52721000  1
  Li  Li8  1  0.09784800  0.17143200  0.37924600  1
  Li  Li9  1  0.83736300  0.43963400  0.47279000  1
  Li  Li10  1  0.92188200  0.23611600  0.19118100  1
  Li  Li11  1  0.53505500  0.88656300  0.07317600  1
  Li  Li12  1  0.90215200  0.82856800  0.62075400  1
  Li  Li13  1  0.73179200  0.66397600  0.24717900  1
  Li  Li14  1  0.46494500  0.11343700  0.92682400  1
  Al  Al15  1  0.27116100  0.35233700  0.61608300  1
  Al  Al16  1  0.50465000  0.79930000  0.16330800  1
  Al  Al17  1  0.00000000  0.00000000  0.00000000  1
  Al  Al18  1  0.49535000  0.20070000  0.83669200  1
  Al  Al19  1  0.72883900  0.64766300  0.38391700  1
  Si  Si20  1  0.57363700  0.34275000  0.33227800  1
  Si  Si21  1  0.52923400  0.16848700  0.22557200  1
  Si  Si22  1  0.69380400  0.06770600  0.28728200  1
  Si  Si23  1  0.61185000  0.82327900  0.92211800  1
  Si  Si24  1  0.65767100  0.49717400  0.01431300  1
  Si  Si25  1  0.92723900  0.07344400  0.82904200  1
  Si  Si26  1  0.56182500  0.59950700  0.83816500  1
  Si  Si27  1  0.61366600  0.56640000  0.53524500  1
  Si  Si28  1  0.73716700  0.30138700  0.57368100  1
  Si  Si29  1  0.45756000  0.02629000  0.46367700  1
  Si  Si30  1  0.26283300  0.69861300  0.42631900  1
  Si  Si31  1  0.43817500  0.40049300  0.16183500  1
  Si  Si32  1  0.07276100  0.92655600  0.17095800  1
  Si  Si33  1  0.34232900  0.50282600  0.98568700  1
  Si  Si34  1  0.38815000  0.17672100  0.07788200  1
  Si  Si35  1  0.30619600  0.93229400  0.71271800  1
  Si  Si36  1  0.47076600  0.83151300  0.77442800  1
  Si  Si37  1  0.54244000  0.97371000  0.53632300  1
  Si  Si38  1  0.42636300  0.65725000  0.66772200  1
  Si  Si39  1  0.38633400  0.43360000  0.46475500  1
  O  O40  1  0.61075900  0.84050700  0.31593600  1
  O  O41  1  0.37660100  0.66834900  0.03099000  1
  O  O42  1  0.53033900  0.62527500  0.75642700  1
  O  O43  1  0.42771100  0.01878000  0.26720800  1
  O  O44  1  0.19244100  0.07484200  0.84526000  1
  O  O45  1  0.80399400  0.43843600  0.53215900  1
  O  O46  1  0.22745700  0.95654000  0.11806400  1
  O  O47  1  0.36577300  0.67582500  0.81866100  1
  O  O48  1  0.18441900  0.10171700  0.71281900  1
  O  O49  1  0.33566700  0.17398800  0.34861300  1
  O  O50  1  0.36605000  0.66704500  0.94976200  1
  O  O51  1  0.55249300  0.40887600  0.58717000  1
  O  O52  1  0.19993000  0.79948200  0.75756500  1
  O  O53  1  0.30683800  0.92847800  0.50681100  1
  O  O54  1  0.34846700  0.81616900  0.11650900  1
  O  O55  1  0.43082300  0.53515700  0.71186700  1
  O  O56  1  0.51589100  0.26545800  0.44983300  1
  O  O57  1  0.98145000  0.35037800  0.59918700  1
  O  O58  1  0.59317800  0.63484100  0.88947900  1
  O  O59  1  0.34271100  0.36905300  0.51562100  1
  O  O60  1  0.37824300  0.94563300  0.19210200  1
  O  O61  1  0.77977000  0.25596100  0.32367600  1
  O  O62  1  0.63737400  0.73509200  0.04031600  1
  O  O63  1  0.19051500  0.20263600  0.17642900  1
  O  O64  1  0.84391300  0.89378000  0.95526400  1
  O  O65  1  0.80948500  0.79736400  0.82357100  1
  O  O66  1  0.22023000  0.74403900  0.67632400  1
  O  O67  1  0.62175700  0.05436700  0.80789800  1
  O  O68  1  0.01855000  0.64962200  0.40081300  1
  O  O69  1  0.48410900  0.73454200  0.55016700  1
  O  O70  1  0.56917700  0.46484300  0.28813300  1
  O  O71  1  0.65153300  0.18383100  0.88349100  1
  O  O72  1  0.80007000  0.20051800  0.24243500  1
  O  O73  1  0.44750700  0.59112400  0.41283000  1
  O  O74  1  0.63395000  0.33295500  0.05023800  1
  O  O75  1  0.66433300  0.82601200  0.65138700  1
  O  O76  1  0.81558100  0.89828300  0.28718100  1
  O  O77  1  0.15608700  0.10622000  0.04473600  1
  O  O78  1  0.63422700  0.32417500  0.18133900  1
  O  O79  1  0.77254300  0.04346000  0.88193600  1
  O  O80  1  0.19600600  0.56156400  0.46784100  1
  O  O81  1  0.80755900  0.92515800  0.15474000  1
  O  O82  1  0.36262600  0.26490800  0.95968400  1
  O  O83  1  0.57228900  0.98122000  0.73279200  1
  O  O84  1  0.46966100  0.37472500  0.24357300  1
  O  O85  1  0.62339900  0.33165100  0.96901000  1
  O  O86  1  0.65728900  0.63094700  0.48437900  1
  O  O87  1  0.40682200  0.36515900  0.11052100  1
  O  O88  1  0.38924100  0.15949300  0.68406400  1
  O  O89  1  0.69316200  0.07152200  0.49318900  1
  F  F90  1  0.00579600  0.33133000  0.83940300  1
  F  F91  1  0.16141200  0.08298200  0.61070500  1
  F  F92  1  0.01176100  0.12716600  0.78092100  1
  F  F93  1  0.13445000  0.23200100  0.43958700  1
  F  F94  1  0.86555000  0.76799900  0.56041300  1
  F  F95  1  0.98823900  0.87283400  0.21907900  1
  F  F96  1  0.83858800  0.91701800  0.38929500  1
  F  F97  1  0.94825900  0.67232400  0.01182000  1
  F  F98  1  0.99420400  0.66867000  0.16059700  1
  F  F99  1  0.05174100  0.32767600  0.98818000  1
