# generated using pymatgen
data_Li2Fe2C2O7
_symmetry_space_group_name_H-M   'P 1'
_cell_length_a   6.04777900
_cell_length_b   9.61250300
_cell_length_c   10.66623352
_cell_angle_alpha   63.58989231
_cell_angle_beta   90.00000000
_cell_angle_gamma   90.00000000
_symmetry_Int_Tables_number   1
_chemical_formula_structural   Li2Fe2C2O7
_chemical_formula_sum   'Li8 Fe8 C8 O28'
_cell_volume   555.35888505
_cell_formula_units_Z   4
loop_
 _symmetry_equiv_pos_site_id
 _symmetry_equiv_pos_as_xyz
  1  'x, y, z'
loop_
 _atom_site_type_symbol
 _atom_site_label
 _atom_site_symmetry_multiplicity
 _atom_site_fract_x
 _atom_site_fract_y
 _atom_site_fract_z
 _atom_site_occupancy
  Li  Li0  1  0.30226000  0.06643100  0.35642500  1
  Li  Li1  1  0.95776200  0.25363500  0.50602200  1
  Li  Li2  1  0.45776200  0.24636500  0.49397800  1
  Li  Li3  1  0.19774000  0.56643100  0.35642500  1
  Li  Li4  1  0.80226000  0.43356900  0.64357500  1
  Li  Li5  1  0.54223800  0.75363500  0.50602200  1
  Li  Li6  1  0.04223800  0.74636500  0.49397800  1
  Li  Li7  1  0.69774000  0.93356900  0.64357500  1
  Fe  Fe8  1  0.39750200  0.23601600  0.97400900  1
  Fe  Fe9  1  0.10249800  0.73601600  0.97400900  1
  Fe  Fe10  1  0.60011400  0.41190000  0.15824500  1
  Fe  Fe11  1  0.89988600  0.91190000  0.15824500  1
  Fe  Fe12  1  0.10011400  0.08810000  0.84175500  1
  Fe  Fe13  1  0.39988600  0.58810000  0.84175500  1
  Fe  Fe14  1  0.89750200  0.26398400  0.02599100  1
  Fe  Fe15  1  0.60249800  0.76398400  0.02599100  1
  C  C16  1  0.76889500  0.06059400  0.36064600  1
  C  C17  1  0.13616500  0.35375900  0.22600800  1
  C  C18  1  0.73110500  0.56059400  0.36064600  1
  C  C19  1  0.36383500  0.85375900  0.22600800  1
  C  C20  1  0.63616500  0.14624100  0.77399200  1
  C  C21  1  0.26889500  0.43940600  0.63935400  1
  C  C22  1  0.86383500  0.64624100  0.77399200  1
  C  C23  1  0.23110500  0.93940600  0.63935400  1
  O  O24  1  0.11726500  0.11978300  0.01796000  1
  O  O25  1  0.83646800  0.07292000  0.23975700  1
  O  O26  1  0.29493000  0.27505700  0.20315500  1
  O  O27  1  0.38273500  0.61978300  0.01796000  1
  O  O28  1  0.96678300  0.39469900  0.14372600  1
  O  O29  1  0.68450300  0.17957200  0.36987100  1
  O  O30  1  0.66353200  0.57292000  0.23975700  1
  O  O31  1  0.15499900  0.38650500  0.33066300  1
  O  O32  1  0.20507000  0.77505700  0.20315500  1
  O  O33  1  0.53321700  0.89469900  0.14372600  1
  O  O34  1  0.70993000  0.42768300  0.47025100  1
  O  O35  1  0.20993000  0.07231700  0.52974900  1
  O  O36  1  0.81549700  0.67957200  0.36987100  1
  O  O37  1  0.34500100  0.88650500  0.33066300  1
  O  O38  1  0.65499900  0.11349500  0.66933700  1
  O  O39  1  0.18450300  0.32042800  0.63012900  1
  O  O40  1  0.79007000  0.92768300  0.47025100  1
  O  O41  1  0.29007000  0.57231700  0.52974900  1
  O  O42  1  0.46678300  0.10530100  0.85627400  1
  O  O43  1  0.79493000  0.22494300  0.79684500  1
  O  O44  1  0.84500100  0.61349500  0.66933700  1
  O  O45  1  0.33646800  0.42708000  0.76024300  1
  O  O46  1  0.31549700  0.82042800  0.63012900  1
  O  O47  1  0.03321700  0.60530100  0.85627400  1
  O  O48  1  0.61726500  0.38021700  0.98204000  1
  O  O49  1  0.70507000  0.72494300  0.79684500  1
  O  O50  1  0.16353200  0.92708000  0.76024300  1
  O  O51  1  0.88273500  0.88021700  0.98204000  1
