# generated using pymatgen
data_LiV4OF11
_symmetry_space_group_name_H-M   'P 1'
_cell_length_a   5.50108574
_cell_length_b   5.50108574
_cell_length_c   17.70182532
_cell_angle_alpha   78.06910432
_cell_angle_beta   78.06910432
_cell_angle_gamma   57.47071928
_symmetry_Int_Tables_number   1
_chemical_formula_structural   LiV4OF11
_chemical_formula_sum   'Li2 V8 O2 F22'
_cell_volume   438.91845108
_cell_formula_units_Z   2
loop_
 _symmetry_equiv_pos_site_id
 _symmetry_equiv_pos_as_xyz
  1  'x, y, z'
loop_
 _atom_site_type_symbol
 _atom_site_label
 _atom_site_symmetry_multiplicity
 _atom_site_fract_x
 _atom_site_fract_y
 _atom_site_fract_z
 _atom_site_occupancy
  Li  Li0  1  0.71069900  0.63160800  0.63315000  1
  Li  Li1  1  0.36839200  0.28930100  0.36685000  1
  V  V2  1  0.75772600  0.63065200  0.43584500  1
  V  V3  1  0.11496900  0.97286900  0.31715200  1
  V  V4  1  0.87265200  0.75046600  0.06284600  1
  V  V5  1  0.24953400  0.12734800  0.93715400  1
  V  V6  1  0.36934800  0.24227400  0.56415500  1
  V  V7  1  0.02713100  0.88503100  0.68284800  1
  V  V8  1  0.49223900  0.37626500  0.18726700  1
  V  V9  1  0.62373500  0.50776100  0.81273300  1
  O  O10  1  0.05132700  0.68971800  0.37697000  1
  O  O11  1  0.31028200  0.94867300  0.62303000  1
  F  F12  1  0.51935000  0.78263400  0.34917500  1
  F  F13  1  0.46829900  0.53170100  0.50000000  1
  F  F14  1  0.54128300  0.20962600  0.87456200  1
  F  F15  1  0.48224000  0.96419800  0.02555300  1
  F  F16  1  0.94564800  0.48465900  0.53571700  1
  F  F17  1  0.77701500  0.29930100  0.71822200  1
  F  F18  1  0.21736600  0.48065000  0.65082500  1
  F  F19  1  0.71019700  0.98893200  0.15091700  1
  F  F20  1  0.01106800  0.28980300  0.84908300  1
  F  F21  1  0.99340500  0.22333800  0.40066800  1
  F  F22  1  0.96041800  0.03958200  0.00000000  1
  F  F23  1  0.28116700  0.76526500  0.22150900  1
  F  F24  1  0.23473500  0.71883300  0.77849100  1
  F  F25  1  0.03580200  0.51776000  0.97444700  1
  F  F26  1  0.51534100  0.05435200  0.46428300  1
  F  F27  1  0.26399400  0.53461000  0.09821600  1
  F  F28  1  0.46539000  0.73600600  0.90178400  1
  F  F29  1  0.77666200  0.00659500  0.59933200  1
  F  F30  1  0.71941700  0.78366400  0.74575900  1
  F  F31  1  0.21633600  0.28058300  0.25424100  1
  F  F32  1  0.79037400  0.45871700  0.12543800  1
  F  F33  1  0.70069900  0.22298500  0.28177800  1
