# generated using pymatgen
data_Li4V3(FeO5)2
_symmetry_space_group_name_H-M   'P 1'
_cell_length_a   5.15370001
_cell_length_b   5.19940039
_cell_length_c   7.94211087
_cell_angle_alpha   108.98993567
_cell_angle_beta   101.14268717
_cell_angle_gamma   100.85951266
_symmetry_Int_Tables_number   1
_chemical_formula_structural   Li4V3(FeO5)2
_chemical_formula_sum   'Li4 V3 Fe2 O10'
_cell_volume   190.06164981
_cell_formula_units_Z   1
loop_
 _symmetry_equiv_pos_site_id
 _symmetry_equiv_pos_as_xyz
  1  'x, y, z'
loop_
 _atom_site_type_symbol
 _atom_site_label
 _atom_site_symmetry_multiplicity
 _atom_site_fract_x
 _atom_site_fract_y
 _atom_site_fract_z
 _atom_site_occupancy
  Li  Li0  1  0.22191632  0.93863182  0.42752581  1
  Li  Li1  1  0.49976914  0.48166658  0.50619119  1
  Li  Li2  1  0.61241486  0.72086945  0.22763360  1
  Li  Li3  1  0.79992783  0.09275420  0.59079426  1
  V  V4  1  0.99840337  0.49604506  0.99635641  1
  V  V5  1  0.30344901  0.10965476  0.10673634  1
  V  V6  1  0.68555258  0.88655986  0.88535388  1
  Fe  Fe7  1  0.09565781  0.69043164  0.68353244  1
  Fe  Fe8  1  0.89679816  0.30857843  0.31225996  1
  O  O9  1  0.02885869  0.08108048  0.85883351  1
  O  O10  1  0.33665342  0.72804364  0.94915849  1
  O  O11  1  0.12679726  0.31500459  0.53571732  1
  O  O12  1  0.23289230  0.48296363  0.22613305  1
  O  O13  1  0.47104330  0.87962357  0.67457466  1
  O  O14  1  0.54126251  0.10786971  0.33443084  1
  O  O15  1  0.78105046  0.52927039  0.76998500  1
  O  O16  1  0.87072215  0.69653352  0.45607556  1
  O  O17  1  0.67714138  0.27620731  0.05392887  1
  O  O18  1  0.93099144  0.89563837  0.12901580  1
