# generated using pymatgen
data_Li4Ti2V3Sn3O16
_symmetry_space_group_name_H-M   'P 1'
_cell_length_a   6.17209320
_cell_length_b   6.17209320
_cell_length_c   9.68195160
_cell_angle_alpha   89.48065017
_cell_angle_beta   89.48065017
_cell_angle_gamma   59.29456700
_symmetry_Int_Tables_number   1
_chemical_formula_structural   Li4Ti2V3Sn3O16
_chemical_formula_sum   'Li4 Ti2 V3 Sn3 O16'
_cell_volume   317.10539013
_cell_formula_units_Z   1
loop_
 _symmetry_equiv_pos_site_id
 _symmetry_equiv_pos_as_xyz
  1  'x, y, z'
loop_
 _atom_site_type_symbol
 _atom_site_label
 _atom_site_symmetry_multiplicity
 _atom_site_fract_x
 _atom_site_fract_y
 _atom_site_fract_z
 _atom_site_occupancy
  Li  Li0  1  0.67276600  0.67276600  0.89264300  1
  Li  Li1  1  0.99071100  0.99071100  0.98872000  1
  Li  Li2  1  0.99469800  0.99469800  0.50113100  1
  Li  Li3  1  0.33311400  0.33311400  0.39714600  1
  Ti  Ti4  1  0.67815400  0.67815400  0.50165100  1
  Ti  Ti5  1  0.34425900  0.34425900  0.97763800  1
  V  V6  1  0.82867300  0.82867300  0.21396500  1
  V  V7  1  0.65166500  0.18275600  0.71315700  1
  V  V8  1  0.18275600  0.65166500  0.71315700  1
  Sn  Sn9  1  0.82948800  0.33799600  0.21457000  1
  Sn  Sn10  1  0.33799600  0.82948800  0.21457000  1
  Sn  Sn11  1  0.17012400  0.17012400  0.71385500  1
  O  O12  1  0.83143200  0.34579700  0.59117900  1
  O  O13  1  0.51577800  0.51577800  0.34394300  1
  O  O14  1  0.66642700  0.66642700  0.09767100  1
  O  O15  1  0.99634600  0.99634600  0.31604100  1
  O  O16  1  0.99823000  0.99823000  0.80369800  1
  O  O17  1  0.34579700  0.83143200  0.59117900  1
  O  O18  1  0.95581800  0.52494800  0.34272200  1
  O  O19  1  0.52494800  0.95581800  0.34272200  1
  O  O20  1  0.16040000  0.16040000  0.09397200  1
  O  O21  1  0.82866100  0.82866100  0.59468800  1
  O  O22  1  0.47771900  0.04605200  0.85053000  1
  O  O23  1  0.04605200  0.47771900  0.85053000  1
  O  O24  1  0.33120200  0.33120200  0.59987300  1
  O  O25  1  0.66555600  0.16023600  0.09722500  1
  O  O26  1  0.48122900  0.48122900  0.85247300  1
  O  O27  1  0.16023600  0.66555600  0.09722500  1
