# generated using pymatgen
data_Li2VFe3O8
_symmetry_space_group_name_H-M   'P 1'
_cell_length_a   8.48098500
_cell_length_b   8.48098500
_cell_length_c   8.48098500
_cell_angle_alpha   90.00000000
_cell_angle_beta   90.00000000
_cell_angle_gamma   90.00000000
_symmetry_Int_Tables_number   1
_chemical_formula_structural   Li2VFe3O8
_chemical_formula_sum   'Li8 V4 Fe12 O32'
_cell_volume   610.01271192
_cell_formula_units_Z   4
loop_
 _symmetry_equiv_pos_site_id
 _symmetry_equiv_pos_as_xyz
  1  'x, y, z'
loop_
 _atom_site_type_symbol
 _atom_site_label
 _atom_site_symmetry_multiplicity
 _atom_site_fract_x
 _atom_site_fract_y
 _atom_site_fract_z
 _atom_site_occupancy
  Li  Li0  1  0.49945000  0.49945000  0.49945000  1
  Li  Li1  1  0.75055000  0.75055000  0.75055000  1
  Li  Li2  1  0.74945000  0.24945000  0.25055000  1
  Li  Li3  1  0.00055000  0.50055000  0.99945000  1
  Li  Li4  1  0.99945000  0.00055000  0.50055000  1
  Li  Li5  1  0.25055000  0.74945000  0.24945000  1
  Li  Li6  1  0.24945000  0.25055000  0.74945000  1
  Li  Li7  1  0.50055000  0.99945000  0.00055000  1
  V  V8  1  0.62500000  0.37500000  0.87500000  1
  V  V9  1  0.87500000  0.62500000  0.37500000  1
  V  V10  1  0.12500000  0.12500000  0.12500000  1
  V  V11  1  0.37500000  0.87500000  0.62500000  1
  Fe  Fe12  1  0.62455600  0.62544400  0.12500000  1
  Fe  Fe13  1  0.62500000  0.87544400  0.37455600  1
  Fe  Fe14  1  0.62544400  0.12500000  0.62455600  1
  Fe  Fe15  1  0.87455600  0.87500000  0.12455600  1
  Fe  Fe16  1  0.87500000  0.12455600  0.87455600  1
  Fe  Fe17  1  0.87544400  0.37455600  0.62500000  1
  Fe  Fe18  1  0.12455600  0.87455600  0.87500000  1
  Fe  Fe19  1  0.12500000  0.62455600  0.62544400  1
  Fe  Fe20  1  0.12544400  0.37500000  0.37544400  1
  Fe  Fe21  1  0.37455600  0.62500000  0.87544400  1
  Fe  Fe22  1  0.37500000  0.37544400  0.12544400  1
  Fe  Fe23  1  0.37544400  0.12544400  0.37500000  1
  O  O24  1  0.61858400  0.60121900  0.88187400  1
  O  O25  1  0.61812600  0.38141600  0.10121900  1
  O  O26  1  0.61201400  0.11201400  0.38798600  1
  O  O27  1  0.64878100  0.63141600  0.36812600  1
  O  O28  1  0.60121900  0.88187400  0.61858400  1
  O  O29  1  0.63798600  0.86201400  0.13798600  1
  O  O30  1  0.63187400  0.14878100  0.86858400  1
  O  O31  1  0.63141600  0.36812600  0.64878100  1
  O  O32  1  0.86858400  0.63187400  0.14878100  1
  O  O33  1  0.86812600  0.85121900  0.36858400  1
  O  O34  1  0.86201400  0.13798600  0.63798600  1
  O  O35  1  0.89878100  0.11812600  0.11858400  1
  O  O36  1  0.85121900  0.36858400  0.86812600  1
  O  O37  1  0.88798600  0.88798600  0.88798600  1
  O  O38  1  0.88187400  0.61858400  0.60121900  1
  O  O39  1  0.88141600  0.39878100  0.38187400  1
  O  O40  1  0.11858400  0.89878100  0.11812600  1
  O  O41  1  0.11812600  0.11858400  0.89878100  1
  O  O42  1  0.11201400  0.38798600  0.61201400  1
  O  O43  1  0.14878100  0.86858400  0.63187400  1
  O  O44  1  0.10121900  0.61812600  0.38141600  1
  O  O45  1  0.13798600  0.63798600  0.86201400  1
  O  O46  1  0.13187400  0.35121900  0.13141600  1
  O  O47  1  0.13141600  0.13187400  0.35121900  1
  O  O48  1  0.36858400  0.86812600  0.85121900  1
  O  O49  1  0.36812600  0.64878100  0.63141600  1
  O  O50  1  0.36201400  0.36201400  0.36201400  1
  O  O51  1  0.39878100  0.38187400  0.88141600  1
  O  O52  1  0.35121900  0.13141600  0.13187400  1
  O  O53  1  0.38798600  0.61201400  0.11201400  1
  O  O54  1  0.38187400  0.88141600  0.39878100  1
  O  O55  1  0.38141600  0.10121900  0.61812600  1
