# generated using pymatgen
data_Li4Mn(Ni2O5)2
_symmetry_space_group_name_H-M   'P 1'
_cell_length_a   5.77417300
_cell_length_b   6.52894875
_cell_length_c   10.01665914
_cell_angle_alpha   96.97779885
_cell_angle_beta   106.71664821
_cell_angle_gamma   102.78339878
_symmetry_Int_Tables_number   1
_chemical_formula_structural   Li4Mn(Ni2O5)2
_chemical_formula_sum   'Li8 Mn2 Ni8 O20'
_cell_volume   345.70007333
_cell_formula_units_Z   2
loop_
 _symmetry_equiv_pos_site_id
 _symmetry_equiv_pos_as_xyz
  1  'x, y, z'
loop_
 _atom_site_type_symbol
 _atom_site_label
 _atom_site_symmetry_multiplicity
 _atom_site_fract_x
 _atom_site_fract_y
 _atom_site_fract_z
 _atom_site_occupancy
  Li  Li0  1  0.79661200  0.29094100  0.20535900  1
  Li  Li1  1  0.69690500  0.70985500  0.79573000  1
  Li  Li2  1  0.50000000  0.50000000  0.00000000  1
  Li  Li3  1  0.89275500  0.90934200  0.59541700  1
  Li  Li4  1  0.30309500  0.29014500  0.20427000  1
  Li  Li5  1  0.20338800  0.70905900  0.79464100  1
  Li  Li6  1  0.00000000  0.50000000  0.00000000  1
  Li  Li7  1  0.10724500  0.09065800  0.40458300  1
  Mn  Mn8  1  0.50000000  0.50000000  0.50000000  1
  Mn  Mn9  1  0.00000000  0.50000000  0.50000000  1
  Ni  Ni10  1  0.79385500  0.28769200  0.69647100  1
  Ni  Ni11  1  0.59565300  0.09420400  0.89670700  1
  Ni  Ni12  1  0.69938300  0.70367400  0.29677100  1
  Ni  Ni13  1  0.40434700  0.90579600  0.10329300  1
  Ni  Ni14  1  0.30061700  0.29632600  0.70322900  1
  Ni  Ni15  1  0.09987900  0.09700300  0.90313300  1
  Ni  Ni16  1  0.20614500  0.71230800  0.30352900  1
  Ni  Ni17  1  0.90012100  0.90299700  0.09686700  1
  O  O18  1  0.78252700  0.01230300  0.77037800  1
  O  O19  1  0.83964500  0.58620400  0.63575500  1
  O  O20  1  0.76473900  0.99283500  0.23102200  1
  O  O21  1  0.62803700  0.36731700  0.84548200  1
  O  O22  1  0.84929900  0.63188300  0.14999900  1
  O  O23  1  0.43104900  0.17442400  0.04269800  1
  O  O24  1  0.23526100  0.00716500  0.76897800  1
  O  O25  1  0.33966800  0.59309700  0.63492800  1
  O  O26  1  0.66033200  0.40690300  0.36507200  1
  O  O27  1  0.56895100  0.82557600  0.95730200  1
  O  O28  1  0.44278400  0.23349600  0.55999700  1
  O  O29  1  0.21747300  0.98769700  0.22962200  1
  O  O30  1  0.37196300  0.63268300  0.15451800  1
  O  O31  1  0.15070100  0.36811700  0.85000100  1
  O  O32  1  0.55721600  0.76650400  0.44000300  1
  O  O33  1  0.95321600  0.17742300  0.04397400  1
  O  O34  1  0.16035500  0.41379600  0.36424500  1
  O  O35  1  0.04678400  0.82257700  0.95602600  1
  O  O36  1  0.98304500  0.22935800  0.56022100  1
  O  O37  1  0.01695500  0.77064200  0.43977900  1
