# generated using pymatgen
data_Li2V(PO4)2
_symmetry_space_group_name_H-M   'P 1'
_cell_length_a   9.33997181
_cell_length_b   9.27626806
_cell_length_c   9.37389221
_cell_angle_alpha   72.20621420
_cell_angle_beta   71.92944041
_cell_angle_gamma   112.33660834
_symmetry_Int_Tables_number   1
_chemical_formula_structural   Li2V(PO4)2
_chemical_formula_sum   'Li8 V4 P8 O32'
_cell_volume   625.89209807
_cell_formula_units_Z   4
loop_
 _symmetry_equiv_pos_site_id
 _symmetry_equiv_pos_as_xyz
  1  'x, y, z'
loop_
 _atom_site_type_symbol
 _atom_site_label
 _atom_site_symmetry_multiplicity
 _atom_site_fract_x
 _atom_site_fract_y
 _atom_site_fract_z
 _atom_site_occupancy
  Li  Li0  1  0.79518100  0.87010100  0.35340100  1
  Li  Li1  1  0.29518500  0.37007600  0.35344900  1
  Li  Li2  1  0.60151400  0.02659200  0.85332600  1
  Li  Li3  1  0.10147600  0.52660000  0.85330900  1
  Li  Li4  1  0.89852400  0.47352400  0.14665500  1
  Li  Li5  1  0.39858000  0.97355500  0.14665600  1
  Li  Li6  1  0.70484900  0.62994300  0.64662000  1
  Li  Li7  1  0.20480900  0.12987600  0.64661900  1
  V  V8  1  0.49987000  0.49996500  0.00001300  1
  V  V9  1  0.25009000  0.74992600  0.49993600  1
  V  V10  1  0.00005600  0.99990100  0.00000000  1
  V  V11  1  0.74998200  0.24997600  0.49997200  1
  P  P12  1  0.05630300  0.25606600  0.19424300  1
  P  P13  1  0.55644100  0.75608000  0.19414700  1
  P  P14  1  0.49918000  0.79956600  0.69413100  1
  P  P15  1  0.99916500  0.29948700  0.69416600  1
  P  P16  1  0.00085800  0.70047500  0.30586200  1
  P  P17  1  0.50081900  0.20042300  0.30586600  1
  P  P18  1  0.44362600  0.24395300  0.80577300  1
  P  P19  1  0.94358800  0.74388600  0.80574000  1
  O  O20  1  0.48874000  0.41110800  0.83242000  1
  O  O21  1  0.98886200  0.91105400  0.83241100  1
  O  O22  1  0.92866800  0.50671300  0.33224300  1
  O  O23  1  0.42866400  0.00669200  0.33224700  1
  O  O24  1  0.57134700  0.99330700  0.66779700  1
  O  O25  1  0.07136600  0.49326800  0.66777800  1
  O  O26  1  0.01112900  0.08898400  0.16751500  1
  O  O27  1  0.51114600  0.58893800  0.16752900  1
  O  O28  1  0.24575700  0.33266400  0.17632100  1
  O  O29  1  0.74593800  0.83262700  0.17605700  1
  O  O30  1  0.82812700  0.24159000  0.67559100  1
  O  O31  1  0.32811600  0.74156500  0.67561800  1
  O  O32  1  0.67193200  0.25845800  0.32434700  1
  O  O33  1  0.17198700  0.75844600  0.32430400  1
  O  O34  1  0.25409800  0.16735200  0.82393400  1
  O  O35  1  0.75402100  0.66732500  0.82397500  1
  O  O36  1  0.63359600  0.78929800  0.56727700  1
  O  O37  1  0.13353400  0.28919200  0.56729700  1
  O  O38  1  0.04824300  0.39259000  0.06720300  1
  O  O39  1  0.54825400  0.89258300  0.06721100  1
  O  O40  1  0.45178600  0.10747700  0.93275600  1
  O  O41  1  0.95175900  0.60745200  0.93277400  1
  O  O42  1  0.86648800  0.71082600  0.43269800  1
  O  O43  1  0.36641700  0.21072600  0.43274800  1
  O  O44  1  0.91949400  0.19315900  0.38252700  1
  O  O45  1  0.41959100  0.69318400  0.38247300  1
  O  O46  1  0.44721800  0.67375600  0.88249700  1
  O  O47  1  0.94724400  0.17376000  0.88248700  1
  O  O48  1  0.05277000  0.82621800  0.11752800  1
  O  O49  1  0.55271500  0.32624000  0.11755300  1
  O  O50  1  0.58045800  0.30682200  0.61750300  1
  O  O51  1  0.08043900  0.80665200  0.61750100  1
