# generated using pymatgen
data_Li3Sb2(PO4)3
_symmetry_space_group_name_H-M   'P 1'
_cell_length_a   8.50729884
_cell_length_b   8.50729884
_cell_length_c   8.54176247
_cell_angle_alpha   67.21017198
_cell_angle_beta   67.21017198
_cell_angle_gamma   66.95996322
_symmetry_Int_Tables_number   1
_chemical_formula_structural   Li3Sb2(PO4)3
_chemical_formula_sum   'Li6 Sb4 P6 O24'
_cell_volume   503.82111140
_cell_formula_units_Z   2
loop_
 _symmetry_equiv_pos_site_id
 _symmetry_equiv_pos_as_xyz
  1  'x, y, z'
loop_
 _atom_site_type_symbol
 _atom_site_label
 _atom_site_symmetry_multiplicity
 _atom_site_fract_x
 _atom_site_fract_y
 _atom_site_fract_z
 _atom_site_occupancy
  Li  Li0  1  0.50824800  0.00173600  0.23548200  1
  Li  Li1  1  0.35882700  0.64117300  0.50000000  1
  Li  Li2  1  0.99826400  0.49175200  0.76451800  1
  Li  Li3  1  0.63299600  0.36700400  0.00000000  1
  Li  Li4  1  0.25296200  0.13455700  0.61029300  1
  Li  Li5  1  0.86544300  0.74703800  0.38970700  1
  Sb  Sb6  1  0.34113900  0.85439400  0.09515700  1
  Sb  Sb7  1  0.14560600  0.65886100  0.90484300  1
  Sb  Sb8  1  0.83950700  0.34141100  0.59461000  1
  Sb  Sb9  1  0.65858900  0.16049300  0.40539000  1
  P  P10  1  0.75072900  0.59227400  0.15834700  1
  P  P11  1  0.40772600  0.24927100  0.84165300  1
  P  P12  1  0.08257900  0.91742100  0.50000000  1
  P  P13  1  0.91623200  0.08376800  0.00000000  1
  P  P14  1  0.57684700  0.74708200  0.65629800  1
  P  P15  1  0.25291800  0.42315300  0.34370200  1
  O  O16  1  0.20115100  0.47458500  0.17615300  1
  O  O17  1  0.93275300  0.92893300  0.94237400  1
  O  O18  1  0.59426200  0.76989700  0.15092900  1
  O  O19  1  0.44009500  0.68154300  0.64541000  1
  O  O20  1  0.90542200  0.60347700  0.97941400  1
  O  O21  1  0.68504600  0.43915600  0.17639300  1
  O  O22  1  0.39652300  0.09457800  0.02058600  1
  O  O23  1  0.23010300  0.40573800  0.84907100  1
  O  O24  1  0.09973800  0.73389800  0.64801400  1
  O  O25  1  0.07106700  0.06724700  0.05762600  1
  O  O26  1  0.73160600  0.11103500  0.15292700  1
  O  O27  1  0.52541500  0.79884900  0.82384700  1
  O  O28  1  0.43176200  0.17950300  0.68961500  1
  O  O29  1  0.26610200  0.90026200  0.35198600  1
  O  O30  1  0.93195500  0.93905400  0.42967700  1
  O  O31  1  0.88896500  0.26839400  0.84707300  1
  O  O32  1  0.76532600  0.59894400  0.64102700  1
  O  O33  1  0.60960000  0.90630300  0.48043400  1
  O  O34  1  0.31845700  0.55990500  0.35459000  1
  O  O35  1  0.09369700  0.39040000  0.51956600  1
  O  O36  1  0.56084400  0.31495400  0.82360700  1
  O  O37  1  0.40105600  0.23467400  0.35897300  1
  O  O38  1  0.06094600  0.06804500  0.57032300  1
  O  O39  1  0.82049700  0.56823800  0.31038500  1
