# generated using pymatgen
data_Li6TiNi7O16
_symmetry_space_group_name_H-M   'P 1'
_cell_length_a   6.42231000
_cell_length_b   6.55295939
_cell_length_c   7.69150865
_cell_angle_alpha   75.96973190
_cell_angle_beta   65.81840334
_cell_angle_gamma   70.80066458
_symmetry_Int_Tables_number   1
_chemical_formula_structural   Li6TiNi7O16
_chemical_formula_sum   'Li6 Ti1 Ni7 O16'
_cell_volume   276.68129987
_cell_formula_units_Z   1
loop_
 _symmetry_equiv_pos_site_id
 _symmetry_equiv_pos_as_xyz
  1  'x, y, z'
loop_
 _atom_site_type_symbol
 _atom_site_label
 _atom_site_symmetry_multiplicity
 _atom_site_fract_x
 _atom_site_fract_y
 _atom_site_fract_z
 _atom_site_occupancy
  Li  Li0  1  0.17681000  0.32129700  0.44321500  1
  Li  Li1  1  0.94298100  0.54853600  0.19485100  1
  Li  Li2  1  0.56109800  0.93193300  0.30978200  1
  Li  Li3  1  0.45159500  0.05971600  0.68825600  1
  Li  Li4  1  0.05783600  0.45220400  0.80337000  1
  Li  Li5  1  0.66796100  0.83127900  0.93108800  1
  Ti  Ti6  1  0.00706600  0.02009000  0.99493900  1
  Ni  Ni7  1  0.61028700  0.37215000  0.12980300  1
  Ni  Ni8  1  0.24994500  0.75177400  0.25688300  1
  Ni  Ni9  1  0.87635900  0.12401500  0.37515700  1
  Ni  Ni10  1  0.50338600  0.49782600  0.49668700  1
  Ni  Ni11  1  0.12356500  0.86660700  0.62663400  1
  Ni  Ni12  1  0.74985700  0.25125800  0.75131500  1
  Ni  Ni13  1  0.37347300  0.61861900  0.87467700  1
  O  O14  1  0.68337900  0.07635000  0.03138000  1
  O  O15  1  0.28926800  0.49675900  0.15737600  1
  O  O16  1  0.20418900  0.00010600  0.37132400  1
  O  O17  1  0.93766000  0.28293000  0.09796300  1
  O  O18  1  0.56778000  0.64680100  0.24407600  1
  O  O19  1  0.54012400  0.24353900  0.39514200  1
  O  O20  1  0.18801800  0.58286900  0.52994300  1
  O  O21  1  0.07592400  0.16180300  0.73057100  1
  O  O22  1  0.93178400  0.86690400  0.26819000  1
  O  O23  1  0.83086600  0.38428700  0.46002600  1
  O  O24  1  0.44928200  0.75357000  0.59526100  1
  O  O25  1  0.43703100  0.35507400  0.74932900  1
  O  O26  1  0.05485200  0.72918400  0.89264500  1
  O  O27  1  0.79994200  0.99333100  0.65502800  1
  O  O28  1  0.68572900  0.50525200  0.86857700  1
  O  O29  1  0.33581400  0.89562900  0.95816400  1
