# generated using pymatgen
data_LiTi3VO8
_symmetry_space_group_name_H-M   'P 1'
_cell_length_a   6.12271377
_cell_length_b   10.37095540
_cell_length_c   10.45067913
_cell_angle_alpha   80.48657156
_cell_angle_beta   88.52381240
_cell_angle_gamma   73.61337923
_symmetry_Int_Tables_number   1
_chemical_formula_structural   LiTi3VO8
_chemical_formula_sum   'Li4 Ti12 V4 O32'
_cell_volume   627.73718462
_cell_formula_units_Z   4
loop_
 _symmetry_equiv_pos_site_id
 _symmetry_equiv_pos_as_xyz
  1  'x, y, z'
loop_
 _atom_site_type_symbol
 _atom_site_label
 _atom_site_symmetry_multiplicity
 _atom_site_fract_x
 _atom_site_fract_y
 _atom_site_fract_z
 _atom_site_occupancy
  Li  Li0  1  0.87501500  0.24999000  0.62497800  1
  Li  Li1  1  0.62500000  0.75000000  0.87500000  1
  Li  Li2  1  0.37498600  0.25000900  0.12502200  1
  Li  Li3  1  0.12500000  0.75000000  0.37500000  1
  Ti  Ti4  1  0.37502100  0.24999300  0.62495600  1
  Ti  Ti5  1  0.12500000  0.75000000  0.87500000  1
  Ti  Ti6  1  0.87497800  0.25000800  0.12504500  1
  Ti  Ti7  1  0.62499900  0.75000100  0.37500000  1
  Ti  Ti8  1  0.50002600  0.49998900  0.49995500  1
  Ti  Ti9  1  0.24999700  0.00000500  0.74998300  1
  Ti  Ti10  1  0.00000500  0.49999500  0.00001700  1
  Ti  Ti11  1  0.74997600  0.00000900  0.25004500  1
  Ti  Ti12  1  0.62500000  0.25000100  0.37499900  1
  Ti  Ti13  1  0.37500900  0.75001200  0.62497100  1
  Ti  Ti14  1  0.12500100  0.25000000  0.87499900  1
  Ti  Ti15  1  0.87499100  0.74998900  0.12502900  1
  V  V16  1  0.25001500  0.49999700  0.74997900  1
  V  V17  1  0.99998300  0.00000100  0.00002100  1
  V  V18  1  0.75002600  0.49998600  0.25000000  1
  V  V19  1  0.49997300  0.00001300  0.50000100  1
  O  O20  1  0.35327100  0.36590400  0.45110900  1
  O  O21  1  0.10327900  0.86591000  0.70110700  1
  O  O22  1  0.85329800  0.36590100  0.95113700  1
  O  O23  1  0.60330300  0.86589700  0.20113400  1
  O  O24  1  0.64669800  0.63410100  0.54886700  1
  O  O25  1  0.39670100  0.13409800  0.79886300  1
  O  O26  1  0.14672100  0.63408900  0.04889400  1
  O  O27  1  0.89673100  0.13409400  0.29889200  1
  O  O28  1  0.22938500  0.62024000  0.56963300  1
  O  O29  1  0.97941200  0.12024800  0.81966100  1
  O  O30  1  0.72939200  0.62024400  0.06963800  1
  O  O31  1  0.47937400  0.12026600  0.31965000  1
  O  O32  1  0.46913900  0.62024700  0.32991200  1
  O  O33  1  0.21908300  0.12024600  0.57989900  1
  O  O34  1  0.96916500  0.62025100  0.82991900  1
  O  O35  1  0.71913300  0.12023800  0.07993100  1
  O  O36  1  0.34929000  0.86000700  0.44976800  1
  O  O37  1  0.09928600  0.35998300  0.69978900  1
  O  O38  1  0.84931600  0.85998000  0.94977000  1
  O  O39  1  0.59927900  0.36000400  0.19980200  1
  O  O40  1  0.65072500  0.13999700  0.55020000  1
  O  O41  1  0.40068400  0.64001900  0.80022900  1
  O  O42  1  0.15071400  0.14001600  0.05021100  1
  O  O43  1  0.90071000  0.63999100  0.30023200  1
  O  O44  1  0.53086100  0.37976400  0.67007100  1
  O  O45  1  0.28084000  0.87974700  0.92007900  1
  O  O46  1  0.03091900  0.37975300  0.17010000  1
  O  O47  1  0.78085900  0.87975400  0.42008800  1
  O  O48  1  0.77062700  0.37973400  0.43035100  1
  O  O49  1  0.52060800  0.87975700  0.68036100  1
  O  O50  1  0.27058800  0.37975000  0.93034200  1
  O  O51  1  0.02061300  0.87976300  0.18036200  1
