# generated using pymatgen
data_Li8Mn7Fe(BO3)8
_symmetry_space_group_name_H-M   'P 1'
_cell_length_a   5.25851700
_cell_length_b   9.11341428
_cell_length_c   11.59420208
_cell_angle_alpha   111.51215673
_cell_angle_beta   102.13196381
_cell_angle_gamma   89.81938757
_symmetry_Int_Tables_number   1
_chemical_formula_structural   Li8Mn7Fe(BO3)8
_chemical_formula_sum   'Li8 Mn7 Fe1 B8 O24'
_cell_volume   503.70779411
_cell_formula_units_Z   1
loop_
 _symmetry_equiv_pos_site_id
 _symmetry_equiv_pos_as_xyz
  1  'x, y, z'
loop_
 _atom_site_type_symbol
 _atom_site_label
 _atom_site_symmetry_multiplicity
 _atom_site_fract_x
 _atom_site_fract_y
 _atom_site_fract_z
 _atom_site_occupancy
  Li  Li0  1  0.02970400  0.04030600  0.41788300  1
  Li  Li1  1  0.29472200  0.28472900  0.91781400  1
  Li  Li2  1  0.48052800  0.50821300  0.66795800  1
  Li  Li3  1  0.27228000  0.24432400  0.16789000  1
  Li  Li4  1  0.52843700  0.54082900  0.41794900  1
  Li  Li5  1  0.79494500  0.78456300  0.91787000  1
  Li  Li6  1  0.98036600  0.00847900  0.66780900  1
  Li  Li7  1  0.77061100  0.74442400  0.16746400  1
  Mn  Mn8  1  0.02299700  0.35544700  0.38314400  1
  Mn  Mn9  1  0.27256900  0.93973300  0.88306600  1
  Mn  Mn10  1  0.47600400  0.15310800  0.63095100  1
  Mn  Mn11  1  0.24654800  0.56699200  0.13453300  1
  Mn  Mn12  1  0.77242500  0.43943400  0.88312200  1
  Mn  Mn13  1  0.74467700  0.06503900  0.13306400  1
  Mn  Mn14  1  0.97531100  0.65513700  0.63351700  1
  Fe  Fe15  1  0.52928300  0.85446100  0.38282100  1
  B  B16  1  0.02298300  0.68743900  0.37712300  1
  B  B17  1  0.26599600  0.60504600  0.87578500  1
  B  B18  1  0.23682000  0.89288300  0.12669100  1
  B  B19  1  0.47019200  0.81368000  0.62463000  1
  B  B20  1  0.52418300  0.18323400  0.37500100  1
  B  B21  1  0.76586900  0.10507500  0.87576200  1
  B  B22  1  0.73684000  0.39266800  0.12618400  1
  B  B23  1  0.97049200  0.31427500  0.62577200  1
  O  O24  1  0.01989100  0.10989800  0.86109900  1
  O  O25  1  0.09650000  0.71147000  0.84520100  1
  O  O26  1  0.17626600  0.49399400  0.91778500  1
  O  O27  1  0.07206600  0.16984600  0.61127000  1
  O  O28  1  0.10100700  0.42471100  0.59563000  1
  O  O29  1  0.23833200  0.84973700  0.66613300  1
  O  O30  1  0.26839700  0.66102900  0.34766700  1
  O  O31  1  0.52012400  0.61019400  0.86137700  1
  O  O32  1  0.59641500  0.21128900  0.84513600  1
  O  O33  1  0.40323100  0.08039200  0.41522600  1
  O  O34  1  0.40454700  0.31379800  0.36191600  1
  O  O35  1  0.67634300  0.99386100  0.91779100  1
  O  O36  1  0.33620600  0.01304600  0.09584400  1
  O  O37  1  0.57121500  0.66921000  0.61112000  1
  O  O38  1  0.60079300  0.92312400  0.59368100  1
  O  O39  1  0.40621200  0.79490200  0.16785100  1
  O  O40  1  0.46960700  0.37114500  0.11206500  1
  O  O41  1  0.73792400  0.34949100  0.66657300  1
  O  O42  1  0.76945400  0.15381100  0.34520400  1
  O  O43  1  0.90289900  0.58454400  0.41713900  1
  O  O44  1  0.89794400  0.81625600  0.36281000  1
  O  O45  1  0.83743900  0.51330400  0.09632700  1
  O  O46  1  0.90599600  0.29407600  0.16692500  1
  O  O47  1  0.96961400  0.87055600  0.11202400  1
