# generated using pymatgen
data_LiCr2O4
_symmetry_space_group_name_H-M   'P 1'
_cell_length_a   5.87300437
_cell_length_b   5.87300437
_cell_length_c   9.51549463
_cell_angle_alpha   89.60906035
_cell_angle_beta   89.60906035
_cell_angle_gamma   120.02244282
_symmetry_Int_Tables_number   1
_chemical_formula_structural   LiCr2O4
_chemical_formula_sum   'Li4 Cr8 O16'
_cell_volume   284.14755304
_cell_formula_units_Z   4
loop_
 _symmetry_equiv_pos_site_id
 _symmetry_equiv_pos_as_xyz
  1  'x, y, z'
loop_
 _atom_site_type_symbol
 _atom_site_label
 _atom_site_symmetry_multiplicity
 _atom_site_fract_x
 _atom_site_fract_y
 _atom_site_fract_z
 _atom_site_occupancy
  Li  Li0  1  0.33598600  0.66787000  0.89615200  1
  Li  Li1  1  0.99847400  0.99839000  0.99639300  1
  Li  Li2  1  0.99839000  0.99847400  0.49639300  1
  Li  Li3  1  0.66787000  0.33598600  0.39615200  1
  Cr  Cr4  1  0.66471600  0.83350100  0.21021700  1
  Cr  Cr5  1  0.32823300  0.66445400  0.48303100  1
  Cr  Cr6  1  0.17092800  0.34206100  0.21489700  1
  Cr  Cr7  1  0.16967400  0.83362000  0.21018600  1
  Cr  Cr8  1  0.83362000  0.16967400  0.71018600  1
  Cr  Cr9  1  0.66445400  0.32823300  0.98303100  1
  Cr  Cr10  1  0.83350100  0.66471600  0.71021700  1
  Cr  Cr11  1  0.34206100  0.17092800  0.71489700  1
  O  O12  1  0.66942100  0.83530100  0.60709600  1
  O  O13  1  0.48620300  0.52840400  0.33843500  1
  O  O14  1  0.33704000  0.67221300  0.10264000  1
  O  O15  1  0.99777900  0.99673600  0.31152400  1
  O  O16  1  0.99673600  0.99777900  0.81152400  1
  O  O17  1  0.15420500  0.32793700  0.60440200  1
  O  O18  1  0.47815200  0.95764500  0.33566600  1
  O  O19  1  0.04103400  0.52870100  0.33816900  1
  O  O20  1  0.82681600  0.15480200  0.10511100  1
  O  O21  1  0.15480200  0.82681600  0.60511100  1
  O  O22  1  0.95764500  0.47815200  0.83566600  1
  O  O23  1  0.52870100  0.04103400  0.83816900  1
  O  O24  1  0.67221300  0.33704000  0.60264000  1
  O  O25  1  0.83530100  0.66942100  0.10709600  1
  O  O26  1  0.52840400  0.48620300  0.83843500  1
  O  O27  1  0.32793700  0.15420500  0.10440200  1
