# generated using pymatgen
data_Li8MnNi7O16
_symmetry_space_group_name_H-M   'P 1'
_cell_length_a   6.51854400
_cell_length_b   6.61461860
_cell_length_c   7.60713073
_cell_angle_alpha   64.59090264
_cell_angle_beta   75.44522777
_cell_angle_gamma   72.56987686
_symmetry_Int_Tables_number   1
_chemical_formula_structural   Li8MnNi7O16
_chemical_formula_sum   'Li8 Mn1 Ni7 O16'
_cell_volume   279.78590047
_cell_formula_units_Z   1
loop_
 _symmetry_equiv_pos_site_id
 _symmetry_equiv_pos_as_xyz
  1  'x, y, z'
loop_
 _atom_site_type_symbol
 _atom_site_label
 _atom_site_symmetry_multiplicity
 _atom_site_fract_x
 _atom_site_fract_y
 _atom_site_fract_z
 _atom_site_occupancy
  Li  Li0  1  0.93291800  0.55928100  0.81031100  1
  Li  Li1  1  0.55697500  0.93808400  0.68791500  1
  Li  Li2  1  0.18744700  0.31499600  0.56617300  1
  Li  Li3  1  0.81255300  0.68500400  0.43382700  1
  Li  Li4  1  0.44302500  0.06191600  0.31208500  1
  Li  Li5  1  0.06708200  0.44071900  0.18968900  1
  Li  Li6  1  0.69463200  0.80726400  0.06265200  1
  Li  Li7  1  0.30536800  0.19273600  0.93734800  1
  Mn  Mn8  1  0.00000000  0.00000000  0.50000000  1
  Ni  Ni9  1  0.75080500  0.25150800  0.75035200  1
  Ni  Ni10  1  0.24919500  0.74849200  0.24964800  1
  Ni  Ni11  1  0.62163000  0.37861800  0.37374200  1
  Ni  Ni12  1  0.37837000  0.62138200  0.62625800  1
  Ni  Ni13  1  0.87620100  0.12485200  0.12567500  1
  Ni  Ni14  1  0.50000000  0.50000000  0.00000000  1
  Ni  Ni15  1  0.12379900  0.87514800  0.87432500  1
  O  O16  1  0.86438400  0.91085100  0.77309600  1
  O  O17  1  0.48004200  0.29060800  0.63563100  1
  O  O18  1  0.90573700  0.32247100  0.46600300  1
  O  O19  1  0.63856100  0.58680600  0.73308300  1
  O  O20  1  0.25828700  0.96537800  0.60160100  1
  O  O21  1  0.74171300  0.03462200  0.39839900  1
  O  O22  1  0.36143900  0.41319400  0.26691700  1
  O  O23  1  0.74993300  0.47123900  0.10372400  1
  O  O24  1  0.09426300  0.67752900  0.53399700  1
  O  O25  1  0.51995800  0.70939200  0.36436900  1
  O  O26  1  0.13561600  0.08914900  0.22690400  1
  O  O27  1  0.60182900  0.18146600  0.03488900  1
  O  O28  1  0.25006700  0.52876100  0.89627600  1
  O  O29  1  0.97838600  0.78873600  0.13579200  1
  O  O30  1  0.39817100  0.81853400  0.96511100  1
  O  O31  1  0.02161400  0.21126400  0.86420800  1
