# generated using pymatgen
data_Li4TiO4
_symmetry_space_group_name_H-M   'P 1'
_cell_length_a   9.54164600
_cell_length_b   9.20675600
_cell_length_c   9.31037753
_cell_angle_alpha   89.35249631
_cell_angle_beta   90.00000000
_cell_angle_gamma   90.00000000
_symmetry_Int_Tables_number   1
_chemical_formula_structural   Li4TiO4
_chemical_formula_sum   'Li32 Ti8 O32'
_cell_volume   817.84215415
_cell_formula_units_Z   8
loop_
 _symmetry_equiv_pos_site_id
 _symmetry_equiv_pos_as_xyz
  1  'x, y, z'
loop_
 _atom_site_type_symbol
 _atom_site_label
 _atom_site_symmetry_multiplicity
 _atom_site_fract_x
 _atom_site_fract_y
 _atom_site_fract_z
 _atom_site_occupancy
  Li  Li0  1  0.13928500  0.84284100  0.39115100  1
  Li  Li1  1  0.86071500  0.84284100  0.89115100  1
  Li  Li2  1  0.39772200  0.78892800  0.91882500  1
  Li  Li3  1  0.60227800  0.78892800  0.41882500  1
  Li  Li4  1  0.88881800  0.63394400  0.09645200  1
  Li  Li5  1  0.11118200  0.63394400  0.59645200  1
  Li  Li6  1  0.11865500  0.64803600  0.85394700  1
  Li  Li7  1  0.88134500  0.64803600  0.35394700  1
  Li  Li8  1  0.35098700  0.64579900  0.32067600  1
  Li  Li9  1  0.64901300  0.64579900  0.82067600  1
  Li  Li10  1  0.14299900  0.59695800  0.12721900  1
  Li  Li11  1  0.85700100  0.59695800  0.62721900  1
  Li  Li12  1  0.64061300  0.44817600  0.38163000  1
  Li  Li13  1  0.35938700  0.44817600  0.88163000  1
  Li  Li14  1  0.16027400  0.35534300  0.68152600  1
  Li  Li15  1  0.83972600  0.35534300  0.18152600  1
  Li  Li16  1  0.60012400  0.36941900  0.63371800  1
  Li  Li17  1  0.39987600  0.36941900  0.13371800  1
  Li  Li18  1  0.62294700  0.35726300  0.90574800  1
  Li  Li19  1  0.37705300  0.35726300  0.40574800  1
  Li  Li20  1  0.13319500  0.33584200  0.10295400  1
  Li  Li21  1  0.86680500  0.33584200  0.60295400  1
  Li  Li22  1  0.64467500  0.09287600  0.08031300  1
  Li  Li23  1  0.35532500  0.09287600  0.58031300  1
  Li  Li24  1  0.87926800  0.13019800  0.39907300  1
  Li  Li25  1  0.12073200  0.13019800  0.89907300  1
  Li  Li26  1  0.09957200  0.10224500  0.63846600  1
  Li  Li27  1  0.90042800  0.10224500  0.13846600  1
  Li  Li28  1  0.61609900  0.05433500  0.68186800  1
  Li  Li29  1  0.38390100  0.05433500  0.18186800  1
  Li  Li30  1  0.12965200  0.09988900  0.35964300  1
  Li  Li31  1  0.87034800  0.09988900  0.85964300  1
  Ti  Ti32  1  0.11010000  0.87193700  0.10615200  1
  Ti  Ti33  1  0.88990000  0.87193700  0.60615200  1
  Ti  Ti34  1  0.62174000  0.62172400  0.11953200  1
  Ti  Ti35  1  0.37826000  0.62172400  0.61953200  1
  Ti  Ti36  1  0.10251400  0.37932200  0.38405300  1
  Ti  Ti37  1  0.89748600  0.37932200  0.88405300  1
  Ti  Ti38  1  0.61313700  0.14527000  0.38048200  1
  Ti  Ti39  1  0.38686300  0.14527000  0.88048200  1
  O  O40  1  0.00922600  0.99236600  0.49560100  1
  O  O41  1  0.99077400  0.99236600  0.99560100  1
  O  O42  1  0.20978700  0.97621500  0.23489100  1
  O  O43  1  0.79021300  0.97621500  0.73489100  1
  O  O44  1  0.21539700  0.74620800  0.00123400  1
  O  O45  1  0.78460300  0.74620800  0.50123400  1
  O  O46  1  0.01951200  0.73703200  0.22018300  1
  O  O47  1  0.98048800  0.73703200  0.72018300  1
  O  O48  1  0.51624400  0.71936200  0.24443400  1
  O  O49  1  0.48375600  0.71936200  0.74443400  1
  O  O50  1  0.73655300  0.71847300  0.99164600  1
  O  O51  1  0.26344700  0.71847300  0.49164600  1
  O  O52  1  0.75854600  0.52610500  0.23109000  1
  O  O53  1  0.24145400  0.52610500  0.73109000  1
  O  O54  1  0.48553600  0.49432000  0.50963300  1
  O  O55  1  0.51446400  0.49432000  0.00963300  1
  O  O56  1  0.00852100  0.48613600  0.00342800  1
  O  O57  1  0.99147900  0.48613600  0.50342800  1
  O  O58  1  0.23260700  0.46183600  0.26066600  1
  O  O59  1  0.76739300  0.46183600  0.76066600  1
  O  O60  1  0.20451400  0.25335100  0.49591300  1
  O  O61  1  0.79548600  0.25335100  0.99591300  1
  O  O62  1  0.00391400  0.25502600  0.26829900  1
  O  O63  1  0.99608600  0.25502600  0.76829900  1
  O  O64  1  0.48438800  0.24636500  0.27343900  1
  O  O65  1  0.51561200  0.24636500  0.77343900  1
  O  O66  1  0.72231400  0.27001100  0.48782200  1
  O  O67  1  0.27768600  0.27001100  0.98782200  1
  O  O68  1  0.74356300  0.06904200  0.25898800  1
  O  O69  1  0.25643700  0.06904200  0.75898800  1
  O  O70  1  0.47631800  0.02080900  0.00277900  1
  O  O71  1  0.52368200  0.02080900  0.50277900  1
