# generated using pymatgen
data_Li2MnCr3O8
_symmetry_space_group_name_H-M   'P 1'
_cell_length_a   8.38360944
_cell_length_b   8.38360944
_cell_length_c   8.34946000
_cell_angle_alpha   90.00000000
_cell_angle_beta   90.00000000
_cell_angle_gamma   90.52021642
_symmetry_Int_Tables_number   1
_chemical_formula_structural   Li2MnCr3O8
_chemical_formula_sum   'Li8 Mn4 Cr12 O32'
_cell_volume   586.81683326
_cell_formula_units_Z   4
loop_
 _symmetry_equiv_pos_site_id
 _symmetry_equiv_pos_as_xyz
  1  'x, y, z'
loop_
 _atom_site_type_symbol
 _atom_site_label
 _atom_site_symmetry_multiplicity
 _atom_site_fract_x
 _atom_site_fract_y
 _atom_site_fract_z
 _atom_site_occupancy
  Li  Li0  1  0.74942000  0.49948400  0.62473100  1
  Li  Li1  1  0.50051600  0.25058000  0.87526900  1
  Li  Li2  1  0.99929200  0.75029000  0.87741300  1
  Li  Li3  1  0.75029000  0.99929200  0.12258700  1
  Li  Li4  1  0.25058000  0.50051600  0.12473100  1
  Li  Li5  1  0.49948400  0.74942000  0.37526900  1
  Li  Li6  1  0.00070800  0.24971000  0.37741300  1
  Li  Li7  1  0.24971000  0.00070800  0.62258700  1
  Mn  Mn8  1  0.87499600  0.12500400  0.75000000  1
  Mn  Mn9  1  0.62516900  0.62516900  0.00000000  1
  Mn  Mn10  1  0.12500400  0.87499600  0.25000000  1
  Mn  Mn11  1  0.37483100  0.37483100  0.50000000  1
  Cr  Cr12  1  0.62549200  0.87548000  0.74917900  1
  Cr  Cr13  1  0.37675100  0.62324900  0.75000000  1
  Cr  Cr14  1  0.12452000  0.37450800  0.75082100  1
  Cr  Cr15  1  0.37664900  0.87449600  0.00181500  1
  Cr  Cr16  1  0.12499600  0.12499600  0.00000000  1
  Cr  Cr17  1  0.87449600  0.37664900  0.99818500  1
  Cr  Cr18  1  0.37450800  0.12452000  0.24917900  1
  Cr  Cr19  1  0.62324900  0.37675100  0.25000000  1
  Cr  Cr20  1  0.87548000  0.62549200  0.25082100  1
  Cr  Cr21  1  0.62335100  0.12550400  0.50181500  1
  Cr  Cr22  1  0.87500400  0.87500400  0.50000000  1
  Cr  Cr23  1  0.12550400  0.62335100  0.49818500  1
  O  O24  1  0.64263200  0.10861000  0.74690300  1
  O  O25  1  0.86341300  0.89202900  0.74123400  1
  O  O26  1  0.13693500  0.60372100  0.74134300  1
  O  O27  1  0.61860500  0.64175200  0.76654300  1
  O  O28  1  0.35824800  0.38139500  0.73345700  1
  O  O29  1  0.39627900  0.86306500  0.75865700  1
  O  O30  1  0.10797100  0.13658700  0.75876600  1
  O  O31  1  0.89139000  0.35736800  0.75309700  1
  O  O32  1  0.61475500  0.86005000  0.98491700  1
  O  O33  1  0.39447800  0.63469600  0.99059500  1
  O  O34  1  0.11268400  0.36709700  0.97895300  1
  O  O35  1  0.13677400  0.88547600  0.01838000  1
  O  O36  1  0.88547600  0.13677400  0.98162000  1
  O  O37  1  0.36709700  0.11268400  0.02104700  1
  O  O38  1  0.63469600  0.39447800  0.00940500  1
  O  O39  1  0.86005000  0.61475500  0.01508300  1
  O  O40  1  0.35736800  0.89139000  0.24690300  1
  O  O41  1  0.13658700  0.10797100  0.24123400  1
  O  O42  1  0.86306500  0.39627900  0.24134300  1
  O  O43  1  0.38139500  0.35824800  0.26654300  1
  O  O44  1  0.64175200  0.61860500  0.23345700  1
  O  O45  1  0.60372100  0.13693500  0.25865700  1
  O  O46  1  0.89202900  0.86341300  0.25876600  1
  O  O47  1  0.10861000  0.64263200  0.25309700  1
  O  O48  1  0.38524500  0.13995000  0.48491700  1
  O  O49  1  0.60552200  0.36530400  0.49059500  1
  O  O50  1  0.88731600  0.63290300  0.47895300  1
  O  O51  1  0.86322600  0.11452400  0.51838000  1
  O  O52  1  0.11452400  0.86322600  0.48162000  1
  O  O53  1  0.63290300  0.88731600  0.52104700  1
  O  O54  1  0.36530400  0.60552200  0.50940500  1
  O  O55  1  0.13995000  0.38524500  0.51508300  1
