# generated using pymatgen
data_LiMnO2
_symmetry_space_group_name_H-M   'P 1'
_cell_length_a   5.95948263
_cell_length_b   5.95948263
_cell_length_c   5.91679459
_cell_angle_alpha   60.29294375
_cell_angle_beta   60.29294375
_cell_angle_gamma   59.59160903
_symmetry_Int_Tables_number   1
_chemical_formula_structural   LiMnO2
_chemical_formula_sum   'Li4 Mn4 O8'
_cell_volume   148.77414924
_cell_formula_units_Z   4
loop_
 _symmetry_equiv_pos_site_id
 _symmetry_equiv_pos_as_xyz
  1  'x, y, z'
loop_
 _atom_site_type_symbol
 _atom_site_label
 _atom_site_symmetry_multiplicity
 _atom_site_fract_x
 _atom_site_fract_y
 _atom_site_fract_z
 _atom_site_occupancy
  Li  Li0  1  0.50000000  0.50000000  0.00000000  1
  Li  Li1  1  0.00000000  0.50000000  0.00000000  1
  Li  Li2  1  0.50000000  0.00000000  0.00000000  1
  Li  Li3  1  0.00000000  0.00000000  0.50000000  1
  Mn  Mn4  1  0.00000000  0.00000000  0.00000000  1
  Mn  Mn5  1  0.50000000  0.00000000  0.50000000  1
  Mn  Mn6  1  0.00000000  0.50000000  0.50000000  1
  Mn  Mn7  1  0.50000000  0.50000000  0.50000000  1
  O  O8  1  0.75006500  0.75006500  0.71495700  1
  O  O9  1  0.23049400  0.74111400  0.25896000  1
  O  O10  1  0.74111400  0.23049400  0.25896000  1
  O  O11  1  0.24993500  0.24993500  0.28504300  1
  O  O12  1  0.25889100  0.25889100  0.75371000  1
  O  O13  1  0.76950600  0.25888600  0.74104000  1
  O  O14  1  0.25888600  0.76950600  0.74104000  1
  O  O15  1  0.74110900  0.74110900  0.24629000  1
