# generated using pymatgen
data_Li2CrSiO4
_symmetry_space_group_name_H-M   'P 1'
_cell_length_a   4.74509200
_cell_length_b   7.11138000
_cell_length_c   10.64634303
_cell_angle_alpha   88.61751382
_cell_angle_beta   90.00000000
_cell_angle_gamma   90.00000000
_symmetry_Int_Tables_number   1
_chemical_formula_structural   Li2CrSiO4
_chemical_formula_sum   'Li8 Cr4 Si4 O16'
_cell_volume   359.14724700
_cell_formula_units_Z   4
loop_
 _symmetry_equiv_pos_site_id
 _symmetry_equiv_pos_as_xyz
  1  'x, y, z'
loop_
 _atom_site_type_symbol
 _atom_site_label
 _atom_site_symmetry_multiplicity
 _atom_site_fract_x
 _atom_site_fract_y
 _atom_site_fract_z
 _atom_site_occupancy
  Li  Li0  1  0.69200600  0.00021400  0.58275300  1
  Li  Li1  1  0.80799400  0.00021400  0.08275300  1
  Li  Li2  1  0.18206500  0.80986700  0.67258600  1
  Li  Li3  1  0.31793500  0.80986700  0.17258600  1
  Li  Li4  1  0.68206500  0.19013300  0.82741400  1
  Li  Li5  1  0.81793500  0.19013300  0.32741400  1
  Li  Li6  1  0.19200600  0.99978600  0.91724700  1
  Li  Li7  1  0.30799400  0.99978600  0.41724700  1
  Cr  Cr8  1  0.22031300  0.49631400  0.88558200  1
  Cr  Cr9  1  0.27968700  0.49631400  0.38558200  1
  Cr  Cr10  1  0.72031300  0.50368600  0.61441800  1
  Cr  Cr11  1  0.77968700  0.50368600  0.11441800  1
  Si  Si12  1  0.67638800  0.76693800  0.83567300  1
  Si  Si13  1  0.82361200  0.76693800  0.33567300  1
  Si  Si14  1  0.17638800  0.23306200  0.66432700  1
  Si  Si15  1  0.32361200  0.23306200  0.16432700  1
  O  O16  1  0.78723200  0.95325900  0.90414000  1
  O  O17  1  0.71276800  0.95325900  0.40414000  1
  O  O18  1  0.32703100  0.76429800  0.84424000  1
  O  O19  1  0.17296900  0.76429800  0.34424000  1
  O  O20  1  0.76791000  0.76832300  0.68426500  1
  O  O21  1  0.73209000  0.76832300  0.18426500  1
  O  O22  1  0.77294400  0.55552500  0.89719200  1
  O  O23  1  0.72705600  0.55552500  0.39719200  1
  O  O24  1  0.27294400  0.44447500  0.60280800  1
  O  O25  1  0.22705600  0.44447500  0.10280800  1
  O  O26  1  0.26791000  0.23167700  0.81573500  1
  O  O27  1  0.23209000  0.23167700  0.31573500  1
  O  O28  1  0.82703100  0.23570200  0.65576000  1
  O  O29  1  0.67296900  0.23570200  0.15576000  1
  O  O30  1  0.28723200  0.04674100  0.59586000  1
  O  O31  1  0.21276800  0.04674100  0.09586000  1
