# generated using pymatgen
data_LiMn2O3F
_symmetry_space_group_name_H-M   'P 1'
_cell_length_a   4.93838700
_cell_length_b   5.79634800
_cell_length_c   10.38303500
_cell_angle_alpha   90.00000000
_cell_angle_beta   90.00000000
_cell_angle_gamma   90.00000000
_symmetry_Int_Tables_number   1
_chemical_formula_structural   LiMn2O3F
_chemical_formula_sum   'Li4 Mn8 O12 F4'
_cell_volume   297.21032345
_cell_formula_units_Z   4
loop_
 _symmetry_equiv_pos_site_id
 _symmetry_equiv_pos_as_xyz
  1  'x, y, z'
loop_
 _atom_site_type_symbol
 _atom_site_label
 _atom_site_symmetry_multiplicity
 _atom_site_fract_x
 _atom_site_fract_y
 _atom_site_fract_z
 _atom_site_occupancy
  Li  Li0  1  0.96868400  0.75469300  0.41216500  1
  Li  Li1  1  0.53131600  0.75469300  0.91216500  1
  Li  Li2  1  0.46868400  0.25469300  0.08783500  1
  Li  Li3  1  0.03131600  0.25469300  0.58783500  1
  Mn  Mn4  1  0.98124600  0.00646300  0.99025900  1
  Mn  Mn5  1  0.01875400  0.50646300  0.00974100  1
  Mn  Mn6  1  0.04101200  0.24334100  0.26819500  1
  Mn  Mn7  1  0.45898800  0.24334100  0.76819500  1
  Mn  Mn8  1  0.48124600  0.50646300  0.50974100  1
  Mn  Mn9  1  0.51875400  0.00646300  0.49025900  1
  Mn  Mn10  1  0.54101200  0.74334100  0.23180500  1
  Mn  Mn11  1  0.95898800  0.74334100  0.73180500  1
  O  O12  1  0.73712600  0.74988300  0.57016600  1
  O  O13  1  0.77784400  0.99442700  0.32345500  1
  O  O14  1  0.84330500  0.25290500  0.09697800  1
  O  O15  1  0.65669500  0.25290500  0.59697800  1
  O  O16  1  0.72215600  0.99442700  0.82345500  1
  O  O17  1  0.76287400  0.74988300  0.07016600  1
  O  O18  1  0.23712600  0.24988300  0.92983400  1
  O  O19  1  0.27784400  0.49442700  0.17654500  1
  O  O20  1  0.34330500  0.75290500  0.40302200  1
  O  O21  1  0.15669500  0.75290500  0.90302200  1
  O  O22  1  0.22215600  0.49442700  0.67654500  1
  O  O23  1  0.26287400  0.24988300  0.42983400  1
  F  F24  1  0.78310500  0.49828900  0.34513300  1
  F  F25  1  0.71689500  0.49828900  0.84513300  1
  F  F26  1  0.28310500  0.99828900  0.15486700  1
  F  F27  1  0.21689500  0.99828900  0.65486700  1
