# generated using pymatgen
data_Li3Cr3(CoO6)2
_symmetry_space_group_name_H-M   'P 1'
_cell_length_a   9.25763200
_cell_length_b   8.78147700
_cell_length_c   15.05285934
_cell_angle_alpha   55.72989020
_cell_angle_beta   90.00000000
_cell_angle_gamma   90.00000000
_symmetry_Int_Tables_number   1
_chemical_formula_structural   Li3Cr3(CoO6)2
_chemical_formula_sum   'Li12 Cr12 Co8 O48'
_cell_volume   1011.28292646
_cell_formula_units_Z   4
loop_
 _symmetry_equiv_pos_site_id
 _symmetry_equiv_pos_as_xyz
  1  'x, y, z'
loop_
 _atom_site_type_symbol
 _atom_site_label
 _atom_site_symmetry_multiplicity
 _atom_site_fract_x
 _atom_site_fract_y
 _atom_site_fract_z
 _atom_site_occupancy
  Li  Li0  1  0.91338000  0.38100800  0.69677200  1
  Li  Li1  1  0.49127500  0.71772600  0.34264600  1
  Li  Li2  1  0.22818800  0.98665800  0.17911600  1
  Li  Li3  1  0.72818800  0.01334200  0.32088400  1
  Li  Li4  1  0.41338000  0.61899200  0.80322800  1
  Li  Li5  1  0.99127500  0.28227400  0.15735400  1
  Li  Li6  1  0.00872500  0.71772600  0.84264600  1
  Li  Li7  1  0.58662000  0.38100800  0.19677200  1
  Li  Li8  1  0.27181200  0.98665800  0.67911600  1
  Li  Li9  1  0.77181200  0.01334200  0.82088400  1
  Li  Li10  1  0.50872500  0.28227400  0.65735400  1
  Li  Li11  1  0.08662000  0.61899200  0.30322800  1
  Cr  Cr12  1  0.75127400  0.55054000  0.49188000  1
  Cr  Cr13  1  0.61862200  0.26633000  0.85159900  1
  Cr  Cr14  1  0.88717000  0.97031800  0.14594200  1
  Cr  Cr15  1  0.11862200  0.73367000  0.64840100  1
  Cr  Cr16  1  0.38717000  0.02968200  0.35405800  1
  Cr  Cr17  1  0.25127400  0.44946000  0.00812000  1
  Cr  Cr18  1  0.74872600  0.55054000  0.99188000  1
  Cr  Cr19  1  0.61283000  0.97031800  0.64594200  1
  Cr  Cr20  1  0.88137800  0.26633000  0.35159900  1
  Cr  Cr21  1  0.11283000  0.02968200  0.85405800  1
  Cr  Cr22  1  0.38137800  0.73367000  0.14840100  1
  Cr  Cr23  1  0.24872600  0.44946000  0.50812000  1
  Co  Co24  1  0.96962200  0.35309400  0.88939400  1
  Co  Co25  1  0.46962200  0.64690600  0.61060600  1
  Co  Co26  1  0.03351100  0.87893900  0.38349200  1
  Co  Co27  1  0.53351100  0.12106100  0.11650800  1
  Co  Co28  1  0.46648900  0.87893900  0.88349200  1
  Co  Co29  1  0.96648900  0.12106100  0.61650800  1
  Co  Co30  1  0.53037800  0.35309400  0.38939400  1
  Co  Co31  1  0.03037800  0.64690600  0.11060600  1
  O  O32  1  0.12251600  0.61275700  0.44352200  1
  O  O33  1  0.11706500  0.15141500  0.90608700  1
  O  O34  1  0.33449700  0.45417400  0.60433000  1
  O  O35  1  0.42306100  0.87649000  0.19444600  1
  O  O36  1  0.63282800  0.51141500  0.58670300  1
  O  O37  1  0.80789600  0.28087200  0.83343900  1
  O  O38  1  0.58609600  0.14923100  0.98324300  1
  O  O39  1  0.01160500  0.87541700  0.24604200  1
  O  O40  1  0.72641900  0.97932000  0.19422300  1
  O  O41  1  0.82305500  0.75996100  0.43537200  1
  O  O42  1  0.52947100  0.47108900  0.77284500  1
  O  O43  1  0.02947100  0.52891100  0.72715500  1
  O  O44  1  0.94443100  0.18728900  0.05686200  1
  O  O45  1  0.44443100  0.81271100  0.44313800  1
  O  O46  1  0.32305500  0.24003900  0.06462800  1
  O  O47  1  0.22641900  0.02068000  0.30577700  1
  O  O48  1  0.08609600  0.85076900  0.51675700  1
  O  O49  1  0.51160500  0.12458300  0.25395800  1
  O  O50  1  0.30789600  0.71912800  0.66656100  1
  O  O51  1  0.13282800  0.48858500  0.91329700  1
  O  O52  1  0.83449700  0.54582600  0.89567000  1
  O  O53  1  0.61706500  0.84858500  0.59391300  1
  O  O54  1  0.92306100  0.12351000  0.30555400  1
  O  O55  1  0.62251600  0.38724300  0.05647800  1
  O  O56  1  0.37748400  0.61275700  0.94352200  1
  O  O57  1  0.07693900  0.87649000  0.69444600  1
  O  O58  1  0.38293500  0.15141500  0.40608700  1
  O  O59  1  0.16550300  0.45417400  0.10433000  1
  O  O60  1  0.86717200  0.51141500  0.08670300  1
  O  O61  1  0.69210400  0.28087200  0.33343900  1
  O  O62  1  0.48839500  0.87541700  0.74604200  1
  O  O63  1  0.91390400  0.14923100  0.48324300  1
  O  O64  1  0.77358100  0.97932000  0.69422300  1
  O  O65  1  0.67694500  0.75996100  0.93537200  1
  O  O66  1  0.55556900  0.18728900  0.55686200  1
  O  O67  1  0.05556900  0.81271100  0.94313800  1
  O  O68  1  0.97052900  0.47108900  0.27284500  1
  O  O69  1  0.47052900  0.52891100  0.22715500  1
  O  O70  1  0.17694500  0.24003900  0.56462800  1
  O  O71  1  0.27358100  0.02068000  0.80577700  1
  O  O72  1  0.98839500  0.12458300  0.75395800  1
  O  O73  1  0.41390400  0.85076900  0.01675700  1
  O  O74  1  0.19210400  0.71912800  0.16656100  1
  O  O75  1  0.36717200  0.48858500  0.41329700  1
  O  O76  1  0.57693900  0.12351000  0.80555400  1
  O  O77  1  0.66550300  0.54582600  0.39567000  1
  O  O78  1  0.88293500  0.84858500  0.09391300  1
  O  O79  1  0.87748400  0.38724300  0.55647800  1
