# generated using pymatgen
data_Li3Sb3P8O29
_symmetry_space_group_name_H-M   'P 1'
_cell_length_a   9.75664941
_cell_length_b   9.75664941
_cell_length_c   14.49297511
_cell_angle_alpha   89.34373927
_cell_angle_beta   89.34373927
_cell_angle_gamma   60.66179367
_symmetry_Int_Tables_number   1
_chemical_formula_structural   Li3Sb3P8O29
_chemical_formula_sum   'Li6 Sb6 P16 O58'
_cell_volume   1202.56634648
_cell_formula_units_Z   2
loop_
 _symmetry_equiv_pos_site_id
 _symmetry_equiv_pos_as_xyz
  1  'x, y, z'
loop_
 _atom_site_type_symbol
 _atom_site_label
 _atom_site_symmetry_multiplicity
 _atom_site_fract_x
 _atom_site_fract_y
 _atom_site_fract_z
 _atom_site_occupancy
  Li  Li0  1  0.00000000  0.00000000  0.00000000  1
  Li  Li1  1  0.00000000  0.00000000  0.50000000  1
  Li  Li2  1  0.89758100  0.33391300  0.45055600  1
  Li  Li3  1  0.33391300  0.89758100  0.95055600  1
  Li  Li4  1  0.66608700  0.10241900  0.04944400  1
  Li  Li5  1  0.10241900  0.66608700  0.54944400  1
  Sb  Sb6  1  0.99750900  0.56430600  0.75835200  1
  Sb  Sb7  1  0.00249100  0.43569400  0.24164800  1
  Sb  Sb8  1  0.56430600  0.99750900  0.25835200  1
  Sb  Sb9  1  0.43569400  0.00249100  0.74164800  1
  Sb  Sb10  1  0.55897000  0.44103000  0.75000000  1
  Sb  Sb11  1  0.44103000  0.55897000  0.25000000  1
  P  P12  1  0.91811600  0.78823100  0.15985200  1
  P  P13  1  0.78823100  0.91811600  0.65985200  1
  P  P14  1  0.91330300  0.31073000  0.65758300  1
  P  P15  1  0.67233800  0.65875400  0.36783200  1
  P  P16  1  0.65875400  0.67233800  0.86783200  1
  P  P17  1  0.78046800  0.29973400  0.15575800  1
  P  P18  1  0.70026600  0.21953200  0.34424200  1
  P  P19  1  0.31073000  0.91330300  0.15758300  1
  P  P20  1  0.68927000  0.08669700  0.84241700  1
  P  P21  1  0.29973400  0.78046800  0.65575800  1
  P  P22  1  0.21953200  0.70026600  0.84424200  1
  P  P23  1  0.32766200  0.34124600  0.63216800  1
  P  P24  1  0.34124600  0.32766200  0.13216800  1
  P  P25  1  0.08669700  0.68927000  0.34241700  1
  P  P26  1  0.21176900  0.08188400  0.34014800  1
  P  P27  1  0.08188400  0.21176900  0.84014800  1
  O  O28  1  0.98975500  0.80026400  0.25756900  1
  O  O29  1  0.01591900  0.76802600  0.43120800  1
  O  O30  1  0.92149100  0.74093500  0.66555500  1
  O  O31  1  0.80026400  0.98975500  0.75756900  1
  O  O32  1  0.76802600  0.01591900  0.93120800  1
  O  O33  1  0.74093500  0.92149100  0.16555500  1
  O  O34  1  0.92110300  0.62537000  0.15959100  1
  O  O35  1  0.80143000  0.68954900  0.82899900  1
  O  O36  1  0.91054700  0.47105200  0.67017100  1
  O  O37  1  0.00488400  0.17891000  0.91840300  1
  O  O38  1  0.01024500  0.19973600  0.74243100  1
  O  O39  1  0.91799900  0.33769400  0.15574100  1
  O  O40  1  0.68954900  0.80143000  0.32899900  1
  O  O41  1  0.62537000  0.92110300  0.65959100  1
  O  O42  1  0.81200500  0.50559200  0.32131700  1
  O  O43  1  0.68096800  0.64002100  0.46908600  1
  O  O44  1  0.64002100  0.68096800  0.96908600  1
  O  O45  1  0.67881500  0.51899800  0.82081800  1
  O  O46  1  0.47105200  0.91054700  0.17017100  1
  O  O47  1  0.50559200  0.81200500  0.82131700  1
  O  O48  1  0.74197100  0.34072300  0.66578500  1
  O  O49  1  0.79587300  0.20412700  0.25000000  1
  O  O50  1  0.80184600  0.20594000  0.42322700  1
  O  O51  1  0.79406000  0.19815400  0.07677300  1
  O  O52  1  0.62186000  0.45791200  0.16138500  1
  O  O53  1  0.51899800  0.67881500  0.32081800  1
  O  O54  1  0.65927700  0.25802900  0.83421500  1
  O  O55  1  0.45791200  0.62186000  0.66138500  1
  O  O56  1  0.33769400  0.91799900  0.65574100  1
  O  O57  1  0.82109000  0.99511600  0.58159700  1
  O  O58  1  0.17891000  0.00488400  0.41840300  1
  O  O59  1  0.19973600  0.01024500  0.24243100  1
  O  O60  1  0.66230600  0.08200100  0.34425900  1
  O  O61  1  0.54208800  0.37814000  0.33861500  1
  O  O62  1  0.34072300  0.74197100  0.16578500  1
  O  O63  1  0.48100200  0.32118500  0.67918200  1
  O  O64  1  0.37814000  0.54208800  0.83861500  1
  O  O65  1  0.20594000  0.80184600  0.92322700  1
  O  O66  1  0.19815400  0.79406000  0.57677300  1
  O  O67  1  0.20412700  0.79587300  0.75000000  1
  O  O68  1  0.25802900  0.65927700  0.33421500  1
  O  O69  1  0.49440800  0.18799500  0.17868300  1
  O  O70  1  0.52894800  0.08945300  0.82982900  1
  O  O71  1  0.32118500  0.48100200  0.17918200  1
  O  O72  1  0.31903200  0.35997900  0.53091400  1
  O  O73  1  0.35997900  0.31903200  0.03091400  1
  O  O74  1  0.18799500  0.49440800  0.67868300  1
  O  O75  1  0.37463000  0.07889700  0.34040900  1
  O  O76  1  0.31045100  0.19857000  0.67100100  1
  O  O77  1  0.08200100  0.66230600  0.84425900  1
  O  O78  1  0.99511600  0.82109000  0.08159700  1
  O  O79  1  0.08945300  0.52894800  0.32982900  1
  O  O80  1  0.19857000  0.31045100  0.17100100  1
  O  O81  1  0.07889700  0.37463000  0.84040900  1
  O  O82  1  0.25906500  0.07850900  0.83444500  1
  O  O83  1  0.23197400  0.98408100  0.06879200  1
  O  O84  1  0.07850900  0.25906500  0.33444500  1
  O  O85  1  0.98408100  0.23197400  0.56879200  1
