# generated using pymatgen
data_LiVP4(H2O3)6
_symmetry_space_group_name_H-M   'P 1'
_cell_length_a   7.34928167
_cell_length_b   7.34928167
_cell_length_c   14.24585900
_cell_angle_alpha   86.00400497
_cell_angle_beta   86.00400497
_cell_angle_gamma   109.86250857
_symmetry_Int_Tables_number   1
_chemical_formula_structural   LiVP4(H2O3)6
_chemical_formula_sum   'Li2 V2 P8 H24 O36'
_cell_volume   718.33006553
_cell_formula_units_Z   2
loop_
 _symmetry_equiv_pos_site_id
 _symmetry_equiv_pos_as_xyz
  1  'x, y, z'
loop_
 _atom_site_type_symbol
 _atom_site_label
 _atom_site_symmetry_multiplicity
 _atom_site_fract_x
 _atom_site_fract_y
 _atom_site_fract_z
 _atom_site_occupancy
  Li  Li0  1  0.46558900  0.53441100  0.25000000  1
  Li  Li1  1  0.53441100  0.46558900  0.75000000  1
  V  V2  1  0.86406000  0.13594000  0.25000000  1
  V  V3  1  0.13594000  0.86406000  0.75000000  1
  P  P4  1  0.98291000  0.81207300  0.40413700  1
  P  P5  1  0.81207300  0.98291000  0.90413700  1
  P  P6  1  0.79813600  0.71901500  0.07745700  1
  P  P7  1  0.71901500  0.79813600  0.57745700  1
  P  P8  1  0.28098500  0.20186400  0.42254300  1
  P  P9  1  0.20186400  0.28098500  0.92254300  1
  P  P10  1  0.18792700  0.01709000  0.09586300  1
  P  P11  1  0.01709000  0.18792700  0.59586300  1
  H  H12  1  0.48239100  0.99539000  0.23041500  1
  H  H13  1  0.99539000  0.48239100  0.73041500  1
  H  H14  1  0.51721600  0.87321200  0.32166500  1
  H  H15  1  0.87321200  0.51721600  0.82166500  1
  H  H16  1  0.89058100  0.38181100  0.38708900  1
  H  H17  1  0.38181100  0.89058100  0.88708900  1
  H  H18  1  0.46615500  0.68809500  0.43536400  1
  H  H19  1  0.68809500  0.46615500  0.93536400  1
  H  H20  1  0.34781800  0.72182000  0.12035300  1
  H  H21  1  0.77016200  0.32766400  0.09935000  1
  H  H22  1  0.72182000  0.34781800  0.62035300  1
  H  H23  1  0.32766400  0.77016200  0.59935000  1
  H  H24  1  0.67233600  0.22983800  0.40065000  1
  H  H25  1  0.27818000  0.65218200  0.37964700  1
  H  H26  1  0.22983800  0.67233600  0.90065000  1
  H  H27  1  0.65218200  0.27818000  0.87964700  1
  H  H28  1  0.31190500  0.53384500  0.06463600  1
  H  H29  1  0.53384500  0.31190500  0.56463600  1
  H  H30  1  0.61818900  0.10941900  0.11291100  1
  H  H31  1  0.10941900  0.61818900  0.61291100  1
  H  H32  1  0.12678800  0.48278400  0.17833500  1
  H  H33  1  0.48278400  0.12678800  0.67833500  1
  H  H34  1  0.00461000  0.51760900  0.26958500  1
  H  H35  1  0.51760900  0.00461000  0.76958500  1
  O  O36  1  0.88573000  0.91288600  0.33972400  1
  O  O37  1  0.91288600  0.88573000  0.83972400  1
  O  O38  1  0.72026900  0.73545800  0.17512000  1
  O  O39  1  0.73545800  0.72026900  0.67512000  1
  O  O40  1  0.72301800  0.84903400  0.00193300  1
  O  O41  1  0.84903400  0.72301800  0.50193300  1
  O  O42  1  0.56832100  0.00581300  0.28188200  1
  O  O43  1  0.00581300  0.56832100  0.78188200  1
  O  O44  1  0.35368600  0.96079100  0.12963900  1
  O  O45  1  0.75500200  0.52236900  0.04200200  1
  O  O46  1  0.96079100  0.35368600  0.62963900  1
  O  O47  1  0.52236900  0.75500200  0.54200200  1
  O  O48  1  0.41932700  0.67100600  0.37072300  1
  O  O49  1  0.17396900  0.96668800  0.43831400  1
  O  O50  1  0.67100600  0.41932700  0.87072300  1
  O  O51  1  0.96668800  0.17396900  0.93831400  1
  O  O52  1  0.80972300  0.24935800  0.37537200  1
  O  O53  1  0.24935800  0.80972300  0.87537200  1
  O  O54  1  0.75064200  0.19027700  0.12462800  1
  O  O55  1  0.19027700  0.75064200  0.62462800  1
  O  O56  1  0.03331200  0.82603100  0.06168600  1
  O  O57  1  0.32899400  0.58067300  0.12927700  1
  O  O58  1  0.82603100  0.03331200  0.56168600  1
  O  O59  1  0.58067300  0.32899400  0.62927700  1
  O  O60  1  0.47763100  0.24499800  0.45799800  1
  O  O61  1  0.03920900  0.64631400  0.37036100  1
  O  O62  1  0.24499800  0.47763100  0.95799800  1
  O  O63  1  0.64631400  0.03920900  0.87036100  1
  O  O64  1  0.99418700  0.43167900  0.21811800  1
  O  O65  1  0.43167900  0.99418700  0.71811800  1
  O  O66  1  0.15096600  0.27698200  0.49806700  1
  O  O67  1  0.27698200  0.15096600  0.99806700  1
  O  O68  1  0.26454200  0.27973100  0.32488000  1
  O  O69  1  0.27973100  0.26454200  0.82488000  1
  O  O70  1  0.08711400  0.11427000  0.16027600  1
  O  O71  1  0.11427000  0.08711400  0.66027600  1
