# generated using pymatgen
data_Li32Ti3Cr13O48
_symmetry_space_group_name_H-M   'P 1'
_cell_length_a   5.06604600
_cell_length_b   8.72442781
_cell_length_c   19.55797161
_cell_angle_alpha   98.25723622
_cell_angle_beta   95.08585857
_cell_angle_gamma   89.90572005
_symmetry_Int_Tables_number   1
_chemical_formula_structural   Li32Ti3Cr13O48
_chemical_formula_sum   'Li32 Ti3 Cr13 O48'
_cell_volume   852.04690930
_cell_formula_units_Z   1
loop_
 _symmetry_equiv_pos_site_id
 _symmetry_equiv_pos_as_xyz
  1  'x, y, z'
loop_
 _atom_site_type_symbol
 _atom_site_label
 _atom_site_symmetry_multiplicity
 _atom_site_fract_x
 _atom_site_fract_y
 _atom_site_fract_z
 _atom_site_occupancy
  Li  Li0  1  0.99354000  0.17117400  0.24998500  1
  Li  Li1  1  0.87429300  0.37538700  0.37491500  1
  Li  Li2  1  0.74711100  0.25130000  0.99981400  1
  Li  Li3  1  0.74181100  0.91898700  0.99991400  1
  Li  Li4  1  0.99400300  0.17118400  0.75052500  1
  Li  Li5  1  0.75940600  0.58056900  0.50021300  1
  Li  Li6  1  0.87532000  0.37579300  0.87526400  1
  Li  Li7  1  0.74175300  0.25293000  0.50008300  1
  Li  Li8  1  0.74566300  0.92004400  0.49941700  1
  Li  Li9  1  0.62631300  0.12500800  0.12482200  1
  Li  Li10  1  0.76211700  0.58157100  0.00012000  1
  Li  Li11  1  0.51046700  0.33068100  0.24967900  1
  Li  Li12  1  0.62597700  0.12571700  0.62506100  1
  Li  Li13  1  0.50071400  0.99932200  0.24976900  1
  Li  Li14  1  0.49194100  0.66896600  0.24932100  1
  Li  Li15  1  0.51403600  0.33159500  0.74980200  1
  Li  Li16  1  0.37378400  0.87535800  0.37557000  1
  Li  Li17  1  0.49895900  0.00038500  0.74943900  1
  Li  Li18  1  0.24945700  0.74922400  0.00049200  1
  Li  Li19  1  0.49031300  0.66710700  0.74909100  1
  Li  Li20  1  0.24141000  0.42026100  0.00025200  1
  Li  Li21  1  0.37624100  0.87497200  0.87482100  1
  Li  Li22  1  0.25606300  0.07803400  0.49974200  1
  Li  Li23  1  0.24973000  0.74934600  0.49987800  1
  Li  Li24  1  0.12565000  0.62495300  0.12515900  1
  Li  Li25  1  0.24420900  0.42092400  0.50045700  1
  Li  Li26  1  0.00866500  0.82956800  0.25055800  1
  Li  Li27  1  0.25629400  0.07927100  0.00058800  1
  Li  Li28  1  0.12695400  0.62498100  0.62442400  1
  Li  Li29  1  0.99344500  0.50101200  0.25017300  1
  Li  Li30  1  0.00735600  0.82964100  0.75104400  1
  Li  Li31  1  0.99210500  0.50095000  0.75064900  1
  Ti  Ti32  1  0.37542100  0.53800300  0.37318800  1
  Ti  Ti33  1  0.37643200  0.53905000  0.87577800  1
  Ti  Ti34  1  0.12798300  0.28909000  0.62646900  1
  Cr  Cr35  1  0.87016500  0.71132900  0.37509700  1
  Cr  Cr36  1  0.87887900  0.04702000  0.37583900  1
  Cr  Cr37  1  0.87637900  0.71251100  0.87539600  1
  Cr  Cr38  1  0.87400200  0.04759300  0.87473100  1
  Cr  Cr39  1  0.61962500  0.79369400  0.12411100  1
  Cr  Cr40  1  0.63043500  0.45713900  0.12577400  1
  Cr  Cr41  1  0.62261200  0.79750500  0.62425700  1
  Cr  Cr42  1  0.62801500  0.46200400  0.62488000  1
  Cr  Cr43  1  0.37544800  0.20251300  0.37477300  1
  Cr  Cr44  1  0.37340100  0.20270900  0.87494300  1
  Cr  Cr45  1  0.11777600  0.95593500  0.12398800  1
  Cr  Cr46  1  0.13244800  0.29353200  0.12605800  1
  Cr  Cr47  1  0.12216200  0.95255200  0.62477200  1
  O  O48  1  0.96616900  0.10446100  0.06877200  1
  O  O49  1  0.92960400  0.78574000  0.06899700  1
  O  O50  1  0.92767300  0.42329700  0.06818100  1
  O  O51  1  0.96448900  0.10356800  0.56886800  1
  O  O52  1  0.82093900  0.96122600  0.18127600  1
  O  O53  1  0.82177700  0.32283600  0.18226100  1
  O  O54  1  0.93564200  0.78796100  0.56892800  1
  O  O55  1  0.91986200  0.42858000  0.56751600  1
  O  O56  1  0.78326200  0.64228900  0.18052700  1
  O  O57  1  0.71667700  0.85576300  0.31978600  1
  O  O58  1  0.81562000  0.95985300  0.68161900  1
  O  O59  1  0.82543900  0.32102500  0.68360700  1
  O  O60  1  0.67535500  0.53314200  0.31731400  1
  O  O61  1  0.68396200  0.17284200  0.31727300  1
  O  O62  1  0.78252800  0.64183900  0.67966100  1
  O  O63  1  0.71374600  0.86045800  0.81931300  1
  O  O64  1  0.46711800  0.60851600  0.06894100  1
  O  O65  1  0.57969100  0.71707400  0.43115300  1
  O  O66  1  0.56580500  0.07545800  0.43227700  1
  O  O67  1  0.68009000  0.53612600  0.81858000  1
  O  O68  1  0.68344000  0.17432900  0.81762200  1
  O  O69  1  0.42840500  0.92722400  0.06755700  1
  O  O70  1  0.42818000  0.28949100  0.06900000  1
  O  O71  1  0.53525100  0.39059700  0.43107700  1
  O  O72  1  0.46305700  0.61103800  0.56857500  1
  O  O73  1  0.57713400  0.71619300  0.93132400  1
  O  O74  1  0.56507000  0.07513000  0.93251900  1
  O  O75  1  0.32231800  0.82569900  0.18203800  1
  O  O76  1  0.32177600  0.46398000  0.18118700  1
  O  O77  1  0.43279300  0.92490500  0.56744700  1
  O  O78  1  0.43059300  0.28635900  0.56875100  1
  O  O79  1  0.53674300  0.38989000  0.93160600  1
  O  O80  1  0.28254300  0.14403500  0.18063800  1
  O  O81  1  0.21301800  0.35307000  0.31812500  1
  O  O82  1  0.31491000  0.82495700  0.68230900  1
  O  O83  1  0.32639700  0.46670200  0.68120300  1
  O  O84  1  0.17399700  0.67973300  0.31749400  1
  O  O85  1  0.18664400  0.03808200  0.31870800  1
  O  O86  1  0.28766800  0.13981600  0.68177100  1
  O  O87  1  0.21468000  0.35345900  0.81860600  1
  O  O88  1  0.07031600  0.57419200  0.43209200  1
  O  O89  1  0.06523300  0.21210400  0.43126500  1
  O  O90  1  0.16960200  0.67829100  0.81756200  1
  O  O91  1  0.18566300  0.03797100  0.81902300  1
  O  O92  1  0.03832300  0.89757200  0.43119100  1
  O  O93  1  0.07484900  0.57132100  0.93362700  1
  O  O94  1  0.06560100  0.21067500  0.93159100  1
  O  O95  1  0.03407100  0.89274100  0.93014500  1
