# generated using pymatgen
data_LiV4OF11
_symmetry_space_group_name_H-M   'P 1'
_cell_length_a   5.53831182
_cell_length_b   5.53831182
_cell_length_c   17.43097915
_cell_angle_alpha   78.33985812
_cell_angle_beta   78.33985812
_cell_angle_gamma   55.91298713
_symmetry_Int_Tables_number   1
_chemical_formula_structural   LiV4OF11
_chemical_formula_sum   'Li2 V8 O2 F22'
_cell_volume   431.05093378
_cell_formula_units_Z   2
loop_
 _symmetry_equiv_pos_site_id
 _symmetry_equiv_pos_as_xyz
  1  'x, y, z'
loop_
 _atom_site_type_symbol
 _atom_site_label
 _atom_site_symmetry_multiplicity
 _atom_site_fract_x
 _atom_site_fract_y
 _atom_site_fract_z
 _atom_site_occupancy
  Li  Li0  1  0.86499600  0.73823000  0.26984600  1
  Li  Li1  1  0.26177000  0.13500400  0.73015400  1
  V  V2  1  0.62115400  0.49601000  0.81258000  1
  V  V3  1  0.50399000  0.37884600  0.18742000  1
  V  V4  1  0.35840500  0.27332400  0.56324100  1
  V  V5  1  0.87921300  0.74574200  0.06197200  1
  V  V6  1  0.25425800  0.12078700  0.93802800  1
  V  V7  1  0.15592500  0.98672200  0.31932900  1
  V  V8  1  0.01327800  0.84407500  0.68067100  1
  V  V9  1  0.72667600  0.64159500  0.43675900  1
  O  O10  1  0.21125100  0.46770400  0.65684000  1
  O  O11  1  0.53229600  0.78874900  0.34316000  1
  F  F12  1  0.27052200  0.78054600  0.21970800  1
  F  F13  1  0.19125000  0.32876600  0.24732000  1
  F  F14  1  0.67123400  0.80875000  0.75268000  1
  F  F15  1  0.80291700  0.44685500  0.12244600  1
  F  F16  1  0.47925600  0.96840800  0.03038100  1
  F  F17  1  0.96280900  0.47477500  0.52736200  1
  F  F18  1  0.79828400  0.25790500  0.72636200  1
  F  F19  1  0.74209500  0.20171600  0.27363800  1
  F  F20  1  0.72800700  0.95576400  0.15856500  1
  F  F21  1  0.04423600  0.27199300  0.84143500  1
  F  F22  1  0.95528000  0.04472000  0.00000000  1
  F  F23  1  0.30766300  0.95534500  0.63320700  1
  F  F24  1  0.21945400  0.72947800  0.78029200  1
  F  F25  1  0.03159200  0.52074400  0.96961900  1
  F  F26  1  0.52522500  0.03719100  0.47263800  1
  F  F27  1  0.77039500  0.04840900  0.59570900  1
  F  F28  1  0.47200900  0.72443700  0.90485800  1
  F  F29  1  0.27556300  0.52799100  0.09514200  1
  F  F30  1  0.42250600  0.57749400  0.50000000  1
  F  F31  1  0.04465500  0.69233700  0.36679300  1
  F  F32  1  0.55314500  0.19708300  0.87755400  1
  F  F33  1  0.95159100  0.22960500  0.40429100  1
