# generated using pymatgen
data_K5Li3Ti8(AsO5)8
_symmetry_space_group_name_H-M   'P 1'
_cell_length_a   6.68700200
_cell_length_b   10.89391915
_cell_length_c   13.19611449
_cell_angle_alpha   89.97530317
_cell_angle_beta   89.94866609
_cell_angle_gamma   89.62594685
_symmetry_Int_Tables_number   1
_chemical_formula_structural   K5Li3Ti8(AsO5)8
_chemical_formula_sum   'K5 Li3 Ti8 As8 O40'
_cell_volume   961.28509214
_cell_formula_units_Z   1
loop_
 _symmetry_equiv_pos_site_id
 _symmetry_equiv_pos_as_xyz
  1  'x, y, z'
loop_
 _atom_site_type_symbol
 _atom_site_label
 _atom_site_symmetry_multiplicity
 _atom_site_fract_x
 _atom_site_fract_y
 _atom_site_fract_z
 _atom_site_occupancy
  K  K0  1  0.31084300  0.92170800  0.10501400  1
  K  K1  1  0.71280000  0.18243800  0.10935600  1
  K  K2  1  0.19915200  0.68072100  0.39270000  1
  K  K3  1  0.80092300  0.18081200  0.60858900  1
  K  K4  1  0.29881500  0.67664900  0.88597700  1
  Li  Li5  1  0.56156400  0.45910900  0.39641600  1
  Li  Li6  1  0.43757200  0.95966300  0.60334700  1
  Li  Li7  1  0.93710000  0.45974500  0.89641200  1
  Ti  Ti8  1  0.98514500  0.48844100  0.13128000  1
  Ti  Ti9  1  0.73120900  0.74314700  0.24295000  1
  Ti  Ti10  1  0.22320500  0.24262800  0.25811900  1
  Ti  Ti11  1  0.48657000  0.98850400  0.36799700  1
  Ti  Ti12  1  0.51501600  0.48935200  0.63299000  1
  Ti  Ti13  1  0.77764600  0.74439300  0.74290900  1
  Ti  Ti14  1  0.27568300  0.24370300  0.75793300  1
  Ti  Ti15  1  0.01248500  0.99040500  0.87027700  1
  As  As16  1  0.17000800  0.23176000  0.00326500  1
  As  As17  1  0.48455000  0.48482400  0.18317300  1
  As  As18  1  0.98399300  0.98492700  0.31686300  1
  As  As19  1  0.66852500  0.73063700  0.49663200  1
  As  As20  1  0.33097100  0.23192800  0.50471700  1
  As  As21  1  0.01515100  0.48456700  0.68245400  1
  As  As22  1  0.51543900  0.98435500  0.81687400  1
  As  As23  1  0.83106900  0.73260700  0.99468400  1
  O  O24  1  0.95636400  0.59262500  0.99957700  1
  O  O25  1  0.00056600  0.35014500  0.00752600  1
  O  O26  1  0.66574800  0.75103600  0.09507900  1
  O  O27  1  0.28452200  0.51570700  0.10657100  1
  O  O28  1  0.31550500  0.22161400  0.11075400  1
  O  O29  1  0.68972100  0.44470300  0.11272100  1
  O  O30  1  0.93547600  0.61376600  0.21313500  1
  O  O31  1  0.04077800  0.35932700  0.22031300  1
  O  O32  1  0.94463900  0.86635600  0.23164000  1
  O  O33  1  0.02636200  0.10987500  0.23934500  1
  O  O34  1  0.53011900  0.60572400  0.26533800  1
  O  O35  1  0.44285900  0.37040600  0.27308700  1
  O  O36  1  0.53821900  0.85919800  0.27697100  1
  O  O37  1  0.43554600  0.11078000  0.28385800  1
  O  O38  1  0.19081400  0.94501900  0.38640800  1
  O  O39  1  0.81278800  0.72327400  0.38916000  1
  O  O40  1  0.78311800  0.01406800  0.39368000  1
  O  O41  1  0.16958600  0.24899500  0.40406800  1
  O  O42  1  0.49840700  0.84829100  0.49283100  1
  O  O43  1  0.45868200  0.09319400  0.50056200  1
  O  O44  1  0.54027700  0.59274000  0.49979800  1
  O  O45  1  0.50195000  0.34830300  0.50721100  1
  O  O46  1  0.83184600  0.74759600  0.59624700  1
  O  O47  1  0.21501400  0.51475200  0.60592500  1
  O  O48  1  0.18549300  0.22523900  0.61172600  1
  O  O49  1  0.81054900  0.44456500  0.61228600  1
  O  O50  1  0.56309900  0.61287800  0.71389600  1
  O  O51  1  0.45928900  0.35832900  0.72100700  1
  O  O52  1  0.55580500  0.87079500  0.72641400  1
  O  O53  1  0.47005900  0.10475200  0.73414500  1
  O  O54  1  0.97010300  0.60483000  0.76560200  1
  O  O55  1  0.05603800  0.37075100  0.77314700  1
  O  O56  1  0.95810900  0.85905900  0.77945100  1
  O  O57  1  0.06548800  0.11203200  0.78687200  1
  O  O58  1  0.31347400  0.94404300  0.88957100  1
  O  O59  1  0.68317400  0.72469300  0.88809000  1
  O  O60  1  0.71307200  0.01438000  0.89503000  1
  O  O61  1  0.33360900  0.24971900  0.90319100  1
  O  O62  1  0.00586300  0.84516100  0.98898800  1
  O  O63  1  0.04183700  0.09518100  0.99774900  1
