# generated using pymatgen
data_LiLa14(Cu3O14)2
_symmetry_space_group_name_H-M   'P 1'
_cell_length_a   7.08580900
_cell_length_b   11.69650326
_cell_length_c   17.10833332
_cell_angle_alpha   77.00970096
_cell_angle_beta   83.22692220
_cell_angle_gamma   74.92565542
_symmetry_Int_Tables_number   1
_chemical_formula_structural   LiLa14(Cu3O14)2
_chemical_formula_sum   'Li2 La28 Cu12 O56'
_cell_volume   1331.42595771
_cell_formula_units_Z   2
loop_
 _symmetry_equiv_pos_site_id
 _symmetry_equiv_pos_as_xyz
  1  'x, y, z'
loop_
 _atom_site_type_symbol
 _atom_site_label
 _atom_site_symmetry_multiplicity
 _atom_site_fract_x
 _atom_site_fract_y
 _atom_site_fract_z
 _atom_site_occupancy
  Li  Li0  1  0.50000000  0.00000000  0.50000000  1
  Li  Li1  1  0.50000000  0.00000000  0.00000000  1
  La  La2  1  0.92635700  0.84939500  0.55288100  1
  La  La3  1  0.36115600  0.41798800  0.69729500  1
  La  La4  1  0.49593600  0.72918900  0.58731500  1
  La  La5  1  0.77954100  0.44148100  0.52264700  1
  La  La6  1  0.21050700  0.01273400  0.66342800  1
  La  La7  1  0.22045900  0.55851900  0.47735300  1
  La  La8  1  0.64657600  0.12770000  0.61880400  1
  La  La9  1  0.50406400  0.27081100  0.41268500  1
  La  La10  1  0.07504800  0.70523700  0.26807400  1
  La  La11  1  0.63884400  0.58201200  0.30270500  1
  La  La12  1  0.07364300  0.15060500  0.44711900  1
  La  La13  1  0.35342400  0.87230000  0.38119600  1
  La  La14  1  0.49385500  0.73199800  0.09204400  1
  La  La15  1  0.92109900  0.29748300  0.23735200  1
  La  La16  1  0.92810000  0.84686300  0.04812100  1
  La  La17  1  0.36417100  0.41584500  0.19165100  1
  La  La18  1  0.78949300  0.98726600  0.33657200  1
  La  La19  1  0.64525900  0.12975600  0.12394700  1
  La  La20  1  0.21739500  0.56189200  0.98276700  1
  La  La21  1  0.78260500  0.43810800  0.01723300  1
  La  La22  1  0.21422700  0.01004300  0.15800100  1
  La  La23  1  0.07190000  0.15313700  0.95187900  1
  La  La24  1  0.63582900  0.58415500  0.80834900  1
  La  La25  1  0.07890100  0.70251700  0.76264800  1
  La  La26  1  0.50614500  0.26800200  0.90795600  1
  La  La27  1  0.78577300  0.98995700  0.84199900  1
  La  La28  1  0.92495200  0.29476300  0.73192600  1
  La  La29  1  0.35474100  0.87024400  0.87605300  1
  Cu  Cu30  1  0.92869800  0.57170900  0.64296100  1
  Cu  Cu31  1  0.78542000  0.71548800  0.42858000  1
  Cu  Cu32  1  0.64256100  0.85687200  0.71422100  1
  Cu  Cu33  1  0.21458000  0.28451200  0.57142000  1
  Cu  Cu34  1  0.07130200  0.42829100  0.35703900  1
  Cu  Cu35  1  0.92925500  0.57086400  0.14280100  1
  Cu  Cu36  1  0.35743900  0.14312800  0.28577900  1
  Cu  Cu37  1  0.64287600  0.85790200  0.21391400  1
  Cu  Cu38  1  0.78452000  0.71488200  0.92821100  1
  Cu  Cu39  1  0.21548000  0.28511800  0.07178900  1
  Cu  Cu40  1  0.07074500  0.42913600  0.85719900  1
  Cu  Cu41  1  0.35712400  0.14209800  0.78608600  1
  O  O42  1  0.77380100  0.71176200  0.67978200  1
  O  O43  1  0.21392600  0.65548900  0.62680500  1
  O  O44  1  0.64531400  0.48666400  0.65940400  1
  O  O45  1  0.86786600  0.64573200  0.53514100  1
  O  O46  1  0.29740400  0.21637800  0.67877300  1
  O  O47  1  0.08440700  0.43001500  0.60584900  1
  O  O48  1  0.49009800  0.63945300  0.46513000  1
  O  O49  1  0.91659500  0.21189500  0.60791800  1
  O  O50  1  0.08340500  0.78810500  0.39208200  1
  O  O51  1  0.50990200  0.36054700  0.53487000  1
  O  O52  1  0.94095000  0.93030100  0.67676600  1
  O  O53  1  0.13213400  0.35426800  0.46485900  1
  O  O54  1  0.70259600  0.78362200  0.32122700  1
  O  O55  1  0.34586000  0.14073300  0.53695200  1
  O  O56  1  0.91559300  0.56998500  0.39415100  1
  O  O57  1  0.56243200  0.92474900  0.60991000  1
  O  O58  1  0.35468600  0.51333600  0.34059600  1
  O  O59  1  0.78238500  0.08225300  0.48375000  1
  O  O60  1  0.35819700  0.77230400  0.23008800  1
  O  O61  1  0.78607400  0.34451100  0.37319500  1
  O  O62  1  0.21761500  0.91774700  0.51625000  1
  O  O63  1  0.01124500  0.50299800  0.24903200  1
  O  O64  1  0.43756800  0.07525100  0.39009000  1
  O  O65  1  0.22619900  0.28823800  0.32021800  1
  O  O66  1  0.79639500  0.71680300  0.17721900  1
  O  O67  1  0.65414000  0.85926700  0.46304800  1
  O  O68  1  0.63512600  0.49658000  0.18000400  1
  O  O69  1  0.05905000  0.06969900  0.32323400  1
  O  O70  1  0.22470200  0.64515600  0.10606600  1
  O  O71  1  0.65211100  0.21789300  0.24879100  1
  O  O72  1  0.27614800  0.21049400  0.18092100  1
  O  O73  1  0.06169400  0.42398500  0.10783500  1
  O  O74  1  0.63366700  0.85300000  0.96437400  1
  O  O75  1  0.84656200  0.63961300  0.03699300  1
  O  O76  1  0.48863000  0.99790000  0.25119900  1
  O  O77  1  0.49906700  0.37101300  0.05568500  1
  O  O78  1  0.92981800  0.94056500  0.19793500  1
  O  O79  1  0.07172600  0.79879900  0.91261800  1
  O  O80  1  0.50093300  0.62898700  0.94431500  1
  O  O81  1  0.92827400  0.20120100  0.08738200  1
  O  O82  1  0.72385200  0.78950600  0.81907900  1
  O  O83  1  0.15343800  0.36038700  0.96300700  1
  O  O84  1  0.58215100  0.93110300  0.10727000  1
  O  O85  1  0.93830600  0.57601500  0.89216500  1
  O  O86  1  0.36633300  0.14700000  0.03562600  1
  O  O87  1  0.77529800  0.35484400  0.89393400  1
  O  O88  1  0.20763300  0.92726100  0.03531800  1
  O  O89  1  0.34788900  0.78210700  0.75120900  1
  O  O90  1  0.36487400  0.50342000  0.81999600  1
  O  O91  1  0.79236700  0.07273900  0.96468200  1
  O  O92  1  0.41784900  0.06889700  0.89273000  1
  O  O93  1  0.98875500  0.49700200  0.75096800  1
  O  O94  1  0.20360500  0.28319700  0.82278100  1
  O  O95  1  0.64180300  0.22769600  0.76991200  1
  O  O96  1  0.07018200  0.05943500  0.80206500  1
  O  O97  1  0.51137000  0.00210000  0.74880100  1
