# generated using pymatgen
data_LiAlVO4
_symmetry_space_group_name_H-M   'P 1'
_cell_length_a   5.24640840
_cell_length_b   5.78775300
_cell_length_c   14.48215290
_cell_angle_alpha   100.38264062
_cell_angle_beta   91.32644028
_cell_angle_gamma   91.33201524
_symmetry_Int_Tables_number   1
_chemical_formula_structural   LiAlVO4
_chemical_formula_sum   'Li6 Al6 V6 O24'
_cell_volume   432.26492577
_cell_formula_units_Z   6
loop_
 _symmetry_equiv_pos_site_id
 _symmetry_equiv_pos_as_xyz
  1  'x, y, z'
loop_
 _atom_site_type_symbol
 _atom_site_label
 _atom_site_symmetry_multiplicity
 _atom_site_fract_x
 _atom_site_fract_y
 _atom_site_fract_z
 _atom_site_occupancy
  Li  Li0  1  0.49445200  0.99007900  0.49841100  1
  Li  Li1  1  0.99460600  0.49051900  0.99871400  1
  Li  Li2  1  0.17069900  0.81540900  0.17287300  1
  Li  Li3  1  0.67097100  0.31489300  0.67324200  1
  Li  Li4  1  0.34180400  0.17980300  0.33083500  1
  Li  Li5  1  0.84172700  0.67936700  0.83075600  1
  Al  Al6  1  0.65088400  0.59037500  0.17040600  1
  Al  Al7  1  0.15114200  0.09021200  0.67052000  1
  Al  Al8  1  0.82890800  0.91847900  0.33318100  1
  Al  Al9  1  0.32806300  0.41836000  0.83322600  1
  Al  Al10  1  0.99658600  0.24348900  0.49898200  1
  Al  Al11  1  0.49634100  0.74311300  0.99894100  1
  V  V12  1  0.98428100  0.75084100  0.50150500  1
  V  V13  1  0.69898600  0.08197600  0.16175600  1
  V  V14  1  0.19921100  0.58199400  0.66171700  1
  V  V15  1  0.48450300  0.25061500  0.00135100  1
  V  V16  1  0.83833400  0.42323100  0.33279100  1
  V  V17  1  0.33845900  0.92330500  0.83299600  1
  O  O18  1  0.38611700  0.02825700  0.07435700  1
  O  O19  1  0.88595600  0.52841900  0.57453200  1
  O  O20  1  0.36719900  0.54556400  0.08094800  1
  O  O21  1  0.86702300  0.04580100  0.58098000  1
  O  O22  1  0.55138400  0.36704200  0.24757000  1
  O  O23  1  0.05177600  0.86659100  0.74770300  1
  O  O24  1  0.53609000  0.88406300  0.24138100  1
  O  O25  1  0.03594900  0.38365700  0.74146400  1
  O  O26  1  0.70364200  0.71301500  0.41162300  1
  O  O27  1  0.20335100  0.21270300  0.91173200  1
  O  O28  1  0.70605600  0.18545600  0.41024900  1
  O  O29  1  0.20541000  0.68507500  0.91058300  1
  O  O30  1  0.79236500  0.78471700  0.08733000  1
  O  O31  1  0.29236700  0.28481300  0.58752500  1
  O  O32  1  0.78839000  0.31240000  0.09206500  1
  O  O33  1  0.28845200  0.81222000  0.59219300  1
  O  O34  1  0.94002000  0.64896100  0.25444500  1
  O  O35  1  0.43995700  0.14897900  0.75453000  1
  O  O36  1  0.97974100  0.12012900  0.25647400  1
  O  O37  1  0.47923300  0.61979900  0.75682800  1
  O  O38  1  0.12769400  0.96525200  0.42601500  1
  O  O39  1  0.62747600  0.46477000  0.92593800  1
  O  O40  1  0.11638100  0.44933600  0.41825400  1
  O  O41  1  0.61681400  0.94817200  0.91817200  1
