# generated using pymatgen
data_LiCoSiO4
_symmetry_space_group_name_H-M   'P 1'
_cell_length_a   5.02059300
_cell_length_b   6.04423100
_cell_length_c   11.10862500
_cell_angle_alpha   90.00000000
_cell_angle_beta   90.00000000
_cell_angle_gamma   90.00000000
_symmetry_Int_Tables_number   1
_chemical_formula_structural   LiCoSiO4
_chemical_formula_sum   'Li4 Co4 Si4 O16'
_cell_volume   337.09815573
_cell_formula_units_Z   4
loop_
 _symmetry_equiv_pos_site_id
 _symmetry_equiv_pos_as_xyz
  1  'x, y, z'
loop_
 _atom_site_type_symbol
 _atom_site_label
 _atom_site_symmetry_multiplicity
 _atom_site_fract_x
 _atom_site_fract_y
 _atom_site_fract_z
 _atom_site_occupancy
  Li  Li0  1  0.33017600  0.50071600  0.92258400  1
  Li  Li1  1  0.16982400  0.50071600  0.42258400  1
  Li  Li2  1  0.83017600  0.00071600  0.57741600  1
  Li  Li3  1  0.66982400  0.00071600  0.07741600  1
  Co  Co4  1  0.67159900  0.24707800  0.33285400  1
  Co  Co5  1  0.82840100  0.24707800  0.83285400  1
  Co  Co6  1  0.32840100  0.74707800  0.66714600  1
  Co  Co7  1  0.17159900  0.74707800  0.16714600  1
  Si  Si8  1  0.32990400  0.25033100  0.67233700  1
  Si  Si9  1  0.17009600  0.25033100  0.17233700  1
  Si  Si10  1  0.67009600  0.75033100  0.32766300  1
  Si  Si11  1  0.82990400  0.75033100  0.82766300  1
  O  O12  1  0.21865200  0.02384800  0.60638100  1
  O  O13  1  0.28134800  0.02384800  0.10638100  1
  O  O14  1  0.84423100  0.23216200  0.18385700  1
  O  O15  1  0.30296500  0.27134100  0.30785900  1
  O  O16  1  0.19703500  0.27134100  0.80785900  1
  O  O17  1  0.65576900  0.23216200  0.68385700  1
  O  O18  1  0.23963100  0.47427600  0.09268000  1
  O  O19  1  0.26036900  0.47427600  0.59268000  1
  O  O20  1  0.71865200  0.52384800  0.89361900  1
  O  O21  1  0.78134800  0.52384800  0.39361900  1
  O  O22  1  0.80296500  0.77134100  0.19214100  1
  O  O23  1  0.34423100  0.73216200  0.31614300  1
  O  O24  1  0.69703500  0.77134100  0.69214100  1
  O  O25  1  0.15576900  0.73216200  0.81614300  1
  O  O26  1  0.73963100  0.97427600  0.40732000  1
  O  O27  1  0.76036900  0.97427600  0.90732000  1
