# generated using pymatgen
data_Li5AlO4
_symmetry_space_group_name_H-M   'P 1'
_cell_length_a   4.66955200
_cell_length_b   6.36617900
_cell_length_c   6.48306200
_cell_angle_alpha   90.00000000
_cell_angle_beta   90.00000000
_cell_angle_gamma   90.00000000
_symmetry_Int_Tables_number   1
_chemical_formula_structural   Li5AlO4
_chemical_formula_sum   'Li10 Al2 O8'
_cell_volume   192.72330585
_cell_formula_units_Z   2
loop_
 _symmetry_equiv_pos_site_id
 _symmetry_equiv_pos_as_xyz
  1  'x, y, z'
loop_
 _atom_site_type_symbol
 _atom_site_label
 _atom_site_symmetry_multiplicity
 _atom_site_fract_x
 _atom_site_fract_y
 _atom_site_fract_z
 _atom_site_occupancy
  Li  Li0  1  0.74534800  0.23881000  0.19754700  1
  Li  Li1  1  0.74534800  0.76119000  0.80245300  1
  Li  Li2  1  0.25465200  0.73881000  0.30245300  1
  Li  Li3  1  0.25465200  0.26119000  0.69754700  1
  Li  Li4  1  0.25465200  0.26119000  0.30245300  1
  Li  Li5  1  0.25465200  0.73881000  0.69754700  1
  Li  Li6  1  0.74534800  0.76119000  0.19754700  1
  Li  Li7  1  0.74534800  0.23881000  0.80245300  1
  Li  Li8  1  0.79603200  0.00000000  0.50000000  1
  Li  Li9  1  0.20396800  0.50000000  0.00000000  1
  Al  Al10  1  0.22448800  0.00000000  0.00000000  1
  Al  Al11  1  0.77551200  0.50000000  0.50000000  1
  O  O12  1  0.01658000  0.00000000  0.23187300  1
  O  O13  1  0.01658000  0.00000000  0.76812700  1
  O  O14  1  0.57081800  0.73581000  0.50000000  1
  O  O15  1  0.57081800  0.26419000  0.50000000  1
  O  O16  1  0.42918200  0.23581000  0.00000000  1
  O  O17  1  0.42918200  0.76419000  0.00000000  1
  O  O18  1  0.98342000  0.50000000  0.73187300  1
  O  O19  1  0.98342000  0.50000000  0.26812700  1
