# generated using pymatgen
data_Li2MnV(P2O7)2
_symmetry_space_group_name_H-M   'P 1'
_cell_length_a   8.31111000
_cell_length_b   7.16634000
_cell_length_c   9.71202913
_cell_angle_alpha   68.80169808
_cell_angle_beta   90.00000000
_cell_angle_gamma   90.00000000
_symmetry_Int_Tables_number   1
_chemical_formula_structural   Li2MnV(P2O7)2
_chemical_formula_sum   'Li4 Mn2 V2 P8 O28'
_cell_volume   539.30963511
_cell_formula_units_Z   2
loop_
 _symmetry_equiv_pos_site_id
 _symmetry_equiv_pos_as_xyz
  1  'x, y, z'
loop_
 _atom_site_type_symbol
 _atom_site_label
 _atom_site_symmetry_multiplicity
 _atom_site_fract_x
 _atom_site_fract_y
 _atom_site_fract_z
 _atom_site_occupancy
  Li  Li0  1  0.63979300  0.67304600  0.75039000  1
  Li  Li1  1  0.14068600  0.32593500  0.74884400  1
  Li  Li2  1  0.64068600  0.67406500  0.25115600  1
  Li  Li3  1  0.13979300  0.32695400  0.24961000  1
  Mn  Mn4  1  0.50091800  0.27029500  0.75782800  1
  Mn  Mn5  1  0.00091800  0.72970500  0.24217200  1
  V  V6  1  0.00029100  0.72710900  0.74301500  1
  V  V7  1  0.50029100  0.27289100  0.25698500  1
  P  P8  1  0.21148700  0.91189800  0.93870500  1
  P  P9  1  0.32022600  0.52260100  0.93892300  1
  P  P10  1  0.82202700  0.48329200  0.55851900  1
  P  P11  1  0.21652200  0.91118900  0.43611400  1
  P  P12  1  0.71652200  0.08881100  0.56388600  1
  P  P13  1  0.32202700  0.51670800  0.44148100  1
  P  P14  1  0.82022600  0.47739900  0.06107700  1
  P  P15  1  0.71148700  0.08810200  0.06129500  1
  O  O16  1  0.34476200  0.75352000  0.92260000  1
  O  O17  1  0.06244000  0.90987200  0.84545700  1
  O  O18  1  0.82319000  0.60461400  0.89576200  1
  O  O19  1  0.15740500  0.50639600  0.87038600  1
  O  O20  1  0.46289100  0.48319000  0.85241100  1
  O  O21  1  0.67194900  0.15098500  0.89681200  1
  O  O22  1  0.29450500  0.11370100  0.88030000  1
  O  O23  1  0.80494500  0.88860700  0.62376500  1
  O  O24  1  0.17420300  0.85159300  0.59838000  1
  O  O25  1  0.96482000  0.51846800  0.64697400  1
  O  O26  1  0.65982500  0.50712300  0.62236600  1
  O  O27  1  0.32846000  0.39022600  0.60798200  1
  O  O28  1  0.56679700  0.08609000  0.65794400  1
  O  O29  1  0.84627700  0.25120900  0.57744900  1
  O  O30  1  0.34627700  0.74879100  0.42255100  1
  O  O31  1  0.06679700  0.91391000  0.34205600  1
  O  O32  1  0.82846000  0.60977400  0.39201800  1
  O  O33  1  0.15982500  0.49287700  0.37763400  1
  O  O34  1  0.46482000  0.48153200  0.35302600  1
  O  O35  1  0.67420300  0.14840700  0.40162000  1
  O  O36  1  0.30494500  0.11139300  0.37623500  1
  O  O37  1  0.79450500  0.88629900  0.11970000  1
  O  O38  1  0.17194900  0.84901500  0.10318800  1
  O  O39  1  0.96289100  0.51681000  0.14758900  1
  O  O40  1  0.65740500  0.49360400  0.12961400  1
  O  O41  1  0.32319000  0.39538600  0.10423800  1
  O  O42  1  0.56244000  0.09012800  0.15454300  1
  O  O43  1  0.84476200  0.24648000  0.07740000  1
