# generated using pymatgen
data_Li4V3P8O29
_symmetry_space_group_name_H-M   'P 1'
_cell_length_a   9.76309500
_cell_length_b   9.77555784
_cell_length_c   14.10083859
_cell_angle_alpha   90.14215439
_cell_angle_beta   90.03194964
_cell_angle_gamma   119.88800845
_symmetry_Int_Tables_number   1
_chemical_formula_structural   Li4V3P8O29
_chemical_formula_sum   'Li8 V6 P16 O58'
_cell_volume   1166.78642509
_cell_formula_units_Z   2
loop_
 _symmetry_equiv_pos_site_id
 _symmetry_equiv_pos_as_xyz
  1  'x, y, z'
loop_
 _atom_site_type_symbol
 _atom_site_label
 _atom_site_symmetry_multiplicity
 _atom_site_fract_x
 _atom_site_fract_y
 _atom_site_fract_z
 _atom_site_occupancy
  Li  Li0  1  0.10122900  0.33374300  0.44536700  1
  Li  Li1  1  0.69354700  0.91992800  0.94208500  1
  Li  Li2  1  0.09380800  0.77097300  0.93559800  1
  Li  Li3  1  0.76638100  0.09362100  0.55839700  1
  Li  Li4  1  0.23406800  0.90344600  0.44248500  1
  Li  Li5  1  0.31470600  0.09413700  0.05421200  1
  Li  Li6  1  0.76804100  0.67884500  0.05890300  1
  Li  Li7  1  0.97712800  0.95359500  0.50559000  1
  V  V8  1  0.56715700  0.00233600  0.74954100  1
  V  V9  1  0.43388400  0.00174800  0.24924900  1
  V  V10  1  0.00070400  0.43199700  0.24490600  1
  V  V11  1  0.99533900  0.56303400  0.75088400  1
  V  V12  1  0.43358800  0.43247400  0.74456300  1
  V  V13  1  0.56111300  0.56645200  0.25903100  1
  P  P14  1  0.23184800  0.31570600  0.15663300  1
  P  P15  1  0.08419800  0.31230300  0.65978100  1
  P  P16  1  0.69431800  0.77817900  0.65735900  1
  P  P17  1  0.33850700  0.66989900  0.86869400  1
  P  P18  1  0.32581300  0.66361500  0.37173500  1
  P  P19  1  0.68052100  0.90901200  0.16096000  1
  P  P20  1  0.77536300  0.09056200  0.34184300  1
  P  P21  1  0.08701700  0.76901400  0.15478000  1
  P  P22  1  0.91587200  0.22843100  0.84456400  1
  P  P23  1  0.22387700  0.90889500  0.65888000  1
  P  P24  1  0.31792400  0.09288400  0.83830500  1
  P  P25  1  0.66581400  0.33166100  0.62997300  1
  P  P26  1  0.66516000  0.33916000  0.13107400  1
  P  P27  1  0.30600600  0.22316800  0.34243400  1
  P  P28  1  0.91673200  0.69058300  0.33875900  1
  P  P29  1  0.76582400  0.68164500  0.84237500  1
  O  O30  1  0.21115100  0.21763800  0.42596100  1
  O  O31  1  0.25519800  0.33923800  0.66662200  1
  O  O32  1  0.99674000  0.22530700  0.93099900  1
  O  O33  1  0.08943600  0.34524300  0.16416100  1
  O  O34  1  0.38437400  0.47460700  0.17909400  1
  O  O35  1  0.34347700  0.52965400  0.81671500  1
  O  O36  1  0.54011600  0.61659200  0.66523100  1
  O  O37  1  0.74972300  0.75429800  0.93265500  1
  O  O38  1  0.65944300  0.74057800  0.16712600  1
  O  O39  1  0.18314800  0.50956500  0.32766000  1
  O  O40  1  0.08848600  0.46931300  0.67099500  1
  O  O41  1  0.47924100  0.66924500  0.32584600  1
  O  O42  1  0.35998800  0.67863300  0.97318900  1
  O  O43  1  0.32495900  0.64919700  0.47657200  1
  O  O44  1  0.48812900  0.82267700  0.82381300  1
  O  O45  1  0.10066600  0.62057500  0.17648900  1
  O  O46  1  0.18748000  0.67246600  0.83577800  1
  O  O47  1  0.65716100  0.91714500  0.66180600  1
  O  O48  1  0.79292000  0.00007800  0.25030800  1
  O  O49  1  0.79183600  0.02048600  0.43183900  1
  O  O50  1  0.74950200  0.98697900  0.06991400  1
  O  O51  1  0.51930200  0.90051600  0.18234700  1
  O  O52  1  0.32022800  0.81074000  0.33517800  1
  O  O53  1  0.74159900  0.08393900  0.83724200  1
  O  O54  1  0.38255200  0.91098100  0.67401100  1
  O  O55  1  0.08623400  0.73958100  0.67130800  1
  O  O56  1  0.99290200  0.20173100  0.74822300  1
  O  O57  1  0.00402400  0.22407000  0.57014700  1
  O  O58  1  0.00552200  0.79600000  0.41989000  1
  O  O59  1  0.92115400  0.26160000  0.33290200  1
  O  O60  1  0.62119000  0.09317800  0.32844700  1
  O  O61  1  0.25217400  0.91808800  0.15653700  1
  O  O62  1  0.67249000  0.18243600  0.67293100  1
  O  O63  1  0.47822600  0.09912500  0.82013500  1
  O  O64  1  0.24312900  0.00209300  0.92730800  1
  O  O65  1  0.21430000  0.98047100  0.56782200  1
  O  O66  1  0.20704400  0.00284700  0.74869000  1
  O  O67  1  0.33905300  0.08341600  0.33884900  1
  O  O68  1  0.81556100  0.34151500  0.17882100  1
  O  O69  1  0.90968000  0.38203600  0.82462800  1
  O  O70  1  0.51474400  0.18731500  0.16824700  1
  O  O71  1  0.67728700  0.34766900  0.02626300  1
  O  O72  1  0.65913100  0.31409400  0.52540300  1
  O  O73  1  0.51335400  0.32581400  0.67396100  1
  O  O74  1  0.92277400  0.53681300  0.32897500  1
  O  O75  1  0.80669400  0.47883800  0.67404400  1
  O  O76  1  0.34324000  0.26072200  0.83517800  1
  O  O77  1  0.20771800  0.20396400  0.24699200  1
  O  O78  1  0.23956000  0.23597100  0.06968200  1
  O  O79  1  0.46621500  0.38123800  0.33030500  1
  O  O80  1  0.66621700  0.48754900  0.17484100  1
  O  O81  1  0.61775800  0.52163700  0.82006700  1
  O  O82  1  0.91473300  0.66483300  0.84223300  1
  O  O83  1  0.99875500  0.75138500  0.06422100  1
  O  O84  1  0.99124700  0.78843900  0.24129200  1
  O  O85  1  0.74212000  0.65326000  0.33560800  1
  O  O86  1  0.79892000  0.80326300  0.57569500  1
  O  O87  1  0.78811200  0.79781300  0.75594900  1
