# generated using pymatgen
data_Li8HfO6
_symmetry_space_group_name_H-M   'P 1'
_cell_length_a   5.72349469
_cell_length_b   5.72349469
_cell_length_c   10.91143000
_cell_angle_alpha   90.00000000
_cell_angle_beta   90.00000000
_cell_angle_gamma   120.00000798
_symmetry_Int_Tables_number   1
_chemical_formula_structural   Li8HfO6
_chemical_formula_sum   'Li16 Hf2 O12'
_cell_volume   309.55287094
_cell_formula_units_Z   2
loop_
 _symmetry_equiv_pos_site_id
 _symmetry_equiv_pos_as_xyz
  1  'x, y, z'
loop_
 _atom_site_type_symbol
 _atom_site_label
 _atom_site_symmetry_multiplicity
 _atom_site_fract_x
 _atom_site_fract_y
 _atom_site_fract_z
 _atom_site_occupancy
  Li  Li0  1  0.00000000  0.67785600  0.76848800  1
  Li  Li1  1  0.00000000  0.59074000  0.12735000  1
  Li  Li2  1  0.00000000  0.40926000  0.62735000  1
  Li  Li3  1  0.00000000  0.32214400  0.26848800  1
  Li  Li4  1  0.33333300  0.66666700  0.40726300  1
  Li  Li5  1  0.33333300  0.66666700  0.90726300  1
  Li  Li6  1  0.32214400  0.32214400  0.76848800  1
  Li  Li7  1  0.40926000  0.40926000  0.12735000  1
  Li  Li8  1  0.59074000  0.59074000  0.62735000  1
  Li  Li9  1  0.32214400  0.00000000  0.26848800  1
  Li  Li10  1  0.67785600  0.67785600  0.26848800  1
  Li  Li11  1  0.40926000  0.00000000  0.62735000  1
  Li  Li12  1  0.66666700  0.33333300  0.90726300  1
  Li  Li13  1  0.66666700  0.33333300  0.40726300  1
  Li  Li14  1  0.59074000  0.00000000  0.12735000  1
  Li  Li15  1  0.67785600  0.00000000  0.76848800  1
  Hf  Hf16  1  0.00000000  0.00000000  0.99556500  1
  Hf  Hf17  1  0.00000000  0.00000000  0.49556500  1
  O  O18  1  0.00000000  0.67060500  0.94851500  1
  O  O19  1  0.00000000  0.32939500  0.44851500  1
  O  O20  1  0.33333300  0.66666700  0.21292100  1
  O  O21  1  0.00000000  0.00000000  0.17665000  1
  O  O22  1  0.00000000  0.00000000  0.67665000  1
  O  O23  1  0.33333300  0.66666700  0.71292100  1
  O  O24  1  0.32939500  0.32939500  0.94851500  1
  O  O25  1  0.32939500  0.00000000  0.44851500  1
  O  O26  1  0.67060500  0.67060500  0.44851500  1
  O  O27  1  0.66666700  0.33333300  0.71292100  1
  O  O28  1  0.66666700  0.33333300  0.21292100  1
  O  O29  1  0.67060500  0.00000000  0.94851500  1
