# generated using pymatgen
data_Li3V3P8O29
_symmetry_space_group_name_H-M   'P 1'
_cell_length_a   9.71299900
_cell_length_b   9.77500814
_cell_length_c   14.26534338
_cell_angle_alpha   91.15726880
_cell_angle_beta   89.93118646
_cell_angle_gamma   119.76742413
_symmetry_Int_Tables_number   1
_chemical_formula_structural   Li3V3P8O29
_chemical_formula_sum   'Li6 V6 P16 O58'
_cell_volume   1175.39901547
_cell_formula_units_Z   2
loop_
 _symmetry_equiv_pos_site_id
 _symmetry_equiv_pos_as_xyz
  1  'x, y, z'
loop_
 _atom_site_type_symbol
 _atom_site_label
 _atom_site_symmetry_multiplicity
 _atom_site_fract_x
 _atom_site_fract_y
 _atom_site_fract_z
 _atom_site_occupancy
  Li  Li0  1  0.65325500  0.31511400  0.10273400  1
  Li  Li1  1  0.76941300  0.68755400  0.93634200  1
  Li  Li2  1  0.09365800  0.32775500  0.56104900  1
  Li  Li3  1  0.90270200  0.66778300  0.44098700  1
  Li  Li4  1  0.04248700  0.05996800  0.00503700  1
  Li  Li5  1  0.99715300  0.99667300  0.50097100  1
  V  V6  1  0.99583300  0.43389000  0.75705600  1
  V  V7  1  0.00532800  0.56776900  0.24642700  1
  V  V8  1  0.43161700  0.42956300  0.25152600  1
  V  V9  1  0.55682900  0.56356500  0.74736000  1
  V  V10  1  0.43994800  0.99983800  0.74933200  1
  V  V11  1  0.56457100  0.99929400  0.25562600  1
  P  P12  1  0.30235100  0.08252400  0.15739300  1
  P  P13  1  0.30382300  0.21619700  0.66135700  1
  P  P14  1  0.78293600  0.08158100  0.65789300  1
  P  P15  1  0.66426700  0.33735200  0.86932100  1
  P  P16  1  0.67119300  0.34041700  0.36848200  1
  P  P17  1  0.90727600  0.21429500  0.16215800  1
  P  P18  1  0.08539800  0.31327200  0.34319200  1
  P  P19  1  0.77207500  0.67909600  0.15340300  1
  P  P20  1  0.22436800  0.30853000  0.84475600  1
  P  P21  1  0.90961000  0.68107700  0.65710100  1
  P  P22  1  0.08960100  0.78424700  0.83636700  1
  P  P23  1  0.32509500  0.66131000  0.63269500  1
  P  P24  1  0.33870400  0.66598600  0.13200600  1
  P  P25  1  0.21808400  0.92029200  0.34266100  1
  P  P26  1  0.69736200  0.77914100  0.33556900  1
  P  P27  1  0.69878000  0.91893600  0.84259000  1
  O  O28  1  0.19020300  0.99116100  0.42766800  1
  O  O29  1  0.34959600  0.08605200  0.66662900  1
  O  O30  1  0.20482700  0.22173500  0.93100900  1
  O  O31  1  0.34443700  0.26006900  0.16911400  1
  O  O32  1  0.46602600  0.09032100  0.16851600  1
  O  O33  1  0.52245500  0.18942600  0.82241100  1
  O  O34  1  0.61842900  0.07289900  0.66991000  1
  O  O35  1  0.79302500  0.99305900  0.92834400  1
  O  O36  1  0.73055400  0.08125400  0.16854400  1
  O  O37  1  0.52250600  0.33723000  0.32176300  1
  O  O38  1  0.45970700  0.37940100  0.67240500  1
  O  O39  1  0.66755500  0.19040300  0.32286700  1
  O  O40  1  0.67061000  0.33763800  0.97372700  1
  O  O41  1  0.67447600  0.34991900  0.47211800  1
  O  O42  1  0.81590400  0.33839700  0.82634400  1
  O  O43  1  0.62363500  0.51552200  0.16930400  1
  O  O44  1  0.66811200  0.48811400  0.83311600  1
  O  O45  1  0.91455100  0.25935900  0.66797100  1
  O  O46  1  0.98540700  0.19603400  0.25843200  1
  O  O47  1  0.02188800  0.24110300  0.43503000  1
  O  O48  1  0.99094800  0.19844500  0.08050800  1
  O  O49  1  0.90228000  0.37249200  0.17114100  1
  O  O50  1  0.81935600  0.48817900  0.32621700  1
  O  O51  1  0.09133000  0.35253400  0.83021000  1
  O  O52  1  0.91262500  0.52704800  0.67419900  1
  O  O53  1  0.73674000  0.64627200  0.67441900  1
  O  O54  1  0.20430500  0.19711400  0.75529400  1
  O  O55  1  0.20204100  0.20333000  0.58000100  1
  O  O56  1  0.80620900  0.79862500  0.41436400  1
  O  O57  1  0.25863200  0.34675600  0.32954100  1
  O  O58  1  0.08453100  0.46821800  0.32440000  1
  O  O59  1  0.91720000  0.65252100  0.16873700  1
  O  O60  1  0.17904100  0.51134300  0.67220600  1
  O  O61  1  0.08584200  0.62225700  0.82634700  1
  O  O62  1  0.99615000  0.79207800  0.91625600  1
  O  O63  1  0.96898100  0.75494200  0.56498400  1
  O  O64  1  0.01442400  0.80307500  0.73909400  1
  O  O65  1  0.08650500  0.74103800  0.33360600  1
  O  O66  1  0.34926200  0.52746100  0.17818800  1
  O  O67  1  0.38424100  0.46286800  0.83030400  1
  O  O68  1  0.18358600  0.65552500  0.17703000  1
  O  O69  1  0.33661900  0.66451000  0.02896500  1
  O  O70  1  0.32979500  0.65669300  0.52909000  1
  O  O71  1  0.33092000  0.81064100  0.67925700  1
  O  O72  1  0.54340400  0.61848100  0.32755000  1
  O  O73  1  0.47431800  0.66125400  0.68041900  1
  O  O74  1  0.26433100  0.91727100  0.83318100  1
  O  O75  1  0.19897700  0.99918200  0.24925300  1
  O  O76  1  0.20490400  0.00940500  0.07253200  1
  O  O77  1  0.38249800  0.92995100  0.33033800  1
  O  O78  1  0.47425200  0.81772800  0.18173000  1
  O  O79  1  0.54229900  0.92542500  0.82748800  1
  O  O80  1  0.65274800  0.74072000  0.83409400  1
  O  O81  1  0.77980900  0.75281500  0.06280600  1
  O  O82  1  0.78798700  0.79827500  0.23713100  1
  O  O83  1  0.65566300  0.91436000  0.33374500  1
  O  O84  1  0.81017800  0.00982100  0.57283900  1
  O  O85  1  0.80168300  0.99902200  0.75019600  1
