# generated using pymatgen
data_Li5(CoO2)4
_symmetry_space_group_name_H-M   'P 1'
_cell_length_a   8.20267200
_cell_length_b   8.21225092
_cell_length_c   8.35746589
_cell_angle_alpha   89.84030586
_cell_angle_beta   89.84774976
_cell_angle_gamma   89.92564053
_symmetry_Int_Tables_number   1
_chemical_formula_structural   Li5(CoO2)4
_chemical_formula_sum   'Li20 Co16 O32'
_cell_volume   562.97432249
_cell_formula_units_Z   4
loop_
 _symmetry_equiv_pos_site_id
 _symmetry_equiv_pos_as_xyz
  1  'x, y, z'
loop_
 _atom_site_type_symbol
 _atom_site_label
 _atom_site_symmetry_multiplicity
 _atom_site_fract_x
 _atom_site_fract_y
 _atom_site_fract_z
 _atom_site_occupancy
  Li  Li0  1  0.08987700  0.10488700  0.91069300  1
  Li  Li1  1  0.38401600  0.10447500  0.59750500  1
  Li  Li2  1  0.88853300  0.10226300  0.12203800  1
  Li  Li3  1  0.23734000  0.23940700  0.75932100  1
  Li  Li4  1  0.72812900  0.25376100  0.24577500  1
  Li  Li5  1  0.39372400  0.38689400  0.87970200  1
  Li  Li6  1  0.12869200  0.38363900  0.58714500  1
  Li  Li7  1  0.88687000  0.37779600  0.39391700  1
  Li  Li8  1  0.59407700  0.40366100  0.08682400  1
  Li  Li9  1  0.91289000  0.58560100  0.58562100  1
  Li  Li10  1  0.11003600  0.59481100  0.38075200  1
  Li  Li11  1  0.36883800  0.60108500  0.08629000  1
  Li  Li12  1  0.60173700  0.62757700  0.89304600  1
  Li  Li13  1  0.77326700  0.73289000  0.73853700  1
  Li  Li14  1  0.25323400  0.75510900  0.25647600  1
  Li  Li15  1  0.87499800  0.89647300  0.90659200  1
  Li  Li16  1  0.60580200  0.89156400  0.63597700  1
  Li  Li17  1  0.40034500  0.88305100  0.40370400  1
  Li  Li18  1  0.09657800  0.88105300  0.10656300  1
  Li  Li19  1  0.61116200  0.09346200  0.41009500  1
  Co  Co20  1  0.37154200  0.12114700  0.12447400  1
  Co  Co21  1  0.11949200  0.12131500  0.37096400  1
  Co  Co22  1  0.37749000  0.37205100  0.37170500  1
  Co  Co23  1  0.11996900  0.62188300  0.87174000  1
  Co  Co24  1  0.62491900  0.62347100  0.37803100  1
  Co  Co25  1  0.11769800  0.86983300  0.62585700  1
  Co  Co26  1  0.36148000  0.87545800  0.87248000  1
  Co  Co27  1  0.62470500  0.37369400  0.62910000  1
  Co  Co28  1  0.86981600  0.61935200  0.12962300  1
  Co  Co29  1  0.62174500  0.12333700  0.87655900  1
  Co  Co30  1  0.87025400  0.12531000  0.62408400  1
  Co  Co31  1  0.11877500  0.36889700  0.12588000  1
  Co  Co32  1  0.86932100  0.37003400  0.87849100  1
  Co  Co33  1  0.37635000  0.62015100  0.62320200  1
  Co  Co34  1  0.62100100  0.87119700  0.12623000  1
  Co  Co35  1  0.86843700  0.87388600  0.37290900  1
  O  O36  1  0.61235900  0.11147500  0.11206600  1
  O  O37  1  0.38523000  0.12789800  0.89119700  1
  O  O38  1  0.87336400  0.11611600  0.38208100  1
  O  O39  1  0.10888700  0.12820400  0.60508100  1
  O  O40  1  0.36046400  0.11878000  0.36076200  1
  O  O41  1  0.63107800  0.13547900  0.64122700  1
  O  O42  1  0.13103500  0.13023000  0.13792700  1
  O  O43  1  0.85876000  0.13333500  0.86216900  1
  O  O44  1  0.12008100  0.35774000  0.35761100  1
  O  O45  1  0.63280700  0.36147800  0.86317800  1
  O  O46  1  0.86345000  0.36245000  0.64200200  1
  O  O47  1  0.35817500  0.36057000  0.12297000  1
  O  O48  1  0.10434400  0.36557600  0.89434600  1
  O  O49  1  0.63217300  0.38528600  0.39591000  1
  O  O50  1  0.38527400  0.37649800  0.62619300  1
  O  O51  1  0.87480600  0.37824700  0.11609100  1
  O  O52  1  0.86577600  0.60575200  0.89679100  1
  O  O53  1  0.11063000  0.60862700  0.13404600  1
  O  O54  1  0.61922100  0.61137700  0.61397700  1
  O  O55  1  0.38868800  0.62467600  0.38810300  1
  O  O56  1  0.13899200  0.61839700  0.61442800  1
  O  O57  1  0.36954000  0.61782100  0.85639200  1
  O  O58  1  0.62976800  0.63298800  0.14081400  1
  O  O59  1  0.86246000  0.63434200  0.36362000  1
  O  O60  1  0.37628300  0.85908600  0.62889200  1
  O  O61  1  0.10937700  0.87447600  0.87579000  1
  O  O62  1  0.85850200  0.85948200  0.13930100  1
  O  O63  1  0.63246200  0.86111300  0.36044200  1
  O  O64  1  0.38444800  0.88268200  0.12285700  1
  O  O65  1  0.10413600  0.88592100  0.37024300  1
  O  O66  1  0.62930900  0.88194700  0.88787500  1
  O  O67  1  0.86171200  0.88902900  0.60401700  1
