# generated using pymatgen
data_LiZn2Fe9O16
_symmetry_space_group_name_H-M   'P 1'
_cell_length_a   6.05239163
_cell_length_b   6.05239163
_cell_length_c   10.47543555
_cell_angle_alpha   72.91039446
_cell_angle_beta   72.91039446
_cell_angle_gamma   59.90173561
_symmetry_Int_Tables_number   1
_chemical_formula_structural   LiZn2Fe9O16
_chemical_formula_sum   'Li1 Zn2 Fe9 O16'
_cell_volume   312.31309655
_cell_formula_units_Z   1
loop_
 _symmetry_equiv_pos_site_id
 _symmetry_equiv_pos_as_xyz
  1  'x, y, z'
loop_
 _atom_site_type_symbol
 _atom_site_label
 _atom_site_symmetry_multiplicity
 _atom_site_fract_x
 _atom_site_fract_y
 _atom_site_fract_z
 _atom_site_occupancy
  Li  Li0  1  0.12436900  0.12436900  0.62430400  1
  Zn  Zn1  1  0.06407100  0.06407100  0.31408100  1
  Zn  Zn2  1  0.31159000  0.31159000  0.06274300  1
  Fe  Fe3  1  0.00047500  0.00047500  0.99619400  1
  Fe  Fe4  1  0.62826900  0.62826900  0.12933000  1
  Fe  Fe5  1  0.49663900  0.49663900  0.49883900  1
  Fe  Fe6  1  0.55637100  0.06651600  0.31336200  1
  Fe  Fe7  1  0.06651600  0.55637100  0.31336200  1
  Fe  Fe8  1  0.56475100  0.56475100  0.81062500  1
  Fe  Fe9  1  0.80887300  0.80887300  0.56922500  1
  Fe  Fe10  1  0.05871400  0.56496900  0.80946900  1
  Fe  Fe11  1  0.56496900  0.05871400  0.80946900  1
  O  O12  1  0.44108200  0.94950300  0.19127700  1
  O  O13  1  0.94950300  0.44108200  0.19127700  1
  O  O14  1  0.43165200  0.43165200  0.19480200  1
  O  O15  1  0.20010900  0.20010900  0.41682200  1
  O  O16  1  0.93223000  0.93223000  0.19474500  1
  O  O17  1  0.69682000  0.69682000  0.43513200  1
  O  O18  1  0.68802100  0.16717000  0.43852200  1
  O  O19  1  0.16717000  0.68802100  0.43852200  1
  O  O20  1  0.91702700  0.46550000  0.69688000  1
  O  O21  1  0.46550000  0.91702700  0.69688000  1
  O  O22  1  0.91808100  0.91808100  0.69368200  1
  O  O23  1  0.69209100  0.69209100  0.93002900  1
  O  O24  1  0.43231400  0.43231400  0.69775800  1
  O  O25  1  0.19755200  0.19755200  0.92890400  1
  O  O26  1  0.67636500  0.19887900  0.92688400  1
  O  O27  1  0.19887900  0.67636500  0.92688400  1
