# generated using pymatgen
data_Li5(CoO2)4
_symmetry_space_group_name_H-M   'P 1'
_cell_length_a   5.77872642
_cell_length_b   5.77872642
_cell_length_c   9.53728100
_cell_angle_alpha   90.00000000
_cell_angle_beta   90.00000000
_cell_angle_gamma   120.00000478
_symmetry_Int_Tables_number   1
_chemical_formula_structural   Li5(CoO2)4
_chemical_formula_sum   'Li10 Co8 O16'
_cell_volume   275.81600114
_cell_formula_units_Z   2
loop_
 _symmetry_equiv_pos_site_id
 _symmetry_equiv_pos_as_xyz
  1  'x, y, z'
loop_
 _atom_site_type_symbol
 _atom_site_label
 _atom_site_symmetry_multiplicity
 _atom_site_fract_x
 _atom_site_fract_y
 _atom_site_fract_z
 _atom_site_occupancy
  Li  Li0  1  0.19128800  0.80871200  0.05748300  1
  Li  Li1  1  0.61742400  0.80871200  0.05748300  1
  Li  Li2  1  0.33333300  0.66666700  0.27761500  1
  Li  Li3  1  0.00000000  0.00000000  0.48011500  1
  Li  Li4  1  0.19128800  0.38257600  0.05748300  1
  Li  Li5  1  0.80871200  0.61742400  0.55748300  1
  Li  Li6  1  0.38257600  0.19128800  0.55748300  1
  Li  Li7  1  0.66666700  0.33333300  0.77761500  1
  Li  Li8  1  0.80871200  0.19128800  0.55748300  1
  Li  Li9  1  0.00000000  0.00000000  0.98011500  1
  Co  Co10  1  0.33333300  0.66666700  0.52765500  1
  Co  Co11  1  0.66666700  0.33333300  0.02765500  1
  Co  Co12  1  0.65963000  0.82981500  0.78613100  1
  Co  Co13  1  0.17018500  0.34037000  0.78613100  1
  Co  Co14  1  0.82981500  0.65963000  0.28613100  1
  Co  Co15  1  0.82981500  0.17018500  0.28613100  1
  Co  Co16  1  0.17018500  0.82981500  0.78613100  1
  Co  Co17  1  0.34037000  0.17018500  0.28613100  1
  O  O18  1  0.15869600  0.84130400  0.39956100  1
  O  O19  1  0.49304800  0.98609700  0.67184700  1
  O  O20  1  0.01390300  0.50695200  0.67184700  1
  O  O21  1  0.68260900  0.84130400  0.39956100  1
  O  O22  1  0.33333300  0.66666700  0.89487200  1
  O  O23  1  0.49304800  0.50695200  0.67184700  1
  O  O24  1  0.84130400  0.68260900  0.89956100  1
  O  O25  1  0.15869600  0.31739100  0.39956100  1
  O  O26  1  0.50695200  0.49304800  0.17184700  1
  O  O27  1  0.66666700  0.33333300  0.39487200  1
  O  O28  1  0.00000000  0.00000000  0.17940700  1
  O  O29  1  0.98609700  0.49304800  0.17184700  1
  O  O30  1  0.00000000  0.00000000  0.67940700  1
  O  O31  1  0.31739100  0.15869600  0.89956100  1
  O  O32  1  0.50695200  0.01390300  0.17184700  1
  O  O33  1  0.84130400  0.15869600  0.89956100  1
