# generated using pymatgen
data_Li4Ti2Si4O13
_symmetry_space_group_name_H-M   'P 1'
_cell_length_a   5.07568300
_cell_length_b   13.81293800
_cell_length_c   14.20419900
_cell_angle_alpha   90.00000000
_cell_angle_beta   90.00000000
_cell_angle_gamma   90.00000000
_symmetry_Int_Tables_number   1
_chemical_formula_structural   Li4Ti2Si4O13
_chemical_formula_sum   'Li16 Ti8 Si16 O52'
_cell_volume   995.85773542
_cell_formula_units_Z   4
loop_
 _symmetry_equiv_pos_site_id
 _symmetry_equiv_pos_as_xyz
  1  'x, y, z'
loop_
 _atom_site_type_symbol
 _atom_site_label
 _atom_site_symmetry_multiplicity
 _atom_site_fract_x
 _atom_site_fract_y
 _atom_site_fract_z
 _atom_site_occupancy
  Li  Li0  1  0.17859200  0.04037700  0.22220000  1
  Li  Li1  1  0.66813700  0.10830300  0.92178000  1
  Li  Li2  1  0.65534800  0.13401600  0.10874800  1
  Li  Li3  1  0.25002800  0.21172500  0.83720500  1
  Li  Li4  1  0.75002800  0.28827500  0.33720500  1
  Li  Li5  1  0.15534800  0.36598400  0.60874800  1
  Li  Li6  1  0.16813700  0.39169700  0.42178000  1
  Li  Li7  1  0.67859200  0.45962300  0.72220000  1
  Li  Li8  1  0.32140800  0.54037700  0.22220000  1
  Li  Li9  1  0.83186300  0.60830300  0.92178000  1
  Li  Li10  1  0.84465200  0.63401600  0.10874800  1
  Li  Li11  1  0.24997200  0.71172500  0.83720500  1
  Li  Li12  1  0.74997200  0.78827500  0.33720500  1
  Li  Li13  1  0.34465200  0.86598400  0.60874800  1
  Li  Li14  1  0.33186300  0.89169700  0.42178000  1
  Li  Li15  1  0.82140800  0.95962300  0.72220000  1
  Ti  Ti16  1  0.35049300  0.08247400  0.62418400  1
  Ti  Ti17  1  0.18656400  0.16898600  0.42423900  1
  Ti  Ti18  1  0.68656400  0.33101400  0.92423900  1
  Ti  Ti19  1  0.85049300  0.41752600  0.12418400  1
  Ti  Ti20  1  0.14950700  0.58247400  0.62418400  1
  Ti  Ti21  1  0.31343600  0.66898600  0.42423900  1
  Ti  Ti22  1  0.81343600  0.83101400  0.92423900  1
  Ti  Ti23  1  0.64950700  0.91752600  0.12418400  1
  Si  Si24  1  0.16155700  0.02176400  0.99944900  1
  Si  Si25  1  0.68961000  0.06153600  0.31649900  1
  Si  Si26  1  0.84556600  0.18947600  0.72927500  1
  Si  Si27  1  0.18153900  0.22505600  0.04784200  1
  Si  Si28  1  0.68153900  0.27494400  0.54784200  1
  Si  Si29  1  0.34556600  0.31052400  0.22927500  1
  Si  Si30  1  0.18961000  0.43846400  0.81649900  1
  Si  Si31  1  0.66155700  0.47823600  0.49944900  1
  Si  Si32  1  0.33844300  0.52176400  0.99944900  1
  Si  Si33  1  0.81039000  0.56153600  0.31649900  1
  Si  Si34  1  0.65443400  0.68947600  0.72927500  1
  Si  Si35  1  0.31846100  0.72505600  0.04784200  1
  Si  Si36  1  0.81846100  0.77494400  0.54784200  1
  Si  Si37  1  0.15443400  0.81052400  0.22927500  1
  Si  Si38  1  0.31039000  0.93846400  0.81649900  1
  Si  Si39  1  0.83844300  0.97823600  0.49944900  1
  O  O40  1  0.43995000  0.02376600  0.05417300  1
  O  O41  1  0.76885400  0.03565000  0.20750100  1
  O  O42  1  0.21611800  0.03321500  0.88472200  1
  O  O43  1  0.04766700  0.06466800  0.52100300  1
  O  O44  1  0.37503300  0.07430100  0.33759000  1
  O  O45  1  0.67423500  0.09351800  0.70593500  1
  O  O46  1  0.99993000  0.12489700  0.02616900  1
  O  O47  1  0.86065600  0.15589300  0.34685100  1
  O  O48  1  0.15883100  0.17693800  0.70360000  1
  O  O49  1  0.48532900  0.18477100  0.52591000  1
  O  O50  1  0.24626200  0.21642200  0.16187100  1
  O  O51  1  0.82296600  0.21551400  0.84152900  1
  O  O52  1  0.45524600  0.21771000  0.98858700  1
  O  O53  1  0.95524600  0.28229000  0.48858700  1
  O  O54  1  0.32296600  0.28448600  0.34152900  1
  O  O55  1  0.74626200  0.28357800  0.66187100  1
  O  O56  1  0.98532900  0.31522900  0.02591000  1
  O  O57  1  0.65883100  0.32306200  0.20360000  1
  O  O58  1  0.36065600  0.34410700  0.84685100  1
  O  O59  1  0.49993000  0.37510300  0.52616900  1
  O  O60  1  0.17423500  0.40648200  0.20593500  1
  O  O61  1  0.87503300  0.42569900  0.83759000  1
  O  O62  1  0.54766700  0.43533200  0.02100300  1
  O  O63  1  0.71611800  0.46678500  0.38472200  1
  O  O64  1  0.26885400  0.46435000  0.70750100  1
  O  O65  1  0.93995000  0.47623400  0.55417300  1
  O  O66  1  0.06005000  0.52376600  0.05417300  1
  O  O67  1  0.73114600  0.53565000  0.20750100  1
  O  O68  1  0.28388200  0.53321500  0.88472200  1
  O  O69  1  0.45233300  0.56466800  0.52100300  1
  O  O70  1  0.12496700  0.57430100  0.33759000  1
  O  O71  1  0.82576500  0.59351800  0.70593500  1
  O  O72  1  0.50007000  0.62489700  0.02616900  1
  O  O73  1  0.63934400  0.65589300  0.34685100  1
  O  O74  1  0.34116900  0.67693800  0.70360000  1
  O  O75  1  0.01467100  0.68477100  0.52591000  1
  O  O76  1  0.25373800  0.71642200  0.16187100  1
  O  O77  1  0.67703400  0.71551400  0.84152900  1
  O  O78  1  0.04475400  0.71771000  0.98858700  1
  O  O79  1  0.54475400  0.78229000  0.48858700  1
  O  O80  1  0.17703400  0.78448600  0.34152900  1
  O  O81  1  0.75373800  0.78357800  0.66187100  1
  O  O82  1  0.51467100  0.81522900  0.02591000  1
  O  O83  1  0.84116900  0.82306200  0.20360000  1
  O  O84  1  0.13934400  0.84410700  0.84685100  1
  O  O85  1  0.00007000  0.87510300  0.52616900  1
  O  O86  1  0.32576500  0.90648200  0.20593500  1
  O  O87  1  0.62496700  0.92569900  0.83759000  1
  O  O88  1  0.95233300  0.93533200  0.02100300  1
  O  O89  1  0.78388200  0.96678500  0.38472200  1
  O  O90  1  0.23114600  0.96435000  0.70750100  1
  O  O91  1  0.56005000  0.97623400  0.55417300  1
