# generated using pymatgen
data_Li3Mn5OF11
_symmetry_space_group_name_H-M   'P 1'
_cell_length_a   5.41302955
_cell_length_b   5.75387773
_cell_length_c   9.55952143
_cell_angle_alpha   86.09320071
_cell_angle_beta   74.45431593
_cell_angle_gamma   118.42310773
_symmetry_Int_Tables_number   1
_chemical_formula_structural   Li3Mn5OF11
_chemical_formula_sum   'Li3 Mn5 O1 F11'
_cell_volume   245.44889245
_cell_formula_units_Z   1
loop_
 _symmetry_equiv_pos_site_id
 _symmetry_equiv_pos_as_xyz
  1  'x, y, z'
loop_
 _atom_site_type_symbol
 _atom_site_label
 _atom_site_symmetry_multiplicity
 _atom_site_fract_x
 _atom_site_fract_y
 _atom_site_fract_z
 _atom_site_occupancy
  Li  Li0  1  0.13927119  0.85050957  0.57582348  1
  Li  Li1  1  0.84019102  0.12801542  0.44408135  1
  Li  Li2  1  0.85366122  0.62094445  0.92490090  1
  Mn  Mn3  1  0.12208856  0.36027962  0.06915350  1
  Mn  Mn4  1  0.38151658  0.91704393  0.17585293  1
  Mn  Mn5  1  0.35379587  0.37812838  0.67034194  1
  Mn  Mn6  1  0.64336014  0.61150642  0.32457880  1
  Mn  Mn7  1  0.66076619  0.11893168  0.82959015  1
  O  O8  1  0.74657110  0.22822315  0.01990891  1
  F  F9  1  0.06484110  0.53220329  0.71145740  1
  F  F10  1  0.04164549  0.02075112  0.22717486  1
  F  F11  1  0.44912912  0.87170435  0.38180061  1
  F  F12  1  0.53790724  0.61575632  0.12590052  1
  F  F13  1  0.24547089  0.27059908  0.47008907  1
  F  F14  1  0.23345482  0.78050428  0.97586590  1
  F  F15  1  0.75611007  0.72105304  0.52399942  1
  F  F16  1  0.45258654  0.39473621  0.86902299  1
  F  F17  1  0.56315204  0.13074962  0.62768779  1
  F  F18  1  0.95543359  0.47925628  0.28230501  1
  F  F19  1  0.95904823  0.96910578  0.77046447  1
