# generated using pymatgen
data_LiMn2(BO3)2
_symmetry_space_group_name_H-M   'P 1'
_cell_length_a   5.30009400
_cell_length_b   5.80270498
_cell_length_c   18.01444641
_cell_angle_alpha   83.85873955
_cell_angle_beta   82.19576857
_cell_angle_gamma   65.86495076
_symmetry_Int_Tables_number   1
_chemical_formula_structural   LiMn2(BO3)2
_chemical_formula_sum   'Li4 Mn8 B8 O24'
_cell_volume   500.10610540
_cell_formula_units_Z   4
loop_
 _symmetry_equiv_pos_site_id
 _symmetry_equiv_pos_as_xyz
  1  'x, y, z'
loop_
 _atom_site_type_symbol
 _atom_site_label
 _atom_site_symmetry_multiplicity
 _atom_site_fract_x
 _atom_site_fract_y
 _atom_site_fract_z
 _atom_site_occupancy
  Li  Li0  1  0.82000900  0.77915200  0.38980400  1
  Li  Li1  1  0.17999100  0.22084800  0.61019600  1
  Li  Li2  1  0.32483200  0.02481400  0.14057500  1
  Li  Li3  1  0.67516800  0.97518600  0.85942500  1
  Mn  Mn4  1  0.28590400  0.77301700  0.47330400  1
  Mn  Mn5  1  0.71578800  0.71732400  0.02983800  1
  Mn  Mn6  1  0.71409600  0.22698300  0.52669600  1
  Mn  Mn7  1  0.21709100  0.46553000  0.28023600  1
  Mn  Mn8  1  0.28421200  0.28267600  0.97016200  1
  Mn  Mn9  1  0.78290900  0.53447000  0.71976400  1
  Mn  Mn10  1  0.78533800  0.01921600  0.22326400  1
  Mn  Mn11  1  0.21466200  0.98078400  0.77673600  1
  B  B12  1  0.69890000  0.56204700  0.19394700  1
  B  B13  1  0.20020400  0.81978400  0.93776900  1
  B  B14  1  0.80740700  0.68479500  0.55389900  1
  B  B15  1  0.19259300  0.31520500  0.44610100  1
  B  B16  1  0.30110000  0.43795300  0.80605300  1
  B  B17  1  0.70462200  0.06180600  0.69035400  1
  B  B18  1  0.29537800  0.93819400  0.30964600  1
  B  B19  1  0.79979600  0.18021600  0.06223100  1
  O  O20  1  0.44383100  0.86832700  0.36995000  1
  O  O21  1  0.60974900  0.60010700  0.53857600  1
  O  O22  1  0.07340100  0.87160700  0.30420800  1
  O  O23  1  0.85816000  0.85653200  0.49703000  1
  O  O24  1  0.55017800  0.65908600  0.13417500  1
  O  O25  1  0.95642800  0.59092000  0.61273800  1
  O  O26  1  0.65178400  0.37667400  0.24428000  1
  O  O27  1  0.12982200  0.66014200  0.99209500  1
  O  O28  1  0.39025100  0.39989300  0.46142400  1
  O  O29  1  0.88657100  0.65529300  0.21277800  1
  O  O30  1  0.34821600  0.62332600  0.75572000  1
  O  O31  1  0.04357200  0.40908000  0.38726200  1
  O  O32  1  0.44982200  0.34091400  0.86582500  1
  O  O33  1  0.14184000  0.14346800  0.50297000  1
  O  O34  1  0.58619700  0.10556400  0.05164500  1
  O  O35  1  0.11342900  0.34470700  0.78722200  1
  O  O36  1  0.37194000  0.07559500  0.24721200  1
  O  O37  1  0.87017800  0.33985800  0.00790500  1
  O  O38  1  0.55616900  0.13167300  0.63005000  1
  O  O39  1  0.94962900  0.09305200  0.12312600  1
  O  O40  1  0.62806000  0.92440500  0.75278800  1
  O  O41  1  0.41380300  0.89443600  0.94835500  1
  O  O42  1  0.92659900  0.12839300  0.69579200  1
  O  O43  1  0.05037100  0.90694800  0.87687400  1
