# generated using pymatgen
data_Li3CrPCO7
_symmetry_space_group_name_H-M   'P 1'
_cell_length_a   6.47610900
_cell_length_b   9.51209900
_cell_length_c   9.98235425
_cell_angle_alpha   63.71185407
_cell_angle_beta   90.00000000
_cell_angle_gamma   90.00000000
_symmetry_Int_Tables_number   1
_chemical_formula_structural   Li3CrPCO7
_chemical_formula_sum   'Li12 Cr4 P4 C4 O28'
_cell_volume   551.32997593
_cell_formula_units_Z   4
loop_
 _symmetry_equiv_pos_site_id
 _symmetry_equiv_pos_as_xyz
  1  'x, y, z'
loop_
 _atom_site_type_symbol
 _atom_site_label
 _atom_site_symmetry_multiplicity
 _atom_site_fract_x
 _atom_site_fract_y
 _atom_site_fract_z
 _atom_site_occupancy
  Li  Li0  1  0.24222700  0.10997500  0.55883000  1
  Li  Li1  1  0.25777300  0.10997500  0.05883000  1
  Li  Li2  1  0.47844400  0.29475400  0.73655900  1
  Li  Li3  1  0.02155600  0.29475400  0.23655900  1
  Li  Li4  1  0.74442500  0.35610100  0.93392700  1
  Li  Li5  1  0.75557500  0.35610100  0.43392700  1
  Li  Li6  1  0.24442500  0.64389900  0.56607300  1
  Li  Li7  1  0.25557500  0.64389900  0.06607300  1
  Li  Li8  1  0.97844400  0.70524600  0.76344100  1
  Li  Li9  1  0.52155600  0.70524600  0.26344100  1
  Li  Li10  1  0.74222700  0.89002500  0.94117000  1
  Li  Li11  1  0.75777300  0.89002500  0.44117000  1
  Cr  Cr12  1  0.98570400  0.25901100  0.74654200  1
  Cr  Cr13  1  0.51429600  0.25901100  0.24654200  1
  Cr  Cr14  1  0.48570400  0.74098900  0.75345800  1
  Cr  Cr15  1  0.01429600  0.74098900  0.25345800  1
  P  P16  1  0.24927200  0.41131200  0.93269900  1
  P  P17  1  0.25072800  0.41131200  0.43269900  1
  P  P18  1  0.74927200  0.58868800  0.56730100  1
  P  P19  1  0.75072800  0.58868800  0.06730100  1
  C  C20  1  0.74731200  0.03834900  0.62783800  1
  C  C21  1  0.75268800  0.03834900  0.12783800  1
  C  C22  1  0.24731200  0.96165100  0.87216200  1
  C  C23  1  0.25268800  0.96165100  0.37216200  1
  O  O24  1  0.75661500  0.06251000  0.99147600  1
  O  O25  1  0.74338500  0.06251000  0.49147600  1
  O  O26  1  0.22968800  0.10619600  0.76295500  1
  O  O27  1  0.76549200  0.15198400  0.66503100  1
  O  O28  1  0.27031200  0.10619600  0.26295500  1
  O  O29  1  0.73450800  0.15198400  0.16503100  1
  O  O30  1  0.05912500  0.31516800  0.92264900  1
  O  O31  1  0.43834200  0.31301500  0.93026000  1
  O  O32  1  0.06165800  0.31301500  0.43026000  1
  O  O33  1  0.44087500  0.31516800  0.42264900  1
  O  O34  1  0.74884500  0.42074200  0.70053000  1
  O  O35  1  0.26053800  0.42595200  0.58122500  1
  O  O36  1  0.75115500  0.42074200  0.20053000  1
  O  O37  1  0.23946200  0.42595200  0.08122500  1
  O  O38  1  0.76053800  0.57404800  0.91877500  1
  O  O39  1  0.24884500  0.57925800  0.79947000  1
  O  O40  1  0.73946200  0.57404800  0.41877500  1
  O  O41  1  0.25115500  0.57925800  0.29947000  1
  O  O42  1  0.93834200  0.68698500  0.56974000  1
  O  O43  1  0.55912500  0.68483200  0.57735100  1
  O  O44  1  0.94087500  0.68483200  0.07735100  1
  O  O45  1  0.56165800  0.68698500  0.06974000  1
  O  O46  1  0.26549200  0.84801600  0.83496900  1
  O  O47  1  0.72968800  0.89380400  0.73704500  1
  O  O48  1  0.23450800  0.84801600  0.33496900  1
  O  O49  1  0.77031200  0.89380400  0.23704500  1
  O  O50  1  0.25661500  0.93749000  0.50852400  1
  O  O51  1  0.24338500  0.93749000  0.00852400  1
