# generated using pymatgen
data_LiBi4P7O24
_symmetry_space_group_name_H-M   'P 1'
_cell_length_a   11.00550356
_cell_length_b   11.13680485
_cell_length_c   11.62396863
_cell_angle_alpha   112.28090760
_cell_angle_beta   108.88945813
_cell_angle_gamma   104.86187857
_symmetry_Int_Tables_number   1
_chemical_formula_structural   LiBi4P7O24
_chemical_formula_sum   'Li2 Bi8 P14 O48'
_cell_volume   1124.23913783
_cell_formula_units_Z   2
loop_
 _symmetry_equiv_pos_site_id
 _symmetry_equiv_pos_as_xyz
  1  'x, y, z'
loop_
 _atom_site_type_symbol
 _atom_site_label
 _atom_site_symmetry_multiplicity
 _atom_site_fract_x
 _atom_site_fract_y
 _atom_site_fract_z
 _atom_site_occupancy
  Li  Li0  1  0.03310492  0.32697492  0.61792488  1
  Li  Li1  1  0.96689508  0.67302508  0.38207512  1
  Bi  Bi2  1  0.24088400  0.82471234  0.74678542  1
  Bi  Bi3  1  0.07917652  0.71205650  0.06432105  1
  Bi  Bi4  1  0.37331446  0.23314860  0.88848847  1
  Bi  Bi5  1  0.42806651  0.59870926  0.40363387  1
  Bi  Bi6  1  0.57193349  0.40129074  0.59636613  1
  Bi  Bi7  1  0.62668554  0.76685140  0.11151153  1
  Bi  Bi8  1  0.92082348  0.28794350  0.93567895  1
  Bi  Bi9  1  0.75911600  0.17528766  0.25321458  1
  P  P10  1  0.99767588  0.97427434  0.77299845  1
  P  P11  1  0.22318267  0.81478993  0.42590042  1
  P  P12  1  0.07622043  0.33535595  0.29882917  1
  P  P13  1  0.51613280  0.72534810  0.76371276  1
  P  P14  1  0.24444235  0.11528188  0.50429940  1
  P  P15  1  0.39872934  0.96362911  0.14097470  1
  P  P16  1  0.29930107  0.52340137  0.03742709  1
  P  P17  1  0.70069893  0.47659863  0.96257291  1
  P  P18  1  0.60127066  0.03637089  0.85902530  1
  P  P19  1  0.75555765  0.88471812  0.49570060  1
  P  P20  1  0.48386720  0.27465190  0.23628724  1
  P  P21  1  0.92377957  0.66464405  0.70117083  1
  P  P22  1  0.77681733  0.18521007  0.57409958  1
  P  P23  1  0.00232412  0.02572566  0.22700155  1
  O  O24  1  0.01203626  0.65823517  0.82880454  1
  O  O25  1  0.99489417  0.65847167  0.60584396  1
  O  O26  1  0.32610602  0.91817336  0.98670190  1
  O  O27  1  0.02247105  0.91282059  0.12448209  1
  O  O28  1  0.15809959  0.80088071  0.52236716  1
  O  O29  1  0.09455554  0.72572876  0.27666823  1
  O  O30  1  0.25473126  0.36736749  0.92205303  1
  O  O31  1  0.15142758  0.00779263  0.79970692  1
  O  O32  1  0.28440600  0.98165603  0.46635440  1
  O  O33  1  0.35913755  0.68783192  0.72657652  1
  O  O34  1  0.08217909  0.05392828  0.38516322  1
  O  O35  1  0.07340846  0.17301813  0.23321136  1
  O  O36  1  0.23145921  0.44152465  0.38200599  1
  O  O37  1  0.23848089  0.16625564  0.64114456  1
  O  O38  1  0.15450273  0.53135349  0.02103119  1
  O  O39  1  0.34943927  0.77932852  0.44573127  1
  O  O40  1  0.31125906  0.87089081  0.18121135  1
  O  O41  1  0.60663072  0.74643774  0.90616346  1
  O  O42  1  0.58337376  0.87513543  0.76621305  1
  O  O43  1  0.34133879  0.22166661  0.48682759  1
  O  O44  1  0.52614074  0.61522660  0.64195216  1
  O  O45  1  0.44651509  0.02453524  0.80764610  1
  O  O46  1  0.61310619  0.36897951  0.99158254  1
  O  O47  1  0.39099780  0.55437568  0.18698541  1
  O  O48  1  0.60900220  0.44562432  0.81301459  1
  O  O49  1  0.38689381  0.63102049  0.00841746  1
  O  O50  1  0.55348491  0.97546476  0.19235390  1
  O  O51  1  0.47385926  0.38477340  0.35804784  1
  O  O52  1  0.65866121  0.77833339  0.51317241  1
  O  O53  1  0.41662624  0.12486457  0.23378695  1
  O  O54  1  0.39336928  0.25356226  0.09383654  1
  O  O55  1  0.68874094  0.12910919  0.81878865  1
  O  O56  1  0.65056073  0.22067148  0.55426873  1
  O  O57  1  0.84549727  0.46864651  0.97896881  1
  O  O58  1  0.76151911  0.83374436  0.35885544  1
  O  O59  1  0.76854079  0.55847535  0.61799401  1
  O  O60  1  0.92659154  0.82698187  0.76678864  1
  O  O61  1  0.91782091  0.94607172  0.61483678  1
  O  O62  1  0.64086245  0.31216808  0.27342348  1
  O  O63  1  0.71559400  0.01834397  0.53364560  1
  O  O64  1  0.84857242  0.99220737  0.20029308  1
  O  O65  1  0.74526874  0.63263251  0.07794697  1
  O  O66  1  0.90544446  0.27427124  0.72333177  1
  O  O67  1  0.84190041  0.19911929  0.47763284  1
  O  O68  1  0.97752895  0.08717941  0.87551791  1
  O  O69  1  0.67389398  0.08182664  0.01329810  1
  O  O70  1  0.00510583  0.34152833  0.39415604  1
  O  O71  1  0.98796374  0.34176483  0.17119546  1
