# generated using pymatgen
data_LiP4WO12
_symmetry_space_group_name_H-M   'P 1'
_cell_length_a   13.21291200
_cell_length_b   7.60250800
_cell_length_c   11.98665333
_cell_angle_alpha   53.15903357
_cell_angle_beta   90.00000000
_cell_angle_gamma   90.00000000
_symmetry_Int_Tables_number   1
_chemical_formula_structural   LiP4WO12
_chemical_formula_sum   'Li4 P16 W4 O48'
_cell_volume   963.62430407
_cell_formula_units_Z   4
loop_
 _symmetry_equiv_pos_site_id
 _symmetry_equiv_pos_as_xyz
  1  'x, y, z'
loop_
 _atom_site_type_symbol
 _atom_site_label
 _atom_site_symmetry_multiplicity
 _atom_site_fract_x
 _atom_site_fract_y
 _atom_site_fract_z
 _atom_site_occupancy
  Li  Li0  1  0.20439000  0.39226200  0.00569700  1
  Li  Li1  1  0.70439000  0.60773800  0.49430300  1
  Li  Li2  1  0.29561000  0.39226200  0.50569700  1
  Li  Li3  1  0.79561000  0.60773800  0.99430300  1
  P  P4  1  0.60541900  0.82057900  0.78171100  1
  P  P5  1  0.38575400  0.92205500  0.77429500  1
  P  P6  1  0.86436600  0.67504900  0.73920400  1
  P  P7  1  0.08076500  0.55026700  0.74704900  1
  P  P8  1  0.58076500  0.44973300  0.75295100  1
  P  P9  1  0.36436600  0.32495100  0.76079600  1
  P  P10  1  0.88575400  0.07794500  0.72570500  1
  P  P11  1  0.10541900  0.17942100  0.71828900  1
  P  P12  1  0.89458100  0.82057900  0.28171100  1
  P  P13  1  0.11424600  0.92205500  0.27429500  1
  P  P14  1  0.63563400  0.67504900  0.23920400  1
  P  P15  1  0.41923500  0.55026700  0.24704900  1
  P  P16  1  0.91923500  0.44973300  0.25295100  1
  P  P17  1  0.13563400  0.32495100  0.26079600  1
  P  P18  1  0.61424600  0.07794500  0.22570500  1
  P  P19  1  0.39458100  0.17942100  0.21828900  1
  W  W20  1  0.77130400  0.12794200  0.97748200  1
  W  W21  1  0.27130400  0.87205800  0.52251800  1
  W  W22  1  0.72869600  0.12794200  0.47748200  1
  W  W23  1  0.22869600  0.87205800  0.02251800  1
  O  O24  1  0.31399600  0.80825900  0.89598000  1
  O  O25  1  0.08609000  0.41295000  0.90146800  1
  O  O26  1  0.82638800  0.46302100  0.86949100  1
  O  O27  1  0.68655800  0.80271100  0.87345700  1
  O  O28  1  0.49662400  0.83707500  0.83786100  1
  O  O29  1  0.29349600  0.20275700  0.88323200  1
  O  O30  1  0.10711500  0.99965200  0.87350500  1
  O  O31  1  0.59689200  0.58074600  0.81694900  1
  O  O32  1  0.64781700  0.24942200  0.83325700  1
  O  O33  1  0.46667500  0.35811300  0.81426500  1
  O  O34  1  0.89398300  0.81771900  0.79426400  1
  O  O35  1  0.86587200  0.09919200  0.83969200  1
  O  O36  1  0.36587200  0.90080800  0.66030800  1
  O  O37  1  0.96667500  0.64188700  0.68573500  1
  O  O38  1  0.39398300  0.18228100  0.70573600  1
  O  O39  1  0.14781700  0.75057800  0.66674300  1
  O  O40  1  0.09689200  0.41925400  0.68305100  1
  O  O41  1  0.60711500  0.00034800  0.62649500  1
  O  O42  1  0.79349600  0.79724300  0.61676800  1
  O  O43  1  0.99662400  0.16292500  0.66213900  1
  O  O44  1  0.32638800  0.53697900  0.63050900  1
  O  O45  1  0.18655800  0.19728900  0.62654300  1
  O  O46  1  0.58609000  0.58705000  0.59853200  1
  O  O47  1  0.81399600  0.19174100  0.60402000  1
  O  O48  1  0.18600400  0.80825900  0.39598000  1
  O  O49  1  0.41391000  0.41295000  0.40146800  1
  O  O50  1  0.81344200  0.80271100  0.37345700  1
  O  O51  1  0.67361200  0.46302100  0.36949100  1
  O  O52  1  0.00337600  0.83707500  0.33786100  1
  O  O53  1  0.20650400  0.20275700  0.38323200  1
  O  O54  1  0.39288500  0.99965200  0.37350500  1
  O  O55  1  0.90310800  0.58074600  0.31694900  1
  O  O56  1  0.85218300  0.24942200  0.33325700  1
  O  O57  1  0.60601700  0.81771900  0.29426400  1
  O  O58  1  0.03332500  0.35811300  0.31426500  1
  O  O59  1  0.63412800  0.09919200  0.33969200  1
  O  O60  1  0.13412800  0.90080800  0.16030800  1
  O  O61  1  0.10601700  0.18228100  0.20573600  1
  O  O62  1  0.53332500  0.64188700  0.18573500  1
  O  O63  1  0.35218300  0.75057800  0.16674300  1
  O  O64  1  0.40310800  0.41925400  0.18305100  1
  O  O65  1  0.89288500  0.00034800  0.12649500  1
  O  O66  1  0.70650400  0.79724300  0.11676800  1
  O  O67  1  0.50337600  0.16292500  0.16213900  1
  O  O68  1  0.31344200  0.19728900  0.12654300  1
  O  O69  1  0.17361200  0.53697900  0.13050900  1
  O  O70  1  0.91391000  0.58705000  0.09853200  1
  O  O71  1  0.68600400  0.19174100  0.10402000  1
