# generated using pymatgen
data_Li2Ti3O6
_symmetry_space_group_name_H-M   'P 1'
_cell_length_a   5.09515321
_cell_length_b   5.09515321
_cell_length_c   5.27457118
_cell_angle_alpha   80.81778652
_cell_angle_beta   80.81778652
_cell_angle_gamma   119.90632139
_symmetry_Int_Tables_number   1
_chemical_formula_structural   Li2Ti3O6
_chemical_formula_sum   'Li2 Ti3 O6'
_cell_volume   112.50813537
_cell_formula_units_Z   1
loop_
 _symmetry_equiv_pos_site_id
 _symmetry_equiv_pos_as_xyz
  1  'x, y, z'
loop_
 _atom_site_type_symbol
 _atom_site_label
 _atom_site_symmetry_multiplicity
 _atom_site_fract_x
 _atom_site_fract_y
 _atom_site_fract_z
 _atom_site_occupancy
  Li  Li0  1  0.83262700  0.16737300  0.50000000  1
  Li  Li1  1  0.16737300  0.83262700  0.50000000  1
  Ti  Ti2  1  0.66252600  0.33747400  0.00000000  1
  Ti  Ti3  1  0.33747400  0.66252600  0.00000000  1
  Ti  Ti4  1  0.00000000  0.00000000  0.00000000  1
  O  O5  1  0.24831900  0.24831900  0.22656400  1
  O  O6  1  0.93559000  0.59289000  0.22122500  1
  O  O7  1  0.59289000  0.93559000  0.22122500  1
  O  O8  1  0.40711000  0.06441000  0.77877500  1
  O  O9  1  0.06441000  0.40711000  0.77877500  1
  O  O10  1  0.75168100  0.75168100  0.77343600  1
