# generated using pymatgen
data_Li4Cr2Ni3Sn(PO4)6
_symmetry_space_group_name_H-M   'P 1'
_cell_length_a   8.41975200
_cell_length_b   8.69223835
_cell_length_c   8.70312840
_cell_angle_alpha   61.78745482
_cell_angle_beta   62.65487996
_cell_angle_gamma   62.55833479
_symmetry_Int_Tables_number   1
_chemical_formula_structural   Li4Cr2Ni3Sn(PO4)6
_chemical_formula_sum   'Li4 Cr2 Ni3 Sn1 P6 O24'
_cell_volume   473.78335044
_cell_formula_units_Z   1
loop_
 _symmetry_equiv_pos_site_id
 _symmetry_equiv_pos_as_xyz
  1  'x, y, z'
loop_
 _atom_site_type_symbol
 _atom_site_label
 _atom_site_symmetry_multiplicity
 _atom_site_fract_x
 _atom_site_fract_y
 _atom_site_fract_z
 _atom_site_occupancy
  Li  Li0  1  0.25401900  0.64911300  0.85023900  1
  Li  Li1  1  0.70744300  0.35975400  0.15525200  1
  Li  Li2  1  0.36589400  0.15032600  0.70641500  1
  Li  Li3  1  0.14450900  0.70274000  0.36343000  1
  Cr  Cr4  1  0.98971100  0.99733600  0.99864400  1
  Cr  Cr5  1  0.50778900  0.49998400  0.50057400  1
  Ni  Ni6  1  0.85484900  0.85524700  0.85207500  1
  Ni  Ni7  1  0.64649600  0.64757800  0.64424900  1
  Ni  Ni8  1  0.35352500  0.34827900  0.35170800  1
  Sn  Sn9  1  0.14897300  0.14801000  0.15337200  1
  P  P10  1  0.74985200  0.04479800  0.45791800  1
  P  P11  1  0.44512900  0.75072300  0.04162100  1
  P  P12  1  0.05679000  0.46081600  0.75277700  1
  P  P13  1  0.94294200  0.55370900  0.25417200  1
  P  P14  1  0.56197400  0.25268000  0.94962300  1
  P  P15  1  0.25398200  0.94607400  0.55817500  1
  O  O16  1  0.89522800  0.50195700  0.69339700  1
  O  O17  1  0.69559800  0.88955300  0.48232500  1
  O  O18  1  0.94505900  0.73195100  0.08704800  1
  O  O19  1  0.45340500  0.69700000  0.89386600  1
  O  O20  1  0.97836500  0.39248000  0.19367600  1
  O  O21  1  0.74879600  0.56870500  0.40322300  1
  O  O22  1  0.75173900  0.09855800  0.92674600  1
  O  O23  1  0.55219400  0.41660700  0.76934800  1
  O  O24  1  0.81720400  0.01380500  0.60633300  1
  O  O25  1  0.40361300  0.75297900  0.57659000  1
  O  O26  1  0.90332100  0.07927100  0.25417000  1
  O  O27  1  0.60194800  0.81858900  0.99453500  1
  O  O28  1  0.40110900  0.18121200  0.98838300  1
  O  O29  1  0.09992800  0.92183900  0.74738800  1
  O  O30  1  0.59291600  0.23992800  0.43196100  1
  O  O31  1  0.19182200  0.97827100  0.39752000  1
  O  O32  1  0.42864000  0.59532500  0.23530700  1
  O  O33  1  0.23949600  0.90781900  0.07599500  1
  O  O34  1  0.25450500  0.43304000  0.59602100  1
  O  O35  1  0.04155300  0.60341400  0.81724200  1
  O  O36  1  0.52708700  0.30959400  0.10771100  1
  O  O37  1  0.07807000  0.25957700  0.90665800  1
  O  O38  1  0.31437200  0.10383700  0.52344400  1
  O  O39  1  0.10015500  0.51452200  0.32386900  1
