# generated using pymatgen
data_Li5CuF8
_symmetry_space_group_name_H-M   'P 1'
_cell_length_a   5.97526238
_cell_length_b   5.97526238
_cell_length_c   5.97526293
_cell_angle_alpha   58.43094585
_cell_angle_beta   58.43094585
_cell_angle_gamma   58.43094706
_symmetry_Int_Tables_number   1
_chemical_formula_structural   Li5CuF8
_chemical_formula_sum   'Li5 Cu1 F8'
_cell_volume   145.43695273
_cell_formula_units_Z   1
loop_
 _symmetry_equiv_pos_site_id
 _symmetry_equiv_pos_as_xyz
  1  'x, y, z'
loop_
 _atom_site_type_symbol
 _atom_site_label
 _atom_site_symmetry_multiplicity
 _atom_site_fract_x
 _atom_site_fract_y
 _atom_site_fract_z
 _atom_site_occupancy
  Li  Li0  1  0.85809600  0.85809600  0.85809600  1
  Li  Li1  1  0.50000000  0.50000000  0.00000000  1
  Li  Li2  1  0.50000000  0.00000000  0.50000000  1
  Li  Li3  1  0.14190400  0.14190400  0.14190400  1
  Li  Li4  1  0.00000000  0.50000000  0.50000000  1
  Cu  Cu5  1  0.50000000  0.50000000  0.50000000  1
  F  F6  1  0.26696100  0.73235000  0.73235000  1
  F  F7  1  0.73296100  0.73296100  0.73296100  1
  F  F8  1  0.73235000  0.26696100  0.73235000  1
  F  F9  1  0.26765000  0.26765000  0.73303900  1
  F  F10  1  0.73235000  0.73235000  0.26696100  1
  F  F11  1  0.26765000  0.73303900  0.26765000  1
  F  F12  1  0.26703900  0.26703900  0.26703900  1
  F  F13  1  0.73303900  0.26765000  0.26765000  1
