# generated using pymatgen
data_LiP4WO12
_symmetry_space_group_name_H-M   'P 1'
_cell_length_a   9.20970300
_cell_length_b   7.67211900
_cell_length_c   15.40072846
_cell_angle_alpha   68.69827323
_cell_angle_beta   90.00000000
_cell_angle_gamma   90.00000000
_symmetry_Int_Tables_number   1
_chemical_formula_structural   LiP4WO12
_chemical_formula_sum   'Li4 P16 W4 O48'
_cell_volume   1013.83930055
_cell_formula_units_Z   4
loop_
 _symmetry_equiv_pos_site_id
 _symmetry_equiv_pos_as_xyz
  1  'x, y, z'
loop_
 _atom_site_type_symbol
 _atom_site_label
 _atom_site_symmetry_multiplicity
 _atom_site_fract_x
 _atom_site_fract_y
 _atom_site_fract_z
 _atom_site_occupancy
  Li  Li0  1  0.58263400  0.90967200  0.07259300  1
  Li  Li1  1  0.08263400  0.09032800  0.42740700  1
  Li  Li2  1  0.91736600  0.90967200  0.57259300  1
  Li  Li3  1  0.41736600  0.09032800  0.92740700  1
  P  P4  1  0.27876200  0.35159100  0.57393700  1
  P  P5  1  0.05741200  0.65549800  0.22667100  1
  P  P6  1  0.24121300  0.74949900  0.04948500  1
  P  P7  1  0.05267500  0.07264100  0.69172800  1
  P  P8  1  0.74121300  0.25050100  0.45051500  1
  P  P9  1  0.55741200  0.34450200  0.27332900  1
  P  P10  1  0.55267500  0.92735900  0.80827200  1
  P  P11  1  0.22123800  0.35159100  0.07393700  1
  P  P12  1  0.77876300  0.64840900  0.92606300  1
  P  P13  1  0.44732500  0.07264100  0.19172800  1
  P  P14  1  0.44258800  0.65549800  0.72667100  1
  P  P15  1  0.25878700  0.74949900  0.54948500  1
  P  P16  1  0.94732500  0.92735900  0.30827200  1
  P  P17  1  0.75878700  0.25050100  0.95051500  1
  P  P18  1  0.94258800  0.34450200  0.77332900  1
  P  P19  1  0.72123800  0.64840900  0.42606300  1
  W  W20  1  0.63215100  0.34835600  0.64338700  1
  W  W21  1  0.86784900  0.34835600  0.14338700  1
  W  W22  1  0.13215100  0.65164400  0.85661300  1
  W  W23  1  0.36784900  0.65164400  0.35661300  1
  O  O24  1  0.37213100  0.86949500  0.04375400  1
  O  O25  1  0.13091100  0.77112600  0.12683000  1
  O  O26  1  0.04484200  0.18424400  0.76250400  1
  O  O27  1  0.30521600  0.39734900  0.47141000  1
  O  O28  1  0.16428600  0.58839700  0.30521500  1
  O  O29  1  0.78867200  0.46914400  0.40702600  1
  O  O30  1  0.40590500  0.27341400  0.63682600  1
  O  O31  1  0.45825800  0.49415800  0.27912900  1
  O  O32  1  0.14455200  0.21312800  0.60271700  1
  O  O33  1  0.64743200  0.09407600  0.76101000  1
  O  O34  1  0.95825800  0.50584200  0.22087100  1
  O  O35  1  0.90958700  0.04468100  0.65493200  1
  O  O36  1  0.65603900  0.21698700  0.53861200  1
  O  O37  1  0.28867200  0.53085600  0.09297400  1
  O  O38  1  0.66428600  0.41160300  0.19478500  1
  O  O39  1  0.80521600  0.60265100  0.02859000  1
  O  O40  1  0.15603900  0.78301300  0.96138800  1
  O  O41  1  0.40958700  0.95531900  0.84506800  1
  O  O42  1  0.63091100  0.22887400  0.37317000  1
  O  O43  1  0.14743200  0.90592400  0.73899000  1
  O  O44  1  0.87213100  0.13050500  0.45624600  1
  O  O45  1  0.64455200  0.78687200  0.89728300  1
  O  O46  1  0.45515800  0.18424400  0.26250400  1
  O  O47  1  0.90590500  0.72658600  0.86317400  1
  O  O48  1  0.09409500  0.27341400  0.13682600  1
  O  O49  1  0.54484200  0.81575600  0.73749600  1
  O  O50  1  0.35544800  0.21312800  0.10271700  1
  O  O51  1  0.12786900  0.86949500  0.54375400  1
  O  O52  1  0.85256800  0.09407600  0.26101000  1
  O  O53  1  0.36908900  0.77112600  0.62683000  1
  O  O54  1  0.59041300  0.04468100  0.15493200  1
  O  O55  1  0.84396100  0.21698700  0.03861200  1
  O  O56  1  0.19478400  0.39734900  0.97141000  1
  O  O57  1  0.33571400  0.58839700  0.80521500  1
  O  O58  1  0.71132800  0.46914400  0.90702600  1
  O  O59  1  0.34396100  0.78301300  0.46138800  1
  O  O60  1  0.09041300  0.95531900  0.34506800  1
  O  O61  1  0.04174200  0.49415800  0.77912900  1
  O  O62  1  0.35256800  0.90592400  0.23899000  1
  O  O63  1  0.85544800  0.78687200  0.39728300  1
  O  O64  1  0.54174200  0.50584200  0.72087100  1
  O  O65  1  0.59409500  0.72658600  0.36317400  1
  O  O66  1  0.21132800  0.53085600  0.59297400  1
  O  O67  1  0.83571400  0.41160300  0.69478500  1
  O  O68  1  0.69478400  0.60265100  0.52859000  1
  O  O69  1  0.95515800  0.81575600  0.23749600  1
  O  O70  1  0.86908900  0.22887400  0.87317000  1
  O  O71  1  0.62786900  0.13050500  0.95624600  1
