# generated using pymatgen
data_Li4Cu3WO8
_symmetry_space_group_name_H-M   'P 1'
_cell_length_a   5.82562800
_cell_length_b   5.93609139
_cell_length_c   5.99645197
_cell_angle_alpha   117.41055641
_cell_angle_beta   115.27158524
_cell_angle_gamma   93.32393545
_symmetry_Int_Tables_number   1
_chemical_formula_structural   Li4Cu3WO8
_chemical_formula_sum   'Li4 Cu3 W1 O8'
_cell_volume   157.87922052
_cell_formula_units_Z   1
loop_
 _symmetry_equiv_pos_site_id
 _symmetry_equiv_pos_as_xyz
  1  'x, y, z'
loop_
 _atom_site_type_symbol
 _atom_site_label
 _atom_site_symmetry_multiplicity
 _atom_site_fract_x
 _atom_site_fract_y
 _atom_site_fract_z
 _atom_site_occupancy
  Li  Li0  1  0.50000000  0.50000000  0.00000000  1
  Li  Li1  1  0.00000000  0.50000000  0.50000000  1
  Li  Li2  1  0.50000000  0.00000000  0.00000000  1
  Li  Li3  1  0.00000000  0.00000000  0.50000000  1
  Cu  Cu4  1  0.50000000  0.00000000  0.50000000  1
  Cu  Cu5  1  0.00000000  0.50000000  0.00000000  1
  Cu  Cu6  1  0.50000000  0.50000000  0.50000000  1
  W  W7  1  0.00000000  0.00000000  0.00000000  1
  O  O8  1  0.25702400  0.71579500  0.44382200  1
  O  O9  1  0.76276800  0.80499400  0.04205600  1
  O  O10  1  0.23364500  0.21405400  0.43945700  1
  O  O11  1  0.74297600  0.28420500  0.55617800  1
  O  O12  1  0.79687900  0.25478400  0.04228400  1
  O  O13  1  0.23723200  0.19500600  0.95794400  1
  O  O14  1  0.76635500  0.78594600  0.56054300  1
  O  O15  1  0.20312100  0.74521600  0.95771600  1
