# generated using pymatgen
data_LiMn2P2HO8
_symmetry_space_group_name_H-M   'P 1'
_cell_length_a   5.07731793
_cell_length_b   8.71515835
_cell_length_c   7.77096015
_cell_angle_alpha   90.03245121
_cell_angle_beta   105.14695916
_cell_angle_gamma   89.98842700
_symmetry_Int_Tables_number   1
_chemical_formula_structural   LiMn2P2HO8
_chemical_formula_sum   'Li2 Mn4 P4 H2 O16'
_cell_volume   331.91587337
_cell_formula_units_Z   2
loop_
 _symmetry_equiv_pos_site_id
 _symmetry_equiv_pos_as_xyz
  1  'x, y, z'
loop_
 _atom_site_type_symbol
 _atom_site_label
 _atom_site_symmetry_multiplicity
 _atom_site_fract_x
 _atom_site_fract_y
 _atom_site_fract_z
 _atom_site_occupancy
  Li  Li0  1  0.00826500  0.99871900  0.49473500  1
  Li  Li1  1  0.49204400  0.49869800  0.00514200  1
  Mn  Mn2  1  0.61456200  0.16177000  0.17425400  1
  Mn  Mn3  1  0.88556400  0.66200600  0.32626300  1
  Mn  Mn4  1  0.12280400  0.33764900  0.66292600  1
  Mn  Mn5  1  0.37649500  0.83763800  0.83661600  1
  P  P6  1  0.12628500  0.36460600  0.27627100  1
  P  P7  1  0.37381500  0.86450100  0.22372500  1
  P  P8  1  0.63555900  0.13794400  0.77341300  1
  P  P9  1  0.86441100  0.63787200  0.72658800  1
  H  H10  1  0.52003900  0.51350500  0.50463900  1
  H  H11  1  0.97982400  0.01365900  0.99533900  1
  O  O12  1  0.09286200  0.52864600  0.82322400  1
  O  O13  1  0.40709000  0.02857400  0.67668800  1
  O  O14  1  0.01268200  0.21318800  0.33566500  1
  O  O15  1  0.48744100  0.71295900  0.16453000  1
  O  O16  1  0.15579100  0.83660600  0.32513300  1
  O  O17  1  0.34428800  0.33657600  0.17480300  1
  O  O18  1  0.25306000  0.45687400  0.45610800  1
  O  O19  1  0.24706500  0.95671100  0.04394100  1
  O  O20  1  0.51387200  0.28699300  0.82839400  1
  O  O21  1  0.98591900  0.78676200  0.67125000  1
  O  O22  1  0.64528800  0.66328400  0.82589900  1
  O  O23  1  0.85470000  0.16310000  0.67420200  1
  O  O24  1  0.77318700  0.05519400  0.96351300  1
  O  O25  1  0.72690800  0.55486500  0.53655700  1
  O  O26  1  0.61161300  0.96451000  0.33105500  1
  O  O27  1  0.88856900  0.46459100  0.16912700  1
