# generated using pymatgen
data_Li3V3P8O29
_symmetry_space_group_name_H-M   'P 1'
_cell_length_a   9.74341000
_cell_length_b   9.75348840
_cell_length_c   14.35193025
_cell_angle_alpha   89.51340989
_cell_angle_beta   91.12572518
_cell_angle_gamma   119.63775831
_symmetry_Int_Tables_number   1
_chemical_formula_structural   Li3V3P8O29
_chemical_formula_sum   'Li6 V6 P16 O58'
_cell_volume   1185.22648400
_cell_formula_units_Z   2
loop_
 _symmetry_equiv_pos_site_id
 _symmetry_equiv_pos_as_xyz
  1  'x, y, z'
loop_
 _atom_site_type_symbol
 _atom_site_label
 _atom_site_symmetry_multiplicity
 _atom_site_fract_x
 _atom_site_fract_y
 _atom_site_fract_z
 _atom_site_occupancy
  Li  Li0  1  0.22593000  0.31504700  0.94504600  1
  Li  Li1  1  0.69967200  0.91675800  0.94245500  1
  Li  Li2  1  0.67405100  0.77239400  0.43970500  1
  Li  Li3  1  0.30587700  0.07915200  0.06355200  1
  Li  Li4  1  0.91366700  0.67900700  0.55646900  1
  Li  Li5  1  0.06201800  0.08095000  0.50353300  1
  V  V6  1  0.43546000  0.43045300  0.74542300  1
  V  V7  1  0.56623900  0.56451100  0.24761300  1
  V  V8  1  0.43066900  0.99078200  0.25723700  1
  V  V9  1  0.56486700  0.00447600  0.74322800  1
  V  V10  1  0.00097100  0.56425500  0.75454700  1
  V  V11  1  0.00087900  0.43463000  0.25053100  1
  P  P12  1  0.08205000  0.77378100  0.16143000  1
  P  P13  1  0.21522800  0.91514500  0.66259400  1
  P  P14  1  0.07972100  0.30715600  0.65827200  1
  P  P15  1  0.34197500  0.66761000  0.86599700  1
  P  P16  1  0.33463400  0.66211400  0.36986400  1
  P  P17  1  0.22629000  0.31885700  0.15897700  1
  P  P18  1  0.31231200  0.22606400  0.33828300  1
  P  P19  1  0.67819000  0.91037700  0.15672600  1
  P  P20  1  0.32060900  0.08918300  0.84382300  1
  P  P21  1  0.68266300  0.77056200  0.65797700  1
  P  P22  1  0.77289600  0.68319900  0.83831700  1
  P  P23  1  0.66885400  0.33782700  0.63116600  1
  P  P24  1  0.66059000  0.32560900  0.13339500  1
  P  P25  1  0.91386300  0.68607800  0.34278800  1
  P  P26  1  0.78264200  0.08572200  0.33586000  1
  P  P27  1  0.91290700  0.22408900  0.83920500  1
  O  O28  1  0.98318700  0.76223100  0.43423700  1
  O  O29  1  0.08073900  0.73935200  0.66573700  1
  O  O30  1  0.26025300  0.01900100  0.93608600  1
  O  O31  1  0.25495200  0.91716100  0.16747800  1
  O  O32  1  0.09020000  0.61925100  0.18046100  1
  O  O33  1  0.18640300  0.65746000  0.81938100  1
  O  O34  1  0.07371100  0.46153600  0.67097900  1
  O  O35  1  0.00683800  0.23174900  0.92329900  1
  O  O36  1  0.08132300  0.34172100  0.16516600  1
  O  O37  1  0.32867200  0.81066000  0.32491000  1
  O  O38  1  0.37907500  0.91958800  0.67133800  1
  O  O39  1  0.18842700  0.51600200  0.32431700  1
  O  O40  1  0.33981400  0.66834700  0.96914700  1
  O  O41  1  0.33860000  0.67082700  0.47306400  1
  O  O42  1  0.34213300  0.51835500  0.82696400  1
  O  O43  1  0.51897400  0.90096200  0.18052400  1
  O  O44  1  0.48251300  0.81886600  0.82201600  1
  O  O45  1  0.25546900  0.34697300  0.67283900  1
  O  O46  1  0.21087400  0.20340300  0.24286400  1
  O  O47  1  0.21569400  0.20882300  0.41988600  1
  O  O48  1  0.23874700  0.24640500  0.07009000  1
  O  O49  1  0.37742700  0.48045300  0.17871900  1
  O  O50  1  0.48906400  0.67266000  0.33070600  1
  O  O51  1  0.33934000  0.25705700  0.83471900  1
  O  O52  1  0.52383900  0.61594800  0.67344800  1
  O  O53  1  0.65497600  0.91338200  0.66638700  1
  O  O54  1  0.20044000  0.98729700  0.76083200  1
  O  O55  1  0.19413400  0.99856100  0.58193600  1
  O  O56  1  0.79698300  0.99412900  0.41533900  1
  O  O57  1  0.35321600  0.09106900  0.33041400  1
  O  O58  1  0.46554200  0.38632700  0.32867100  1
  O  O59  1  0.65562300  0.74165500  0.17129000  1
  O  O60  1  0.51704200  0.33016000  0.67626100  1
  O  O61  1  0.62059200  0.52282300  0.82026200  1
  O  O62  1  0.76860900  0.77100800  0.92019400  1
  O  O63  1  0.75950000  0.76789400  0.56902100  1
  O  O64  1  0.79644700  0.78726300  0.74399800  1
  O  O65  1  0.74101900  0.65719800  0.33506500  1
  O  O66  1  0.51492800  0.17509700  0.17225800  1
  O  O67  1  0.47962100  0.09792900  0.81796500  1
  O  O68  1  0.65188200  0.47003500  0.18143100  1
  O  O69  1  0.65901800  0.33613200  0.03053500  1
  O  O70  1  0.66413600  0.33915200  0.52810900  1
  O  O71  1  0.81400900  0.48960600  0.67269000  1
  O  O72  1  0.61966900  0.08044800  0.32870400  1
  O  O73  1  0.67174900  0.18889900  0.67524500  1
  O  O74  1  0.91646500  0.65492000  0.83332400  1
  O  O75  1  0.00451100  0.79686900  0.25635300  1
  O  O76  1  0.99724300  0.77442200  0.07584100  1
  O  O77  1  0.91329100  0.52865700  0.32657800  1
  O  O78  1  0.81374100  0.33742600  0.17901700  1
  O  O79  1  0.90410500  0.37856600  0.82209400  1
  O  O80  1  0.74231900  0.08094100  0.83707700  1
  O  O81  1  0.74048400  0.97975100  0.06491400  1
  O  O82  1  0.79999000  0.01373500  0.23829900  1
  O  O83  1  0.91690700  0.25894400  0.33341600  1
  O  O84  1  0.01005900  0.21405500  0.57253300  1
  O  O85  1  0.99170200  0.20040600  0.74766100  1
