# generated using pymatgen
data_Li4Mn2Co5O12
_symmetry_space_group_name_H-M   'P 1'
_cell_length_a   8.86290800
_cell_length_b   5.00743800
_cell_length_c   9.86533051
_cell_angle_alpha   78.99185764
_cell_angle_beta   90.00000000
_cell_angle_gamma   90.00000000
_symmetry_Int_Tables_number   1
_chemical_formula_structural   Li4Mn2Co5O12
_chemical_formula_sum   'Li8 Mn4 Co10 O24'
_cell_volume   429.77192034
_cell_formula_units_Z   2
loop_
 _symmetry_equiv_pos_site_id
 _symmetry_equiv_pos_as_xyz
  1  'x, y, z'
loop_
 _atom_site_type_symbol
 _atom_site_label
 _atom_site_symmetry_multiplicity
 _atom_site_fract_x
 _atom_site_fract_y
 _atom_site_fract_z
 _atom_site_occupancy
  Li  Li0  1  0.91278900  0.00124400  0.73946400  1
  Li  Li1  1  0.92472900  0.49334600  0.26151200  1
  Li  Li2  1  0.58029500  0.75840000  0.50454700  1
  Li  Li3  1  0.57523900  0.50772000  0.26283500  1
  Li  Li4  1  0.41278900  0.99875600  0.26053600  1
  Li  Li5  1  0.42472900  0.50665400  0.73848800  1
  Li  Li6  1  0.08029500  0.24160000  0.49545300  1
  Li  Li7  1  0.07523900  0.49228000  0.73716500  1
  Mn  Mn8  1  0.74683300  0.24912400  0.50276100  1
  Mn  Mn9  1  0.75011400  0.75151800  0.99827300  1
  Mn  Mn10  1  0.25011400  0.24848200  0.00172700  1
  Mn  Mn11  1  0.24683300  0.75087600  0.49723900  1
  Co  Co12  1  0.91960900  0.25670900  0.00338500  1
  Co  Co13  1  0.91908800  0.74970900  0.49756900  1
  Co  Co14  1  0.75010900  0.99505900  0.25866400  1
  Co  Co15  1  0.58228500  0.24546000  0.99883600  1
  Co  Co16  1  0.73662100  0.50718400  0.73923600  1
  Co  Co17  1  0.41908800  0.25029100  0.50243100  1
  Co  Co18  1  0.41960900  0.74329100  0.99661500  1
  Co  Co19  1  0.25010900  0.00494100  0.74133600  1
  Co  Co20  1  0.23662100  0.49281600  0.26076400  1
  Co  Co21  1  0.08228500  0.75454000  0.00116400  1
  O  O22  1  0.89833600  0.11487900  0.38999700  1
  O  O23  1  0.89985200  0.86968600  0.11217100  1
  O  O24  1  0.76769000  0.87390200  0.60939100  1
  O  O25  1  0.76470600  0.12138200  0.88660200  1
  O  O26  1  0.90098200  0.62877400  0.88105300  1
  O  O27  1  0.90309200  0.38515300  0.61316000  1
  O  O28  1  0.58819800  0.14532400  0.38722700  1
  O  O29  1  0.76403100  0.62027700  0.38588500  1
  O  O30  1  0.59426300  0.86006100  0.11627100  1
  O  O31  1  0.75594300  0.38329200  0.11653500  1
  O  O32  1  0.58828100  0.63299300  0.88925900  1
  O  O33  1  0.58873000  0.36963300  0.61121500  1
  O  O34  1  0.39985200  0.13031400  0.88782900  1
  O  O35  1  0.39833600  0.88512100  0.61000300  1
  O  O36  1  0.26769000  0.12609800  0.39060900  1
  O  O37  1  0.40309200  0.61484700  0.38684000  1
  O  O38  1  0.26470600  0.87861800  0.11339800  1
  O  O39  1  0.40098200  0.37122600  0.11894700  1
  O  O40  1  0.09426300  0.13993900  0.88372900  1
  O  O41  1  0.26403100  0.37972300  0.61411500  1
  O  O42  1  0.08819800  0.85467600  0.61277300  1
  O  O43  1  0.25594300  0.61670800  0.88346500  1
  O  O44  1  0.08873000  0.63036700  0.38878500  1
  O  O45  1  0.08828100  0.36700700  0.11074100  1
