# generated using pymatgen
data_NaLi2FePCO7
_symmetry_space_group_name_H-M   'P 1'
_cell_length_a   5.14369340
_cell_length_b   8.67639832
_cell_length_c   6.54152164
_cell_angle_alpha   88.92745550
_cell_angle_beta   90.63800628
_cell_angle_gamma   86.40438601
_symmetry_Int_Tables_number   1
_chemical_formula_structural   NaLi2FePCO7
_chemical_formula_sum   'Na2 Li4 Fe2 P2 C2 O14'
_cell_volume   291.29193434
_cell_formula_units_Z   2
loop_
 _symmetry_equiv_pos_site_id
 _symmetry_equiv_pos_as_xyz
  1  'x, y, z'
loop_
 _atom_site_type_symbol
 _atom_site_label
 _atom_site_symmetry_multiplicity
 _atom_site_fract_x
 _atom_site_fract_y
 _atom_site_fract_z
 _atom_site_occupancy
  Na  Na0  1  0.75706100  0.08717500  0.24729000  1
  Na  Na1  1  0.74788200  0.74361700  0.50362500  1
  Li  Li2  1  0.23590300  0.28206600  0.02837600  1
  Li  Li3  1  0.24830900  0.27631500  0.47965500  1
  Li  Li4  1  0.75689600  0.71945600  0.97041800  1
  Li  Li5  1  0.23078600  0.90474800  0.78373600  1
  Fe  Fe6  1  0.22036700  0.65597100  0.23976800  1
  Fe  Fe7  1  0.79246200  0.34003900  0.74826900  1
  P  P8  1  0.72593200  0.41704500  0.24220600  1
  P  P9  1  0.29494800  0.58220300  0.75075000  1
  C  C10  1  0.69642700  0.04079200  0.75929900  1
  C  C11  1  0.27994800  0.95726300  0.24864400  1
  O  O12  1  0.29295600  0.10654300  0.25280700  1
  O  O13  1  0.94175700  0.06898200  0.75776700  1
  O  O14  1  0.52131200  0.15634200  0.74135600  1
  O  O15  1  0.82699300  0.31600400  0.06175300  1
  O  O16  1  0.83756800  0.32871900  0.43678100  1
  O  O17  1  0.42059700  0.42512100  0.24538100  1
  O  O18  1  0.18671200  0.41983600  0.75588000  1
  O  O19  1  0.82219600  0.58172800  0.22685500  1
  O  O20  1  0.59738900  0.56574700  0.77379100  1
  O  O21  1  0.21768600  0.67517100  0.55199000  1
  O  O22  1  0.17825500  0.68738400  0.92433000  1
  O  O23  1  0.49023800  0.86629200  0.24012800  1
  O  O24  1  0.05702900  0.89465100  0.25081800  1
  O  O25  1  0.62239400  0.90079100  0.77832400  1
