# generated using pymatgen
data_LiMnF5
_symmetry_space_group_name_H-M   'P 1'
_cell_length_a   9.02964700
_cell_length_b   5.27488500
_cell_length_c   9.19939345
_cell_angle_alpha   58.55979019
_cell_angle_beta   90.00000000
_cell_angle_gamma   90.00000000
_symmetry_Int_Tables_number   1
_chemical_formula_structural   LiMnF5
_chemical_formula_sum   'Li4 Mn4 F20'
_cell_volume   373.84032519
_cell_formula_units_Z   4
loop_
 _symmetry_equiv_pos_site_id
 _symmetry_equiv_pos_as_xyz
  1  'x, y, z'
loop_
 _atom_site_type_symbol
 _atom_site_label
 _atom_site_symmetry_multiplicity
 _atom_site_fract_x
 _atom_site_fract_y
 _atom_site_fract_z
 _atom_site_occupancy
  Li  Li0  1  0.40052400  0.17699600  0.71072400  1
  Li  Li1  1  0.09947600  0.17699600  0.21072400  1
  Li  Li2  1  0.90052400  0.82300400  0.78927600  1
  Li  Li3  1  0.59947600  0.82300400  0.28927600  1
  Mn  Mn4  1  0.62172900  0.50010400  0.87756800  1
  Mn  Mn5  1  0.12172900  0.49989600  0.62243200  1
  Mn  Mn6  1  0.87827100  0.50010400  0.37756800  1
  Mn  Mn7  1  0.37827100  0.49989600  0.12243200  1
  F  F8  1  0.71642800  0.20939100  0.87645700  1
  F  F9  1  0.20120200  0.18787800  0.80798000  1
  F  F10  1  0.22787400  0.45531900  0.00540800  1
  F  F11  1  0.97599300  0.52777100  0.75043900  1
  F  F12  1  0.48480300  0.77336900  0.90658400  1
  F  F13  1  0.98480300  0.22663100  0.59341600  1
  F  F14  1  0.47599300  0.47222900  0.74956100  1
  F  F15  1  0.78357200  0.20939100  0.37645700  1
  F  F16  1  0.72787400  0.54468100  0.49459200  1
  F  F17  1  0.29879800  0.18787800  0.30798000  1
  F  F18  1  0.70120200  0.81212200  0.69202000  1
  F  F19  1  0.27212600  0.45531900  0.50540800  1
  F  F20  1  0.21642800  0.79060900  0.62354300  1
  F  F21  1  0.52400700  0.52777100  0.25043900  1
  F  F22  1  0.01519700  0.77336900  0.40658400  1
  F  F23  1  0.51519700  0.22663100  0.09341600  1
  F  F24  1  0.02400700  0.47222900  0.24956100  1
  F  F25  1  0.77212600  0.54468100  0.99459200  1
  F  F26  1  0.79879800  0.81212200  0.19202000  1
  F  F27  1  0.28357200  0.79060900  0.12354300  1
