# generated using pymatgen
data_LiV(PO3)3
_symmetry_space_group_name_H-M   'P 1'
_cell_length_a   6.68633900
_cell_length_b   6.81476256
_cell_length_c   7.47875117
_cell_angle_alpha   79.54164802
_cell_angle_beta   86.95370513
_cell_angle_gamma   89.00306929
_symmetry_Int_Tables_number   1
_chemical_formula_structural   LiV(PO3)3
_chemical_formula_sum   'Li2 V2 P6 O18'
_cell_volume   334.63014191
_cell_formula_units_Z   2
loop_
 _symmetry_equiv_pos_site_id
 _symmetry_equiv_pos_as_xyz
  1  'x, y, z'
loop_
 _atom_site_type_symbol
 _atom_site_label
 _atom_site_symmetry_multiplicity
 _atom_site_fract_x
 _atom_site_fract_y
 _atom_site_fract_z
 _atom_site_occupancy
  Li  Li0  1  0.14936100  0.56662500  0.20244700  1
  Li  Li1  1  0.85063900  0.43337500  0.79755300  1
  V  V2  1  0.15928900  0.07818000  0.14249100  1
  V  V3  1  0.84071100  0.92182000  0.85750900  1
  P  P4  1  0.15244000  0.21224400  0.55400000  1
  P  P5  1  0.32745300  0.87174600  0.78003900  1
  P  P6  1  0.36035100  0.42479300  0.80447100  1
  P  P7  1  0.63964900  0.57520700  0.19552900  1
  P  P8  1  0.67254700  0.12825400  0.21996100  1
  P  P9  1  0.84756000  0.78775600  0.44600000  1
  O  O10  1  0.03826800  0.79077400  0.32715600  1
  O  O11  1  0.13906500  0.27403100  0.35089400  1
  O  O12  1  0.16053100  0.89520600  0.92304400  1
  O  O13  1  0.19281600  0.35222900  0.94361900  1
  O  O14  1  0.25504000  0.99423600  0.58715200  1
  O  O15  1  0.31983800  0.34843800  0.61540200  1
  O  O16  1  0.31772600  0.65758000  0.72744100  1
  O  O17  1  0.42692600  0.61324600  0.15427100  1
  O  O18  1  0.46823700  0.06475400  0.18934400  1
  O  O19  1  0.53176300  0.93524600  0.81065600  1
  O  O20  1  0.57307400  0.38675400  0.84572900  1
  O  O21  1  0.68227400  0.34242000  0.27255900  1
  O  O22  1  0.68016200  0.65156200  0.38459800  1
  O  O23  1  0.74496000  0.00576400  0.41284800  1
  O  O24  1  0.80718400  0.64777100  0.05638100  1
  O  O25  1  0.83946900  0.10479400  0.07695600  1
  O  O26  1  0.86093500  0.72596900  0.64910600  1
  O  O27  1  0.96173200  0.20922600  0.67284400  1
