# generated using pymatgen
data_Li4V5Co3O16
_symmetry_space_group_name_H-M   'P 1'
_cell_length_a   5.91715965
_cell_length_b   5.91715965
_cell_length_c   9.57752489
_cell_angle_alpha   89.15614916
_cell_angle_beta   89.15614916
_cell_angle_gamma   60.13583191
_symmetry_Int_Tables_number   1
_chemical_formula_structural   Li4V5Co3O16
_chemical_formula_sum   'Li4 V5 Co3 O16'
_cell_volume   290.76384859
_cell_formula_units_Z   1
loop_
 _symmetry_equiv_pos_site_id
 _symmetry_equiv_pos_as_xyz
  1  'x, y, z'
loop_
 _atom_site_type_symbol
 _atom_site_label
 _atom_site_symmetry_multiplicity
 _atom_site_fract_x
 _atom_site_fract_y
 _atom_site_fract_z
 _atom_site_occupancy
  Li  Li0  1  0.33832600  0.33832600  0.09868800  1
  Li  Li1  1  0.99950000  0.99950000  0.00631600  1
  Li  Li2  1  0.99953200  0.99953200  0.51276000  1
  Li  Li3  1  0.66698300  0.66698300  0.59978200  1
  V  V4  1  0.84152000  0.35340100  0.28030800  1
  V  V5  1  0.35322100  0.35322100  0.51191200  1
  V  V6  1  0.17893300  0.17893300  0.77060800  1
  V  V7  1  0.66208300  0.66208300  0.99848200  1
  V  V8  1  0.35340100  0.84152000  0.28030800  1
  Co  Co9  1  0.65528200  0.16454300  0.78967900  1
  Co  Co10  1  0.16454300  0.65528200  0.78967900  1
  Co  Co11  1  0.83034400  0.83034400  0.29249700  1
  O  O12  1  0.65321400  0.18029300  0.41018300  1
  O  O13  1  0.47709100  0.47709100  0.64399300  1
  O  O14  1  0.31615400  0.31615400  0.89511300  1
  O  O15  1  0.00853300  0.00853300  0.70478800  1
  O  O16  1  0.00560900  0.00560900  0.19752300  1
  O  O17  1  0.18029300  0.65321400  0.41018300  1
  O  O18  1  0.46678900  0.03929800  0.64510700  1
  O  O19  1  0.03929800  0.46678900  0.64510700  1
  O  O20  1  0.82328500  0.82328500  0.91986100  1
  O  O21  1  0.16809100  0.16809100  0.39748400  1
  O  O22  1  0.96086400  0.50825800  0.15530200  1
  O  O23  1  0.50825800  0.96086400  0.15530200  1
  O  O24  1  0.65342200  0.65342200  0.39675100  1
  O  O25  1  0.82309200  0.35488100  0.91218700  1
  O  O26  1  0.52323500  0.52323500  0.16070100  1
  O  O27  1  0.35488100  0.82309200  0.91218700  1
