# generated using pymatgen
data_Li10Ti2Mn3Ni3O16
_symmetry_space_group_name_H-M   'P 1'
_cell_length_a   5.95110700
_cell_length_b   5.97946618
_cell_length_c   9.86074388
_cell_angle_alpha   90.36066754
_cell_angle_beta   91.23423246
_cell_angle_gamma   119.46564526
_symmetry_Int_Tables_number   1
_chemical_formula_structural   Li10Ti2Mn3Ni3O16
_chemical_formula_sum   'Li10 Ti2 Mn3 Ni3 O16'
_cell_volume   305.37347238
_cell_formula_units_Z   1
loop_
 _symmetry_equiv_pos_site_id
 _symmetry_equiv_pos_as_xyz
  1  'x, y, z'
loop_
 _atom_site_type_symbol
 _atom_site_label
 _atom_site_symmetry_multiplicity
 _atom_site_fract_x
 _atom_site_fract_y
 _atom_site_fract_z
 _atom_site_occupancy
  Li  Li0  1  0.00409700  0.00356900  0.52886900  1
  Li  Li1  1  0.81896000  0.20144600  0.95443800  1
  Li  Li2  1  0.61415500  0.80360300  0.45827800  1
  Li  Li3  1  0.80608600  0.61403300  0.95644000  1
  Li  Li4  1  0.65725800  0.33204000  0.74678200  1
  Li  Li5  1  0.32759100  0.66529100  0.24618600  1
  Li  Li6  1  0.19416900  0.40291100  0.46974600  1
  Li  Li7  1  0.40195200  0.19905500  0.96468100  1
  Li  Li8  1  0.19890000  0.80968300  0.46379400  1
  Li  Li9  1  0.00872800  0.99952800  0.02730900  1
  Ti  Ti10  1  0.32471700  0.65317900  0.98203000  1
  Ti  Ti11  1  0.64685100  0.32082600  0.48578300  1
  Mn  Mn12  1  0.65798100  0.82747700  0.72642700  1
  Mn  Mn13  1  0.83149800  0.16593300  0.22755900  1
  Mn  Mn14  1  0.82415400  0.65501200  0.22714400  1
  Ni  Ni15  1  0.16691500  0.33818100  0.72774500  1
  Ni  Ni16  1  0.16688900  0.83077900  0.72879000  1
  Ni  Ni17  1  0.33828000  0.16795900  0.22674900  1
  O  O18  1  0.98206400  0.99256400  0.83354900  1
  O  O19  1  0.99253400  0.97465300  0.33521800  1
  O  O20  1  0.83705700  0.18662800  0.58922700  1
  O  O21  1  0.48626500  0.50196900  0.85712500  1
  O  O22  1  0.67005200  0.81315200  0.09812900  1
  O  O23  1  0.97732300  0.50422100  0.35530100  1
  O  O24  1  0.49991200  0.97830800  0.85357600  1
  O  O25  1  0.34437200  0.67577700  0.61320000  1
  O  O26  1  0.50467800  0.02136400  0.36153500  1
  O  O27  1  0.81906300  0.66571400  0.59933700  1
  O  O28  1  0.67484600  0.34858900  0.10897100  1
  O  O29  1  0.18087100  0.34785200  0.08928600  1
  O  O30  1  0.02250000  0.51318500  0.85548700  1
  O  O31  1  0.49332900  0.48104900  0.35965800  1
  O  O32  1  0.34761300  0.17513100  0.59738700  1
  O  O33  1  0.19613000  0.83805400  0.09034100  1
