# generated using pymatgen
data_Li5CoOF5
_symmetry_space_group_name_H-M   'P 1'
_cell_length_a   2.91361236
_cell_length_b   12.89918877
_cell_length_c   5.82251392
_cell_angle_alpha   76.97776133
_cell_angle_beta   90.00437937
_cell_angle_gamma   90.02728121
_symmetry_Int_Tables_number   1
_chemical_formula_structural   Li5CoOF5
_chemical_formula_sum   'Li10 Co2 O2 F10'
_cell_volume   213.20119614
_cell_formula_units_Z   2
loop_
 _symmetry_equiv_pos_site_id
 _symmetry_equiv_pos_as_xyz
  1  'x, y, z'
loop_
 _atom_site_type_symbol
 _atom_site_label
 _atom_site_symmetry_multiplicity
 _atom_site_fract_x
 _atom_site_fract_y
 _atom_site_fract_z
 _atom_site_occupancy
  Li  Li0  1  0.00000000  0.66666600  0.16666600  1
  Li  Li1  1  0.00000000  0.66666600  0.66666600  1
  Li  Li2  1  0.00008900  0.99309400  0.50381600  1
  Li  Li3  1  0.00008300  0.99309100  0.00312600  1
  Li  Li4  1  0.99991600  0.34024300  0.33020700  1
  Li  Li5  1  0.99991000  0.34024000  0.82951700  1
  Li  Li6  1  0.49998800  0.50592100  0.99703500  1
  Li  Li7  1  0.49998700  0.50583400  0.49709400  1
  Li  Li8  1  0.50001300  0.82749900  0.83624000  1
  Li  Li9  1  0.50001200  0.82741200  0.33629900  1
  Co  Co10  1  0.50000000  0.16666700  0.16666600  1
  Co  Co11  1  0.50000000  0.16666700  0.66666600  1
  O  O12  1  0.99995300  0.16668400  0.41698500  1
  O  O13  1  0.00004700  0.16665000  0.91634700  1
  F  F14  1  0.50000000  0.66666300  0.91667000  1
  F  F15  1  0.50000000  0.66666900  0.41666300  1
  F  F16  1  0.50027700  0.98814700  0.75591200  1
  F  F17  1  0.50023500  0.98840500  0.25612000  1
  F  F18  1  0.49976500  0.34492900  0.07721300  1
  F  F19  1  0.49972300  0.34518700  0.57742100  1
  F  F20  1  0.00000400  0.50510200  0.24737800  1
  F  F21  1  0.00000400  0.50510700  0.74751800  1
  F  F22  1  0.99999500  0.82823200  0.08595500  1
  F  F23  1  0.99999500  0.82822600  0.58581500  1
