# generated using pymatgen
data_Li8Mn7Fe(BO3)8
_symmetry_space_group_name_H-M   'P 1'
_cell_length_a   6.06640300
_cell_length_b   9.03025205
_cell_length_c   9.86521246
_cell_angle_alpha   81.57118853
_cell_angle_beta   79.22036510
_cell_angle_gamma   77.24336105
_symmetry_Int_Tables_number   1
_chemical_formula_structural   Li8Mn7Fe(BO3)8
_chemical_formula_sum   'Li8 Mn7 Fe1 B8 O24'
_cell_volume   514.65146293
_cell_formula_units_Z   1
loop_
 _symmetry_equiv_pos_site_id
 _symmetry_equiv_pos_as_xyz
  1  'x, y, z'
loop_
 _atom_site_type_symbol
 _atom_site_label
 _atom_site_symmetry_multiplicity
 _atom_site_fract_x
 _atom_site_fract_y
 _atom_site_fract_z
 _atom_site_occupancy
  Li  Li0  1  0.97272900  0.96554300  0.70212800  1
  Li  Li1  1  0.72148000  0.46721300  0.95126700  1
  Li  Li2  1  0.77850000  0.53476500  0.54966300  1
  Li  Li3  1  0.47191700  0.96574600  0.20158500  1
  Li  Li4  1  0.52833400  0.03409800  0.79835600  1
  Li  Li5  1  0.22127500  0.46645100  0.45166900  1
  Li  Li6  1  0.27845000  0.53437800  0.04779300  1
  Li  Li7  1  0.02931700  0.03229400  0.29822700  1
  Mn  Mn8  1  0.78834500  0.79353500  0.97634600  1
  Mn  Mn9  1  0.96204200  0.70601700  0.27305500  1
  Mn  Mn10  1  0.71249100  0.20555000  0.52249700  1
  Mn  Mn11  1  0.53862300  0.29404000  0.22700300  1
  Mn  Mn12  1  0.29123400  0.79287800  0.47928800  1
  Mn  Mn13  1  0.03867700  0.29406800  0.72673900  1
  Mn  Mn14  1  0.21051000  0.20594200  0.02353500  1
  Fe  Fe15  1  0.46263400  0.70241900  0.77485400  1
  B  B16  1  0.98303300  0.36774600  0.27929100  1
  B  B17  1  0.73226700  0.86750800  0.53117300  1
  B  B18  1  0.76649700  0.13264300  0.97054500  1
  B  B19  1  0.48295200  0.36904900  0.77786100  1
  B  B20  1  0.51683100  0.63270400  0.22054200  1
  B  B21  1  0.23338300  0.86670000  0.02704900  1
  B  B22  1  0.26712800  0.13214800  0.47055000  1
  B  B23  1  0.01694000  0.63257100  0.72118600  1
  O  O24  1  0.90457200  0.86446600  0.41592600  1
  O  O25  1  0.84140700  0.63483400  0.83486900  1
  O  O26  1  0.88623400  0.25345900  0.93822800  1
  O  O27  1  0.93299100  0.48353000  0.36446400  1
  O  O28  1  0.68387400  0.98437700  0.61493800  1
  O  O29  1  0.81592500  0.01638000  0.88603900  1
  O  O30  1  0.86384700  0.24662800  0.31089100  1
  O  O31  1  0.61122900  0.74721600  0.56597600  1
  O  O32  1  0.65810200  0.36501400  0.66437700  1
  O  O33  1  0.40531900  0.86396900  0.91158600  1
  O  O34  1  0.63734300  0.75291200  0.18804000  1
  O  O35  1  0.43251200  0.48812500  0.86031700  1
  O  O36  1  0.56557800  0.51653000  0.13569500  1
  O  O37  1  0.36307300  0.24867000  0.81255300  1
  O  O38  1  0.59212800  0.13513200  0.08486900  1
  O  O39  1  0.34295800  0.63534300  0.33514100  1
  O  O40  1  0.38706600  0.25285100  0.43841300  1
  O  O41  1  0.13792400  0.75246600  0.68988300  1
  O  O42  1  0.18615600  0.98265400  0.11214900  1
  O  O43  1  0.31613700  0.01588500  0.38602000  1
  O  O44  1  0.06690800  0.51643600  0.63615100  1
  O  O45  1  0.11296800  0.74651200  0.06141200  1
  O  O46  1  0.15731000  0.36586800  0.16492000  1
  O  O47  1  0.09285700  0.13473300  0.58493900  1
