# generated using pymatgen
data_Li32Mn13Cr3O48
_symmetry_space_group_name_H-M   'P 1'
_cell_length_a   5.00638000
_cell_length_b   8.66911006
_cell_length_c   19.45740596
_cell_angle_alpha   98.23337948
_cell_angle_beta   94.77973532
_cell_angle_gamma   89.94456873
_symmetry_Int_Tables_number   1
_chemical_formula_structural   Li32Mn13Cr3O48
_chemical_formula_sum   'Li32 Mn13 Cr3 O48'
_cell_volume   832.80624154
_cell_formula_units_Z   1
loop_
 _symmetry_equiv_pos_site_id
 _symmetry_equiv_pos_as_xyz
  1  'x, y, z'
loop_
 _atom_site_type_symbol
 _atom_site_label
 _atom_site_symmetry_multiplicity
 _atom_site_fract_x
 _atom_site_fract_y
 _atom_site_fract_z
 _atom_site_occupancy
  Li  Li0  1  0.99269400  0.16813800  0.24973900  1
  Li  Li1  1  0.87571800  0.37566200  0.37524200  1
  Li  Li2  1  0.74978200  0.25008700  0.00026600  1
  Li  Li3  1  0.74570500  0.92056300  0.00066200  1
  Li  Li4  1  0.99250700  0.16820900  0.74965500  1
  Li  Li5  1  0.75586500  0.58050200  0.49907700  1
  Li  Li6  1  0.87434000  0.37451500  0.87476900  1
  Li  Li7  1  0.74646600  0.24935300  0.49959900  1
  Li  Li8  1  0.74271200  0.91991400  0.50072700  1
  Li  Li9  1  0.62480500  0.12506700  0.12505400  1
  Li  Li10  1  0.75658800  0.57982400  0.00042800  1
  Li  Li11  1  0.50775800  0.33269800  0.25057400  1
  Li  Li12  1  0.62441700  0.12566100  0.62504000  1
  Li  Li13  1  0.50171200  0.99906300  0.25044200  1
  Li  Li14  1  0.49364600  0.66820700  0.24990800  1
  Li  Li15  1  0.51105400  0.33162200  0.75078900  1
  Li  Li16  1  0.37927600  0.87573500  0.37466900  1
  Li  Li17  1  0.49922600  0.00100900  0.74965800  1
  Li  Li18  1  0.25005700  0.75056700  0.00020800  1
  Li  Li19  1  0.49172600  0.66720100  0.74985200  1
  Li  Li20  1  0.24473000  0.41995500  0.00033200  1
  Li  Li21  1  0.37194800  0.87557900  0.87528200  1
  Li  Li22  1  0.25628900  0.08130600  0.49980600  1
  Li  Li23  1  0.25209200  0.74810500  0.49973800  1
  Li  Li24  1  0.12492400  0.62510000  0.12505500  1
  Li  Li25  1  0.24545700  0.41973800  0.49932600  1
  Li  Li26  1  0.00523200  0.83274200  0.24996000  1
  Li  Li27  1  0.25436900  0.07951900  0.99962600  1
  Li  Li28  1  0.12457900  0.62713400  0.62480400  1
  Li  Li29  1  0.99852300  0.49893000  0.24959500  1
  Li  Li30  1  0.00926000  0.83135300  0.74994800  1
  Li  Li31  1  0.99721600  0.49997300  0.75041600  1
  Mn  Mn32  1  0.87378300  0.04157900  0.37436500  1
  Mn  Mn33  1  0.87742900  0.04278100  0.87588200  1
  Mn  Mn34  1  0.62578300  0.79151100  0.12517100  1
  Mn  Mn35  1  0.62446700  0.45854300  0.12520700  1
  Mn  Mn36  1  0.62597200  0.79128300  0.62487100  1
  Mn  Mn37  1  0.62416600  0.45907500  0.62470700  1
  Mn  Mn38  1  0.37706500  0.54128900  0.37537000  1
  Mn  Mn39  1  0.37332800  0.20857700  0.37492000  1
  Mn  Mn40  1  0.37288600  0.53990900  0.87425300  1
  Mn  Mn41  1  0.37501500  0.20839900  0.87503900  1
  Mn  Mn42  1  0.12476500  0.95856800  0.12508800  1
  Mn  Mn43  1  0.12587000  0.29150600  0.12514200  1
  Mn  Mn44  1  0.12525400  0.95760600  0.62499600  1
  Cr  Cr45  1  0.88164700  0.71029500  0.37484300  1
  Cr  Cr46  1  0.86755700  0.70928400  0.87535200  1
  Cr  Cr47  1  0.12576800  0.29545000  0.62484900  1
  O  O48  1  0.96366100  0.10677700  0.06903900  1
  O  O49  1  0.92787200  0.78499300  0.06893300  1
  O  O50  1  0.92741100  0.42755500  0.06800100  1
  O  O51  1  0.96770800  0.10602900  0.56919300  1
  O  O52  1  0.82245600  0.96496500  0.18074800  1
  O  O53  1  0.82270600  0.32243700  0.18181100  1
  O  O54  1  0.92777900  0.78481000  0.56918400  1
  O  O55  1  0.92751700  0.42541800  0.56844000  1
  O  O56  1  0.78624700  0.64336400  0.18092100  1
  O  O57  1  0.71094600  0.86115600  0.31785100  1
  O  O58  1  0.82238200  0.96484500  0.68093900  1
  O  O59  1  0.81738300  0.32383300  0.68259600  1
  O  O60  1  0.67512600  0.53532900  0.31891900  1
  O  O61  1  0.67660000  0.17879800  0.31808100  1
  O  O62  1  0.78704600  0.64326100  0.68094600  1
  O  O63  1  0.72065800  0.85585900  0.81918200  1
  O  O64  1  0.46383800  0.60651900  0.06897000  1
  O  O65  1  0.56928400  0.71388900  0.43126000  1
  O  O66  1  0.57166700  0.07231000  0.43203900  1
  O  O67  1  0.67342400  0.53259800  0.81841900  1
  O  O68  1  0.67714200  0.17738900  0.81808100  1
  O  O69  1  0.42788900  0.92744300  0.06808900  1
  O  O70  1  0.42811400  0.28519200  0.06903200  1
  O  O71  1  0.53854600  0.39222800  0.43118800  1
  O  O72  1  0.46293800  0.60663500  0.56933100  1
  O  O73  1  0.57251600  0.71293200  0.93073000  1
  O  O74  1  0.57259300  0.07230800  0.93173300  1
  O  O75  1  0.32251000  0.82256200  0.18174900  1
  O  O76  1  0.32209200  0.46473100  0.18084500  1
  O  O77  1  0.42770900  0.92737200  0.56833100  1
  O  O78  1  0.43366600  0.28609500  0.56835400  1
  O  O79  1  0.53595000  0.39306000  0.93074000  1
  O  O80  1  0.28611600  0.14330800  0.18087800  1
  O  O81  1  0.21323900  0.35561900  0.31911600  1
  O  O82  1  0.32293700  0.82164900  0.68197500  1
  O  O83  1  0.32103200  0.46167600  0.68067000  1
  O  O84  1  0.17568500  0.67523200  0.31799700  1
  O  O85  1  0.17758400  0.03504500  0.31908500  1
  O  O86  1  0.28418900  0.14223300  0.68092000  1
  O  O87  1  0.21162700  0.35561700  0.81871500  1
  O  O88  1  0.07759000  0.56963200  0.43324500  1
  O  O89  1  0.07216000  0.21508700  0.43119300  1
  O  O90  1  0.17912900  0.67675700  0.81772200  1
  O  O91  1  0.17865100  0.03490800  0.81913400  1
  O  O92  1  0.03170400  0.89374900  0.43098200  1
  O  O93  1  0.07336200  0.57468800  0.93166200  1
  O  O94  1  0.07227800  0.21609300  0.93085800  1
  O  O95  1  0.03791200  0.89732400  0.93186700  1
