# generated using pymatgen
data_Li3Ti2(PO4)3
_symmetry_space_group_name_H-M   'P 1'
_cell_length_a   8.70490693
_cell_length_b   8.70490693
_cell_length_c   8.58302844
_cell_angle_alpha   62.48561104
_cell_angle_beta   62.48561104
_cell_angle_gamma   61.14860206
_symmetry_Int_Tables_number   1
_chemical_formula_structural   Li3Ti2(PO4)3
_chemical_formula_sum   'Li6 Ti4 P6 O24'
_cell_volume   480.70492561
_cell_formula_units_Z   2
loop_
 _symmetry_equiv_pos_site_id
 _symmetry_equiv_pos_as_xyz
  1  'x, y, z'
loop_
 _atom_site_type_symbol
 _atom_site_label
 _atom_site_symmetry_multiplicity
 _atom_site_fract_x
 _atom_site_fract_y
 _atom_site_fract_z
 _atom_site_occupancy
  Li  Li0  1  0.18509400  0.44289700  0.79169400  1
  Li  Li1  1  0.86787300  0.13212700  0.25000000  1
  Li  Li2  1  0.55710300  0.81490600  0.70830600  1
  Li  Li3  1  0.44289700  0.18509400  0.29169400  1
  Li  Li4  1  0.13212700  0.86787300  0.75000000  1
  Li  Li5  1  0.81490600  0.55710300  0.20830600  1
  Ti  Ti6  1  0.64661700  0.14242600  0.64081700  1
  Ti  Ti7  1  0.85757400  0.35338300  0.85918300  1
  Ti  Ti8  1  0.14242600  0.64661700  0.14081700  1
  Ti  Ti9  1  0.35338300  0.85757400  0.35918300  1
  P  P10  1  0.97261100  0.74696900  0.54584300  1
  P  P11  1  0.55055300  0.44944700  0.25000000  1
  P  P12  1  0.74696900  0.97261100  0.04584300  1
  P  P13  1  0.25303100  0.02738900  0.95415700  1
  P  P14  1  0.44944700  0.55055300  0.75000000  1
  P  P15  1  0.02738900  0.25303100  0.45415700  1
  O  O16  1  0.77732400  0.89550900  0.57700500  1
  O  O17  1  0.26243800  0.96891700  0.15008800  1
  O  O18  1  0.52088800  0.60464700  0.31131200  1
  O  O19  1  0.96614800  0.56211300  0.69840800  1
  O  O20  1  0.11638300  0.79473300  0.55708200  1
  O  O21  1  0.74421700  0.42835100  0.09658900  1
  O  O22  1  0.57164900  0.25578300  0.40341100  1
  O  O23  1  0.20526700  0.88361700  0.94291800  1
  O  O24  1  0.89550900  0.77732400  0.07700500  1
  O  O25  1  0.43788700  0.03385200  0.80159200  1
  O  O26  1  0.39535300  0.47911200  0.18868800  1
  O  O27  1  0.03108300  0.73756200  0.34991200  1
  O  O28  1  0.96891700  0.26243800  0.65008800  1
  O  O29  1  0.60464700  0.52088800  0.81131200  1
  O  O30  1  0.56211300  0.96614800  0.19840800  1
  O  O31  1  0.10449100  0.22267600  0.92299500  1
  O  O32  1  0.79473300  0.11638300  0.05708200  1
  O  O33  1  0.42835100  0.74421700  0.59658900  1
  O  O34  1  0.25578300  0.57164900  0.90341100  1
  O  O35  1  0.88361700  0.20526700  0.44291800  1
  O  O36  1  0.03385200  0.43788700  0.30159200  1
  O  O37  1  0.47911200  0.39535300  0.68868800  1
  O  O38  1  0.73756200  0.03108300  0.84991200  1
  O  O39  1  0.22267600  0.10449100  0.42299500  1
