# generated using pymatgen
data_Li4Nb2Fe3Co3O16
_symmetry_space_group_name_H-M   'P 1'
_cell_length_a   5.87788763
_cell_length_b   5.87788763
_cell_length_c   9.60763094
_cell_angle_alpha   88.89301550
_cell_angle_beta   88.89301550
_cell_angle_gamma   60.12543175
_symmetry_Int_Tables_number   1
_chemical_formula_structural   Li4Nb2Fe3Co3O16
_chemical_formula_sum   'Li4 Nb2 Fe3 Co3 O16'
_cell_volume   287.75892933
_cell_formula_units_Z   1
loop_
 _symmetry_equiv_pos_site_id
 _symmetry_equiv_pos_as_xyz
  1  'x, y, z'
loop_
 _atom_site_type_symbol
 _atom_site_label
 _atom_site_symmetry_multiplicity
 _atom_site_fract_x
 _atom_site_fract_y
 _atom_site_fract_z
 _atom_site_occupancy
  Li  Li0  1  0.66253900  0.66253900  0.09661000  1
  Li  Li1  1  0.00615200  0.00615200  0.00595300  1
  Li  Li2  1  0.00781500  0.00781500  0.50923100  1
  Li  Li3  1  0.32918000  0.32918000  0.60322000  1
  Nb  Nb4  1  0.66291300  0.66291300  0.50719300  1
  Nb  Nb5  1  0.33144400  0.33144400  0.00174700  1
  Fe  Fe6  1  0.82915800  0.82915800  0.78024300  1
  Fe  Fe7  1  0.16952700  0.65757300  0.28160900  1
  Fe  Fe8  1  0.65757300  0.16952700  0.28160900  1
  Co  Co9  1  0.34151700  0.83110900  0.78577100  1
  Co  Co10  1  0.83110900  0.34151700  0.78577100  1
  Co  Co11  1  0.17131600  0.17131600  0.28564800  1
  O  O12  1  0.33421300  0.84038500  0.40370600  1
  O  O13  1  0.52003300  0.52003300  0.66931200  1
  O  O14  1  0.66217200  0.66217200  0.88854000  1
  O  O15  1  0.00620500  0.00620500  0.69567200  1
  O  O16  1  0.00603500  0.00603500  0.19388600  1
  O  O17  1  0.84038500  0.33421300  0.40370600  1
  O  O18  1  0.50814900  0.96236200  0.66054800  1
  O  O19  1  0.96236200  0.50814900  0.66054800  1
  O  O20  1  0.16683000  0.16683000  0.89632900  1
  O  O21  1  0.83550100  0.83550100  0.41583700  1
  O  O22  1  0.03510900  0.47149100  0.15987200  1
  O  O23  1  0.47149100  0.03510900  0.15987200  1
  O  O24  1  0.33013800  0.33013800  0.39315400  1
  O  O25  1  0.16998900  0.67043500  0.90678200  1
  O  O26  1  0.48055900  0.48055900  0.15292800  1
  O  O27  1  0.67043500  0.16998900  0.90678200  1
