# generated using pymatgen
data_Li6Mn2C4SO16
_symmetry_space_group_name_H-M   'P 1'
_cell_length_a   9.52052247
_cell_length_b   9.52052247
_cell_length_c   9.52052247
_cell_angle_alpha   60.00000000
_cell_angle_beta   60.00000000
_cell_angle_gamma   60.00000000
_symmetry_Int_Tables_number   1
_chemical_formula_structural   Li6Mn2C4SO16
_chemical_formula_sum   'Li12 Mn4 C8 S2 O32'
_cell_volume   610.19318026
_cell_formula_units_Z   2
loop_
 _symmetry_equiv_pos_site_id
 _symmetry_equiv_pos_as_xyz
  1  'x, y, z'
loop_
 _atom_site_type_symbol
 _atom_site_label
 _atom_site_symmetry_multiplicity
 _atom_site_fract_x
 _atom_site_fract_y
 _atom_site_fract_z
 _atom_site_occupancy
  Li  Li0  1  0.71681100  0.71681100  0.28318900  1
  Li  Li1  1  0.96681100  0.96681100  0.53318900  1
  Li  Li2  1  0.28318900  0.71681100  0.71681100  1
  Li  Li3  1  0.71681100  0.28318900  0.28318900  1
  Li  Li4  1  0.96681100  0.53318900  0.96681100  1
  Li  Li5  1  0.53318900  0.96681100  0.53318900  1
  Li  Li6  1  0.28318900  0.71681100  0.28318900  1
  Li  Li7  1  0.71681100  0.28318900  0.71681100  1
  Li  Li8  1  0.53318900  0.96681100  0.96681100  1
  Li  Li9  1  0.53318900  0.53318900  0.96681100  1
  Li  Li10  1  0.96681100  0.53318900  0.53318900  1
  Li  Li11  1  0.28318900  0.28318900  0.71681100  1
  Mn  Mn12  1  0.62500000  0.12500000  0.12500000  1
  Mn  Mn13  1  0.12500000  0.12500000  0.12500000  1
  Mn  Mn14  1  0.12500000  0.62500000  0.12500000  1
  Mn  Mn15  1  0.12500000  0.12500000  0.62500000  1
  C  C16  1  0.35130600  0.94608200  0.35130600  1
  C  C17  1  0.89869400  0.89869400  0.89869400  1
  C  C18  1  0.30391800  0.89869400  0.89869400  1
  C  C19  1  0.35130600  0.35130600  0.94608200  1
  C  C20  1  0.89869400  0.89869400  0.30391800  1
  C  C21  1  0.94608200  0.35130600  0.35130600  1
  C  C22  1  0.35130600  0.35130600  0.35130600  1
  C  C23  1  0.89869400  0.30391800  0.89869400  1
  S  S24  1  0.75000000  0.75000000  0.75000000  1
  S  S25  1  0.50000000  0.50000000  0.50000000  1
  O  O26  1  0.68582700  0.68582700  0.68582700  1
  O  O27  1  0.94251800  0.68582700  0.68582700  1
  O  O28  1  0.68582700  0.68582700  0.94251800  1
  O  O29  1  0.68582700  0.94251800  0.68582700  1
  O  O30  1  0.90519700  0.03191300  0.30403000  1
  O  O31  1  0.75886000  0.30403000  0.03191300  1
  O  O32  1  0.90519700  0.75886000  0.03191300  1
  O  O33  1  0.21808700  0.94597000  0.34480300  1
  O  O34  1  0.03191300  0.90519700  0.75886000  1
  O  O35  1  0.30403000  0.75886000  0.90519700  1
  O  O36  1  0.75886000  0.03191300  0.90519700  1
  O  O37  1  0.34480300  0.94597000  0.49114000  1
  O  O38  1  0.94597000  0.34480300  0.21808700  1
  O  O39  1  0.03191300  0.75886000  0.30403000  1
  O  O40  1  0.94597000  0.21808700  0.49114000  1
  O  O41  1  0.75886000  0.90519700  0.30403000  1
  O  O42  1  0.30403000  0.03191300  0.75886000  1
  O  O43  1  0.49114000  0.34480300  0.94597000  1
  O  O44  1  0.21808700  0.49114000  0.94597000  1
  O  O45  1  0.30403000  0.90519700  0.03191300  1
  O  O46  1  0.90519700  0.30403000  0.75886000  1
  O  O47  1  0.49114000  0.21808700  0.34480300  1
  O  O48  1  0.94597000  0.49114000  0.34480300  1
  O  O49  1  0.21808700  0.34480300  0.49114000  1
  O  O50  1  0.34480300  0.49114000  0.21808700  1
  O  O51  1  0.03191300  0.30403000  0.90519700  1
  O  O52  1  0.49114000  0.94597000  0.21808700  1
  O  O53  1  0.34480300  0.21808700  0.94597000  1
  O  O54  1  0.56417300  0.30748200  0.56417300  1
  O  O55  1  0.56417300  0.56417300  0.30748200  1
  O  O56  1  0.30748200  0.56417300  0.56417300  1
  O  O57  1  0.56417300  0.56417300  0.56417300  1
