# generated using pymatgen
data_Li3Fe(Si2O5)3
_symmetry_space_group_name_H-M   'P 1'
_cell_length_a   10.12553069
_cell_length_b   10.12553069
_cell_length_c   14.25717400
_cell_angle_alpha   90.00000000
_cell_angle_beta   90.00000000
_cell_angle_gamma   120.00000449
_symmetry_Int_Tables_number   1
_chemical_formula_structural   Li3Fe(Si2O5)3
_chemical_formula_sum   'Li12 Fe4 Si24 O60'
_cell_volume   1265.90073020
_cell_formula_units_Z   4
loop_
 _symmetry_equiv_pos_site_id
 _symmetry_equiv_pos_as_xyz
  1  'x, y, z'
loop_
 _atom_site_type_symbol
 _atom_site_label
 _atom_site_symmetry_multiplicity
 _atom_site_fract_x
 _atom_site_fract_y
 _atom_site_fract_z
 _atom_site_occupancy
  Li  Li0  1  0.00000000  0.50000000  0.75000000  1
  Li  Li1  1  0.00000000  0.50000000  0.25000000  1
  Li  Li2  1  0.33333300  0.66666700  0.50000000  1
  Li  Li3  1  0.66666700  0.33333300  0.50000000  1
  Li  Li4  1  0.00000000  0.00000000  0.75000000  1
  Li  Li5  1  0.00000000  0.00000000  0.25000000  1
  Li  Li6  1  0.33333300  0.66666700  0.00000000  1
  Li  Li7  1  0.50000000  0.00000000  0.75000000  1
  Li  Li8  1  0.50000000  0.00000000  0.25000000  1
  Li  Li9  1  0.66666700  0.33333300  0.00000000  1
  Li  Li10  1  0.50000000  0.50000000  0.75000000  1
  Li  Li11  1  0.50000000  0.50000000  0.25000000  1
  Fe  Fe12  1  0.33333300  0.66666700  0.75000000  1
  Fe  Fe13  1  0.66666700  0.33333300  0.75000000  1
  Fe  Fe14  1  0.66666700  0.33333300  0.25000000  1
  Fe  Fe15  1  0.33333300  0.66666700  0.25000000  1
  Si  Si16  1  0.11992100  0.76350200  0.11226700  1
  Si  Si17  1  0.11992100  0.76350200  0.88773300  1
  Si  Si18  1  0.35641900  0.23649800  0.61226700  1
  Si  Si19  1  0.35641900  0.23649800  0.38773300  1
  Si  Si20  1  0.23649800  0.88007900  0.61226700  1
  Si  Si21  1  0.23649800  0.88007900  0.38773300  1
  Si  Si22  1  0.35641900  0.11992100  0.88773300  1
  Si  Si23  1  0.35641900  0.11992100  0.11226700  1
  Si  Si24  1  0.11992100  0.35641900  0.38773300  1
  Si  Si25  1  0.11992100  0.35641900  0.61226700  1
  Si  Si26  1  0.76350200  0.64358100  0.88773300  1
  Si  Si27  1  0.76350200  0.64358100  0.11226700  1
  Si  Si28  1  0.23649800  0.35641900  0.11226700  1
  Si  Si29  1  0.23649800  0.35641900  0.88773300  1
  Si  Si30  1  0.88007900  0.64358100  0.38773300  1
  Si  Si31  1  0.88007900  0.64358100  0.61226700  1
  Si  Si32  1  0.64358100  0.88007900  0.88773300  1
  Si  Si33  1  0.64358100  0.88007900  0.11226700  1
  Si  Si34  1  0.76350200  0.11992100  0.61226700  1
  Si  Si35  1  0.76350200  0.11992100  0.38773300  1
  Si  Si36  1  0.64358100  0.76350200  0.61226700  1
  Si  Si37  1  0.64358100  0.76350200  0.38773300  1
  Si  Si38  1  0.88007900  0.23649800  0.88773300  1
  Si  Si39  1  0.88007900  0.23649800  0.11226700  1
  O  O40  1  0.05409900  0.77903000  0.63626300  1
  O  O41  1  0.05409900  0.77903000  0.36373700  1
  O  O42  1  0.27506900  0.22097000  0.86373700  1
  O  O43  1  0.27506900  0.22097000  0.13626300  1
  O  O44  1  0.22097000  0.94590100  0.13626300  1
  O  O45  1  0.22097000  0.94590100  0.86373700  1
  O  O46  1  0.27506900  0.05409900  0.63626300  1
  O  O47  1  0.27506900  0.05409900  0.36373700  1
  O  O48  1  0.14349800  0.73853800  0.00000000  1
  O  O49  1  0.40496000  0.26146200  0.50000000  1
  O  O50  1  0.26146200  0.85650200  0.50000000  1
  O  O51  1  0.40496000  0.14349800  0.00000000  1
  O  O52  1  0.16350000  0.65528900  0.83000000  1
  O  O53  1  0.16350000  0.65528900  0.17000000  1
  O  O54  1  0.50821200  0.34471100  0.33000000  1
  O  O55  1  0.50821200  0.34471100  0.67000000  1
  O  O56  1  0.16350000  0.50821200  0.67000000  1
  O  O57  1  0.16350000  0.50821200  0.33000000  1
  O  O58  1  0.65528900  0.49178800  0.83000000  1
  O  O59  1  0.65528900  0.49178800  0.17000000  1
  O  O60  1  0.05409900  0.27506900  0.86373700  1
  O  O61  1  0.05409900  0.27506900  0.13626300  1
  O  O62  1  0.77903000  0.72493100  0.63626300  1
  O  O63  1  0.77903000  0.72493100  0.36373700  1
  O  O64  1  0.34471100  0.83650000  0.67000000  1
  O  O65  1  0.34471100  0.83650000  0.33000000  1
  O  O66  1  0.50821200  0.16350000  0.83000000  1
  O  O67  1  0.50821200  0.16350000  0.17000000  1
  O  O68  1  0.14349800  0.40496000  0.50000000  1
  O  O69  1  0.73853800  0.59504000  0.00000000  1
  O  O70  1  0.26146200  0.40496000  0.00000000  1
  O  O71  1  0.85650200  0.59504000  0.50000000  1
  O  O72  1  0.49178800  0.83650000  0.17000000  1
  O  O73  1  0.49178800  0.83650000  0.83000000  1
  O  O74  1  0.65528900  0.16350000  0.67000000  1
  O  O75  1  0.65528900  0.16350000  0.33000000  1
  O  O76  1  0.22097000  0.27506900  0.63626300  1
  O  O77  1  0.22097000  0.27506900  0.36373700  1
  O  O78  1  0.94590100  0.72493100  0.86373700  1
  O  O79  1  0.94590100  0.72493100  0.13626300  1
  O  O80  1  0.34471100  0.50821200  0.17000000  1
  O  O81  1  0.34471100  0.50821200  0.83000000  1
  O  O82  1  0.83650000  0.49178800  0.67000000  1
  O  O83  1  0.83650000  0.49178800  0.33000000  1
  O  O84  1  0.49178800  0.65528900  0.67000000  1
  O  O85  1  0.49178800  0.65528900  0.33000000  1
  O  O86  1  0.83650000  0.34471100  0.83000000  1
  O  O87  1  0.83650000  0.34471100  0.17000000  1
  O  O88  1  0.59504000  0.85650200  0.00000000  1
  O  O89  1  0.73853800  0.14349800  0.50000000  1
  O  O90  1  0.59504000  0.73853800  0.50000000  1
  O  O91  1  0.85650200  0.26146200  0.00000000  1
  O  O92  1  0.72493100  0.94590100  0.63626300  1
  O  O93  1  0.72493100  0.94590100  0.36373700  1
  O  O94  1  0.77903000  0.05409900  0.86373700  1
  O  O95  1  0.77903000  0.05409900  0.13626300  1
  O  O96  1  0.72493100  0.77903000  0.86373700  1
  O  O97  1  0.72493100  0.77903000  0.13626300  1
  O  O98  1  0.94590100  0.22097000  0.63626300  1
  O  O99  1  0.94590100  0.22097000  0.36373700  1
