# generated using pymatgen
data_Li4Cr3GaO8
_symmetry_space_group_name_H-M   'P 1'
_cell_length_a   5.13967200
_cell_length_b   7.84165337
_cell_length_c   7.84369267
_cell_angle_alpha   81.78944406
_cell_angle_beta   83.76197997
_cell_angle_gamma   70.92540889
_symmetry_Int_Tables_number   1
_chemical_formula_structural   Li4Cr3GaO8
_chemical_formula_sum   'Li8 Cr6 Ga2 O16'
_cell_volume   295.05864993
_cell_formula_units_Z   2
loop_
 _symmetry_equiv_pos_site_id
 _symmetry_equiv_pos_as_xyz
  1  'x, y, z'
loop_
 _atom_site_type_symbol
 _atom_site_label
 _atom_site_symmetry_multiplicity
 _atom_site_fract_x
 _atom_site_fract_y
 _atom_site_fract_z
 _atom_site_occupancy
  Li  Li0  1  0.99953400  0.87508700  0.87503400  1
  Li  Li1  1  0.99997400  0.62505400  0.62467900  1
  Li  Li2  1  0.99954900  0.75007000  0.25005400  1
  Li  Li3  1  0.00045100  0.24993000  0.74994600  1
  Li  Li4  1  0.00002600  0.37494600  0.37532100  1
  Li  Li5  1  0.00000000  0.50000000  0.00000000  1
  Li  Li6  1  0.00000000  0.00000000  0.50000000  1
  Li  Li7  1  0.00046600  0.12491300  0.12496600  1
  Cr  Cr8  1  0.50002100  0.68726800  0.43754200  1
  Cr  Cr9  1  0.50028900  0.81209000  0.06241500  1
  Cr  Cr10  1  0.49997900  0.31273200  0.56245800  1
  Cr  Cr11  1  0.50009100  0.93729400  0.68755400  1
  Cr  Cr12  1  0.49990900  0.06270600  0.31244600  1
  Cr  Cr13  1  0.49971100  0.18791000  0.93758500  1
  Ga  Ga14  1  0.49995100  0.56244900  0.81264200  1
  Ga  Ga15  1  0.50004900  0.43755100  0.18735800  1
  O  O16  1  0.72579900  0.72363000  0.84472100  1
  O  O17  1  0.27417100  0.77611900  0.65518800  1
  O  O18  1  0.72430600  0.84901900  0.46982100  1
  O  O19  1  0.27438400  0.40124900  0.78012600  1
  O  O20  1  0.72565500  0.47389100  0.59503400  1
  O  O21  1  0.72561600  0.59875100  0.21987400  1
  O  O22  1  0.27434500  0.52610900  0.40496600  1
  O  O23  1  0.72424600  0.09932200  0.71999000  1
  O  O24  1  0.72582900  0.22388100  0.34481200  1
  O  O25  1  0.27344400  0.65076000  0.03005500  1
  O  O26  1  0.27569400  0.15098100  0.53017900  1
  O  O27  1  0.72655600  0.34924000  0.96994500  1
  O  O28  1  0.27420100  0.27637000  0.15527900  1
  O  O29  1  0.72412100  0.97421900  0.09473800  1
  O  O30  1  0.27575400  0.90067800  0.28001000  1
  O  O31  1  0.27587900  0.02578100  0.90526200  1
