# generated using pymatgen
data_LiFe3P3O11
_symmetry_space_group_name_H-M   'P 1'
_cell_length_a   9.78638800
_cell_length_b   10.02009600
_cell_length_c   10.38884391
_cell_angle_alpha   59.41320355
_cell_angle_beta   90.00000000
_cell_angle_gamma   90.00000000
_symmetry_Int_Tables_number   1
_chemical_formula_structural   LiFe3P3O11
_chemical_formula_sum   'Li4 Fe12 P12 O44'
_cell_volume   876.98812825
_cell_formula_units_Z   4
loop_
 _symmetry_equiv_pos_site_id
 _symmetry_equiv_pos_as_xyz
  1  'x, y, z'
loop_
 _atom_site_type_symbol
 _atom_site_label
 _atom_site_symmetry_multiplicity
 _atom_site_fract_x
 _atom_site_fract_y
 _atom_site_fract_z
 _atom_site_occupancy
  Li  Li0  1  0.67103600  0.30054100  0.69413600  1
  Li  Li1  1  0.17103600  0.69945900  0.80586400  1
  Li  Li2  1  0.82896400  0.30054100  0.19413600  1
  Li  Li3  1  0.32896400  0.69945900  0.30586400  1
  Fe  Fe4  1  0.37665000  0.89913600  0.61442100  1
  Fe  Fe5  1  0.87204900  0.91660700  0.27002900  1
  Fe  Fe6  1  0.63162700  0.72197000  0.13923900  1
  Fe  Fe7  1  0.12795100  0.08339300  0.72997100  1
  Fe  Fe8  1  0.86837300  0.72197000  0.63923900  1
  Fe  Fe9  1  0.87665000  0.10086400  0.88557900  1
  Fe  Fe10  1  0.12335000  0.89913600  0.11442100  1
  Fe  Fe11  1  0.62795100  0.91660700  0.77002900  1
  Fe  Fe12  1  0.13162700  0.27803000  0.36076100  1
  Fe  Fe13  1  0.37204900  0.08339300  0.22997100  1
  Fe  Fe14  1  0.62335000  0.10086400  0.38557900  1
  Fe  Fe15  1  0.36837300  0.27803000  0.86076100  1
  P  P16  1  0.92206200  0.75984900  0.93760400  1
  P  P17  1  0.93385700  0.58877800  0.26373200  1
  P  P18  1  0.43385700  0.41122200  0.23626800  1
  P  P19  1  0.42206200  0.24015100  0.56239600  1
  P  P20  1  0.16157200  0.89420400  0.43970600  1
  P  P21  1  0.66157200  0.10579600  0.06029400  1
  P  P22  1  0.06614300  0.41122200  0.73626800  1
  P  P23  1  0.57793800  0.75984900  0.43760400  1
  P  P24  1  0.33842800  0.89420400  0.93970600  1
  P  P25  1  0.56614300  0.58877800  0.76373200  1
  P  P26  1  0.07793800  0.24015100  0.06239600  1
  P  P27  1  0.83842800  0.10579600  0.56029400  1
  O  O28  1  0.52097400  0.73063700  0.31830300  1
  O  O29  1  0.48220900  0.25751700  0.24706600  1
  O  O30  1  0.77332200  0.94447700  0.59669200  1
  O  O31  1  0.22667800  0.05552300  0.40330800  1
  O  O32  1  0.96959900  0.61753700  0.09409500  1
  O  O33  1  0.02182500  0.45134500  0.36371000  1
  O  O34  1  0.53040100  0.61753700  0.59409500  1
  O  O35  1  0.49311600  0.09138000  0.57605900  1
  O  O36  1  0.27285200  0.87014100  0.81430200  1
  O  O37  1  0.28571500  0.77649800  0.09727600  1
  O  O38  1  0.00419700  0.89596700  0.43370200  1
  O  O39  1  0.23363100  0.22627500  0.05838800  1
  O  O40  1  0.26636900  0.22627500  0.55838800  1
  O  O41  1  0.28071500  0.42826100  0.21594900  1
  O  O42  1  0.22714800  0.87014100  0.31430200  1
  O  O43  1  0.76636900  0.77372500  0.94161200  1
  O  O44  1  0.78071500  0.57173900  0.28405100  1
  O  O45  1  0.47817500  0.45134500  0.86371000  1
  O  O46  1  0.99580300  0.10403300  0.56629800  1
  O  O47  1  0.97817500  0.54865500  0.63629000  1
  O  O48  1  0.52182500  0.54865500  0.13629000  1
  O  O49  1  0.71428500  0.22350200  0.90272400  1
  O  O50  1  0.27332200  0.05552300  0.90330800  1
  O  O51  1  0.72667800  0.94447700  0.09669200  1
  O  O52  1  0.21428500  0.77649800  0.59727600  1
  O  O53  1  0.72714800  0.12985900  0.18569800  1
  O  O54  1  0.98220900  0.74248300  0.25293400  1
  O  O55  1  0.97902600  0.73063700  0.81830300  1
  O  O56  1  0.50419700  0.10403300  0.06629800  1
  O  O57  1  0.00688400  0.09138000  0.07605900  1
  O  O58  1  0.51779100  0.74248300  0.75293400  1
  O  O59  1  0.50688400  0.90862000  0.42394100  1
  O  O60  1  0.78571500  0.22350200  0.40272400  1
  O  O61  1  0.77285200  0.12985900  0.68569800  1
  O  O62  1  0.01779100  0.25751700  0.74706600  1
  O  O63  1  0.46959900  0.38246300  0.40590500  1
  O  O64  1  0.21928500  0.42826100  0.71594900  1
  O  O65  1  0.02097400  0.26936300  0.18169700  1
  O  O66  1  0.03040100  0.38246300  0.90590500  1
  O  O67  1  0.71928500  0.57173900  0.78405100  1
  O  O68  1  0.49580300  0.89596700  0.93370200  1
  O  O69  1  0.73363100  0.77372500  0.44161200  1
  O  O70  1  0.99311600  0.90862000  0.92394100  1
  O  O71  1  0.47902600  0.26936300  0.68169700  1
