# generated using pymatgen
data_Li3Mn4(BO3)4
_symmetry_space_group_name_H-M   'P 1'
_cell_length_a   7.85392700
_cell_length_b   8.28848524
_cell_length_c   9.19671102
_cell_angle_alpha   66.85232346
_cell_angle_beta   66.12750719
_cell_angle_gamma   80.25711117
_symmetry_Int_Tables_number   1
_chemical_formula_structural   Li3Mn4(BO3)4
_chemical_formula_sum   'Li6 Mn8 B8 O24'
_cell_volume   503.35156089
_cell_formula_units_Z   2
loop_
 _symmetry_equiv_pos_site_id
 _symmetry_equiv_pos_as_xyz
  1  'x, y, z'
loop_
 _atom_site_type_symbol
 _atom_site_label
 _atom_site_symmetry_multiplicity
 _atom_site_fract_x
 _atom_site_fract_y
 _atom_site_fract_z
 _atom_site_occupancy
  Li  Li0  1  0.11335500  0.19768300  0.15354900  1
  Li  Li1  1  0.38882900  0.29425300  0.84924900  1
  Li  Li2  1  0.11812000  0.53899600  0.36233600  1
  Li  Li3  1  0.36448700  0.95247700  0.65195000  1
  Li  Li4  1  0.63469100  0.04755900  0.35473200  1
  Li  Li5  1  0.86391300  0.79206500  0.86328800  1
  Mn  Mn6  1  0.06238600  0.17168200  0.51078300  1
  Mn  Mn7  1  0.17004700  0.57811100  0.99952600  1
  Mn  Mn8  1  0.67984500  0.07064000  0.01375100  1
  Mn  Mn9  1  0.42578100  0.33354300  0.49605400  1
  Mn  Mn10  1  0.58605200  0.66449100  0.48632000  1
  Mn  Mn11  1  0.33238400  0.90816100  0.00885800  1
  Mn  Mn12  1  0.81683600  0.42705900  0.98892300  1
  Mn  Mn13  1  0.92916900  0.81862400  0.50765500  1
  B  B14  1  0.07892300  0.16379900  0.84240300  1
  B  B15  1  0.17764800  0.57674700  0.66409500  1
  B  B16  1  0.66962200  0.06927700  0.67287800  1
  B  B17  1  0.41183600  0.31707700  0.17096900  1
  B  B18  1  0.57621700  0.69286000  0.81869400  1
  B  B19  1  0.33391900  0.94054200  0.33134200  1
  B  B20  1  0.82966800  0.42452300  0.32338500  1
  B  B21  1  0.92460800  0.82182700  0.16823500  1
  O  O22  1  0.16159200  0.13505100  0.95669200  1
  O  O23  1  0.06543200  0.60813900  0.81255800  1
  O  O24  1  0.17921400  0.14433800  0.68652100  1
  O  O25  1  0.14946200  0.00372700  0.35728800  1
  O  O26  1  0.12093300  0.62140100  0.53039000  1
  O  O27  1  0.35158100  0.49141500  0.65247000  1
  O  O28  1  0.09403900  0.73277500  0.15657900  1
  O  O29  1  0.57518900  0.10214600  0.82384400  1
  O  O30  1  0.31179100  0.34737100  0.32193300  1
  O  O31  1  0.39582600  0.76513100  0.84806800  1
  O  O32  1  0.59311800  0.10737000  0.55257000  1
  O  O33  1  0.34087000  0.35569100  0.04767600  1
  O  O34  1  0.65078400  0.64404200  0.93903100  1
  O  O35  1  0.40756200  0.89555400  0.45300900  1
  O  O36  1  0.58812300  0.23376100  0.15136900  1
  O  O37  1  0.67738700  0.68683000  0.65594700  1
  O  O38  1  0.44315400  0.93784000  0.16746100  1
  O  O39  1  0.89356600  0.22869400  0.87757300  1
  O  O40  1  0.65471400  0.50484900  0.34803100  1
  O  O41  1  0.90646200  0.38832500  0.44185100  1
  O  O42  1  0.84350400  0.98300600  0.65232600  1
  O  O43  1  0.81820200  0.85561600  0.31664300  1
  O  O44  1  0.92726400  0.39016700  0.17300700  1
  O  O45  1  0.86293900  0.87075900  0.03566800  1
