# generated using pymatgen
data_Li5V3P8O29
_symmetry_space_group_name_H-M   'P 1'
_cell_length_a   9.72873500
_cell_length_b   9.77884478
_cell_length_c   14.12689234
_cell_angle_alpha   89.14256241
_cell_angle_beta   89.40459452
_cell_angle_gamma   60.43465621
_symmetry_Int_Tables_number   1
_chemical_formula_structural   Li5V3P8O29
_chemical_formula_sum   'Li10 V6 P16 O58'
_cell_volume   1168.84119199
_cell_formula_units_Z   2
loop_
 _symmetry_equiv_pos_site_id
 _symmetry_equiv_pos_as_xyz
  1  'x, y, z'
loop_
 _atom_site_type_symbol
 _atom_site_label
 _atom_site_symmetry_multiplicity
 _atom_site_fract_x
 _atom_site_fract_y
 _atom_site_fract_z
 _atom_site_occupancy
  Li  Li0  1  0.23593900  0.09314500  0.55346500  1
  Li  Li1  1  0.10122100  0.65869900  0.55813300  1
  Li  Li2  1  0.23684300  0.65928900  0.06280000  1
  Li  Li3  1  0.66546000  0.09840500  0.06440000  1
  Li  Li4  1  0.67391500  0.22860900  0.55586900  1
  Li  Li5  1  0.32672800  0.90771000  0.94427600  1
  Li  Li6  1  0.76453800  0.33444400  0.94384500  1
  Li  Li7  1  0.90382800  0.33260100  0.43328900  1
  Li  Li8  1  0.00445800  0.99111000  0.00977400  1
  Li  Li9  1  0.02401200  0.95157900  0.49116300  1
  V  V10  1  0.43533700  0.56667200  0.25416800  1
  V  V11  1  0.56371400  0.43485100  0.74432800  1
  V  V12  1  0.43677200  0.00068400  0.75048800  1
  V  V13  1  0.56458800  0.99779500  0.25296900  1
  V  V14  1  0.00507300  0.43697800  0.24319600  1
  V  V15  1  0.99755200  0.56730300  0.75532100  1
  P  P16  1  0.08204100  0.21944400  0.83873900  1
  P  P17  1  0.21866000  0.08738000  0.34053200  1
  P  P18  1  0.08534500  0.68652400  0.34406500  1
  P  P19  1  0.33970700  0.33449600  0.13191600  1
  P  P20  1  0.32732800  0.33632100  0.63117600  1
  P  P21  1  0.22912200  0.68320600  0.84397200  1
  P  P22  1  0.30623200  0.77961600  0.66035000  1
  P  P23  1  0.68768200  0.08776000  0.84482100  1
  P  P24  1  0.30896700  0.91277300  0.15804100  1
  P  P25  1  0.68708600  0.22321800  0.34058700  1
  P  P26  1  0.77431900  0.31632200  0.15848900  1
  P  P27  1  0.67064800  0.66141700  0.36760100  1
  P  P28  1  0.66467200  0.66286700  0.86759900  1
  P  P29  1  0.91522000  0.31682100  0.65405900  1
  P  P30  1  0.78312600  0.91571200  0.66237400  1
  P  P31  1  0.91638900  0.78433600  0.16137800  1
  O  O32  1  0.99979000  0.23953800  0.56395100  1
  O  O33  1  0.07697300  0.25497400  0.33422700  1
  O  O34  1  0.21899100  0.98320200  0.06816400  1
  O  O35  1  0.25410800  0.08126600  0.84018500  1
  O  O36  1  0.07921300  0.38009200  0.82863600  1
  O  O37  1  0.19294600  0.32904500  0.17662900  1
  O  O38  1  0.08207500  0.53327100  0.33240100  1
  O  O39  1  0.01133700  0.80097400  0.08213000  1
  O  O40  1  0.08405600  0.65745600  0.83487100  1
  O  O41  1  0.31950600  0.19035500  0.67060800  1
  O  O42  1  0.37603000  0.08913800  0.32722400  1
  O  O43  1  0.18502300  0.48698000  0.67824800  1
  O  O44  1  0.33950500  0.34839400  0.02675900  1
  O  O45  1  0.31395200  0.35204400  0.52601900  1
  O  O46  1  0.33069800  0.48659500  0.17577000  1
  O  O47  1  0.52974800  0.08770900  0.82724000  1
  O  O48  1  0.49116400  0.18771300  0.17017600  1
  O  O49  1  0.25842700  0.65467100  0.33125400  1
  O  O50  1  0.21092100  0.80142500  0.75848600  1
  O  O51  1  0.20156100  0.79047900  0.58081900  1
  O  O52  1  0.22257400  0.76719500  0.93387500  1
  O  O53  1  0.38119300  0.52799200  0.82890800  1
  O  O54  1  0.48622700  0.32395200  0.66682100  1
  O  O55  1  0.34179300  0.73901600  0.16397200  1
  O  O56  1  0.53025000  0.38075200  0.32721500  1
  O  O57  1  0.65646200  0.08418900  0.33970600  1
  O  O58  1  0.20186400  0.99649800  0.24980600  1
  O  O59  1  0.20837400  0.00987900  0.43094700  1
  O  O60  1  0.80408000  0.00449700  0.58153600  1
  O  O61  1  0.34190000  0.91780600  0.65984900  1
  O  O62  1  0.46231800  0.62053700  0.66968600  1
  O  O63  1  0.65886700  0.25840600  0.83191400  1
  O  O64  1  0.52005300  0.66284200  0.32080100  1
  O  O65  1  0.61481200  0.46922100  0.17239400  1
  O  O66  1  0.77451600  0.22821500  0.07109700  1
  O  O67  1  0.77241500  0.22585200  0.42878100  1
  O  O68  1  0.79589700  0.20550600  0.25011600  1
  O  O69  1  0.74602400  0.33934400  0.65544600  1
  O  O70  1  0.51213600  0.81143900  0.82926900  1
  O  O71  1  0.46264900  0.91907100  0.16783700  1
  O  O72  1  0.67477300  0.51150100  0.82558800  1
  O  O73  1  0.67185100  0.65815100  0.97255900  1
  O  O74  1  0.66196800  0.65620300  0.47231900  1
  O  O75  1  0.81600700  0.51067100  0.32661000  1
  O  O76  1  0.62327600  0.92115700  0.66978200  1
  O  O77  1  0.67175700  0.80722400  0.32317600  1
  O  O78  1  0.91090700  0.34927800  0.15877600  1
  O  O79  1  0.00804400  0.19992900  0.74091500  1
  O  O80  1  0.98829200  0.20770500  0.91957700  1
  O  O81  1  0.91263700  0.47297900  0.67405400  1
  O  O82  1  0.81170800  0.66936200  0.82059200  1
  O  O83  1  0.91914000  0.62600800  0.16663800  1
  O  O84  1  0.74417000  0.92265800  0.16093200  1
  O  O85  1  0.76280400  0.02196300  0.93819700  1
  O  O86  1  0.80451700  0.98808800  0.76074500  1
  O  O87  1  0.92191300  0.74192500  0.66395700  1
  O  O88  1  0.02198900  0.76724600  0.43650500  1
  O  O89  1  0.98837600  0.80614800  0.25991800  1
