# generated using pymatgen
data_Li24Mn7Cr5O36
_symmetry_space_group_name_H-M   'P 1'
_cell_length_a   5.00586500
_cell_length_b   5.01038607
_cell_length_c   28.82816525
_cell_angle_alpha   90.19122103
_cell_angle_beta   90.27878676
_cell_angle_gamma   119.65665475
_symmetry_Int_Tables_number   1
_chemical_formula_structural   Li24Mn7Cr5O36
_chemical_formula_sum   'Li24 Mn7 Cr5 O36'
_cell_volume   628.31223174
_cell_formula_units_Z   1
loop_
 _symmetry_equiv_pos_site_id
 _symmetry_equiv_pos_as_xyz
  1  'x, y, z'
loop_
 _atom_site_type_symbol
 _atom_site_label
 _atom_site_symmetry_multiplicity
 _atom_site_fract_x
 _atom_site_fract_y
 _atom_site_fract_z
 _atom_site_occupancy
  Li  Li0  1  0.16610700  0.66667900  0.66672300  1
  Li  Li1  1  0.16673900  0.66657200  0.91665700  1
  Li  Li2  1  0.49523100  0.66984400  0.83327400  1
  Li  Li3  1  0.83395400  0.33554400  0.33332700  1
  Li  Li4  1  0.83131100  0.33518600  0.58334800  1
  Li  Li5  1  0.83256100  0.33305300  0.83342500  1
  Li  Li6  1  0.16381000  0.33972200  0.49984500  1
  Li  Li7  1  0.49887000  0.99948300  0.99987600  1
  Li  Li8  1  0.49881600  0.99744800  0.24999500  1
  Li  Li9  1  0.49994200  0.00094700  0.50001500  1
  Li  Li10  1  0.83796500  0.66103700  0.99972100  1
  Li  Li11  1  0.82616200  0.00062000  0.16651000  1
  Li  Li12  1  0.16717000  0.66808400  0.16664900  1
  Li  Li13  1  0.82623500  0.00264100  0.66686100  1
  Li  Li14  1  0.50817700  0.32947000  0.66659400  1
  Li  Li15  1  0.49699500  0.67304600  0.33344900  1
  Li  Li16  1  0.16957200  0.99211800  0.33322400  1
  Li  Li17  1  0.17195900  0.99653600  0.83359700  1
  Li  Li18  1  0.16366400  0.33919400  0.99999800  1
  Li  Li19  1  0.50008000  0.00281200  0.75003900  1
  Li  Li20  1  0.83718900  0.65866500  0.50015900  1
  Li  Li21  1  0.16419100  0.66741100  0.41667600  1
  Li  Li22  1  0.50708600  0.33122700  0.16682200  1
  Li  Li23  1  0.83172300  0.33556700  0.08329700  1
  Mn  Mn24  1  0.16768800  0.33321100  0.74999800  1
  Mn  Mn25  1  0.83363800  0.99900800  0.41669300  1
  Mn  Mn26  1  0.49944300  0.33393500  0.91667600  1
  Mn  Mn27  1  0.50091100  0.66599100  0.08328300  1
  Mn  Mn28  1  0.83243200  0.66652600  0.25001100  1
  Mn  Mn29  1  0.83363000  0.99956300  0.91667700  1
  Mn  Mn30  1  0.50065800  0.66586900  0.58330900  1
  Cr  Cr31  1  0.83235800  0.67168600  0.75001800  1
  Cr  Cr32  1  0.49562900  0.33551400  0.41667800  1
  Cr  Cr33  1  0.16378900  0.00403000  0.08333100  1
  Cr  Cr34  1  0.16292800  0.00383800  0.58330700  1
  Cr  Cr35  1  0.16539100  0.32782200  0.25001200  1
  O  O36  1  0.13944500  0.63981800  0.78787400  1
  O  O37  1  0.85859100  0.35575600  0.71182300  1
  O  O38  1  0.81012900  0.30769400  0.45473900  1
  O  O39  1  0.52520800  0.66794700  0.95381900  1
  O  O40  1  0.50079600  0.63844100  0.71280700  1
  O  O41  1  0.52636300  0.02660500  0.37872900  1
  O  O42  1  0.80826700  0.66580300  0.87940200  1
  O  O43  1  0.47493400  0.97406800  0.12128900  1
  O  O44  1  0.19406100  0.33217500  0.62042800  1
  O  O45  1  0.16645500  0.30639600  0.37937500  1
  O  O46  1  0.16515700  0.30826300  0.87951200  1
  O  O47  1  0.49567300  0.35386900  0.78767300  1
  O  O48  1  0.19248300  0.69117300  0.04535500  1
  O  O49  1  0.48025900  0.33885400  0.54551400  1
  O  O50  1  0.85686700  0.99886700  0.28732200  1
  O  O51  1  0.85993400  0.00090200  0.78722900  1
  O  O52  1  0.83447900  0.97244600  0.04615600  1
  O  O53  1  0.83420400  0.97274100  0.54619500  1
  O  O54  1  0.16275300  0.02093200  0.45430600  1
  O  O55  1  0.16773000  0.02515300  0.95395300  1
  O  O56  1  0.14014500  0.99723600  0.21258800  1
  O  O57  1  0.14523000  0.00342600  0.71242000  1
  O  O58  1  0.52780300  0.66571000  0.45379200  1
  O  O59  1  0.80923000  0.30903200  0.95459200  1
  O  O60  1  0.50289900  0.64494700  0.21248400  1
  O  O61  1  0.82874800  0.68649100  0.12101900  1
  O  O62  1  0.82804700  0.68655700  0.62114300  1
  O  O63  1  0.81298400  0.67136200  0.37902700  1
  O  O64  1  0.52384100  0.02407600  0.87875400  1
  O  O65  1  0.19351500  0.33246800  0.12059200  1
  O  O66  1  0.47490000  0.97377800  0.62128300  1
  O  O67  1  0.49955500  0.36141200  0.28727700  1
  O  O68  1  0.47968000  0.33808900  0.04569300  1
  O  O69  1  0.19249000  0.69174300  0.54536600  1
  O  O70  1  0.14193600  0.64568900  0.28825600  1
  O  O71  1  0.86121000  0.36018400  0.21214000  1
