# generated using pymatgen
data_LiVSiO4
_symmetry_space_group_name_H-M   'P 1'
_cell_length_a   5.89647700
_cell_length_b   6.56103345
_cell_length_c   9.52252501
_cell_angle_alpha   75.75054861
_cell_angle_beta   86.30470005
_cell_angle_gamma   79.14651239
_symmetry_Int_Tables_number   1
_chemical_formula_structural   LiVSiO4
_chemical_formula_sum   'Li4 V4 Si4 O16'
_cell_volume   350.61276480
_cell_formula_units_Z   4
loop_
 _symmetry_equiv_pos_site_id
 _symmetry_equiv_pos_as_xyz
  1  'x, y, z'
loop_
 _atom_site_type_symbol
 _atom_site_label
 _atom_site_symmetry_multiplicity
 _atom_site_fract_x
 _atom_site_fract_y
 _atom_site_fract_z
 _atom_site_occupancy
  Li  Li0  1  0.58529700  0.84192900  0.74234500  1
  Li  Li1  1  0.44090600  0.66423600  0.32778600  1
  Li  Li2  1  0.55909400  0.33576400  0.67221400  1
  Li  Li3  1  0.41470300  0.15807100  0.25765500  1
  V  V4  1  0.98870400  0.92991400  0.29205100  1
  V  V5  1  0.81133600  0.64306800  0.07408800  1
  V  V6  1  0.18866400  0.35693200  0.92591200  1
  V  V7  1  0.01129600  0.07008600  0.70794900  1
  Si  Si8  1  0.14924700  0.71121200  0.61794500  1
  Si  Si9  1  0.28322400  0.82532500  0.00118900  1
  Si  Si10  1  0.71677600  0.17467500  0.99881100  1
  Si  Si11  1  0.85075300  0.28878800  0.38205500  1
  O  O12  1  0.54676500  0.73201900  0.95171000  1
  O  O13  1  0.30087000  0.88381900  0.64660800  1
  O  O14  1  0.89445500  0.82284400  0.67406000  1
  O  O15  1  0.80871000  0.94248000  0.11313800  1
  O  O16  1  0.11519800  0.65520700  0.98082900  1
  O  O17  1  0.16023600  0.70277300  0.44708400  1
  O  O18  1  0.27733500  0.83940300  0.16883800  1
  O  O19  1  0.75882400  0.53397900  0.28329400  1
  O  O20  1  0.24117600  0.46602100  0.71670600  1
  O  O21  1  0.72266500  0.16059700  0.83116200  1
  O  O22  1  0.83976400  0.29722700  0.55291600  1
  O  O23  1  0.88480200  0.34479300  0.01917100  1
  O  O24  1  0.19129000  0.05752000  0.88686200  1
  O  O25  1  0.10554500  0.17715600  0.32594000  1
  O  O26  1  0.69913000  0.11618100  0.35339200  1
  O  O27  1  0.45323500  0.26798100  0.04829000  1
