# generated using pymatgen
data_Li2VCr3O8
_symmetry_space_group_name_H-M   'P 1'
_cell_length_a   5.90701263
_cell_length_b   5.90697633
_cell_length_c   9.38588200
_cell_angle_alpha   89.99936257
_cell_angle_beta   90.00067862
_cell_angle_gamma   119.73662656
_symmetry_Int_Tables_number   1
_chemical_formula_structural   Li2VCr3O8
_chemical_formula_sum   'Li4 V2 Cr6 O16'
_cell_volume   284.37101599
_cell_formula_units_Z   2
loop_
 _symmetry_equiv_pos_site_id
 _symmetry_equiv_pos_as_xyz
  1  'x, y, z'
loop_
 _atom_site_type_symbol
 _atom_site_label
 _atom_site_symmetry_multiplicity
 _atom_site_fract_x
 _atom_site_fract_y
 _atom_site_fract_z
 _atom_site_occupancy
  Li  Li0  1  0.33337500  0.66663000  0.89825900  1
  Li  Li1  1  0.66662800  0.33340100  0.39826000  1
  Li  Li2  1  0.00022800  0.99979500  0.99341600  1
  Li  Li3  1  0.99977700  0.00023400  0.49340900  1
  V  V4  1  0.33341700  0.66658500  0.49442300  1
  V  V5  1  0.66658100  0.33343700  0.99442600  1
  Cr  Cr6  1  0.17129000  0.34401100  0.21519000  1
  Cr  Cr7  1  0.65600900  0.82873400  0.21519100  1
  Cr  Cr8  1  0.34398500  0.17128900  0.71519400  1
  Cr  Cr9  1  0.82872400  0.65601700  0.71519100  1
  Cr  Cr10  1  0.17298800  0.82701900  0.21535500  1
  Cr  Cr11  1  0.82703800  0.17295600  0.71535200  1
  O  O12  1  0.33416500  0.66585000  0.10353900  1
  O  O13  1  0.66584100  0.33416800  0.60354000  1
  O  O14  1  0.00000400  0.00001200  0.30616300  1
  O  O15  1  0.00000700  0.00000300  0.80616400  1
  O  O16  1  0.17438700  0.82562000  0.59117000  1
  O  O17  1  0.17443800  0.34911800  0.59094600  1
  O  O18  1  0.34911400  0.17444200  0.09094300  1
  O  O19  1  0.65088700  0.82556900  0.59094600  1
  O  O20  1  0.82556600  0.65088800  0.09094300  1
  O  O21  1  0.82561800  0.17439600  0.09117200  1
  O  O22  1  0.04392100  0.52231300  0.34709500  1
  O  O23  1  0.47770100  0.95609700  0.34709200  1
  O  O24  1  0.47706000  0.52294800  0.34516200  1
  O  O25  1  0.52290200  0.47710800  0.84515400  1
  O  O26  1  0.52230100  0.04395700  0.84707600  1
  O  O27  1  0.95605000  0.47770200  0.84707300  1
