# generated using pymatgen
data_Li3V(BO3)2
_symmetry_space_group_name_H-M   'P 1'
_cell_length_a   6.50210100
_cell_length_b   8.22294800
_cell_length_c   9.52735930
_cell_angle_alpha   64.34361290
_cell_angle_beta   90.00000000
_cell_angle_gamma   90.00000000
_symmetry_Int_Tables_number   1
_chemical_formula_structural   Li3V(BO3)2
_chemical_formula_sum   'Li12 V4 B8 O24'
_cell_volume   459.17121669
_cell_formula_units_Z   4
loop_
 _symmetry_equiv_pos_site_id
 _symmetry_equiv_pos_as_xyz
  1  'x, y, z'
loop_
 _atom_site_type_symbol
 _atom_site_label
 _atom_site_symmetry_multiplicity
 _atom_site_fract_x
 _atom_site_fract_y
 _atom_site_fract_z
 _atom_site_occupancy
  Li  Li0  1  0.25490300  0.41038100  0.98162400  1
  Li  Li1  1  0.95155500  0.27877900  0.17146600  1
  Li  Li2  1  0.75490300  0.58961900  0.51837600  1
  Li  Li3  1  0.72205200  0.16419900  0.03466900  1
  Li  Li4  1  0.54844500  0.27877900  0.67146600  1
  Li  Li5  1  0.22205200  0.83580100  0.46533100  1
  Li  Li6  1  0.77794800  0.16419900  0.53466900  1
  Li  Li7  1  0.45155500  0.72122100  0.32853400  1
  Li  Li8  1  0.27794800  0.83580100  0.96533100  1
  Li  Li9  1  0.24509700  0.41038100  0.48162400  1
  Li  Li10  1  0.04844500  0.72122100  0.82853400  1
  Li  Li11  1  0.74509700  0.58961900  0.01837600  1
  V  V12  1  0.46094300  0.18314900  0.31454400  1
  V  V13  1  0.03905700  0.18314900  0.81454400  1
  V  V14  1  0.96094300  0.81685100  0.18545600  1
  V  V15  1  0.53905700  0.81685100  0.68545600  1
  B  B16  1  0.34551500  0.54179500  0.68894600  1
  B  B17  1  0.84551500  0.45820500  0.81105400  1
  B  B18  1  0.83248600  0.93303300  0.38148900  1
  B  B19  1  0.33248600  0.06696700  0.11851100  1
  B  B20  1  0.66751400  0.93303300  0.88148900  1
  B  B21  1  0.16751400  0.06696700  0.61851100  1
  B  B22  1  0.15448500  0.54179500  0.18894600  1
  B  B23  1  0.65448500  0.45820500  0.31105400  1
  O  O24  1  0.78684700  0.62616400  0.79172900  1
  O  O25  1  0.30368200  0.62146000  0.78817100  1
  O  O26  1  0.46407100  0.65718800  0.56090800  1
  O  O27  1  0.96407100  0.34281200  0.93909200  1
  O  O28  1  0.80368200  0.37854000  0.71182900  1
  O  O29  1  0.69471600  0.98406900  0.46608700  1
  O  O30  1  0.44943700  0.22113800  0.06337200  1
  O  O31  1  0.28684700  0.37383600  0.70827100  1
  O  O32  1  0.85711600  0.03560700  0.22360500  1
  O  O33  1  0.35711600  0.96439300  0.27639500  1
  O  O34  1  0.94943700  0.77886200  0.43662800  1
  O  O35  1  0.19471600  0.01593100  0.03391300  1
  O  O36  1  0.80528400  0.98406900  0.96608700  1
  O  O37  1  0.05056300  0.22113800  0.56337200  1
  O  O38  1  0.64288400  0.03560700  0.72360500  1
  O  O39  1  0.14288400  0.96439300  0.77639500  1
  O  O40  1  0.71315300  0.62616400  0.29172900  1
  O  O41  1  0.55056300  0.77886200  0.93662800  1
  O  O42  1  0.30528400  0.01593100  0.53391300  1
  O  O43  1  0.19631800  0.62146000  0.28817100  1
  O  O44  1  0.03592900  0.65718800  0.06090800  1
  O  O45  1  0.53592900  0.34281200  0.43909200  1
  O  O46  1  0.69631800  0.37854000  0.21182900  1
  O  O47  1  0.21315300  0.37383600  0.20827100  1
