# generated using pymatgen
data_Li2AlCoO4
_symmetry_space_group_name_H-M   'P 1'
_cell_length_a   5.01138700
_cell_length_b   6.31050400
_cell_length_c   10.87501200
_cell_angle_alpha   90.00000000
_cell_angle_beta   90.00000000
_cell_angle_gamma   90.00000000
_symmetry_Int_Tables_number   1
_chemical_formula_structural   Li2AlCoO4
_chemical_formula_sum   'Li8 Al4 Co4 O16'
_cell_volume   343.91548708
_cell_formula_units_Z   4
loop_
 _symmetry_equiv_pos_site_id
 _symmetry_equiv_pos_as_xyz
  1  'x, y, z'
loop_
 _atom_site_type_symbol
 _atom_site_label
 _atom_site_symmetry_multiplicity
 _atom_site_fract_x
 _atom_site_fract_y
 _atom_site_fract_z
 _atom_site_occupancy
  Li  Li0  1  0.75773100  0.00403400  0.16440000  1
  Li  Li1  1  0.75573500  0.24630900  0.91770800  1
  Li  Li2  1  0.75573500  0.25369100  0.41770800  1
  Li  Li3  1  0.75773100  0.49596600  0.66440000  1
  Li  Li4  1  0.25773100  0.50403400  0.33560000  1
  Li  Li5  1  0.25573500  0.74630900  0.58229200  1
  Li  Li6  1  0.25573500  0.75369100  0.08229200  1
  Li  Li7  1  0.25773100  0.99596600  0.83560000  1
  Al  Al8  1  0.26093800  0.24233600  0.58719200  1
  Al  Al9  1  0.26093800  0.25766400  0.08719200  1
  Al  Al10  1  0.76093800  0.74233600  0.91280800  1
  Al  Al11  1  0.76093800  0.75766400  0.41280800  1
  Co  Co12  1  0.25906600  0.01053300  0.33277500  1
  Co  Co13  1  0.25906600  0.48946700  0.83277500  1
  Co  Co14  1  0.75906600  0.51053300  0.16722500  1
  Co  Co15  1  0.75906600  0.98946700  0.66722500  1
  O  O16  1  0.13441500  0.01346400  0.66344400  1
  O  O17  1  0.16067000  0.02324600  0.16656300  1
  O  O18  1  0.15822500  0.25716000  0.93035300  1
  O  O19  1  0.61634200  0.23121300  0.59110300  1
  O  O20  1  0.61634200  0.26878700  0.09110300  1
  O  O21  1  0.15822500  0.24284000  0.43035300  1
  O  O22  1  0.16067000  0.47675400  0.66656300  1
  O  O23  1  0.13441500  0.48653600  0.16344400  1
  O  O24  1  0.63441500  0.51346400  0.83655600  1
  O  O25  1  0.66067000  0.52324600  0.33343700  1
  O  O26  1  0.65822500  0.75716000  0.56964700  1
  O  O27  1  0.11634200  0.73121300  0.90889700  1
  O  O28  1  0.11634200  0.76878700  0.40889700  1
  O  O29  1  0.65822500  0.74284000  0.06964700  1
  O  O30  1  0.66067000  0.97675400  0.83343700  1
  O  O31  1  0.63441500  0.98653600  0.33655600  1
