# generated using pymatgen
data_Li2Cr2P2O9
_symmetry_space_group_name_H-M   'P 1'
_cell_length_a   5.59482200
_cell_length_b   8.38666100
_cell_length_c   14.38112000
_cell_angle_alpha   90.00000000
_cell_angle_beta   90.00000000
_cell_angle_gamma   90.00000000
_symmetry_Int_Tables_number   1
_chemical_formula_structural   Li2Cr2P2O9
_chemical_formula_sum   'Li8 Cr8 P8 O36'
_cell_volume   674.78912175
_cell_formula_units_Z   4
loop_
 _symmetry_equiv_pos_site_id
 _symmetry_equiv_pos_as_xyz
  1  'x, y, z'
loop_
 _atom_site_type_symbol
 _atom_site_label
 _atom_site_symmetry_multiplicity
 _atom_site_fract_x
 _atom_site_fract_y
 _atom_site_fract_z
 _atom_site_occupancy
  Li  Li0  1  0.25000000  0.52855200  0.74227300  1
  Li  Li1  1  0.25000000  0.51718300  0.12599100  1
  Li  Li2  1  0.75000000  0.98281700  0.62599100  1
  Li  Li3  1  0.75000000  0.97144800  0.24227300  1
  Li  Li4  1  0.25000000  0.02855200  0.75772700  1
  Li  Li5  1  0.25000000  0.01718300  0.37400900  1
  Li  Li6  1  0.75000000  0.48281700  0.87400900  1
  Li  Li7  1  0.75000000  0.47144800  0.25772700  1
  Cr  Cr8  1  0.00000000  0.50000000  0.50000000  1
  Cr  Cr9  1  0.50000000  0.50000000  0.50000000  1
  Cr  Cr10  1  0.25000000  0.71046500  0.93602900  1
  Cr  Cr11  1  0.75000000  0.78953500  0.43602900  1
  Cr  Cr12  1  0.00000000  0.00000000  0.00000000  1
  Cr  Cr13  1  0.50000000  0.00000000  0.00000000  1
  Cr  Cr14  1  0.25000000  0.21046500  0.56397100  1
  Cr  Cr15  1  0.75000000  0.28953500  0.06397100  1
  P  P16  1  0.75000000  0.67079400  0.06884800  1
  P  P17  1  0.25000000  0.70474500  0.32939600  1
  P  P18  1  0.75000000  0.79525500  0.82939600  1
  P  P19  1  0.25000000  0.82920600  0.56884800  1
  P  P20  1  0.75000000  0.17079400  0.43115200  1
  P  P21  1  0.25000000  0.20474500  0.17060400  1
  P  P22  1  0.75000000  0.29525500  0.67060400  1
  P  P23  1  0.25000000  0.32920600  0.93115200  1
  O  O24  1  0.25000000  0.48826600  0.98556200  1
  O  O25  1  0.25000000  0.56343500  0.40541100  1
  O  O26  1  0.75000000  0.56005200  0.41256000  1
  O  O27  1  0.25000000  0.62977700  0.23587000  1
  O  O28  1  0.75000000  0.65026400  0.17225400  1
  O  O29  1  0.52700900  0.68351400  0.84714900  1
  O  O30  1  0.97299100  0.68351400  0.84714900  1
  O  O31  1  0.01645800  0.73459300  0.53647600  1
  O  O32  1  0.48354200  0.73459300  0.53647600  1
  O  O33  1  0.51645800  0.76540700  0.03647600  1
  O  O34  1  0.98354200  0.76540700  0.03647600  1
  O  O35  1  0.02700900  0.81648600  0.34714900  1
  O  O36  1  0.47299100  0.81648600  0.34714900  1
  O  O37  1  0.25000000  0.84973600  0.67225400  1
  O  O38  1  0.75000000  0.87022300  0.73587000  1
  O  O39  1  0.25000000  0.93994800  0.91256000  1
  O  O40  1  0.75000000  0.93656500  0.90541100  1
  O  O41  1  0.75000000  0.01173400  0.48556200  1
  O  O42  1  0.25000000  0.98826600  0.51443800  1
  O  O43  1  0.25000000  0.06343500  0.09458900  1
  O  O44  1  0.75000000  0.06005200  0.08744000  1
  O  O45  1  0.25000000  0.12977700  0.26413000  1
  O  O46  1  0.75000000  0.15026400  0.32774600  1
  O  O47  1  0.52700900  0.18351400  0.65285100  1
  O  O48  1  0.97299100  0.18351400  0.65285100  1
  O  O49  1  0.01645800  0.23459300  0.96352400  1
  O  O50  1  0.48354200  0.23459300  0.96352400  1
  O  O51  1  0.51645800  0.26540700  0.46352400  1
  O  O52  1  0.98354200  0.26540700  0.46352400  1
  O  O53  1  0.02700900  0.31648600  0.15285100  1
  O  O54  1  0.47299100  0.31648600  0.15285100  1
  O  O55  1  0.25000000  0.34973600  0.82774600  1
  O  O56  1  0.75000000  0.37022300  0.76413000  1
  O  O57  1  0.25000000  0.43994800  0.58744000  1
  O  O58  1  0.75000000  0.43656500  0.59458900  1
  O  O59  1  0.75000000  0.51173400  0.01443800  1
