# generated using pymatgen
data_LiCu2F7
_symmetry_space_group_name_H-M   'P 1'
_cell_length_a   12.38954500
_cell_length_b   5.74358900
_cell_length_c   6.85724148
_cell_angle_alpha   84.23090090
_cell_angle_beta   90.00000000
_cell_angle_gamma   90.00000000
_symmetry_Int_Tables_number   1
_chemical_formula_structural   LiCu2F7
_chemical_formula_sum   'Li4 Cu8 F28'
_cell_volume   485.49291159
_cell_formula_units_Z   4
loop_
 _symmetry_equiv_pos_site_id
 _symmetry_equiv_pos_as_xyz
  1  'x, y, z'
loop_
 _atom_site_type_symbol
 _atom_site_label
 _atom_site_symmetry_multiplicity
 _atom_site_fract_x
 _atom_site_fract_y
 _atom_site_fract_z
 _atom_site_occupancy
  Li  Li0  1  0.62757500  0.39472900  0.24270200  1
  Li  Li1  1  0.87242500  0.39472900  0.74270200  1
  Li  Li2  1  0.12757500  0.60527100  0.25729800  1
  Li  Li3  1  0.37242500  0.60527100  0.75729800  1
  Cu  Cu4  1  0.96045800  0.15454100  0.32697700  1
  Cu  Cu5  1  0.33247600  0.14422600  0.44413700  1
  Cu  Cu6  1  0.53954200  0.15454100  0.82697700  1
  Cu  Cu7  1  0.16752400  0.14422600  0.94413700  1
  Cu  Cu8  1  0.83247600  0.85577400  0.05586300  1
  Cu  Cu9  1  0.46045800  0.84545900  0.17302300  1
  Cu  Cu10  1  0.66752400  0.85577400  0.55586300  1
  Cu  Cu11  1  0.03954200  0.84545900  0.67302300  1
  F  F12  1  0.09379800  0.05830500  0.45048500  1
  F  F13  1  0.24891800  0.09702800  0.16230600  1
  F  F14  1  0.40620200  0.05830500  0.95048500  1
  F  F15  1  0.25108200  0.09702800  0.66230600  1
  F  F16  1  0.85439100  0.16845800  0.03876100  1
  F  F17  1  0.46107200  0.14941300  0.29547000  1
  F  F18  1  0.64560900  0.16845800  0.53876100  1
  F  F19  1  0.03892800  0.14941300  0.79547000  1
  F  F20  1  0.04616400  0.35451400  0.15980400  1
  F  F21  1  0.45383600  0.35451400  0.65980400  1
  F  F22  1  0.90236900  0.38757800  0.46101100  1
  F  F23  1  0.28909400  0.44088200  0.39616500  1
  F  F24  1  0.59763100  0.38757800  0.96101100  1
  F  F25  1  0.21090600  0.44088200  0.89616500  1
  F  F26  1  0.78909400  0.55911800  0.10383500  1
  F  F27  1  0.40236900  0.61242200  0.03898900  1
  F  F28  1  0.71090600  0.55911800  0.60383500  1
  F  F29  1  0.09763100  0.61242200  0.53898900  1
  F  F30  1  0.54616400  0.64548600  0.34019600  1
  F  F31  1  0.95383600  0.64548600  0.84019600  1
  F  F32  1  0.96107200  0.85058700  0.20453000  1
  F  F33  1  0.35439100  0.83154200  0.46123900  1
  F  F34  1  0.53892800  0.85058700  0.70453000  1
  F  F35  1  0.14560900  0.83154200  0.96123900  1
  F  F36  1  0.74891800  0.90297200  0.33769400  1
  F  F37  1  0.59379800  0.94169500  0.04951500  1
  F  F38  1  0.75108200  0.90297200  0.83769400  1
  F  F39  1  0.90620200  0.94169500  0.54951500  1
