# generated using pymatgen
data_Li3FeF5
_symmetry_space_group_name_H-M   'P 1'
_cell_length_a   5.83336600
_cell_length_b   10.80891300
_cell_length_c   12.27078500
_cell_angle_alpha   90.00000000
_cell_angle_beta   90.00000000
_cell_angle_gamma   90.00000000
_symmetry_Int_Tables_number   1
_chemical_formula_structural   Li3FeF5
_chemical_formula_sum   'Li24 Fe8 F40'
_cell_volume   773.70177649
_cell_formula_units_Z   8
loop_
 _symmetry_equiv_pos_site_id
 _symmetry_equiv_pos_as_xyz
  1  'x, y, z'
loop_
 _atom_site_type_symbol
 _atom_site_label
 _atom_site_symmetry_multiplicity
 _atom_site_fract_x
 _atom_site_fract_y
 _atom_site_fract_z
 _atom_site_occupancy
  Li  Li0  1  0.01742700  0.30234900  0.33319400  1
  Li  Li1  1  0.01742700  0.19765100  0.83319400  1
  Li  Li2  1  0.12404500  0.07872400  0.59926300  1
  Li  Li3  1  0.12404500  0.42127600  0.09926300  1
  Li  Li4  1  0.24417900  0.53831500  0.31387700  1
  Li  Li5  1  0.24417900  0.96168500  0.81387700  1
  Li  Li6  1  0.25582100  0.03831500  0.31387700  1
  Li  Li7  1  0.25582100  0.46168500  0.81387700  1
  Li  Li8  1  0.37595500  0.92127600  0.09926300  1
  Li  Li9  1  0.37595500  0.57872400  0.59926300  1
  Li  Li10  1  0.48257300  0.69765100  0.83319400  1
  Li  Li11  1  0.48257300  0.80234900  0.33319400  1
  Li  Li12  1  0.51742700  0.30234900  0.16680600  1
  Li  Li13  1  0.51742700  0.19765100  0.66680600  1
  Li  Li14  1  0.62404500  0.42127600  0.40073700  1
  Li  Li15  1  0.62404500  0.07872400  0.90073700  1
  Li  Li16  1  0.74417900  0.53831500  0.18612300  1
  Li  Li17  1  0.74417900  0.96168500  0.68612300  1
  Li  Li18  1  0.75582100  0.46168500  0.68612300  1
  Li  Li19  1  0.75582100  0.03831500  0.18612300  1
  Li  Li20  1  0.87595500  0.92127600  0.40073700  1
  Li  Li21  1  0.87595500  0.57872400  0.90073700  1
  Li  Li22  1  0.98257300  0.80234900  0.16680600  1
  Li  Li23  1  0.98257300  0.69765100  0.66680600  1
  Fe  Fe24  1  0.17826100  0.15809600  0.06272400  1
  Fe  Fe25  1  0.17826100  0.34190400  0.56272400  1
  Fe  Fe26  1  0.32173900  0.65809600  0.06272400  1
  Fe  Fe27  1  0.32173900  0.84190400  0.56272400  1
  Fe  Fe28  1  0.67826100  0.15809600  0.43727600  1
  Fe  Fe29  1  0.67826100  0.34190400  0.93727600  1
  Fe  Fe30  1  0.82173900  0.65809600  0.43727600  1
  Fe  Fe31  1  0.82173900  0.84190400  0.93727600  1
  F  F32  1  0.00468400  0.61579400  0.12336300  1
  F  F33  1  0.00468400  0.88420600  0.62336300  1
  F  F34  1  0.13428700  0.66995800  0.51030900  1
  F  F35  1  0.13428700  0.83004200  0.01030900  1
  F  F36  1  0.09138400  0.49086200  0.67461100  1
  F  F37  1  0.09138400  0.00913800  0.17461100  1
  F  F38  1  0.16790400  0.27842200  0.19683800  1
  F  F39  1  0.16790400  0.22157800  0.69683800  1
  F  F40  1  0.28866400  0.10322300  0.91018200  1
  F  F41  1  0.28866400  0.39677700  0.41018200  1
  F  F42  1  0.21133600  0.60322300  0.91018200  1
  F  F43  1  0.21133600  0.89677700  0.41018200  1
  F  F44  1  0.33209600  0.77842200  0.19683800  1
  F  F45  1  0.33209600  0.72157800  0.69683800  1
  F  F46  1  0.40861600  0.99086200  0.67461100  1
  F  F47  1  0.40861600  0.50913800  0.17461100  1
  F  F48  1  0.36571300  0.16995800  0.51030900  1
  F  F49  1  0.36571300  0.33004200  0.01030900  1
  F  F50  1  0.49531600  0.11579400  0.12336300  1
  F  F51  1  0.49531600  0.38420600  0.62336300  1
  F  F52  1  0.50468400  0.88420600  0.87663700  1
  F  F53  1  0.50468400  0.61579400  0.37663700  1
  F  F54  1  0.63428700  0.66995800  0.98969100  1
  F  F55  1  0.63428700  0.83004200  0.48969100  1
  F  F56  1  0.59138400  0.49086200  0.82538900  1
  F  F57  1  0.59138400  0.00913800  0.32538900  1
  F  F58  1  0.66790400  0.22157800  0.80316200  1
  F  F59  1  0.66790400  0.27842200  0.30316200  1
  F  F60  1  0.78866400  0.39677700  0.08981800  1
  F  F61  1  0.78866400  0.10322300  0.58981800  1
  F  F62  1  0.71133600  0.60322300  0.58981800  1
  F  F63  1  0.71133600  0.89677700  0.08981800  1
  F  F64  1  0.83209600  0.77842200  0.30316200  1
  F  F65  1  0.83209600  0.72157800  0.80316200  1
  F  F66  1  0.90861600  0.50913800  0.32538900  1
  F  F67  1  0.90861600  0.99086200  0.82538900  1
  F  F68  1  0.86571300  0.33004200  0.48969100  1
  F  F69  1  0.86571300  0.16995800  0.98969100  1
  F  F70  1  0.99531600  0.11579400  0.37663700  1
  F  F71  1  0.99531600  0.38420600  0.87663700  1
