# generated using pymatgen
data_LiMnF3
_symmetry_space_group_name_H-M   'P 1'
_cell_length_a   12.01624700
_cell_length_b   5.56543700
_cell_length_c   7.72487611
_cell_angle_alpha   76.88970606
_cell_angle_beta   90.00000000
_cell_angle_gamma   90.00000000
_symmetry_Int_Tables_number   1
_chemical_formula_structural   LiMnF3
_chemical_formula_sum   'Li8 Mn8 F24'
_cell_volume   503.14100995
_cell_formula_units_Z   8
loop_
 _symmetry_equiv_pos_site_id
 _symmetry_equiv_pos_as_xyz
  1  'x, y, z'
loop_
 _atom_site_type_symbol
 _atom_site_label
 _atom_site_symmetry_multiplicity
 _atom_site_fract_x
 _atom_site_fract_y
 _atom_site_fract_z
 _atom_site_occupancy
  Li  Li0  1  0.15814100  0.46126200  0.98491000  1
  Li  Li1  1  0.51695400  0.88169200  0.71788700  1
  Li  Li2  1  0.01695400  0.11830800  0.78211300  1
  Li  Li3  1  0.65814100  0.53873800  0.51509000  1
  Li  Li4  1  0.34185900  0.46126200  0.48491000  1
  Li  Li5  1  0.98304600  0.88169200  0.21788700  1
  Li  Li6  1  0.48304600  0.11830800  0.28211300  1
  Li  Li7  1  0.84185900  0.53873800  0.01509000  1
  Mn  Mn8  1  0.43765600  0.31840300  0.87917900  1
  Mn  Mn9  1  0.76123000  0.08751100  0.88705900  1
  Mn  Mn10  1  0.26123000  0.91248900  0.61294100  1
  Mn  Mn11  1  0.93765600  0.68159700  0.62082100  1
  Mn  Mn12  1  0.06234400  0.31840300  0.37917900  1
  Mn  Mn13  1  0.73877000  0.08751100  0.38705900  1
  Mn  Mn14  1  0.23877000  0.91248900  0.11294100  1
  Mn  Mn15  1  0.56234400  0.68159700  0.12082100  1
  F  F16  1  0.26445100  0.24914700  0.91865100  1
  F  F17  1  0.23058900  0.76841100  0.88198300  1
  F  F18  1  0.57121100  0.58466200  0.86444700  1
  F  F19  1  0.89704500  0.36489700  0.84013900  1
  F  F20  1  0.91172700  0.85644700  0.86491200  1
  F  F21  1  0.57993500  0.06640400  0.88721600  1
  F  F22  1  0.07993500  0.93359600  0.61278400  1
  F  F23  1  0.41172700  0.14355300  0.63508800  1
  F  F24  1  0.39704500  0.63510300  0.65986100  1
  F  F25  1  0.07121100  0.41533800  0.63555300  1
  F  F26  1  0.73058900  0.23158900  0.61801700  1
  F  F27  1  0.76445100  0.75085300  0.58134900  1
  F  F28  1  0.23554900  0.24914700  0.41865100  1
  F  F29  1  0.26941100  0.76841100  0.38198300  1
  F  F30  1  0.92878900  0.58466200  0.36444700  1
  F  F31  1  0.60295500  0.36489700  0.34013900  1
  F  F32  1  0.58827300  0.85644700  0.36491200  1
  F  F33  1  0.92006500  0.06640400  0.38721600  1
  F  F34  1  0.42006500  0.93359600  0.11278400  1
  F  F35  1  0.08827300  0.14355300  0.13508800  1
  F  F36  1  0.10295500  0.63510300  0.15986100  1
  F  F37  1  0.42878900  0.41533800  0.13555300  1
  F  F38  1  0.76941100  0.23158900  0.11801700  1
  F  F39  1  0.73554900  0.75085300  0.08134900  1
