# generated using pymatgen
data_Li6MnV3(PO4)6
_symmetry_space_group_name_H-M   'P 1'
_cell_length_a   9.89201050
_cell_length_b   9.86197566
_cell_length_c   9.86197490
_cell_angle_alpha   87.57421979
_cell_angle_beta   86.96287895
_cell_angle_gamma   86.96287896
_symmetry_Int_Tables_number   1
_chemical_formula_structural   Li6MnV3(PO4)6
_chemical_formula_sum   'Li12 Mn2 V6 P12 O48'
_cell_volume   958.62827137
_cell_formula_units_Z   2
loop_
 _symmetry_equiv_pos_site_id
 _symmetry_equiv_pos_as_xyz
  1  'x, y, z'
loop_
 _atom_site_type_symbol
 _atom_site_label
 _atom_site_symmetry_multiplicity
 _atom_site_fract_x
 _atom_site_fract_y
 _atom_site_fract_z
 _atom_site_occupancy
  Li  Li0  1  0.00518400  0.04915700  0.97904800  1
  Li  Li1  1  0.06139600  0.73594700  0.14404600  1
  Li  Li2  1  0.13729300  0.07172800  0.72856100  1
  Li  Li3  1  0.23143600  0.55968000  0.64542800  1
  Li  Li4  1  0.26856400  0.85457200  0.94032000  1
  Li  Li5  1  0.36270700  0.77143900  0.42827200  1
  Li  Li6  1  0.43860400  0.35595400  0.76405300  1
  Li  Li7  1  0.49481600  0.52095200  0.45084300  1
  Li  Li8  1  0.64148400  0.23277900  0.55847900  1
  Li  Li9  1  0.76782300  0.46242400  0.35783400  1
  Li  Li10  1  0.73217700  0.14216600  0.03757600  1
  Li  Li11  1  0.85851600  0.94152100  0.26722100  1
  Mn  Mn12  1  0.52750000  0.96838200  0.74356900  1
  Mn  Mn13  1  0.97250000  0.75643100  0.53161800  1
  V  V14  1  0.03322900  0.25407800  0.47108600  1
  V  V15  1  0.25000000  0.24991900  0.25008100  1
  V  V16  1  0.25000000  0.46387400  0.03612600  1
  V  V17  1  0.46677100  0.02891400  0.24592200  1
  V  V18  1  0.75000000  0.53200300  0.96799700  1
  V  V19  1  0.75000000  0.75144900  0.74855100  1
  P  P20  1  0.05092800  0.66866300  0.85939900  1
  P  P21  1  0.14871900  0.95393300  0.33206600  1
  P  P22  1  0.17249800  0.55020400  0.35310500  1
  P  P23  1  0.32750200  0.14689500  0.94979600  1
  P  P24  1  0.35128100  0.16793400  0.54606700  1
  P  P25  1  0.44907200  0.64060100  0.83133700  1
  P  P26  1  0.55018500  0.34694800  0.17657200  1
  P  P27  1  0.64287000  0.82194400  0.44948300  1
  P  P28  1  0.67217600  0.84784000  0.04674800  1
  P  P29  1  0.82782400  0.45325200  0.65216000  1
  P  P30  1  0.85713000  0.05051700  0.67805600  1
  P  P31  1  0.94981500  0.32342800  0.15305200  1
  O  O32  1  0.03286700  0.61484000  0.39756000  1
  O  O33  1  0.05615500  0.90631100  0.22610900  1
  O  O34  1  0.10943400  0.32936200  0.12336100  1
  O  O35  1  0.12246600  0.11455700  0.33170100  1
  O  O36  1  0.09073100  0.69035200  0.70694300  1
  O  O37  1  0.11738200  0.89133600  0.47535500  1
  O  O38  1  0.09206800  0.78138400  0.94950900  1
  O  O39  1  0.11525200  0.52988500  0.90678300  1
  O  O40  1  0.17026200  0.38959100  0.37862300  1
  O  O41  1  0.19309800  0.58554600  0.19820600  1
  O  O42  1  0.19766800  0.20301900  0.58294600  1
  O  O43  1  0.21345400  0.06024900  0.90643400  1
  O  O44  1  0.32973800  0.12137700  0.11040900  1
  O  O45  1  0.28654600  0.59356600  0.43975100  1
  O  O46  1  0.30233200  0.91705400  0.29698100  1
  O  O47  1  0.30690200  0.30179400  0.91445400  1
  O  O48  1  0.37753400  0.16829900  0.38544300  1
  O  O49  1  0.39056600  0.37663900  0.17063800  1
  O  O50  1  0.38261800  0.02464500  0.60866400  1
  O  O51  1  0.38474800  0.59321700  0.97011500  1
  O  O52  1  0.40793200  0.55049100  0.71861600  1
  O  O53  1  0.44384500  0.27389100  0.59368900  1
  O  O54  1  0.40926900  0.79305700  0.80964800  1
  O  O55  1  0.46713300  0.10244000  0.88516000  1
  O  O56  1  0.53219300  0.88736300  0.11082900  1
  O  O57  1  0.58187000  0.18918500  0.17422500  1
  O  O58  1  0.59512800  0.41037000  0.30310200  1
  O  O59  1  0.55760800  0.70579500  0.41403300  1
  O  O60  1  0.61760900  0.40578500  0.04247100  1
  O  O61  1  0.58561100  0.96007200  0.38630200  1
  O  O62  1  0.61053200  0.62168300  0.83667500  1
  O  O63  1  0.62308700  0.83255100  0.61040800  1
  O  O64  1  0.70460600  0.09248900  0.69100600  1
  O  O65  1  0.70268200  0.68846400  0.07223200  1
  O  O66  1  0.71728200  0.40336600  0.56608000  1
  O  O67  1  0.67160900  0.87677800  0.88823700  1
  O  O68  1  0.78271800  0.93392000  0.09663400  1
  O  O69  1  0.79731800  0.42776800  0.81153600  1
  O  O70  1  0.79539400  0.80899400  0.40751100  1
  O  O71  1  0.82839100  0.61176300  0.62322200  1
  O  O72  1  0.88239100  0.45752900  0.09421500  1
  O  O73  1  0.90487200  0.19689800  0.08963000  1
  O  O74  1  0.91438900  0.11369800  0.53992800  1
  O  O75  1  0.91813000  0.32577500  0.31081500  1
  O  O76  1  0.87691300  0.88959200  0.66744900  1
  O  O77  1  0.94239200  0.08596700  0.79420500  1
  O  O78  1  0.88946800  0.66332500  0.87831700  1
  O  O79  1  0.96780700  0.38917100  0.61263700  1
