# generated using pymatgen
data_Li2VCrO4
_symmetry_space_group_name_H-M   'P 1'
_cell_length_a   2.96773701
_cell_length_b   5.17641200
_cell_length_c   5.14394077
_cell_angle_alpha   81.06165141
_cell_angle_beta   90.00407438
_cell_angle_gamma   73.35106976
_symmetry_Int_Tables_number   1
_chemical_formula_structural   Li2VCrO4
_chemical_formula_sum   'Li2 V1 Cr1 O4'
_cell_volume   74.70719471
_cell_formula_units_Z   1
loop_
 _symmetry_equiv_pos_site_id
 _symmetry_equiv_pos_as_xyz
  1  'x, y, z'
loop_
 _atom_site_type_symbol
 _atom_site_label
 _atom_site_symmetry_multiplicity
 _atom_site_fract_x
 _atom_site_fract_y
 _atom_site_fract_z
 _atom_site_occupancy
  Li  Li0  1  0.50104600  0.99788300  0.50741700  1
  Li  Li1  1  0.99896300  0.00211400  0.99256300  1
  V  V2  1  0.74999800  0.50000100  0.25000400  1
  Cr  Cr3  1  0.25000000  0.50000000  0.75000300  1
  O  O4  1  0.13642000  0.72732900  0.38106600  1
  O  O5  1  0.36357900  0.27267000  0.11894100  1
  O  O6  1  0.63566000  0.72885900  0.87394300  1
  O  O7  1  0.86433400  0.27114200  0.62606400  1
