# generated using pymatgen
data_Li7Ti16O32
_symmetry_space_group_name_H-M   'P 1'
_cell_length_a   11.41018708
_cell_length_b   11.41018708
_cell_length_c   5.08587621
_cell_angle_alpha   89.92992770
_cell_angle_beta   89.92992770
_cell_angle_gamma   62.53664427
_symmetry_Int_Tables_number   1
_chemical_formula_structural   Li7Ti16O32
_chemical_formula_sum   'Li7 Ti16 O32'
_cell_volume   587.52218966
_cell_formula_units_Z   1
loop_
 _symmetry_equiv_pos_site_id
 _symmetry_equiv_pos_as_xyz
  1  'x, y, z'
loop_
 _atom_site_type_symbol
 _atom_site_label
 _atom_site_symmetry_multiplicity
 _atom_site_fract_x
 _atom_site_fract_y
 _atom_site_fract_z
 _atom_site_occupancy
  Li  Li0  1  0.32786100  0.32786100  0.57092800  1
  Li  Li1  1  0.92650700  0.66346700  0.43750600  1
  Li  Li2  1  0.66346700  0.92650700  0.43750600  1
  Li  Li3  1  0.17350800  0.92170400  0.06378700  1
  Li  Li4  1  0.67045300  0.42094200  0.06309300  1
  Li  Li5  1  0.92170400  0.17350800  0.06378700  1
  Li  Li6  1  0.42094200  0.67045300  0.06309300  1
  Ti  Ti7  1  0.74022300  0.74022300  0.97889700  1
  Ti  Ti8  1  0.48614400  0.99956400  0.97340400  1
  Ti  Ti9  1  0.24028600  0.24028600  0.99917700  1
  Ti  Ti10  1  0.99956400  0.48614400  0.97340400  1
  Ti  Ti11  1  0.24018700  0.74177000  0.52150700  1
  Ti  Ti12  1  0.74177000  0.24018700  0.52150700  1
  Ti  Ti13  1  0.49037100  0.49037100  0.53023300  1
  Ti  Ti14  1  0.99258300  0.99258300  0.51512300  1
  Ti  Ti15  1  0.50718500  0.75788100  0.48092300  1
  Ti  Ti16  1  0.25842700  0.00924500  0.49188400  1
  Ti  Ti17  1  0.00924500  0.25842700  0.49188400  1
  Ti  Ti18  1  0.75788100  0.50718500  0.48092300  1
  Ti  Ti19  1  0.00339500  0.76109300  0.01001300  1
  Ti  Ti20  1  0.51080800  0.24970500  0.03006000  1
  Ti  Ti21  1  0.24970500  0.51080800  0.03006000  1
  Ti  Ti22  1  0.76109300  0.00339500  0.01001300  1
  O  O23  1  0.67093400  0.91652000  0.80537000  1
  O  O24  1  0.17207100  0.41701800  0.80346900  1
  O  O25  1  0.41701800  0.17207100  0.80346900  1
  O  O26  1  0.91652000  0.67093400  0.80537000  1
  O  O27  1  0.17558400  0.67178200  0.80439800  1
  O  O28  1  0.92453900  0.92453900  0.79310800  1
  O  O29  1  0.41819300  0.41819300  0.78963400  1
  O  O30  1  0.67178200  0.17558400  0.80439800  1
  O  O31  1  0.42749300  0.92090500  0.69841300  1
  O  O32  1  0.17463600  0.17463600  0.70189800  1
  O  O33  1  0.67308000  0.67308000  0.70051500  1
  O  O34  1  0.92090500  0.42749300  0.69841300  1
  O  O35  1  0.42033800  0.66842300  0.69551800  1
  O  O36  1  0.17189900  0.91926700  0.69614200  1
  O  O37  1  0.91926700  0.17189900  0.69614200  1
  O  O38  1  0.66842300  0.42033800  0.69551800  1
  O  O39  1  0.82866300  0.33119300  0.29148100  1
  O  O40  1  0.33119300  0.82866300  0.29148100  1
  O  O41  1  0.08033400  0.08033400  0.29241100  1
  O  O42  1  0.58097400  0.58097400  0.28835700  1
  O  O43  1  0.08203800  0.83043300  0.28239100  1
  O  O44  1  0.83043300  0.08203800  0.28239100  1
  O  O45  1  0.57925100  0.33306500  0.28709400  1
  O  O46  1  0.33306500  0.57925100  0.28709400  1
  O  O47  1  0.32838200  0.07201000  0.19945800  1
  O  O48  1  0.83154800  0.58147500  0.20998300  1
  O  O49  1  0.07201000  0.32838200  0.19945800  1
  O  O50  1  0.58147500  0.83154800  0.20998300  1
  O  O51  1  0.83059700  0.83059700  0.21453900  1
  O  O52  1  0.33201700  0.33201700  0.20278500  1
  O  O53  1  0.07906600  0.58346300  0.20125200  1
  O  O54  1  0.58346300  0.07906600  0.20125200  1
