# generated using pymatgen
data_KLi4CrO5
_symmetry_space_group_name_H-M   'P 1'
_cell_length_a   5.60833377
_cell_length_b   9.37070111
_cell_length_c   10.29271998
_cell_angle_alpha   116.75702670
_cell_angle_beta   81.10515206
_cell_angle_gamma   99.96644042
_symmetry_Int_Tables_number   1
_chemical_formula_structural   KLi4CrO5
_chemical_formula_sum   'K4 Li16 Cr4 O20'
_cell_volume   473.90202361
_cell_formula_units_Z   4
loop_
 _symmetry_equiv_pos_site_id
 _symmetry_equiv_pos_as_xyz
  1  'x, y, z'
loop_
 _atom_site_type_symbol
 _atom_site_label
 _atom_site_symmetry_multiplicity
 _atom_site_fract_x
 _atom_site_fract_y
 _atom_site_fract_z
 _atom_site_occupancy
  K  K0  1  0.52607800  0.91646600  0.32926100  1
  K  K1  1  0.02607700  0.41651300  0.82925300  1
  K  K2  1  0.97395900  0.58347100  0.17071400  1
  K  K3  1  0.47397000  0.08352800  0.67074700  1
  Li  Li4  1  0.33872300  0.77873500  0.86368700  1
  Li  Li5  1  0.83870100  0.27875200  0.36369700  1
  Li  Li6  1  0.16128900  0.72126300  0.63631000  1
  Li  Li7  1  0.66128600  0.22126000  0.13629900  1
  Li  Li8  1  0.60669600  0.93956000  0.06429500  1
  Li  Li9  1  0.10671900  0.43957000  0.56430300  1
  Li  Li10  1  0.89327900  0.56043500  0.43570200  1
  Li  Li11  1  0.39330000  0.06044100  0.93569700  1
  Li  Li12  1  0.36398700  0.26519900  0.35211000  1
  Li  Li13  1  0.86397200  0.76517800  0.85210500  1
  Li  Li14  1  0.13602700  0.23481800  0.14788700  1
  Li  Li15  1  0.63601800  0.73479600  0.64789100  1
  Li  Li16  1  0.52817100  0.65023600  0.02545200  1
  Li  Li17  1  0.02818100  0.15024100  0.52544900  1
  Li  Li18  1  0.97181900  0.84975800  0.47454600  1
  Li  Li19  1  0.47182900  0.34976000  0.97455000  1
  Cr  Cr20  1  0.57096000  0.43862000  0.65897700  1
  Cr  Cr21  1  0.42901100  0.56138300  0.34112100  1
  Cr  Cr22  1  0.07095800  0.93863300  0.15892400  1
  Cr  Cr23  1  0.92904400  0.06139300  0.84106700  1
  O  O24  1  0.36777200  0.59140500  0.67900600  1
  O  O25  1  0.86775400  0.09141200  0.17901800  1
  O  O26  1  0.13223800  0.90859200  0.82097600  1
  O  O27  1  0.63224200  0.40860300  0.32099400  1
  O  O28  1  0.33727600  0.08657400  0.14676500  1
  O  O29  1  0.83726500  0.58654500  0.64673700  1
  O  O30  1  0.16270200  0.41342900  0.35325000  1
  O  O31  1  0.66272100  0.91343200  0.85322900  1
  O  O32  1  0.28829500  0.78467100  0.05669300  1
  O  O33  1  0.78831200  0.28464900  0.55667800  1
  O  O34  1  0.21167900  0.71534000  0.44331300  1
  O  O35  1  0.71170400  0.21533600  0.94331800  1
  O  O36  1  0.33169700  0.28404800  0.55424500  1
  O  O37  1  0.83174800  0.78405800  0.05426700  1
  O  O38  1  0.16826400  0.21593900  0.94573300  1
  O  O39  1  0.66824600  0.71594600  0.44574300  1
  O  O40  1  0.03938600  0.95093300  0.33184900  1
  O  O41  1  0.53943700  0.45094200  0.83176900  1
  O  O42  1  0.46059800  0.54907000  0.16821900  1
  O  O43  1  0.96061100  0.04906900  0.66815200  1
