# generated using pymatgen
data_Li2MnSiO4
_symmetry_space_group_name_H-M   'P 1'
_cell_length_a   11.01015400
_cell_length_b   5.13580100
_cell_length_c   8.11170400
_cell_angle_alpha   51.80423195
_cell_angle_beta   90.00000000
_cell_angle_gamma   90.00000000
_symmetry_Int_Tables_number   1
_chemical_formula_structural   Li2MnSiO4
_chemical_formula_sum   'Li8 Mn4 Si4 O16'
_cell_volume   360.48100343
_cell_formula_units_Z   4
loop_
 _symmetry_equiv_pos_site_id
 _symmetry_equiv_pos_as_xyz
  1  'x, y, z'
loop_
 _atom_site_type_symbol
 _atom_site_label
 _atom_site_symmetry_multiplicity
 _atom_site_fract_x
 _atom_site_fract_y
 _atom_site_fract_z
 _atom_site_occupancy
  Li  Li0  1  0.66079400  0.68841700  0.50136500  1
  Li  Li1  1  0.42745200  0.46625200  0.73672800  1
  Li  Li2  1  0.92745200  0.53374800  0.76327200  1
  Li  Li3  1  0.16079400  0.31158300  0.99863500  1
  Li  Li4  1  0.83920600  0.68841700  0.00136500  1
  Li  Li5  1  0.07254800  0.46625200  0.23672800  1
  Li  Li6  1  0.57254800  0.53374800  0.26327200  1
  Li  Li7  1  0.33920600  0.31158300  0.49863500  1
  Mn  Mn8  1  0.83521300  0.19894700  0.49667200  1
  Mn  Mn9  1  0.33521300  0.80105300  0.00332800  1
  Mn  Mn10  1  0.66478700  0.19894700  0.99667200  1
  Mn  Mn11  1  0.16478700  0.80105300  0.50332800  1
  Si  Si12  1  0.08638200  0.05775500  0.75251600  1
  Si  Si13  1  0.58638200  0.94224500  0.74748400  1
  Si  Si14  1  0.41361800  0.05775500  0.25251600  1
  Si  Si15  1  0.91361800  0.94224500  0.24748400  1
  O  O16  1  0.15954900  0.18070600  0.53547000  1
  O  O17  1  0.65704500  0.26270300  0.53804500  1
  O  O18  1  0.44650900  0.05927600  0.74455600  1
  O  O19  1  0.08584600  0.37279900  0.75985800  1
  O  O20  1  0.58584600  0.62720100  0.74014200  1
  O  O21  1  0.94650900  0.94072400  0.75544400  1
  O  O22  1  0.15704500  0.73729700  0.96195500  1
  O  O23  1  0.65954900  0.81929400  0.96453000  1
  O  O24  1  0.34045100  0.18070600  0.03547000  1
  O  O25  1  0.84295500  0.26270300  0.03804500  1
  O  O26  1  0.05349100  0.05927600  0.24455600  1
  O  O27  1  0.41415400  0.37279900  0.25985800  1
  O  O28  1  0.91415400  0.62720100  0.24014200  1
  O  O29  1  0.55349100  0.94072400  0.25544400  1
  O  O30  1  0.34295500  0.73729700  0.46195500  1
  O  O31  1  0.84045100  0.81929400  0.46453000  1
