# generated using pymatgen
data_LiMnPO4
_symmetry_space_group_name_H-M   'P 1'
_cell_length_a   4.40097100
_cell_length_b   14.70473500
_cell_length_c   4.86167800
_cell_angle_alpha   89.99998042
_cell_angle_beta   90.00000000
_cell_angle_gamma   90.00000000
_symmetry_Int_Tables_number   1
_chemical_formula_structural   LiMnPO4
_chemical_formula_sum   'Li4 Mn4 P4 O16'
_cell_volume   314.62403773
_cell_formula_units_Z   4
loop_
 _symmetry_equiv_pos_site_id
 _symmetry_equiv_pos_as_xyz
  1  'x, y, z'
loop_
 _atom_site_type_symbol
 _atom_site_label
 _atom_site_symmetry_multiplicity
 _atom_site_fract_x
 _atom_site_fract_y
 _atom_site_fract_z
 _atom_site_occupancy
  Li  Li0  1  0.00000000  0.24849200  0.75000100  1
  Li  Li1  1  0.00000000  0.75150900  0.25000100  1
  Li  Li2  1  0.50000000  0.25150900  0.25000100  1
  Li  Li3  1  0.50000000  0.74849200  0.75000100  1
  Mn  Mn4  1  0.99999900  0.92956300  0.74999400  1
  Mn  Mn5  1  0.50000700  0.57043200  0.24998400  1
  Mn  Mn6  1  0.00000100  0.07041400  0.24999900  1
  Mn  Mn7  1  0.49999900  0.42958400  0.75000000  1
  P  P8  1  0.00000000  0.38587800  0.25000100  1
  P  P9  1  0.00000000  0.61412200  0.75000100  1
  P  P10  1  0.50000000  0.88587900  0.25000100  1
  P  P11  1  0.50000000  0.11412300  0.75000100  1
  O  O12  1  0.18253700  0.32647800  0.46008100  1
  O  O13  1  0.18254200  0.67352300  0.96008300  1
  O  O14  1  0.31746200  0.17352300  0.96008100  1
  O  O15  1  0.31745800  0.82647700  0.46008300  1
  O  O16  1  0.68253800  0.17352300  0.53992100  1
  O  O17  1  0.68254200  0.82647800  0.03991900  1
  O  O18  1  0.81746300  0.32647800  0.03992100  1
  O  O19  1  0.81745700  0.67352300  0.53991800  1
  O  O20  1  0.26745000  0.05473000  0.59173000  1
  O  O21  1  0.26745000  0.94527200  0.09173400  1
  O  O22  1  0.23255100  0.44527100  0.09173000  1
  O  O23  1  0.23255000  0.55472800  0.59173400  1
  O  O24  1  0.76745000  0.55472800  0.90826900  1
  O  O25  1  0.76744800  0.44527100  0.40827200  1
  O  O26  1  0.73255000  0.05473000  0.90827100  1
  O  O27  1  0.73254900  0.94527200  0.40826800  1
