# generated using pymatgen
data_Li6Mg(Ni6O13)2
_symmetry_space_group_name_H-M   'P 1'
_cell_length_a   7.48631700
_cell_length_b   7.68266745
_cell_length_c   8.12835623
_cell_angle_alpha   78.06770482
_cell_angle_beta   75.35769388
_cell_angle_gamma   86.61706459
_symmetry_Int_Tables_number   1
_chemical_formula_structural   Li6Mg(Ni6O13)2
_chemical_formula_sum   'Li6 Mg1 Ni12 O26'
_cell_volume   442.53366392
_cell_formula_units_Z   1
loop_
 _symmetry_equiv_pos_site_id
 _symmetry_equiv_pos_as_xyz
  1  'x, y, z'
loop_
 _atom_site_type_symbol
 _atom_site_label
 _atom_site_symmetry_multiplicity
 _atom_site_fract_x
 _atom_site_fract_y
 _atom_site_fract_z
 _atom_site_occupancy
  Li  Li0  1  0.97614600  0.99247600  0.49411500  1
  Li  Li1  1  0.39597600  0.93344000  0.43725900  1
  Li  Li2  1  0.53111600  0.68568100  0.17748700  1
  Li  Li3  1  0.43562500  0.31570800  0.81202100  1
  Li  Li4  1  0.94577200  0.61211800  0.10964900  1
  Li  Li5  1  0.85430300  0.24973900  0.74663000  1
  Mg  Mg6  1  0.00468200  0.00119500  0.00168000  1
  Ni  Ni7  1  0.07666300  0.38480000  0.38171000  1
  Ni  Ni8  1  0.23410700  0.15224600  0.15534100  1
  Ni  Ni9  1  0.15294300  0.77271400  0.76825600  1
  Ni  Ni10  1  0.30319400  0.54405300  0.53774000  1
  Ni  Ni11  1  0.46185100  0.30707100  0.30938500  1
  Ni  Ni12  1  0.61774400  0.06907500  0.08031600  1
  Ni  Ni13  1  0.38716700  0.92150200  0.92137000  1
  Ni  Ni14  1  0.53705100  0.69379100  0.68998100  1
  Ni  Ni15  1  0.69179200  0.46115400  0.46162400  1
  Ni  Ni16  1  0.84672400  0.23155400  0.23216500  1
  Ni  Ni17  1  0.77097500  0.84380300  0.84321500  1
  Ni  Ni18  1  0.92151700  0.61309000  0.61490100  1
  O  O19  1  0.00302200  0.03719700  0.23975200  1
  O  O20  1  0.05683300  0.36920900  0.16186000  1
  O  O21  1  0.07931300  0.41204500  0.60666200  1
  O  O22  1  0.15256200  0.75108900  0.54167700  1
  O  O23  1  0.23987200  0.17970000  0.38122500  1
  O  O24  1  0.30741900  0.51125100  0.31088900  1
  O  O25  1  0.17224100  0.78629100  0.98794400  1
  O  O26  1  0.40573200  0.92784300  0.14888900  1
  O  O27  1  0.24923300  0.12900200  0.92793000  1
  O  O28  1  0.46354800  0.27228700  0.08486200  1
  O  O29  1  0.30342100  0.56564300  0.76123500  1
  O  O30  1  0.36726800  0.90857100  0.69808800  1
  O  O31  1  0.45795600  0.34163400  0.53599600  1
  O  O32  1  0.51409600  0.68186600  0.46675400  1
  O  O33  1  0.61700200  0.10156600  0.30562500  1
  O  O34  1  0.68246700  0.43715900  0.23743700  1
  O  O35  1  0.54520200  0.71883400  0.91276300  1
  O  O36  1  0.76312200  0.85868400  0.07196600  1
  O  O37  1  0.61492500  0.05170500  0.85259400  1
  O  O38  1  0.82820600  0.21028900  0.01033000  1
  O  O39  1  0.69795300  0.46879200  0.68542000  1
  O  O40  1  0.77273000  0.81638100  0.61873400  1
  O  O41  1  0.86834800  0.24516200  0.45633200  1
  O  O42  1  0.92203300  0.58058000  0.37423500  1
  O  O43  1  0.92903700  0.64870800  0.85486200  1
  O  O44  1  0.99025700  0.97130600  0.75824400  1
