# generated using pymatgen
data_LiFeSiO4
_symmetry_space_group_name_H-M   'P 1'
_cell_length_a   5.13706800
_cell_length_b   10.27359200
_cell_length_c   13.45671300
_cell_angle_alpha   90.00000000
_cell_angle_beta   90.00000000
_cell_angle_gamma   90.00000000
_symmetry_Int_Tables_number   1
_chemical_formula_structural   LiFeSiO4
_chemical_formula_sum   'Li8 Fe8 Si8 O32'
_cell_volume   710.19337876
_cell_formula_units_Z   8
loop_
 _symmetry_equiv_pos_site_id
 _symmetry_equiv_pos_as_xyz
  1  'x, y, z'
loop_
 _atom_site_type_symbol
 _atom_site_label
 _atom_site_symmetry_multiplicity
 _atom_site_fract_x
 _atom_site_fract_y
 _atom_site_fract_z
 _atom_site_occupancy
  Li  Li0  1  0.90904400  0.03616000  0.49649900  1
  Li  Li1  1  0.56028400  0.21573300  0.25066600  1
  Li  Li2  1  0.56028400  0.28426700  0.75066600  1
  Li  Li3  1  0.90904400  0.46384000  0.99649900  1
  Li  Li4  1  0.09095600  0.53616000  0.49649900  1
  Li  Li5  1  0.43971600  0.71573300  0.25066600  1
  Li  Li6  1  0.43971600  0.78426700  0.75066600  1
  Li  Li7  1  0.09095600  0.96384000  0.99649900  1
  Fe  Fe8  1  0.06977100  0.04047700  0.24663700  1
  Fe  Fe9  1  0.55485500  0.21389700  0.00006300  1
  Fe  Fe10  1  0.55485500  0.28610300  0.50006300  1
  Fe  Fe11  1  0.06977100  0.45952300  0.74663700  1
  Fe  Fe12  1  0.93022900  0.54047700  0.24663700  1
  Fe  Fe13  1  0.44514500  0.71389700  0.00006300  1
  Fe  Fe14  1  0.44514500  0.78610300  0.50006300  1
  Fe  Fe15  1  0.93022900  0.95952300  0.74663700  1
  Si  Si16  1  0.42562800  0.03453000  0.62460800  1
  Si  Si17  1  0.05563800  0.21289700  0.87196800  1
  Si  Si18  1  0.05563800  0.28710300  0.37196800  1
  Si  Si19  1  0.42562800  0.46547000  0.12460800  1
  Si  Si20  1  0.57437200  0.53453000  0.62460800  1
  Si  Si21  1  0.94436200  0.71289700  0.87196800  1
  Si  Si22  1  0.94436200  0.78710300  0.37196800  1
  Si  Si23  1  0.57437200  0.96547000  0.12460800  1
  O  O24  1  0.89071900  0.99138100  0.12897200  1
  O  O25  1  0.54176100  0.96282900  0.52431700  1
  O  O26  1  0.43447400  0.03320600  0.22200500  1
  O  O27  1  0.00587000  0.05522900  0.86434700  1
  O  O28  1  0.48999100  0.19081000  0.61958900  1
  O  O29  1  0.90145100  0.23255400  0.47096700  1
  O  O30  1  0.94316600  0.28821800  0.77299000  1
  O  O31  1  0.36749100  0.24836200  0.88076800  1
  O  O32  1  0.36749100  0.25163800  0.38076800  1
  O  O33  1  0.94316600  0.21178200  0.27299000  1
  O  O34  1  0.90145100  0.26744600  0.97096700  1
  O  O35  1  0.48999100  0.30919000  0.11958900  1
  O  O36  1  0.00587000  0.44477100  0.36434700  1
  O  O37  1  0.43447400  0.46679400  0.72200500  1
  O  O38  1  0.54176100  0.53717100  0.02431700  1
  O  O39  1  0.89071900  0.50861900  0.62897200  1
  O  O40  1  0.10928100  0.49138100  0.12897200  1
  O  O41  1  0.45823900  0.46282900  0.52431700  1
  O  O42  1  0.56552600  0.53320600  0.22200500  1
  O  O43  1  0.99413000  0.55522900  0.86434700  1
  O  O44  1  0.51000900  0.69081000  0.61958900  1
  O  O45  1  0.09854900  0.73255400  0.47096700  1
  O  O46  1  0.05683400  0.78821800  0.77299000  1
  O  O47  1  0.63250900  0.74836200  0.88076800  1
  O  O48  1  0.63250900  0.75163800  0.38076800  1
  O  O49  1  0.05683400  0.71178200  0.27299000  1
  O  O50  1  0.09854900  0.76744600  0.97096700  1
  O  O51  1  0.51000900  0.80919000  0.11958900  1
  O  O52  1  0.99413000  0.94477100  0.36434700  1
  O  O53  1  0.56552600  0.96679400  0.72200500  1
  O  O54  1  0.45823900  0.03717100  0.02431700  1
  O  O55  1  0.10928100  0.00861900  0.62897200  1
