# generated using pymatgen
data_Li4V2Si(PO6)2
_symmetry_space_group_name_H-M   'P 1'
_cell_length_a   9.00667000
_cell_length_b   8.48671400
_cell_length_c   12.38991557
_cell_angle_alpha   85.07795538
_cell_angle_beta   90.00000000
_cell_angle_gamma   90.00000000
_symmetry_Int_Tables_number   1
_chemical_formula_structural   Li4V2Si(PO6)2
_chemical_formula_sum   'Li16 V8 Si4 P8 O48'
_cell_volume   943.55600250
_cell_formula_units_Z   4
loop_
 _symmetry_equiv_pos_site_id
 _symmetry_equiv_pos_as_xyz
  1  'x, y, z'
loop_
 _atom_site_type_symbol
 _atom_site_label
 _atom_site_symmetry_multiplicity
 _atom_site_fract_x
 _atom_site_fract_y
 _atom_site_fract_z
 _atom_site_occupancy
  Li  Li0  1  0.21480200  0.44394300  0.70019500  1
  Li  Li1  1  0.99045000  0.75720500  0.75016000  1
  Li  Li2  1  0.90400800  0.76192200  0.50868400  1
  Li  Li3  1  0.00955000  0.75720500  0.25016000  1
  Li  Li4  1  0.70103300  0.54392500  0.79298800  1
  Li  Li5  1  0.21500400  0.04366100  0.29783800  1
  Li  Li6  1  0.09599200  0.76192200  0.00868400  1
  Li  Li7  1  0.78499600  0.04366100  0.79783800  1
  Li  Li8  1  0.69217400  0.97950800  0.19647500  1
  Li  Li9  1  0.41598100  0.22981800  0.00298900  1
  Li  Li10  1  0.78519800  0.44394300  0.20019500  1
  Li  Li11  1  0.30782600  0.97950800  0.69647500  1
  Li  Li12  1  0.50717100  0.24161900  0.74901700  1
  Li  Li13  1  0.58401900  0.22981800  0.50298900  1
  Li  Li14  1  0.49282900  0.24161900  0.24901700  1
  Li  Li15  1  0.29896700  0.54392500  0.29298800  1
  V  V16  1  0.99796700  0.46512100  0.89122200  1
  V  V17  1  0.49942100  0.96796800  0.89228400  1
  V  V18  1  0.00203300  0.46512100  0.39122200  1
  V  V19  1  0.00163800  0.03715100  0.61131700  1
  V  V20  1  0.50057900  0.96796800  0.39228400  1
  V  V21  1  0.99836200  0.03715100  0.11131700  1
  V  V22  1  0.50338900  0.53250900  0.60694900  1
  V  V23  1  0.49661100  0.53250900  0.10694900  1
  Si  Si24  1  0.70404000  0.25201600  0.99901600  1
  Si  Si25  1  0.64775700  0.89589400  0.64822800  1
  Si  Si26  1  0.35224300  0.89589400  0.14822800  1
  Si  Si27  1  0.29596000  0.25201600  0.49901600  1
  P  P28  1  0.19990400  0.75076500  0.49908900  1
  P  P29  1  0.14659000  0.09956200  0.85239400  1
  P  P30  1  0.80009600  0.75076500  0.99908900  1
  P  P31  1  0.85305300  0.39941600  0.64878800  1
  P  P32  1  0.14694700  0.39941600  0.14878800  1
  P  P33  1  0.85341000  0.09956200  0.35239400  1
  P  P34  1  0.35068900  0.60015800  0.85158900  1
  P  P35  1  0.64931100  0.60015800  0.35158900  1
  O  O36  1  0.17871200  0.59558500  0.83163500  1
  O  O37  1  0.09749500  0.27379500  0.83485300  1
  O  O38  1  0.09568000  0.81900100  0.58543100  1
  O  O39  1  0.91005600  0.68623800  0.91487400  1
  O  O40  1  0.09951000  0.02193800  0.96358800  1
  O  O41  1  0.19610800  0.12442800  0.57369400  1
  O  O42  1  0.08994400  0.68623800  0.41487400  1
  O  O43  1  0.70705900  0.87637600  0.93377700  1
  O  O44  1  0.19597300  0.38371400  0.42828200  1
  O  O45  1  0.17081400  0.90193900  0.16922300  1
  O  O46  1  0.08026400  0.99171400  0.76843100  1
  O  O47  1  0.92094200  0.50784100  0.73272700  1
  O  O48  1  0.82918600  0.90193900  0.66922300  1
  O  O49  1  0.80402700  0.38371400  0.92828200  1
  O  O50  1  0.90001900  0.47691400  0.53781400  1
  O  O51  1  0.07905800  0.50784100  0.23272700  1
  O  O52  1  0.57318900  0.00601500  0.73767400  1
  O  O53  1  0.90054500  0.22493100  0.66615400  1
  O  O54  1  0.60629200  0.70874400  0.66314300  1
  O  O55  1  0.09945500  0.22493100  0.16615400  1
  O  O56  1  0.59457000  0.18048100  0.90817300  1
  O  O57  1  0.09998100  0.47691400  0.03781400  1
  O  O58  1  0.59280600  0.98085700  0.53244400  1
  O  O59  1  0.68182900  0.39565000  0.67016700  1
  O  O60  1  0.82128800  0.59558500  0.33163500  1
  O  O61  1  0.90049000  0.02193800  0.46358800  1
  O  O62  1  0.39848100  0.52013000  0.96210600  1
  O  O63  1  0.90432000  0.81900100  0.08543100  1
  O  O64  1  0.90250500  0.27379500  0.33485300  1
  O  O65  1  0.39415600  0.77552300  0.83855100  1
  O  O66  1  0.60584400  0.77552300  0.33855100  1
  O  O67  1  0.41865500  0.49614900  0.76514400  1
  O  O68  1  0.91973600  0.99171400  0.26843100  1
  O  O69  1  0.60151900  0.52013000  0.46210600  1
  O  O70  1  0.70403400  0.62454000  0.06288000  1
  O  O71  1  0.68207400  0.10371600  0.33062800  1
  O  O72  1  0.58134500  0.49614900  0.26514400  1
  O  O73  1  0.42681100  0.00601500  0.23767400  1
  O  O74  1  0.31792600  0.10371600  0.83062800  1
  O  O75  1  0.29596600  0.62454000  0.56288000  1
  O  O76  1  0.80389200  0.12442800  0.07369400  1
  O  O77  1  0.40931700  0.32158400  0.58983900  1
  O  O78  1  0.29294100  0.87637600  0.43377700  1
  O  O79  1  0.40719400  0.98085700  0.03244400  1
  O  O80  1  0.59068300  0.32158400  0.08983900  1
  O  O81  1  0.40543000  0.18048100  0.40817300  1
  O  O82  1  0.39370800  0.70874400  0.16314300  1
  O  O83  1  0.31817100  0.39565000  0.17016700  1
