# generated using pymatgen
data_Li7Ni(O2F)2
_symmetry_space_group_name_H-M   'P 1'
_cell_length_a   5.46486627
_cell_length_b   9.45529042
_cell_length_c   5.71629681
_cell_angle_alpha   91.23757756
_cell_angle_beta   67.24321133
_cell_angle_gamma   78.22082278
_symmetry_Int_Tables_number   1
_chemical_formula_structural   Li7Ni(O2F)2
_chemical_formula_sum   'Li14 Ni2 O8 F4'
_cell_volume   264.98323000
_cell_formula_units_Z   2
loop_
 _symmetry_equiv_pos_site_id
 _symmetry_equiv_pos_as_xyz
  1  'x, y, z'
loop_
 _atom_site_type_symbol
 _atom_site_label
 _atom_site_symmetry_multiplicity
 _atom_site_fract_x
 _atom_site_fract_y
 _atom_site_fract_z
 _atom_site_occupancy
  Li  Li0  1  0.88203500  0.13723300  0.46259500  1
  Li  Li1  1  0.88202400  0.63729300  0.96257200  1
  Li  Li2  1  0.48245200  0.02629500  0.72057100  1
  Li  Li3  1  0.48234200  0.52629800  0.22056200  1
  Li  Li4  1  0.80118400  0.24226100  0.87979000  1
  Li  Li5  1  0.80111200  0.74224900  0.37984200  1
  Li  Li6  1  0.36243100  0.15934100  0.12922000  1
  Li  Li7  1  0.36241900  0.65930800  0.62919800  1
  Li  Li8  1  0.23853300  0.27021100  0.62481700  1
  Li  Li9  1  0.23849000  0.77022600  0.12486200  1
  Li  Li10  1  0.54076200  0.43424000  0.72336800  1
  Li  Li11  1  0.54078600  0.93428700  0.22350500  1
  Li  Li12  1  0.05722700  0.38650300  0.08052400  1
  Li  Li13  1  0.05718300  0.88647400  0.58057500  1
  Ni  Ni14  1  0.99398100  0.50739100  0.51547300  1
  Ni  Ni15  1  0.99418300  0.00737500  0.01547300  1
  O  O16  1  0.76772600  0.05040700  0.82478800  1
  O  O17  1  0.76750600  0.55040900  0.32491100  1
  O  O18  1  0.91990400  0.32576400  0.55104100  1
  O  O19  1  0.91989100  0.82577600  0.05112300  1
  O  O20  1  0.12314800  0.17464700  0.93997100  1
  O  O21  1  0.12301200  0.67466900  0.44002500  1
  O  O22  1  0.18188100  0.47663400  0.73439100  1
  O  O23  1  0.18204600  0.97663100  0.23433400  1
  F  F24  1  0.54459900  0.12493800  0.40819500  1
  F  F25  1  0.54455400  0.62498000  0.90822400  1
  F  F26  1  0.44334800  0.35539200  0.06826400  1
  F  F27  1  0.44328800  0.85537000  0.56833800  1
