# generated using pymatgen
data_Ba4Li4Ti19O44
_symmetry_space_group_name_H-M   'P 1'
_cell_length_a   5.88236300
_cell_length_b   10.06909339
_cell_length_c   14.17872653
_cell_angle_alpha   89.71125982
_cell_angle_beta   89.66452501
_cell_angle_gamma   89.78576114
_symmetry_Int_Tables_number   1
_chemical_formula_structural   Ba4Li4Ti19O44
_chemical_formula_sum   'Ba4 Li4 Ti19 O44'
_cell_volume   839.77601923
_cell_formula_units_Z   1
loop_
 _symmetry_equiv_pos_site_id
 _symmetry_equiv_pos_as_xyz
  1  'x, y, z'
loop_
 _atom_site_type_symbol
 _atom_site_label
 _atom_site_symmetry_multiplicity
 _atom_site_fract_x
 _atom_site_fract_y
 _atom_site_fract_z
 _atom_site_occupancy
  Ba  Ba0  1  0.24344000  0.60603400  0.09433600  1
  Ba  Ba1  1  0.24819300  0.91132400  0.58918800  1
  Ba  Ba2  1  0.74475000  0.09304300  0.40860700  1
  Ba  Ba3  1  0.75283600  0.39515800  0.89866000  1
  Li  Li4  1  0.02533600  0.50031200  0.52101000  1
  Li  Li5  1  0.25728600  0.60428700  0.65276600  1
  Li  Li6  1  0.70612500  0.41494700  0.44398400  1
  Li  Li7  1  0.75055700  0.07365600  0.96241300  1
  Ti  Ti8  1  0.24021500  0.38749300  0.33260400  1
  Ti  Ti9  1  0.23434900  0.24339500  0.51167200  1
  Ti  Ti10  1  0.23722500  0.57474300  0.84403000  1
  Ti  Ti11  1  0.24403400  0.93748000  0.33079600  1
  Ti  Ti12  1  0.25058300  0.25923700  0.99714600  1
  Ti  Ti13  1  0.25349900  0.11472000  0.82394600  1
  Ti  Ti14  1  0.49421400  0.34288200  0.66825100  1
  Ti  Ti15  1  0.49183300  0.16365100  0.17103700  1
  Ti  Ti16  1  0.49428900  0.66463400  0.33544400  1
  Ti  Ti17  1  0.50413400  0.84551500  0.82329200  1
  Ti  Ti18  1  0.73533900  0.76666100  0.51479100  1
  Ti  Ti19  1  0.73811100  0.73172800  0.00075400  1
  Ti  Ti20  1  0.74598600  0.43366900  0.16978500  1
  Ti  Ti21  1  0.74785000  0.88618900  0.16524100  1
  Ti  Ti22  1  0.76232600  0.59137000  0.67580700  1
  Ti  Ti23  1  0.77056100  0.09638200  0.66448600  1
  Ti  Ti24  1  0.99410900  0.67189600  0.33288300  1
  Ti  Ti25  1  0.99450700  0.16380300  0.16854400  1
  Ti  Ti26  1  0.00237000  0.84463600  0.82861800  1
  O  O27  1  0.99827300  0.00703300  0.74891700  1
  O  O28  1  0.99942900  0.15102600  0.57610100  1
  O  O29  1  0.00596400  0.52954800  0.75812000  1
  O  O30  1  0.01260500  0.67831600  0.91608100  1
  O  O31  1  0.01799400  0.33034600  0.42103900  1
  O  O32  1  0.03362000  0.17970400  0.91728000  1
  O  O33  1  0.23790900  0.24025000  0.24684700  1
  O  O34  1  0.24894500  0.74892800  0.26367800  1
  O  O35  1  0.23964900  0.56866200  0.39537600  1
  O  O36  1  0.24612900  0.10874800  0.09036000  1
  O  O37  1  0.24525200  0.43557500  0.93210000  1
  O  O38  1  0.24994900  0.06136700  0.42260200  1
  O  O39  1  0.25386800  0.75002200  0.76134200  1
  O  O40  1  0.25092500  0.92723700  0.89078000  1
  O  O41  1  0.25816300  0.39662300  0.58239000  1
  O  O42  1  0.27715300  0.25563000  0.74993900  1
  O  O43  1  0.45286400  0.31238400  0.40946700  1
  O  O44  1  0.46897000  0.17868300  0.91988900  1
  O  O45  1  0.49136400  0.50740900  0.74851200  1
  O  O46  1  0.49157300  0.99854600  0.25122200  1
  O  O47  1  0.49251200  0.81990000  0.41282600  1
  O  O48  1  0.49864500  0.49625300  0.25028800  1
  O  O49  1  0.49886600  0.32296700  0.09070200  1
  O  O50  1  0.49939400  0.67232000  0.91299300  1
  O  O51  1  0.50307600  0.00338700  0.74875300  1
  O  O52  1  0.50245200  0.17627800  0.58289100  1
  O  O53  1  0.52897400  0.68918400  0.59358200  1
  O  O54  1  0.53366000  0.81385600  0.08580200  1
  O  O55  1  0.73236700  0.44218900  0.59931500  1
  O  O56  1  0.73523100  0.24483900  0.73223900  1
  O  O57  1  0.74870000  0.60163700  0.41455800  1
  O  O58  1  0.74060500  0.93150200  0.56800000  1
  O  O59  1  0.74428500  0.07023800  0.10446800  1
  O  O60  1  0.74320600  0.25079100  0.23794500  1
  O  O61  1  0.74332800  0.73957400  0.25615600  1
  O  O62  1  0.74695700  0.56119500  0.07030600  1
  O  O63  1  0.74989000  0.89340900  0.91281500  1
  O  O64  1  0.75520700  0.76378500  0.75541300  1
  O  O65  1  0.95636300  0.81479700  0.08629600  1
  O  O66  1  0.97157400  0.67479500  0.58548200  1
  O  O67  1  0.98596700  0.49642000  0.24748500  1
  O  O68  1  0.98638100  0.32191500  0.08934700  1
  O  O69  1  0.99759500  0.99761900  0.25132400  1
  O  O70  1  0.00244000  0.82357500  0.40996800  1
