# generated using pymatgen
data_Li3MnSiO5
_symmetry_space_group_name_H-M   'P 1'
_cell_length_a   5.00750800
_cell_length_b   5.48688700
_cell_length_c   15.88359800
_cell_angle_alpha   90.00000000
_cell_angle_beta   90.00000000
_cell_angle_gamma   90.00000000
_symmetry_Int_Tables_number   1
_chemical_formula_structural   Li3MnSiO5
_chemical_formula_sum   'Li12 Mn4 Si4 O20'
_cell_volume   436.41187041
_cell_formula_units_Z   4
loop_
 _symmetry_equiv_pos_site_id
 _symmetry_equiv_pos_as_xyz
  1  'x, y, z'
loop_
 _atom_site_type_symbol
 _atom_site_label
 _atom_site_symmetry_multiplicity
 _atom_site_fract_x
 _atom_site_fract_y
 _atom_site_fract_z
 _atom_site_occupancy
  Li  Li0  1  0.99425700  0.16384700  0.59054600  1
  Li  Li1  1  0.99425700  0.66384700  0.90945400  1
  Li  Li2  1  0.49922600  0.83581700  0.99354300  1
  Li  Li3  1  0.49922600  0.33581700  0.50645700  1
  Li  Li4  1  0.50857200  0.82689500  0.80268600  1
  Li  Li5  1  0.50857200  0.32689500  0.69731400  1
  Li  Li6  1  0.49425700  0.83615300  0.40945400  1
  Li  Li7  1  0.49425700  0.33615300  0.09054600  1
  Li  Li8  1  0.99922600  0.16418300  0.00645700  1
  Li  Li9  1  0.99922600  0.66418300  0.49354300  1
  Li  Li10  1  0.00857200  0.67310500  0.30268600  1
  Li  Li11  1  0.00857200  0.17310500  0.19731400  1
  Mn  Mn12  1  0.00754600  0.67164300  0.69728200  1
  Mn  Mn13  1  0.00754600  0.17164300  0.80271800  1
  Mn  Mn14  1  0.50754600  0.82835700  0.19728200  1
  Mn  Mn15  1  0.50754600  0.32835700  0.30271800  1
  Si  Si16  1  0.00589300  0.66324700  0.09796500  1
  Si  Si17  1  0.00589300  0.16324700  0.40203500  1
  Si  Si18  1  0.50589300  0.83675300  0.59796500  1
  Si  Si19  1  0.50589300  0.33675300  0.90203500  1
  O  O20  1  0.09854400  0.84070100  0.79579200  1
  O  O21  1  0.09854400  0.34070100  0.70420800  1
  O  O22  1  0.10335300  0.88006400  0.39779200  1
  O  O23  1  0.10335300  0.38006400  0.10220800  1
  O  O24  1  0.10394500  0.81352100  0.01520700  1
  O  O25  1  0.10394500  0.31352100  0.48479300  1
  O  O26  1  0.10514100  0.81023800  0.18570200  1
  O  O27  1  0.10514100  0.31023800  0.31429800  1
  O  O28  1  0.16880500  0.82963600  0.60150800  1
  O  O29  1  0.16880500  0.32963600  0.89849200  1
  O  O30  1  0.59854400  0.15929900  0.20420800  1
  O  O31  1  0.59854400  0.65929900  0.29579200  1
  O  O32  1  0.60335300  0.11993600  0.60220800  1
  O  O33  1  0.60335300  0.61993600  0.89779200  1
  O  O34  1  0.60394500  0.68647900  0.51520700  1
  O  O35  1  0.60394500  0.18647900  0.98479300  1
  O  O36  1  0.60514100  0.68976200  0.68570200  1
  O  O37  1  0.60514100  0.18976200  0.81429800  1
  O  O38  1  0.66880500  0.67036400  0.10150800  1
  O  O39  1  0.66880500  0.17036400  0.39849200  1
