# generated using pymatgen
data_Li2CoSiO4
_symmetry_space_group_name_H-M   'P 1'
_cell_length_a   6.33611297
_cell_length_b   7.36615908
_cell_length_c   7.36643974
_cell_angle_alpha   94.28144938
_cell_angle_beta   90.43581019
_cell_angle_gamma   89.55449137
_symmetry_Int_Tables_number   1
_chemical_formula_structural   Li2CoSiO4
_chemical_formula_sum   'Li8 Co4 Si4 O16'
_cell_volume   342.83415570
_cell_formula_units_Z   4
loop_
 _symmetry_equiv_pos_site_id
 _symmetry_equiv_pos_as_xyz
  1  'x, y, z'
loop_
 _atom_site_type_symbol
 _atom_site_label
 _atom_site_symmetry_multiplicity
 _atom_site_fract_x
 _atom_site_fract_y
 _atom_site_fract_z
 _atom_site_occupancy
  Li  Li0  1  0.26863600  0.67120000  0.32835300  1
  Li  Li1  1  0.26862900  0.17120900  0.82837200  1
  Li  Li2  1  0.73133400  0.57835600  0.92121000  1
  Li  Li3  1  0.73134400  0.07835800  0.42118200  1
  Li  Li4  1  0.50038100  0.33192300  0.16680600  1
  Li  Li5  1  0.50037700  0.83189800  0.66680500  1
  Li  Li6  1  0.49961900  0.91681100  0.08191000  1
  Li  Li7  1  0.49961700  0.41682500  0.58190300  1
  Co  Co8  1  0.00655200  0.84018200  0.65856900  1
  Co  Co9  1  0.99339700  0.40851900  0.59027100  1
  Co  Co10  1  0.00656100  0.34014100  0.15859600  1
  Co  Co11  1  0.99341800  0.90848100  0.09023000  1
  Si  Si12  1  0.74263600  0.65920800  0.33406500  1
  Si  Si13  1  0.74266500  0.15925600  0.83412100  1
  Si  Si14  1  0.25740400  0.58401800  0.90920100  1
  Si  Si15  1  0.25735800  0.08407300  0.40921000  1
  O  O16  1  0.96765900  0.13832600  0.95742200  1
  O  O17  1  0.96765600  0.63827000  0.45731600  1
  O  O18  1  0.03233700  0.70744200  0.88818300  1
  O  O19  1  0.03224600  0.20746500  0.38816100  1
  O  O20  1  0.53626900  0.14406500  0.96066600  1
  O  O21  1  0.53628100  0.64405000  0.46065800  1
  O  O22  1  0.46371500  0.71066800  0.89406500  1
  O  O23  1  0.46370100  0.21067600  0.39406500  1
  O  O24  1  0.75096700  0.49197300  0.17099700  1
  O  O25  1  0.75100100  0.99199000  0.67108000  1
  O  O26  1  0.24915400  0.42094600  0.74196100  1
  O  O27  1  0.24907800  0.92098200  0.24198700  1
  O  O28  1  0.75069400  0.35788300  0.74250800  1
  O  O29  1  0.75065800  0.85782100  0.24241500  1
  O  O30  1  0.24932100  0.49245500  0.10782600  1
  O  O31  1  0.24933600  0.99246000  0.60781300  1
