# generated using pymatgen
data_Li9Fe3(WO4)7
_symmetry_space_group_name_H-M   'P 1'
_cell_length_a   8.54878723
_cell_length_b   8.54878723
_cell_length_c   8.54878723
_cell_angle_alpha   89.86856142
_cell_angle_beta   90.13143858
_cell_angle_gamma   90.13143858
_symmetry_Int_Tables_number   1
_chemical_formula_structural   Li9Fe3(WO4)7
_chemical_formula_sum   'Li9 Fe3 W7 O28'
_cell_volume   624.75551986
_cell_formula_units_Z   1
loop_
 _symmetry_equiv_pos_site_id
 _symmetry_equiv_pos_as_xyz
  1  'x, y, z'
loop_
 _atom_site_type_symbol
 _atom_site_label
 _atom_site_symmetry_multiplicity
 _atom_site_fract_x
 _atom_site_fract_y
 _atom_site_fract_z
 _atom_site_occupancy
  Li  Li0  1  0.09762800  0.36036900  0.64344000  1
  Li  Li1  1  0.09762800  0.64344000  0.36036900  1
  Li  Li2  1  0.35656000  0.36036900  0.90237200  1
  Li  Li3  1  0.35656000  0.90237200  0.36036900  1
  Li  Li4  1  0.64603200  0.09567600  0.35396800  1
  Li  Li5  1  0.64603200  0.35396800  0.09567600  1
  Li  Li6  1  0.63963100  0.64344000  0.90237200  1
  Li  Li7  1  0.63963100  0.90237200  0.64344000  1
  Li  Li8  1  0.90432400  0.35396800  0.35396800  1
  Fe  Fe9  1  0.36260600  0.09980600  0.63739400  1
  Fe  Fe10  1  0.36260600  0.63739400  0.09980600  1
  Fe  Fe11  1  0.90019400  0.63739400  0.63739400  1
  W  W12  1  0.99947900  0.00052100  0.49900600  1
  W  W13  1  0.99947900  0.49900600  0.00052100  1
  W  W14  1  0.35768500  0.35872800  0.35872800  1
  W  W15  1  0.35459800  0.64540200  0.64540200  1
  W  W16  1  0.50099400  0.00052100  0.00052100  1
  W  W17  1  0.64127200  0.35872800  0.64231500  1
  W  W18  1  0.64127200  0.64231500  0.35872800  1
  O  O19  1  0.14818900  0.38236400  0.38236400  1
  O  O20  1  0.13805800  0.61366400  0.61366400  1
  O  O21  1  0.12281300  0.12560800  0.62221100  1
  O  O22  1  0.12281300  0.62221100  0.12560800  1
  O  O23  1  0.12123500  0.37800800  0.87876500  1
  O  O24  1  0.12123500  0.87876500  0.37800800  1
  O  O25  1  0.37778900  0.12560800  0.87718700  1
  O  O26  1  0.37778900  0.87718700  0.12560800  1
  O  O27  1  0.39116300  0.38478300  0.60883700  1
  O  O28  1  0.39116300  0.60883700  0.38478300  1
  O  O29  1  0.38474800  0.14580000  0.38572400  1
  O  O30  1  0.38474800  0.38572400  0.14580000  1
  O  O31  1  0.38633600  0.61366400  0.86194200  1
  O  O32  1  0.38633600  0.86194200  0.61366400  1
  O  O33  1  0.61427600  0.14580000  0.61525200  1
  O  O34  1  0.61427600  0.61525200  0.14580000  1
  O  O35  1  0.61763600  0.38236400  0.85181100  1
  O  O36  1  0.61763600  0.85181100  0.38236400  1
  O  O37  1  0.60805800  0.39194200  0.39194200  1
  O  O38  1  0.61521700  0.60883700  0.60883700  1
  O  O39  1  0.62107000  0.12298700  0.12298700  1
  O  O40  1  0.62199200  0.87876500  0.87876500  1
  O  O41  1  0.87701300  0.12298700  0.37893000  1
  O  O42  1  0.87701300  0.37893000  0.12298700  1
  O  O43  1  0.87439200  0.62221100  0.87718700  1
  O  O44  1  0.87439200  0.87718700  0.62221100  1
  O  O45  1  0.85420000  0.38572400  0.61525200  1
  O  O46  1  0.85420000  0.61525200  0.38572400  1
