# generated using pymatgen
data_LiCoPO4
_symmetry_space_group_name_H-M   'P 1'
_cell_length_a   4.89146318
_cell_length_b   4.89149002
_cell_length_c   15.98788804
_cell_angle_alpha   90.00371612
_cell_angle_beta   98.79120342
_cell_angle_gamma   59.99455665
_symmetry_Int_Tables_number   1
_chemical_formula_structural   LiCoPO4
_chemical_formula_sum   'Li4 Co4 P4 O16'
_cell_volume   326.06906602
_cell_formula_units_Z   4
loop_
 _symmetry_equiv_pos_site_id
 _symmetry_equiv_pos_as_xyz
  1  'x, y, z'
loop_
 _atom_site_type_symbol
 _atom_site_label
 _atom_site_symmetry_multiplicity
 _atom_site_fract_x
 _atom_site_fract_y
 _atom_site_fract_z
 _atom_site_occupancy
  Li  Li0  1  0.00537400  0.99736000  0.00788900  1
  Li  Li1  1  0.00536900  0.49729000  0.50793400  1
  Li  Li2  1  0.57028500  0.21490500  0.35535700  1
  Li  Li3  1  0.57022100  0.71487700  0.85531300  1
  Co  Co4  1  0.12897100  0.43553500  0.69343000  1
  Co  Co5  1  0.44657200  0.27668600  0.16986400  1
  Co  Co6  1  0.12898200  0.93550700  0.19341500  1
  Co  Co7  1  0.44650800  0.77674100  0.66979600  1
  P  P8  1  0.86319100  0.56840400  0.29486100  1
  P  P9  1  0.86314800  0.06843900  0.79482900  1
  P  P10  1  0.71232400  0.64382400  0.06842900  1
  P  P11  1  0.71226200  0.14385600  0.56837900  1
  O  O12  1  0.64890400  0.17553100  0.47311500  1
  O  O13  1  0.64862800  0.67572500  0.97312200  1
  O  O14  1  0.92658300  0.53672500  0.39016200  1
  O  O15  1  0.92680900  0.03659800  0.89014000  1
  O  O16  1  0.54797800  0.89478600  0.26069400  1
  O  O17  1  0.54793300  0.39483900  0.76071300  1
  O  O18  1  0.75765400  0.92490000  0.10259300  1
  O  O19  1  0.75760500  0.42493800  0.60256200  1
  O  O20  1  0.02760700  0.31744800  0.10252900  1
  O  O21  1  0.02750700  0.81745200  0.60256900  1
  O  O22  1  0.15544600  0.55719800  0.26071900  1
  O  O23  1  0.15533000  0.05727100  0.76064200  1
  O  O24  1  0.81794700  0.28728300  0.26070700  1
  O  O25  1  0.81779700  0.78740600  0.76066800  1
  O  O26  1  0.42013600  0.65489500  0.10261400  1
  O  O27  1  0.41999200  0.15505600  0.60254500  1
