# generated using pymatgen
data_LiMnVO4
_symmetry_space_group_name_H-M   'P 1'
_cell_length_a   4.99937300
_cell_length_b   6.27652900
_cell_length_c   10.79546301
_cell_angle_alpha   89.99948433
_cell_angle_beta   89.99583367
_cell_angle_gamma   89.99972553
_symmetry_Int_Tables_number   1
_chemical_formula_structural   LiMnVO4
_chemical_formula_sum   'Li4 Mn4 V4 O16'
_cell_volume   338.74769819
_cell_formula_units_Z   4
loop_
 _symmetry_equiv_pos_site_id
 _symmetry_equiv_pos_as_xyz
  1  'x, y, z'
loop_
 _atom_site_type_symbol
 _atom_site_label
 _atom_site_symmetry_multiplicity
 _atom_site_fract_x
 _atom_site_fract_y
 _atom_site_fract_z
 _atom_site_occupancy
  Li  Li0  1  0.99999800  0.00000900  0.00000300  1
  Li  Li1  1  0.50000500  0.00000200  0.50000000  1
  Li  Li2  1  0.99999800  0.49999300  0.00000300  1
  Li  Li3  1  0.50000400  0.50000000  0.50000100  1
  Mn  Mn4  1  0.51545600  0.25001000  0.77330800  1
  Mn  Mn5  1  0.48449900  0.74997600  0.22669400  1
  Mn  Mn6  1  0.98461900  0.25000200  0.27328000  1
  Mn  Mn7  1  0.01539500  0.75000500  0.72672100  1
  V  V8  1  0.07524600  0.25000200  0.59095100  1
  V  V9  1  0.92475500  0.75000200  0.40904600  1
  V  V10  1  0.42474400  0.24999500  0.09087400  1
  V  V11  1  0.57526200  0.75000200  0.90912400  1
  O  O12  1  0.21166200  0.25000200  0.44278700  1
  O  O13  1  0.28832600  0.25000000  0.94270900  1
  O  O14  1  0.78834300  0.75000100  0.55721200  1
  O  O15  1  0.71166500  0.74999800  0.05729800  1
  O  O16  1  0.77312000  0.25000100  0.09411600  1
  O  O17  1  0.72685800  0.25000200  0.59415200  1
  O  O18  1  0.27314300  0.75000000  0.40585000  1
  O  O19  1  0.22688000  0.75000000  0.90588200  1
  O  O20  1  0.27727600  0.03005100  0.16490100  1
  O  O21  1  0.22273800  0.03006400  0.66495800  1
  O  O22  1  0.27726500  0.46993900  0.16489800  1
  O  O23  1  0.22273500  0.46993900  0.66495900  1
  O  O24  1  0.72273900  0.53004800  0.83509600  1
  O  O25  1  0.77726600  0.53006200  0.33504000  1
  O  O26  1  0.77726700  0.96994000  0.33504000  1
  O  O27  1  0.72273500  0.96995900  0.83509700  1
