# generated using pymatgen
data_Li2CuS2
_symmetry_space_group_name_H-M   'P 1'
_cell_length_a   5.59665645
_cell_length_b   7.94202810
_cell_length_c   5.80595841
_cell_angle_alpha   90.00806943
_cell_angle_beta   90.16324361
_cell_angle_gamma   44.85223484
_symmetry_Int_Tables_number   1
_chemical_formula_structural   Li2CuS2
_chemical_formula_sum   'Li4 Cu2 S4'
_cell_volume   182.00895349
_cell_formula_units_Z   2
loop_
 _symmetry_equiv_pos_site_id
 _symmetry_equiv_pos_as_xyz
  1  'x, y, z'
loop_
 _atom_site_type_symbol
 _atom_site_label
 _atom_site_symmetry_multiplicity
 _atom_site_fract_x
 _atom_site_fract_y
 _atom_site_fract_z
 _atom_site_occupancy
  Li  Li0  1  0.00688729  0.49672215  0.76238094  1
  Li  Li1  1  0.00677498  0.99644276  0.76237871  1
  Li  Li2  1  0.01071768  0.49868790  0.26165054  1
  Li  Li3  1  0.01075507  0.99042130  0.26160532  1
  Cu  Cu4  1  0.49881045  0.00057419  0.26264540  1
  Cu  Cu5  1  0.49977097  0.00007211  0.76548797  1
  S  S6  1  0.04561139  0.22719023  0.51086800  1
  S  S7  1  0.50900909  0.76737171  0.01251783  1
  S  S8  1  0.50877092  0.22368759  0.01261593  1
  S  S9  1  0.95670515  0.77162905  0.51380134  1
