# generated using pymatgen
data_Li24Ti11CrO36
_symmetry_space_group_name_H-M   'P 1'
_cell_length_a   8.84540164
_cell_length_b   8.84540164
_cell_length_c   9.82405431
_cell_angle_alpha   81.70565643
_cell_angle_beta   81.70565643
_cell_angle_gamma   59.78515705
_symmetry_Int_Tables_number   1
_chemical_formula_structural   Li24Ti11CrO36
_chemical_formula_sum   'Li24 Ti11 Cr1 O36'
_cell_volume   654.96057645
_cell_formula_units_Z   1
loop_
 _symmetry_equiv_pos_site_id
 _symmetry_equiv_pos_as_xyz
  1  'x, y, z'
loop_
 _atom_site_type_symbol
 _atom_site_label
 _atom_site_symmetry_multiplicity
 _atom_site_fract_x
 _atom_site_fract_y
 _atom_site_fract_z
 _atom_site_occupancy
  Li  Li0  1  0.82881800  0.00502800  0.24893400  1
  Li  Li1  1  0.74997200  0.25002800  0.00000000  1
  Li  Li2  1  0.66531900  0.16816100  0.74870900  1
  Li  Li3  1  0.58314800  0.08438600  0.50048300  1
  Li  Li4  1  0.50549500  0.32782500  0.25107800  1
  Li  Li5  1  0.49984300  0.00017100  0.24991100  1
  Li  Li6  1  0.33944700  0.16095000  0.75009200  1
  Li  Li7  1  0.32911700  0.50387300  0.74950200  1
  Li  Li8  1  0.25016900  0.74983100  0.50000000  1
  Li  Li9  1  0.16200900  0.33913100  0.24997500  1
  Li  Li10  1  0.16538600  0.66761800  0.24906800  1
  Li  Li11  1  0.08333800  0.58334200  0.99987500  1
  Li  Li12  1  0.00563600  0.82893700  0.74932600  1
  Li  Li13  1  0.99982900  0.50015700  0.75008900  1
  Li  Li14  1  0.99497200  0.17118200  0.75106600  1
  Li  Li15  1  0.91561400  0.41685200  0.49951700  1
  Li  Li16  1  0.83905000  0.66055300  0.24990800  1
  Li  Li17  1  0.83183900  0.33468100  0.25129100  1
  Li  Li18  1  0.67217500  0.49450500  0.74892200  1
  Li  Li19  1  0.66086900  0.83799100  0.75002500  1
  Li  Li20  1  0.49612700  0.67088300  0.25049800  1
  Li  Li21  1  0.41665800  0.91666200  0.00012500  1
  Li  Li22  1  0.33238200  0.83461400  0.75093200  1
  Li  Li23  1  0.17106300  0.99436400  0.25067400  1
  Ti  Ti24  1  0.91426900  0.08573100  0.50000000  1
  Ti  Ti25  1  0.41771900  0.58228100  0.00000000  1
  Ti  Ti26  1  0.41595300  0.25086600  0.00007700  1
  Ti  Ti27  1  0.25261800  0.41282400  0.50260000  1
  Ti  Ti28  1  0.24949400  0.08279400  0.49982000  1
  Ti  Ti29  1  0.08262600  0.91737400  0.00000000  1
  Ti  Ti30  1  0.08433100  0.24902100  0.00034700  1
  Ti  Ti31  1  0.91720600  0.75050600  0.50018000  1
  Ti  Ti32  1  0.75097900  0.91566900  0.99965300  1
  Ti  Ti33  1  0.74913400  0.58404700  0.99992300  1
  Ti  Ti34  1  0.58717600  0.74738200  0.49740000  1
  Cr  Cr35  1  0.57969000  0.42031000  0.50000000  1
  O  O36  1  0.88114600  0.02481800  0.88677800  1
  O  O37  1  0.71186300  0.21797700  0.38640100  1
  O  O38  1  0.61842200  0.11809000  0.11554100  1
  O  O39  1  0.54855300  0.04851700  0.88460100  1
  O  O40  1  0.52464800  0.38093300  0.88715200  1
  O  O41  1  0.45226400  0.30749900  0.61293600  1
  O  O42  1  0.30862900  0.45237900  0.11347800  1
  O  O43  1  0.38636200  0.52345200  0.38833100  1
  O  O44  1  0.28576000  0.14193400  0.11309000  1
  O  O45  1  0.35809700  0.21425400  0.38690000  1
  O  O46  1  0.21532000  0.71520200  0.88442600  1
  O  O47  1  0.21451000  0.35787700  0.88690600  1
  O  O48  1  0.19152400  0.04753500  0.88697500  1
  O  O49  1  0.14274500  0.28600100  0.61347400  1
  O  O50  1  0.11843300  0.61884500  0.61539600  1
  O  O51  1  0.97518200  0.11885400  0.11322200  1
  O  O52  1  0.05022700  0.54921100  0.38432500  1
  O  O53  1  0.04756800  0.19143800  0.38692600  1
  O  O54  1  0.95246500  0.80847600  0.11302500  1
  O  O55  1  0.95148300  0.45144700  0.11539900  1
  O  O56  1  0.02315800  0.88273500  0.38654100  1
  O  O57  1  0.88191000  0.38157800  0.88445900  1
  O  O58  1  0.85806600  0.71424000  0.88691000  1
  O  O59  1  0.80856200  0.95243200  0.61307400  1
  O  O60  1  0.78574600  0.64190300  0.61310000  1
  O  O61  1  0.78202300  0.28813700  0.61359900  1
  O  O62  1  0.64212300  0.78549000  0.11309400  1
  O  O63  1  0.71399900  0.85725500  0.38652600  1
  O  O64  1  0.61906700  0.47535200  0.11284800  1
  O  O65  1  0.69250100  0.54773600  0.38706400  1
  O  O66  1  0.54762100  0.69137100  0.88652200  1
  O  O67  1  0.47654800  0.61363800  0.61166900  1
  O  O68  1  0.45078900  0.94977300  0.61567500  1
  O  O69  1  0.38115500  0.88156700  0.38460400  1
  O  O70  1  0.28479800  0.78468000  0.11557400  1
  O  O71  1  0.11726500  0.97684200  0.61345900  1
