# generated using pymatgen
data_Li5VF8
_symmetry_space_group_name_H-M   'P 1'
_cell_length_a   7.74482800
_cell_length_b   7.62155400
_cell_length_c   10.54361320
_cell_angle_alpha   74.49171050
_cell_angle_beta   90.00000000
_cell_angle_gamma   90.00000000
_symmetry_Int_Tables_number   1
_chemical_formula_structural   Li5VF8
_chemical_formula_sum   'Li20 V4 F32'
_cell_volume   599.70526199
_cell_formula_units_Z   4
loop_
 _symmetry_equiv_pos_site_id
 _symmetry_equiv_pos_as_xyz
  1  'x, y, z'
loop_
 _atom_site_type_symbol
 _atom_site_label
 _atom_site_symmetry_multiplicity
 _atom_site_fract_x
 _atom_site_fract_y
 _atom_site_fract_z
 _atom_site_occupancy
  Li  Li0  1  0.18293000  0.97564700  0.54465100  1
  Li  Li1  1  0.77819500  0.86796900  0.70471300  1
  Li  Li2  1  0.42653700  0.78785700  0.80302600  1
  Li  Li3  1  0.31707000  0.97564700  0.04465100  1
  Li  Li4  1  0.72180500  0.86796900  0.20471300  1
  Li  Li5  1  0.07346300  0.78785700  0.30302600  1
  Li  Li6  1  0.16455200  0.55326900  0.74670200  1
  Li  Li7  1  0.34559300  0.43872300  0.97819100  1
  Li  Li8  1  0.84559300  0.56127700  0.52180900  1
  Li  Li9  1  0.66455200  0.44673100  0.75329800  1
  Li  Li10  1  0.33544800  0.55326900  0.24670200  1
  Li  Li11  1  0.15440700  0.43872300  0.47819100  1
  Li  Li12  1  0.65440700  0.56127700  0.02180900  1
  Li  Li13  1  0.83544800  0.44673100  0.25329800  1
  Li  Li14  1  0.92653700  0.21214300  0.69697400  1
  Li  Li15  1  0.27819500  0.13203100  0.79528700  1
  Li  Li16  1  0.68293000  0.02435300  0.95534900  1
  Li  Li17  1  0.57346300  0.21214300  0.19697400  1
  Li  Li18  1  0.22180500  0.13203100  0.29528700  1
  Li  Li19  1  0.81707000  0.02435300  0.45534900  1
  V  V20  1  0.01907500  0.72447500  0.99173800  1
  V  V21  1  0.48092500  0.72447500  0.49173800  1
  V  V22  1  0.51907500  0.27552500  0.50826200  1
  V  V23  1  0.98092500  0.27552500  0.00826200  1
  F  F24  1  0.46292500  0.98774200  0.87871500  1
  F  F25  1  0.10922600  0.97317800  0.90482500  1
  F  F26  1  0.80870500  0.84352200  0.88524100  1
  F  F27  1  0.03707500  0.98774200  0.37871500  1
  F  F28  1  0.39077400  0.97317800  0.40482500  1
  F  F29  1  0.23114100  0.66802300  0.90005200  1
  F  F30  1  0.31928900  0.76118200  0.63862800  1
  F  F31  1  0.69129500  0.84352200  0.38524100  1
  F  F32  1  0.69730400  0.68103000  0.62423100  1
  F  F33  1  0.54041500  0.54928900  0.86863800  1
  F  F34  1  0.93580900  0.54059000  0.88863000  1
  F  F35  1  0.26885900  0.66802300  0.40005200  1
  F  F36  1  0.18071100  0.76118200  0.13862800  1
  F  F37  1  0.80269600  0.68103000  0.12423100  1
  F  F38  1  0.95958500  0.54928900  0.36863800  1
  F  F39  1  0.43580900  0.45941000  0.61137000  1
  F  F40  1  0.56419100  0.54059000  0.38863000  1
  F  F41  1  0.04041500  0.45071100  0.63136200  1
  F  F42  1  0.19730400  0.31897000  0.87576900  1
  F  F43  1  0.81928900  0.23881800  0.86137200  1
  F  F44  1  0.73114100  0.33197700  0.59994800  1
  F  F45  1  0.06419100  0.45941000  0.11137000  1
  F  F46  1  0.45958500  0.45071100  0.13136200  1
  F  F47  1  0.30269600  0.31897000  0.37576900  1
  F  F48  1  0.30870500  0.15647800  0.61475900  1
  F  F49  1  0.68071100  0.23881800  0.36137200  1
  F  F50  1  0.76885900  0.33197700  0.09994800  1
  F  F51  1  0.60922600  0.02682200  0.59517500  1
  F  F52  1  0.96292500  0.01225800  0.62128500  1
  F  F53  1  0.19129500  0.15647800  0.11475900  1
  F  F54  1  0.89077400  0.02682200  0.09517500  1
  F  F55  1  0.53707500  0.01225800  0.12128500  1
