# generated using pymatgen
data_Li6V3P8O29
_symmetry_space_group_name_H-M   'P 1'
_cell_length_a   9.79637500
_cell_length_b   9.82543242
_cell_length_c   13.87473609
_cell_angle_alpha   89.72363353
_cell_angle_beta   89.74988753
_cell_angle_gamma   60.19705707
_symmetry_Int_Tables_number   1
_chemical_formula_structural   Li6V3P8O29
_chemical_formula_sum   'Li12 V6 P16 O58'
_cell_volume   1158.84464071
_cell_formula_units_Z   2
loop_
 _symmetry_equiv_pos_site_id
 _symmetry_equiv_pos_as_xyz
  1  'x, y, z'
loop_
 _atom_site_type_symbol
 _atom_site_label
 _atom_site_symmetry_multiplicity
 _atom_site_fract_x
 _atom_site_fract_y
 _atom_site_fract_z
 _atom_site_occupancy
  Li  Li0  1  0.67831900  0.09431200  0.44241900  1
  Li  Li1  1  0.22840600  0.67844600  0.44235600  1
  Li  Li2  1  0.33594400  0.33244600  0.11442800  1
  Li  Li3  1  0.09179000  0.68084900  0.93536000  1
  Li  Li4  1  0.22510400  0.09460500  0.93573000  1
  Li  Li5  1  0.90260600  0.77271900  0.56363900  1
  Li  Li6  1  0.09269600  0.22803800  0.44174100  1
  Li  Li7  1  0.77217500  0.90891200  0.05771600  1
  Li  Li8  1  0.90410100  0.31972500  0.05542400  1
  Li  Li9  1  0.77143400  0.32513400  0.56399700  1
  Li  Li10  1  0.32490500  0.90328900  0.56373300  1
  Li  Li11  1  0.32106900  0.77332300  0.05708100  1
  V  V12  1  0.99916400  0.56748000  0.75045300  1
  V  V13  1  0.99770000  0.43510100  0.24952700  1
  V  V14  1  0.56912500  0.99992200  0.25176600  1
  V  V15  1  0.43424500  0.99854400  0.75007700  1
  V  V16  1  0.56818500  0.43017700  0.75402300  1
  V  V17  1  0.43730600  0.56461900  0.24964800  1
  P  P18  1  0.68418600  0.22892200  0.15792200  1
  P  P19  1  0.68163600  0.08797000  0.65822000  1
  P  P20  1  0.23325400  0.67980700  0.65822200  1
  P  P21  1  0.33228900  0.33316500  0.87365600  1
  P  P22  1  0.33268900  0.33403700  0.37319800  1
  P  P23  1  0.08975500  0.68216300  0.15695300  1
  P  P24  1  0.91320500  0.76770000  0.34271900  1
  P  P25  1  0.22916200  0.09019200  0.15645500  1
  P  P26  1  0.76865900  0.91216200  0.84345700  1
  P  P27  1  0.08900500  0.23171400  0.65806600  1
  P  P28  1  0.91135100  0.31840300  0.84187700  1
  P  P29  1  0.66593700  0.66646100  0.62600400  1
  P  P30  1  0.66841100  0.66731100  0.12611700  1
  P  P31  1  0.76879100  0.31724500  0.34440700  1
  P  P32  1  0.31710900  0.91294300  0.34242700  1
  P  P33  1  0.31943600  0.76802200  0.84192300  1
  O  O34  1  0.75626300  0.24100100  0.43548300  1
  O  O35  1  0.66648300  0.25158000  0.65817900  1
  O  O36  1  0.76211100  0.99264400  0.93461800  1
  O  O37  1  0.66310100  0.08095800  0.15958900  1
  O  O38  1  0.51594100  0.37324400  0.17296700  1
  O  O39  1  0.48163800  0.32910000  0.83049500  1
  O  O40  1  0.38311700  0.52227400  0.67454900  1
  O  O41  1  0.23983800  0.75784000  0.93236500  1
  O  O42  1  0.25353300  0.66802400  0.15607300  1
  O  O43  1  0.48640500  0.18702600  0.33365800  1
  O  O44  1  0.52112300  0.09816600  0.67482000  1
  O  O45  1  0.32988300  0.48628200  0.33054100  1
  O  O46  1  0.32827700  0.33523500  0.98205100  1
  O  O47  1  0.32923700  0.33603900  0.48048200  1
  O  O48  1  0.18502400  0.48834800  0.83563900  1
  O  O49  1  0.37306500  0.11256500  0.17365400  1
  O  O50  1  0.32519900  0.18598600  0.83621600  1
  O  O51  1  0.08448700  0.66221100  0.65877800  1
  O  O52  1  0.00113000  0.78960700  0.24950800  1
  O  O53  1  0.00258900  0.75750200  0.43270400  1
  O  O54  1  0.99753700  0.75791600  0.06726000  1
  O  O55  1  0.11205300  0.51542100  0.17383000  1
  O  O56  1  0.18391300  0.33120100  0.33037100  1
  O  O57  1  0.91768200  0.74578000  0.83891700  1
  O  O58  1  0.10029500  0.37968300  0.67502600  1
  O  O59  1  0.25376700  0.08250400  0.65880200  1
  O  O60  1  0.79082800  0.99969900  0.75028900  1
  O  O61  1  0.76026600  0.99808700  0.56790600  1
  O  O62  1  0.24197600  0.00289400  0.43287700  1
  O  O63  1  0.74911000  0.91798300  0.34183500  1
  O  O64  1  0.90119300  0.61962700  0.32635500  1
  O  O65  1  0.07973100  0.25306800  0.15577900  1
  O  O66  1  0.81244800  0.67470800  0.66637500  1
  O  O67  1  0.90420500  0.47732900  0.82463700  1
  O  O68  1  0.00188300  0.24087200  0.93169700  1
  O  O69  1  0.00022700  0.24038600  0.56784200  1
  O  O70  1  0.00127300  0.20811900  0.75012400  1
  O  O71  1  0.91830500  0.33153400  0.34222400  1
  O  O72  1  0.67315400  0.81258900  0.16696700  1
  O  O73  1  0.61929100  0.90097100  0.82374400  1
  O  O74  1  0.81737900  0.51425200  0.16875300  1
  O  O75  1  0.66814300  0.66263000  0.01899300  1
  O  O76  1  0.66489300  0.66859100  0.51830400  1
  O  O77  1  0.67250000  0.51275800  0.66687400  1
  O  O78  1  0.47658200  0.90642600  0.32221400  1
  O  O79  1  0.51130600  0.81282200  0.66702500  1
  O  O80  1  0.74595300  0.33939000  0.83949900  1
  O  O81  1  0.78654800  0.20647700  0.25401600  1
  O  O82  1  0.76889700  0.23816300  0.07209800  1
  O  O83  1  0.62064400  0.47751300  0.32631300  1
  O  O84  1  0.51643900  0.66733000  0.16858300  1
  O  O85  1  0.47999500  0.62281600  0.82450500  1
  O  O86  1  0.33329300  0.91853100  0.84161400  1
  O  O87  1  0.24369500  0.99744400  0.06737200  1
  O  O88  1  0.20951200  0.00089300  0.24962800  1
  O  O89  1  0.33553800  0.74873400  0.34260600  1
  O  O90  1  0.24049100  0.76088600  0.56767300  1
  O  O91  1  0.20836500  0.79111300  0.75002500  1
