# generated using pymatgen
data_LiMnSi3O8
_symmetry_space_group_name_H-M   'P 1'
_cell_length_a   7.09077850
_cell_length_b   7.81122702
_cell_length_c   12.23886636
_cell_angle_alpha   84.40850273
_cell_angle_beta   102.50019353
_cell_angle_gamma   109.25673523
_symmetry_Int_Tables_number   1
_chemical_formula_structural   LiMnSi3O8
_chemical_formula_sum   'Li4 Mn4 Si12 O32'
_cell_volume   624.53547479
_cell_formula_units_Z   4
loop_
 _symmetry_equiv_pos_site_id
 _symmetry_equiv_pos_as_xyz
  1  'x, y, z'
loop_
 _atom_site_type_symbol
 _atom_site_label
 _atom_site_symmetry_multiplicity
 _atom_site_fract_x
 _atom_site_fract_y
 _atom_site_fract_z
 _atom_site_occupancy
  Li  Li0  1  0.21179100  0.23144400  0.40864300  1
  Li  Li1  1  0.71171600  0.73137900  0.90854200  1
  Li  Li2  1  0.28823900  0.26863000  0.09145700  1
  Li  Li3  1  0.78813800  0.76853100  0.59135600  1
  Mn  Mn4  1  0.01195400  0.08240900  0.86302100  1
  Mn  Mn5  1  0.98815000  0.91744300  0.13693600  1
  Mn  Mn6  1  0.51193200  0.58260500  0.36262000  1
  Mn  Mn7  1  0.48809500  0.41740400  0.63732800  1
  Si  Si8  1  0.00966500  0.49672100  0.27370700  1
  Si  Si9  1  0.50968900  0.99668600  0.77370400  1
  Si  Si10  1  0.49034400  0.00332800  0.22631100  1
  Si  Si11  1  0.99031900  0.50328100  0.72629600  1
  Si  Si12  1  0.99219600  0.82661900  0.37175200  1
  Si  Si13  1  0.49222100  0.32657700  0.87184200  1
  Si  Si14  1  0.50781000  0.67345200  0.12814600  1
  Si  Si15  1  0.00779300  0.17338400  0.62824500  1
  Si  Si16  1  0.81533500  0.24493200  0.07822000  1
  Si  Si17  1  0.31534700  0.74486900  0.57817700  1
  Si  Si18  1  0.68464300  0.25513000  0.42183500  1
  Si  Si19  1  0.18466200  0.75506300  0.92178500  1
  O  O20  1  0.22464000  0.47857500  0.34034700  1
  O  O21  1  0.72463500  0.97859700  0.84034200  1
  O  O22  1  0.27541600  0.02144900  0.15966600  1
  O  O23  1  0.77534000  0.52140700  0.65964700  1
  O  O24  1  0.19002200  0.81331900  0.46546500  1
  O  O25  1  0.69001900  0.31333300  0.96548600  1
  O  O26  1  0.30995900  0.68665000  0.03451700  1
  O  O27  1  0.80994400  0.18665500  0.53454300  1
  O  O28  1  0.84229000  0.38733500  0.34808600  1
  O  O29  1  0.34223600  0.88740000  0.84799700  1
  O  O30  1  0.65775400  0.11263400  0.15201600  1
  O  O31  1  0.15771200  0.61268400  0.65193300  1
  O  O32  1  0.78654700  0.72325100  0.42193700  1
  O  O33  1  0.28664700  0.22328400  0.92208000  1
  O  O34  1  0.71338700  0.77672200  0.07791000  1
  O  O35  1  0.21342100  0.27670500  0.57803100  1
  O  O36  1  0.96960300  0.14350700  0.05251300  1
  O  O37  1  0.46961800  0.64340200  0.55262600  1
  O  O38  1  0.53036400  0.35658800  0.44738700  1
  O  O39  1  0.03041200  0.85651400  0.94750900  1
  O  O40  1  0.00220200  0.71048400  0.26158300  1
  O  O41  1  0.50217100  0.21045300  0.76163300  1
  O  O42  1  0.49782400  0.78956700  0.23835400  1
  O  O43  1  0.99783200  0.28953900  0.73841100  1
  O  O44  1  0.95208400  0.42858200  0.14666700  1
  O  O45  1  0.45200500  0.92863100  0.64658600  1
  O  O46  1  0.54798700  0.07136800  0.35342300  1
  O  O47  1  0.04788600  0.57143700  0.85333400  1
  O  O48  1  0.01725500  0.02402700  0.31528100  1
  O  O49  1  0.51714900  0.52396500  0.81528600  1
  O  O50  1  0.48285300  0.47606600  0.18473300  1
  O  O51  1  0.98274500  0.97598400  0.68474600  1
