# generated using pymatgen
data_LiCu(PO3)3
_symmetry_space_group_name_H-M   'P 1'
_cell_length_a   6.49716296
_cell_length_b   6.49716296
_cell_length_c   9.65957520
_cell_angle_alpha   86.52622907
_cell_angle_beta   86.52622907
_cell_angle_gamma   58.82274208
_symmetry_Int_Tables_number   1
_chemical_formula_structural   LiCu(PO3)3
_chemical_formula_sum   'Li2 Cu2 P6 O18'
_cell_volume   348.02294263
_cell_formula_units_Z   2
loop_
 _symmetry_equiv_pos_site_id
 _symmetry_equiv_pos_as_xyz
  1  'x, y, z'
loop_
 _atom_site_type_symbol
 _atom_site_label
 _atom_site_symmetry_multiplicity
 _atom_site_fract_x
 _atom_site_fract_y
 _atom_site_fract_z
 _atom_site_occupancy
  Li  Li0  1  0.30451300  0.37282800  0.49999700  1
  Li  Li1  1  0.37282800  0.30451300  0.99999700  1
  Cu  Cu2  1  0.66814000  0.66754100  0.99997100  1
  Cu  Cu3  1  0.66754100  0.66814000  0.49997100  1
  P  P4  1  0.75135600  0.27854900  0.74905000  1
  P  P5  1  0.96068200  0.28362100  0.25388500  1
  P  P6  1  0.27854900  0.75135600  0.24905000  1
  P  P7  1  0.28362100  0.96068200  0.75388500  1
  P  P8  1  0.97336000  0.74858200  0.74697600  1
  P  P9  1  0.74858200  0.97336000  0.24697600  1
  O  O10  1  0.62421300  0.37870300  0.88427900  1
  O  O11  1  0.64680500  0.42005300  0.61605800  1
  O  O12  1  0.95148000  0.40801700  0.11553100  1
  O  O13  1  0.95226100  0.40497500  0.38399400  1
  O  O14  1  0.42005300  0.64680500  0.11605800  1
  O  O15  1  0.37870300  0.62421300  0.38427900  1
  O  O16  1  0.40801700  0.95148000  0.61553100  1
  O  O17  1  0.40497500  0.95226100  0.88399400  1
  O  O18  1  0.00066300  0.62262300  0.61701800  1
  O  O19  1  0.93702100  0.64470400  0.88387000  1
  O  O20  1  0.20691700  0.02758000  0.25396400  1
  O  O21  1  0.02758000  0.20691700  0.75396400  1
  O  O22  1  0.64470400  0.93702100  0.38387000  1
  O  O23  1  0.62262300  0.00066300  0.11701800  1
  O  O24  1  0.76736000  0.02641000  0.73049400  1
  O  O25  1  0.75985900  0.21117300  0.26491400  1
  O  O26  1  0.02641000  0.76736000  0.23049400  1
  O  O27  1  0.21117300  0.75985900  0.76491400  1
