# generated using pymatgen
data_LiCrB2O5
_symmetry_space_group_name_H-M   'P 1'
_cell_length_a   9.58283300
_cell_length_b   5.64160300
_cell_length_c   6.94574371
_cell_angle_alpha   72.90978458
_cell_angle_beta   90.00000000
_cell_angle_gamma   90.00000000
_symmetry_Int_Tables_number   1
_chemical_formula_structural   LiCrB2O5
_chemical_formula_sum   'Li4 Cr4 B8 O20'
_cell_volume   358.92346971
_cell_formula_units_Z   4
loop_
 _symmetry_equiv_pos_site_id
 _symmetry_equiv_pos_as_xyz
  1  'x, y, z'
loop_
 _atom_site_type_symbol
 _atom_site_label
 _atom_site_symmetry_multiplicity
 _atom_site_fract_x
 _atom_site_fract_y
 _atom_site_fract_z
 _atom_site_occupancy
  Li  Li0  1  0.43728300  0.67721200  0.78552200  1
  Li  Li1  1  0.06271700  0.17721200  0.78552200  1
  Li  Li2  1  0.93728300  0.82278800  0.21447800  1
  Li  Li3  1  0.56271700  0.32278800  0.21447800  1
  Cr  Cr4  1  0.82680000  0.78483700  0.75409200  1
  Cr  Cr5  1  0.67320000  0.28483700  0.75409200  1
  Cr  Cr6  1  0.32680000  0.71516300  0.24590800  1
  Cr  Cr7  1  0.17320000  0.21516300  0.24590800  1
  B  B8  1  0.11471600  0.67101400  0.91338500  1
  B  B9  1  0.38528400  0.17101400  0.91338500  1
  B  B10  1  0.08789000  0.73880100  0.54800500  1
  B  B11  1  0.58789000  0.76119900  0.45199500  1
  B  B12  1  0.41211000  0.23880100  0.54800500  1
  B  B13  1  0.91211000  0.26119900  0.45199500  1
  B  B14  1  0.61471600  0.82898600  0.08661500  1
  B  B15  1  0.88528400  0.32898600  0.08661500  1
  O  O16  1  0.70073100  0.92822800  0.92462400  1
  O  O17  1  0.99468900  0.79374500  0.92896100  1
  O  O18  1  0.79926900  0.42822800  0.92462400  1
  O  O19  1  0.50531100  0.29374500  0.92896100  1
  O  O20  1  0.16286500  0.64737900  0.72933300  1
  O  O21  1  0.66140600  0.66528800  0.62775400  1
  O  O22  1  0.33713500  0.14737900  0.72933300  1
  O  O23  1  0.94688500  0.73684700  0.53707300  1
  O  O24  1  0.83859400  0.16528800  0.62775400  1
  O  O25  1  0.44688500  0.76315300  0.46292700  1
  O  O26  1  0.55311500  0.23684700  0.53707300  1
  O  O27  1  0.16140600  0.83471200  0.37224600  1
  O  O28  1  0.05311500  0.26315300  0.46292700  1
  O  O29  1  0.66286500  0.85262100  0.27066700  1
  O  O30  1  0.33859400  0.33471200  0.37224600  1
  O  O31  1  0.83713500  0.35262100  0.27066700  1
  O  O32  1  0.49468900  0.70625500  0.07103900  1
  O  O33  1  0.20073100  0.57177200  0.07537600  1
  O  O34  1  0.00531100  0.20625500  0.07103900  1
  O  O35  1  0.29926900  0.07177200  0.07537600  1
