# generated using pymatgen
data_Li2MnVP2(O4F)2
_symmetry_space_group_name_H-M   'P 1'
_cell_length_a   5.19811623
_cell_length_b   10.50719468
_cell_length_c   10.47878742
_cell_angle_alpha   78.26475244
_cell_angle_beta   80.56238972
_cell_angle_gamma   82.72835081
_symmetry_Int_Tables_number   1
_chemical_formula_structural   Li2MnVP2(O4F)2
_chemical_formula_sum   'Li6 Mn3 V3 P6 O24 F6'
_cell_volume   550.19802119
_cell_formula_units_Z   3
loop_
 _symmetry_equiv_pos_site_id
 _symmetry_equiv_pos_as_xyz
  1  'x, y, z'
loop_
 _atom_site_type_symbol
 _atom_site_label
 _atom_site_symmetry_multiplicity
 _atom_site_fract_x
 _atom_site_fract_y
 _atom_site_fract_z
 _atom_site_occupancy
  Li  Li0  1  0.00112500  0.26800800  0.08175900  1
  Li  Li1  1  0.33247700  0.39929100  0.58639800  1
  Li  Li2  1  0.66647200  0.06387300  0.25515400  1
  Li  Li3  1  0.33172200  0.93519400  0.74558900  1
  Li  Li4  1  0.66827500  0.60265200  0.41182600  1
  Li  Li5  1  0.99921500  0.73128900  0.91927100  1
  Mn  Mn6  1  0.00034600  0.99970000  0.99991500  1
  Mn  Mn7  1  0.49944200  0.50042200  0.00061700  1
  Mn  Mn8  1  0.33150500  0.66741000  0.66724900  1
  V  V9  1  0.16646200  0.83319900  0.33354600  1
  V  V10  1  0.66889400  0.33257800  0.33341000  1
  V  V11  1  0.83466600  0.16648900  0.66528200  1
  P  P12  1  0.18708700  0.13420500  0.37190800  1
  P  P13  1  0.15029800  0.53166600  0.29341400  1
  P  P14  1  0.52104900  0.80225800  0.03904100  1
  P  P15  1  0.48011000  0.19782100  0.96007600  1
  P  P16  1  0.85192100  0.47043500  0.70771000  1
  P  P17  1  0.81005800  0.86364500  0.62761300  1
  O  O18  1  0.25346400  0.11085800  0.02557600  1
  O  O19  1  0.02575500  0.66750400  0.32137200  1
  O  O20  1  0.11861700  0.13341600  0.51950900  1
  O  O21  1  0.21957300  0.53264600  0.14508800  1
  O  O22  1  0.07665200  0.55805000  0.64188500  1
  O  O23  1  0.05557400  0.81556800  0.70149800  1
  O  O24  1  0.40938700  0.22233100  0.30706300  1
  O  O25  1  0.39203800  0.48352800  0.36849500  1
  O  O26  1  0.31030000  0.99847100  0.34330900  1
  O  O27  1  0.45539000  0.80061800  0.18596500  1
  O  O28  1  0.36233300  0.33301000  0.99371300  1
  O  O29  1  0.72469300  0.14692900  0.03461800  1
  O  O30  1  0.27633600  0.85324700  0.96460200  1
  O  O31  1  0.63877000  0.66678400  0.00624200  1
  O  O32  1  0.54711800  0.20012900  0.81274900  1
  O  O33  1  0.69032500  0.99927400  0.65837400  1
  O  O34  1  0.60817200  0.51905600  0.63270800  1
  O  O35  1  0.58636900  0.77551800  0.69397500  1
  O  O36  1  0.94395100  0.18177700  0.29771500  1
  O  O37  1  0.92737000  0.44385700  0.35866000  1
  O  O38  1  0.78195300  0.46765000  0.85604200  1
  O  O39  1  0.87690100  0.86563000  0.48039900  1
  O  O40  1  0.97259600  0.33486000  0.67724400  1
  O  O41  1  0.74771200  0.88906800  0.97298000  1
  F  F42  1  0.07035400  0.06586000  0.79305500  1
  F  F43  1  0.25304300  0.60405700  0.86972600  1
  F  F44  1  0.40281600  0.73206300  0.45956900  1
  F  F45  1  0.60040700  0.27034300  0.53292900  1
  F  F46  1  0.74071900  0.39348400  0.13846400  1
  F  F47  1  0.93019300  0.93427700  0.20670100  1
