# generated using pymatgen
data_Li10Mn3F16
_symmetry_space_group_name_H-M   'P 1'
_cell_length_a   10.26234743
_cell_length_b   10.26234743
_cell_length_c   10.26234763
_cell_angle_alpha   34.44847073
_cell_angle_beta   34.44847073
_cell_angle_gamma   34.44846858
_symmetry_Int_Tables_number   1
_chemical_formula_structural   Li10Mn3F16
_chemical_formula_sum   'Li10 Mn3 F16'
_cell_volume   308.49318277
_cell_formula_units_Z   1
loop_
 _symmetry_equiv_pos_site_id
 _symmetry_equiv_pos_as_xyz
  1  'x, y, z'
loop_
 _atom_site_type_symbol
 _atom_site_label
 _atom_site_symmetry_multiplicity
 _atom_site_fract_x
 _atom_site_fract_y
 _atom_site_fract_z
 _atom_site_occupancy
  Li  Li0  1  0.74605100  0.25508000  0.74605100  1
  Li  Li1  1  0.74492000  0.25394900  0.25394900  1
  Li  Li2  1  0.50000000  0.00000000  0.50000000  1
  Li  Li3  1  0.74605100  0.74605100  0.25508000  1
  Li  Li4  1  0.50000000  0.50000000  0.50000000  1
  Li  Li5  1  0.50000000  0.50000000  0.00000000  1
  Li  Li6  1  0.25394900  0.25394900  0.74492000  1
  Li  Li7  1  0.00000000  0.50000000  0.50000000  1
  Li  Li8  1  0.25394900  0.74492000  0.25394900  1
  Li  Li9  1  0.25508000  0.74605100  0.74605100  1
  Mn  Mn10  1  0.19171800  0.19171800  0.19171800  1
  Mn  Mn11  1  0.00000000  0.00000000  0.00000000  1
  Mn  Mn12  1  0.80828200  0.80828200  0.80828200  1
  F  F13  1  0.63032800  0.12307000  0.12307000  1
  F  F14  1  0.12307000  0.12307000  0.63032800  1
  F  F15  1  0.12039300  0.12039300  0.12039300  1
  F  F16  1  0.60563300  0.15695400  0.60563300  1
  F  F17  1  0.84304600  0.39436700  0.39436700  1
  F  F18  1  0.12307000  0.63032800  0.12307000  1
  F  F19  1  0.39436700  0.39436700  0.84304600  1
  F  F20  1  0.37237600  0.37237600  0.37237600  1
  F  F21  1  0.62762400  0.62762400  0.62762400  1
  F  F22  1  0.60563300  0.60563300  0.15695400  1
  F  F23  1  0.87693000  0.36967200  0.87693000  1
  F  F24  1  0.15695400  0.60563300  0.60563300  1
  F  F25  1  0.39436700  0.84304600  0.39436700  1
  F  F26  1  0.87960700  0.87960700  0.87960700  1
  F  F27  1  0.87693000  0.87693000  0.36967200  1
  F  F28  1  0.36967200  0.87693000  0.87693000  1
