# generated using pymatgen
data_LiMn3(PO4)3
_symmetry_space_group_name_H-M   'P 1'
_cell_length_a   8.60220400
_cell_length_b   9.04040851
_cell_length_c   12.59658750
_cell_angle_alpha   104.83539483
_cell_angle_beta   100.39339996
_cell_angle_gamma   103.42831166
_symmetry_Int_Tables_number   1
_chemical_formula_structural   LiMn3(PO4)3
_chemical_formula_sum   'Li4 Mn12 P12 O48'
_cell_volume   890.58458597
_cell_formula_units_Z   4
loop_
 _symmetry_equiv_pos_site_id
 _symmetry_equiv_pos_as_xyz
  1  'x, y, z'
loop_
 _atom_site_type_symbol
 _atom_site_label
 _atom_site_symmetry_multiplicity
 _atom_site_fract_x
 _atom_site_fract_y
 _atom_site_fract_z
 _atom_site_occupancy
  Li  Li0  1  0.49245700  0.26201800  0.76103800  1
  Li  Li1  1  0.50114400  0.00044600  0.50235800  1
  Li  Li2  1  0.50861700  0.73916900  0.23898500  1
  Li  Li3  1  0.98688500  0.12835000  0.11743300  1
  Mn  Mn4  1  0.61300200  0.89096900  0.95743700  1
  Mn  Mn5  1  0.26476600  0.49525200  0.76163800  1
  Mn  Mn6  1  0.93241100  0.48206700  0.86669300  1
  Mn  Mn7  1  0.06723100  0.01834200  0.63347300  1
  Mn  Mn8  1  0.38399700  0.60726900  0.54136300  1
  Mn  Mn9  1  0.73558700  0.00286900  0.74245100  1
  Mn  Mn10  1  0.27293000  0.99074600  0.25915900  1
  Mn  Mn11  1  0.61459400  0.39452300  0.45975200  1
  Mn  Mn12  1  0.93548300  0.98583700  0.37010200  1
  Mn  Mn13  1  0.06535700  0.52020500  0.13057600  1
  Mn  Mn14  1  0.73340000  0.50683000  0.24014400  1
  Mn  Mn15  1  0.38287400  0.10345700  0.03808800  1
  P  P16  1  0.13075100  0.23570200  0.88825500  1
  P  P17  1  0.34834800  0.88123600  0.74774200  1
  P  P18  1  0.70824400  0.26707300  0.97991400  1
  P  P19  1  0.65062000  0.61543000  0.74926900  1
  P  P20  1  0.13392500  0.73993700  0.39172200  1
  P  P21  1  0.28906500  0.23054600  0.51953500  1
  P  P22  1  0.71118700  0.76979500  0.48051000  1
  P  P23  1  0.86565900  0.26036800  0.60893400  1
  P  P24  1  0.34471900  0.37985200  0.24973400  1
  P  P25  1  0.29148600  0.73275300  0.01996500  1
  P  P26  1  0.65335600  0.11942200  0.24995100  1
  P  P27  1  0.87053700  0.76903100  0.11351700  1
  O  O28  1  0.04689500  0.36170800  0.94920400  1
  O  O29  1  0.40806700  0.92654200  0.88183600  1
  O  O30  1  0.16994400  0.63380900  0.90274900  1
  O  O31  1  0.18125900  0.15294000  0.97720300  1
  O  O32  1  0.17751600  0.90735900  0.71838700  1
  O  O33  1  0.53152800  0.25987900  0.99298900  1
  O  O34  1  0.27231400  0.31498500  0.84569300  1
  O  O35  1  0.47688300  0.98615100  0.70670900  1
  O  O36  1  0.99722700  0.38322200  0.71487700  1
  O  O37  1  0.66912200  0.79612800  0.80029400  1
  O  O38  1  0.33001800  0.70060800  0.69991300  1
  O  O39  1  0.52165400  0.50730900  0.78676200  1
  O  O40  1  0.72508400  0.34475200  0.88412800  1
  O  O41  1  0.04364000  0.85935100  0.45144400  1
  O  O42  1  0.74134400  0.10065700  0.93949800  1
  O  O43  1  0.82274000  0.59222100  0.78068300  1
  O  O44  1  0.18726300  0.65015700  0.47368900  1
  O  O45  1  0.26785400  0.39818400  0.56686400  1
  O  O46  1  0.83277700  0.86519000  0.59823500  1
  O  O47  1  0.59341600  0.57458500  0.61510700  1
  O  O48  1  0.27556900  0.14658400  0.61291800  1
  O  O49  1  0.53444500  0.76999900  0.49531000  1
  O  O50  1  0.28281300  0.83627000  0.36198700  1
  O  O51  1  0.01160700  0.89649900  0.21271800  1
  O  O52  1  0.99339800  0.10948600  0.78662200  1
  O  O53  1  0.71841900  0.16346800  0.63969700  1
  O  O54  1  0.46513100  0.22945100  0.50239800  1
  O  O55  1  0.72723000  0.85263600  0.38632400  1
  O  O56  1  0.40098500  0.42534400  0.38372900  1
  O  O57  1  0.16669400  0.13430400  0.40152900  1
  O  O58  1  0.73083500  0.60079300  0.43249400  1
  O  O59  1  0.81147900  0.34801600  0.52557100  1
  O  O60  1  0.16580800  0.39069300  0.20971000  1
  O  O61  1  0.26439500  0.90088600  0.06437000  1
  O  O62  1  0.95723300  0.14128600  0.54984800  1
  O  O63  1  0.27368200  0.65708100  0.11758400  1
  O  O64  1  0.47155100  0.48913100  0.21174400  1
  O  O65  1  0.66856500  0.29902500  0.29860700  1
  O  O66  1  0.32539100  0.19826800  0.20114500  1
  O  O67  1  0.00346400  0.61788000  0.28491700  1
  O  O68  1  0.53085300  0.01277000  0.29382200  1
  O  O69  1  0.73042500  0.68710300  0.15602100  1
  O  O70  1  0.46878500  0.73892200  0.00816900  1
  O  O71  1  0.82720400  0.09498200  0.27555200  1
  O  O72  1  0.81929100  0.86763100  0.03517700  1
  O  O73  1  0.83281800  0.36353700  0.09809400  1
  O  O74  1  0.59125600  0.07266300  0.11632100  1
  O  O75  1  0.95002700  0.64279200  0.04888700  1
