# generated using pymatgen
data_Li6V3P8O29
_symmetry_space_group_name_H-M   'P 1'
_cell_length_a   9.79020900
_cell_length_b   9.81570223
_cell_length_c   13.94560216
_cell_angle_alpha   89.94983632
_cell_angle_beta   89.94967063
_cell_angle_gamma   60.11899455
_symmetry_Int_Tables_number   1
_chemical_formula_structural   Li6V3P8O29
_chemical_formula_sum   'Li12 V6 P16 O58'
_cell_volume   1161.98499307
_cell_formula_units_Z   2
loop_
 _symmetry_equiv_pos_site_id
 _symmetry_equiv_pos_as_xyz
  1  'x, y, z'
loop_
 _atom_site_type_symbol
 _atom_site_label
 _atom_site_symmetry_multiplicity
 _atom_site_fract_x
 _atom_site_fract_y
 _atom_site_fract_z
 _atom_site_occupancy
  Li  Li0  1  0.09626200  0.67820200  0.94258500  1
  Li  Li1  1  0.23287900  0.66326600  0.43672700  1
  Li  Li2  1  0.09767000  0.23467700  0.43836200  1
  Li  Li3  1  0.22433700  0.08449200  0.94243000  1
  Li  Li4  1  0.68242800  0.22483400  0.94224200  1
  Li  Li5  1  0.33297100  0.90194000  0.55770000  1
  Li  Li6  1  0.66272600  0.09618400  0.43838200  1
  Li  Li7  1  0.78019500  0.90877100  0.06236900  1
  Li  Li8  1  0.66032300  0.66855400  0.88858800  1
  Li  Li9  1  0.76139500  0.33334100  0.55908700  1
  Li  Li10  1  0.91785100  0.30700900  0.06220100  1
  Li  Li11  1  0.98551800  0.96903100  0.50028200  1
  V  V12  1  0.43500100  0.00057600  0.74809600  1
  V  V13  1  0.56581300  0.00068700  0.24808700  1
  V  V14  1  0.43113200  0.56927100  0.24830000  1
  V  V15  1  0.56298100  0.43829100  0.75133600  1
  V  V16  1  0.99968000  0.56975200  0.74524700  1
  V  V17  1  0.00196400  0.43778400  0.25309000  1
  P  P18  1  0.09001800  0.68029800  0.15735700  1
  P  P19  1  0.22923700  0.68693900  0.65638000  1
  P  P20  1  0.08448700  0.22858600  0.65686100  1
  P  P21  1  0.33365300  0.33258700  0.87050500  1
  P  P22  1  0.33325600  0.33415800  0.37238000  1
  P  P23  1  0.22943400  0.08830000  0.15775000  1
  P  P24  1  0.31434900  0.91293500  0.34177700  1
  P  P25  1  0.67873200  0.23284100  0.15805400  1
  P  P26  1  0.31492600  0.77398500  0.84224800  1
  P  P27  1  0.68774300  0.08785500  0.65555200  1
  P  P28  1  0.77164800  0.90860300  0.84014600  1
  P  P29  1  0.66375000  0.66804900  0.62955600  1
  P  P30  1  0.67074400  0.66532900  0.12937700  1
  P  P31  1  0.91444700  0.77959900  0.34025500  1
  P  P32  1  0.77057300  0.31428400  0.34229100  1
  P  P33  1  0.91091100  0.32177900  0.84283100  1
  O  O34  1  0.00551500  0.79649700  0.42167000  1
  O  O35  1  0.08703300  0.66026600  0.66336400  1
  O  O36  1  0.23164300  0.75570800  0.92558300  1
  O  O37  1  0.25544300  0.66189000  0.16355900  1
  O  O38  1  0.10328700  0.51996300  0.17651600  1
  O  O39  1  0.18588400  0.48120700  0.83073100  1
  O  O40  1  0.09059500  0.38007100  0.67171900  1
  O  O41  1  0.00610200  0.24495700  0.93145400  1
  O  O42  1  0.08335100  0.25344000  0.16095000  1
  O  O43  1  0.32065600  0.49068600  0.33408200  1
  O  O44  1  0.38334000  0.53030400  0.66780000  1
  O  O45  1  0.18636200  0.32384200  0.33018200  1
  O  O46  1  0.33999100  0.32192600  0.97718300  1
  O  O47  1  0.32499700  0.33441300  0.47984500  1
  O  O48  1  0.33846300  0.18123000  0.82509700  1
  O  O49  1  0.51785800  0.37626200  0.17709400  1
  O  O50  1  0.48450100  0.33410900  0.82933400  1
  O  O51  1  0.24949000  0.08204900  0.65686500  1
  O  O52  1  0.20795900  0.99857500  0.24883500  1
  O  O53  1  0.22283900  0.00143500  0.43070600  1
  O  O54  1  0.24461700  0.00271800  0.06697500  1
  O  O55  1  0.38107200  0.09809300  0.17988800  1
  O  O56  1  0.48764300  0.19057600  0.33309500  1
  O  O57  1  0.33271700  0.92161900  0.84443800  1
  O  O58  1  0.53136900  0.08767900  0.66693700  1
  O  O59  1  0.66460800  0.25485000  0.66252500  1
  O  O60  1  0.21400300  0.79787000  0.74469100  1
  O  O61  1  0.22169900  0.77464900  0.56515500  1
  O  O62  1  0.77116900  0.22326600  0.43070300  1
  O  O63  1  0.33492200  0.74629800  0.34178900  1
  O  O64  1  0.47139100  0.90876900  0.32985600  1
  O  O65  1  0.66715600  0.08125300  0.15676600  1
  O  O66  1  0.50664800  0.81469500  0.67002700  1
  O  O67  1  0.62804600  0.88385500  0.82439300  1
  O  O68  1  0.75303200  0.00187200  0.92985600  1
  O  O69  1  0.77687000  0.01041300  0.56530600  1
  O  O70  1  0.79298100  0.99609100  0.74903700  1
  O  O71  1  0.74270600  0.91966100  0.33914400  1
  O  O72  1  0.52495100  0.66820900  0.17382600  1
  O  O73  1  0.48394900  0.62995600  0.82652600  1
  O  O74  1  0.67747500  0.81464800  0.16401500  1
  O  O75  1  0.67933100  0.65554600  0.02156500  1
  O  O76  1  0.65524700  0.66342800  0.52286500  1
  O  O77  1  0.80462700  0.67736100  0.67315600  1
  O  O78  1  0.61480200  0.46940300  0.32925200  1
  O  O79  1  0.67112200  0.51412800  0.67319500  1
  O  O80  1  0.92234000  0.74513300  0.84223700  1
  O  O81  1  0.98912900  0.80044400  0.24180500  1
  O  O82  1  0.00305000  0.75292400  0.06574400  1
  O  O83  1  0.91587500  0.62283600  0.33471600  1
  O  O84  1  0.82150700  0.51552100  0.17175900  1
  O  O85  1  0.89090800  0.48682300  0.82468000  1
  O  O86  1  0.74618400  0.33806600  0.84697900  1
  O  O87  1  0.75847000  0.24531900  0.06837800  1
  O  O88  1  0.79252000  0.20876000  0.24849300  1
  O  O89  1  0.91359500  0.33894700  0.34396800  1
  O  O90  1  0.99401400  0.23072500  0.56828100  1
  O  O91  1  0.99615300  0.21171400  0.75103800  1
