# generated using pymatgen
data_Li2Fe(SiO3)2
_symmetry_space_group_name_H-M   'P 1'
_cell_length_a   7.34169101
_cell_length_b   10.36894686
_cell_length_c   7.36533101
_cell_angle_alpha   110.80597863
_cell_angle_beta   90.00034318
_cell_angle_gamma   89.99649324
_symmetry_Int_Tables_number   1
_chemical_formula_structural   Li2Fe(SiO3)2
_chemical_formula_sum   'Li8 Fe4 Si8 O24'
_cell_volume   524.12688245
_cell_formula_units_Z   4
loop_
 _symmetry_equiv_pos_site_id
 _symmetry_equiv_pos_as_xyz
  1  'x, y, z'
loop_
 _atom_site_type_symbol
 _atom_site_label
 _atom_site_symmetry_multiplicity
 _atom_site_fract_x
 _atom_site_fract_y
 _atom_site_fract_z
 _atom_site_occupancy
  Li  Li0  1  0.71928300  0.83158800  0.19293700  1
  Li  Li1  1  0.21930800  0.83158900  0.69294700  1
  Li  Li2  1  0.46941300  0.66746100  0.36090600  1
  Li  Li3  1  0.96938100  0.66748400  0.86089300  1
  Li  Li4  1  0.46934300  0.33162400  0.63576400  1
  Li  Li5  1  0.96932400  0.33157500  0.13574900  1
  Li  Li6  1  0.71943600  0.16745400  0.80374900  1
  Li  Li7  1  0.21943800  0.16744800  0.30372300  1
  Fe  Fe8  1  0.21844100  0.49958200  0.49836900  1
  Fe  Fe9  1  0.46858700  0.99952100  0.49835900  1
  Fe  Fe10  1  0.71874000  0.49950600  0.99833400  1
  Fe  Fe11  1  0.96840600  0.99951600  0.99837900  1
  Si  Si12  1  0.28641700  0.83467900  0.10957100  1
  Si  Si13  1  0.78641500  0.83468600  0.60959200  1
  Si  Si14  1  0.53640700  0.66430700  0.77433400  1
  Si  Si15  1  0.03643500  0.66432400  0.27430900  1
  Si  Si16  1  0.53632300  0.33475100  0.22232200  1
  Si  Si17  1  0.03637800  0.33474100  0.72233400  1
  Si  Si18  1  0.28634900  0.16436900  0.88715300  1
  Si  Si19  1  0.78635900  0.16437400  0.38714500  1
  O  O20  1  0.31851500  0.98790400  0.26673100  1
  O  O21  1  0.81856500  0.98790000  0.76670200  1
  O  O22  1  0.56838500  0.51112000  0.77827200  1
  O  O23  1  0.06839700  0.51110200  0.27812700  1
  O  O24  1  0.56838100  0.48792900  0.21827700  1
  O  O25  1  0.06844300  0.48794300  0.71837100  1
  O  O26  1  0.31839700  0.01109900  0.72998200  1
  O  O27  1  0.81843200  0.01110200  0.23001800  1
  O  O28  1  0.13237500  0.82969600  0.94767900  1
  O  O29  1  0.63238400  0.82974700  0.44769400  1
  O  O30  1  0.38233500  0.66932800  0.61746700  1
  O  O31  1  0.88239900  0.66935600  0.11741600  1
  O  O32  1  0.38227100  0.32982200  0.37920700  1
  O  O33  1  0.88237400  0.32980700  0.87923700  1
  O  O34  1  0.13232200  0.16932100  0.04902200  1
  O  O35  1  0.63235400  0.16931000  0.54902800  1
  O  O36  1  0.23445300  0.72764100  0.22866700  1
  O  O37  1  0.73441500  0.72763700  0.72865000  1
  O  O38  1  0.48444100  0.77138900  0.00050300  1
  O  O39  1  0.98442200  0.77136300  0.50049700  1
  O  O40  1  0.48439100  0.22762600  0.99618700  1
  O  O41  1  0.98438400  0.22765900  0.49620200  1
  O  O42  1  0.23438600  0.27141800  0.76802300  1
  O  O43  1  0.73435600  0.27142900  0.26804300  1
