# generated using pymatgen
data_Li(H3N)4
_symmetry_space_group_name_H-M   'P 1'
_cell_length_a   13.03784271
_cell_length_b   13.03784271
_cell_length_c   13.03784271
_cell_angle_alpha   109.47122063
_cell_angle_beta   109.47122063
_cell_angle_gamma   109.47122063
_symmetry_Int_Tables_number   1
_chemical_formula_structural   Li(H3N)4
_chemical_formula_sum   'Li8 H96 N32'
_cell_volume   1706.06401057
_cell_formula_units_Z   8
loop_
 _symmetry_equiv_pos_site_id
 _symmetry_equiv_pos_as_xyz
  1  'x, y, z'
loop_
 _atom_site_type_symbol
 _atom_site_label
 _atom_site_symmetry_multiplicity
 _atom_site_fract_x
 _atom_site_fract_y
 _atom_site_fract_z
 _atom_site_occupancy
  Li  Li0  1  0.50000000  0.00000000  0.75603300  1
  Li  Li1  1  0.75603300  0.50000000  0.00000000  1
  Li  Li2  1  0.00000000  0.75603300  0.50000000  1
  Li  Li3  1  0.74396700  0.74396700  0.74396700  1
  Li  Li4  1  0.25603300  0.50000000  0.00000000  1
  Li  Li5  1  0.50000000  0.00000000  0.25603300  1
  Li  Li6  1  0.00000000  0.25603300  0.50000000  1
  Li  Li7  1  0.24396700  0.24396700  0.24396700  1
  H  H8  1  0.46048300  0.04888800  0.56397000  1
  H  H9  1  0.51508200  0.45111200  0.91159500  1
  H  H10  1  0.03951700  0.60348700  0.58840500  1
  H  H11  1  0.98491800  0.89651300  0.93603000  1
  H  H12  1  0.06397000  0.54888800  0.96048300  1
  H  H13  1  0.41159500  0.95111200  0.01508200  1
  H  H14  1  0.08840500  0.10348700  0.53951700  1
  H  H15  1  0.43603000  0.39651300  0.48491800  1
  H  H16  1  0.56397000  0.46048300  0.04888800  1
  H  H17  1  0.91159500  0.51508200  0.45111200  1
  H  H18  1  0.58840500  0.03951700  0.60348700  1
  H  H19  1  0.93603000  0.98491800  0.89651300  1
  H  H20  1  0.96048300  0.06397000  0.54888800  1
  H  H21  1  0.01508200  0.41159500  0.95111200  1
  H  H22  1  0.53951700  0.08840500  0.10348700  1
  H  H23  1  0.48491800  0.43603000  0.39651300  1
  H  H24  1  0.04888800  0.56397000  0.46048300  1
  H  H25  1  0.45111200  0.91159500  0.51508200  1
  H  H26  1  0.60348700  0.58840500  0.03951700  1
  H  H27  1  0.89651300  0.93603000  0.98491800  1
  H  H28  1  0.54888800  0.96048300  0.06397000  1
  H  H29  1  0.95111200  0.01508200  0.41159500  1
  H  H30  1  0.10348700  0.53951700  0.08840500  1
  H  H31  1  0.39651300  0.48491800  0.43603000  1
  H  H32  1  0.42479300  0.16874300  0.77765600  1
  H  H33  1  0.60891300  0.33125700  0.75605000  1
  H  H34  1  0.07520700  0.85286300  0.74395000  1
  H  H35  1  0.89108700  0.64713700  0.72234400  1
  H  H36  1  0.27765600  0.66874300  0.92479300  1
  H  H37  1  0.25605000  0.83125700  0.10891300  1
  H  H38  1  0.24395000  0.35286300  0.57520700  1
  H  H39  1  0.22234400  0.14713700  0.39108700  1
  H  H40  1  0.77765600  0.42479300  0.16874300  1
  H  H41  1  0.75605000  0.60891300  0.33125700  1
  H  H42  1  0.74395000  0.07520700  0.85286300  1
  H  H43  1  0.72234400  0.89108700  0.64713700  1
  H  H44  1  0.92479300  0.27765600  0.66874300  1
  H  H45  1  0.10891300  0.25605000  0.83125700  1
  H  H46  1  0.57520700  0.24395000  0.35286300  1
  H  H47  1  0.39108700  0.22234400  0.14713700  1
  H  H48  1  0.16874300  0.77765600  0.42479300  1
  H  H49  1  0.33125700  0.75605000  0.60891300  1
  H  H50  1  0.85286300  0.74395000  0.07520700  1
  H  H51  1  0.64713700  0.72234400  0.89108700  1
  H  H52  1  0.66874300  0.92479300  0.27765600  1
  H  H53  1  0.83125700  0.10891300  0.25605000  1
  H  H54  1  0.35286300  0.57520700  0.24395000  1
  H  H55  1  0.14713700  0.39108700  0.22234400  1
  H  H56  1  0.53540400  0.21916500  0.91846000  1
  H  H57  1  0.69929500  0.28083500  0.81623800  1
  H  H58  1  0.96459600  0.88305700  0.68376200  1
  H  H59  1  0.80070500  0.61694300  0.58154000  1
  H  H60  1  0.41846000  0.71916500  0.03540400  1
  H  H61  1  0.31623800  0.78083500  0.19929500  1
  H  H62  1  0.18376200  0.38305700  0.46459600  1
  H  H63  1  0.08154000  0.11694300  0.30070500  1
  H  H64  1  0.91846000  0.53540400  0.21916500  1
  H  H65  1  0.81623800  0.69929500  0.28083500  1
  H  H66  1  0.68376200  0.96459600  0.88305700  1
  H  H67  1  0.58154000  0.80070500  0.61694300  1
  H  H68  1  0.03540400  0.41846000  0.71916500  1
  H  H69  1  0.19929500  0.31623800  0.78083500  1
  H  H70  1  0.46459600  0.18376200  0.38305700  1
  H  H71  1  0.30070500  0.08154000  0.11694300  1
  H  H72  1  0.21916500  0.91846000  0.53540400  1
  H  H73  1  0.28083500  0.81623800  0.69929500  1
  H  H74  1  0.88305700  0.68376200  0.96459600  1
  H  H75  1  0.61694300  0.58154000  0.80070500  1
  H  H76  1  0.71916500  0.03540400  0.41846000  1
  H  H77  1  0.78083500  0.19929500  0.31623800  1
  H  H78  1  0.38305700  0.46459600  0.18376200  1
  H  H79  1  0.11694300  0.30070500  0.08154000  1
  H  H80  1  0.39308800  0.11260600  0.86569600  1
  H  H81  1  0.75309000  0.38739400  0.78048200  1
  H  H82  1  0.10691200  0.97260800  0.71951800  1
  H  H83  1  0.74691000  0.52739200  0.63430400  1
  H  H84  1  0.36569600  0.61260600  0.89308800  1
  H  H85  1  0.28048200  0.88739400  0.25309000  1
  H  H86  1  0.21951800  0.47260800  0.60691200  1
  H  H87  1  0.13430400  0.02739200  0.24691000  1
  H  H88  1  0.86569600  0.39308800  0.11260600  1
  H  H89  1  0.78048200  0.75309000  0.38739400  1
  H  H90  1  0.71951800  0.10691200  0.97260800  1
  H  H91  1  0.63430400  0.74691000  0.52739200  1
  H  H92  1  0.89308800  0.36569600  0.61260600  1
  H  H93  1  0.25309000  0.28048200  0.88739400  1
  H  H94  1  0.60691200  0.21951800  0.47260800  1
  H  H95  1  0.24691000  0.13430400  0.02739200  1
  H  H96  1  0.11260600  0.86569600  0.39308800  1
  H  H97  1  0.38739400  0.78048200  0.75309000  1
  H  H98  1  0.97260800  0.71951800  0.10691200  1
  H  H99  1  0.52739200  0.63430400  0.74691000  1
  H  H100  1  0.61260600  0.89308800  0.36569600  1
  H  H101  1  0.88739400  0.25309000  0.28048200  1
  H  H102  1  0.47260800  0.60691200  0.21951800  1
  H  H103  1  0.02739200  0.24691000  0.13430400  1
  N  N104  1  0.50000000  0.00000000  0.59252200  1
  N  N105  1  0.59252200  0.50000000  0.00000000  1
  N  N106  1  0.00000000  0.59252200  0.50000000  1
  N  N107  1  0.90747800  0.90747800  0.90747800  1
  N  N108  1  0.09252200  0.50000000  0.00000000  1
  N  N109  1  0.50000000  0.00000000  0.09252200  1
  N  N110  1  0.00000000  0.09252200  0.50000000  1
  N  N111  1  0.40747800  0.40747800  0.40747800  1
  N  N112  1  0.45878700  0.13927800  0.83871900  1
  N  N113  1  0.69944100  0.36072200  0.81950900  1
  N  N114  1  0.04121300  0.87993200  0.68049100  1
  N  N115  1  0.80055900  0.62006800  0.66128100  1
  N  N116  1  0.33871900  0.63927800  0.95878700  1
  N  N117  1  0.31950900  0.86072200  0.19944100  1
  N  N118  1  0.18049100  0.37993200  0.54121300  1
  N  N119  1  0.16128100  0.12006800  0.30055900  1
  N  N120  1  0.83871900  0.45878700  0.13927800  1
  N  N121  1  0.81950900  0.69944100  0.36072200  1
  N  N122  1  0.68049100  0.04121300  0.87993200  1
  N  N123  1  0.66128100  0.80055900  0.62006800  1
  N  N124  1  0.95878700  0.33871900  0.63927800  1
  N  N125  1  0.19944100  0.31950900  0.86072200  1
  N  N126  1  0.54121300  0.18049100  0.37993200  1
  N  N127  1  0.30055900  0.16128100  0.12006800  1
  N  N128  1  0.13927800  0.83871900  0.45878700  1
  N  N129  1  0.36072200  0.81950900  0.69944100  1
  N  N130  1  0.87993200  0.68049100  0.04121300  1
  N  N131  1  0.62006800  0.66128100  0.80055900  1
  N  N132  1  0.63927800  0.95878700  0.33871900  1
  N  N133  1  0.86072200  0.19944100  0.31950900  1
  N  N134  1  0.37993200  0.54121300  0.18049100  1
  N  N135  1  0.12006800  0.30055900  0.16128100  1
