# generated using pymatgen
data_Li24Ti7Cr5O36
_symmetry_space_group_name_H-M   'P 1'
_cell_length_a   5.06418000
_cell_length_b   9.81643834
_cell_length_c   13.43608655
_cell_angle_alpha   97.30500277
_cell_angle_beta   100.76394594
_cell_angle_gamma   94.74427401
_symmetry_Int_Tables_number   1
_chemical_formula_structural   Li24Ti7Cr5O36
_chemical_formula_sum   'Li24 Ti7 Cr5 O36'
_cell_volume   646.96336979
_cell_formula_units_Z   1
loop_
 _symmetry_equiv_pos_site_id
 _symmetry_equiv_pos_as_xyz
  1  'x, y, z'
loop_
 _atom_site_type_symbol
 _atom_site_label
 _atom_site_symmetry_multiplicity
 _atom_site_fract_x
 _atom_site_fract_y
 _atom_site_fract_z
 _atom_site_occupancy
  Li  Li0  1  0.16399100  0.99854500  0.83439500  1
  Li  Li1  1  0.04817500  0.99845900  0.61087700  1
  Li  Li2  1  0.99992800  0.74972500  0.25049600  1
  Li  Li3  1  0.33458700  0.74950300  0.91630200  1
  Li  Li4  1  0.04907400  0.49895800  0.11329900  1
  Li  Li5  1  0.38395400  0.49933300  0.77978700  1
  Li  Li6  1  0.16828500  0.50007900  0.33352400  1
  Li  Li7  1  0.50261400  0.49916700  0.99950500  1
  Li  Li8  1  0.28704900  0.49966100  0.55287200  1
  Li  Li9  1  0.33151700  0.24947100  0.41694500  1
  Li  Li10  1  0.49433200  0.00136300  0.50169400  1
  Li  Li11  1  0.28828400  0.00154400  0.05531200  1
  Li  Li12  1  0.62430700  0.00090500  0.72057200  1
  Li  Li13  1  0.38077300  0.00284700  0.27892900  1
  Li  Li14  1  0.71076600  0.99973400  0.94511200  1
  Li  Li15  1  0.66693600  0.75068400  0.58365900  1
  Li  Li16  1  0.71792300  0.50068600  0.44719500  1
  Li  Li17  1  0.82614700  0.50103900  0.66728500  1
  Li  Li18  1  0.61228100  0.49825200  0.21834100  1
  Li  Li19  1  0.95039800  0.50192300  0.88804700  1
  Li  Li20  1  0.66547600  0.25036600  0.08238100  1
  Li  Li21  1  0.83831300  0.00003600  0.16618000  1
  Li  Li22  1  0.99986400  0.24992000  0.75006600  1
  Li  Li23  1  0.95113600  0.99778000  0.38708900  1
  Ti  Ti24  1  0.11713400  0.25571700  0.97357700  1
  Ti  Ti25  1  0.22580600  0.75340400  0.69331100  1
  Ti  Ti26  1  0.44253800  0.75159200  0.14038400  1
  Ti  Ti27  1  0.55601100  0.74966500  0.36378100  1
  Ti  Ti28  1  0.77615300  0.24797700  0.30569500  1
  Ti  Ti29  1  0.88792800  0.24756600  0.52762200  1
  Ti  Ti30  1  0.88535200  0.74672100  0.02599600  1
  Cr  Cr31  1  0.10743700  0.74886800  0.47177000  1
  Cr  Cr32  1  0.21824700  0.24987900  0.19330100  1
  Cr  Cr33  1  0.43814000  0.24934500  0.64088600  1
  Cr  Cr34  1  0.56302300  0.24996400  0.85930600  1
  Cr  Cr35  1  0.78211300  0.75009200  0.80580300  1
  O  O36  1  0.99901500  0.86212200  0.92528500  1
  O  O37  1  0.06115800  0.63566800  0.78455300  1
  O  O38  1  0.99717600  0.36363300  0.42875700  1
  O  O39  1  0.15157300  0.36326300  0.64479100  1
  O  O40  1  0.26598100  0.36383400  0.88078000  1
  O  O41  1  0.33441600  0.86221000  0.59409100  1
  O  O42  1  0.06820100  0.13445300  0.28587800  1
  O  O43  1  0.18693500  0.13658100  0.52300500  1
  O  O44  1  0.40308100  0.13521500  0.94925900  1
  O  O45  1  0.14367200  0.86335900  0.14316400  1
  O  O46  1  0.25887200  0.86351400  0.38426700  1
  O  O47  1  0.48067200  0.86168400  0.80971800  1
  O  O48  1  0.33182100  0.13873700  0.73406600  1
  O  O49  1  0.18949400  0.63674500  0.02234200  1
  O  O50  1  0.40666700  0.63403700  0.45269800  1
  O  O51  1  0.52669800  0.63767400  0.69142600  1
  O  O52  1  0.33253900  0.63693400  0.23815100  1
  O  O53  1  0.66154900  0.63690300  0.90440700  1
  O  O54  1  0.33795600  0.36425500  0.09487600  1
  O  O55  1  0.66907700  0.36060000  0.76578000  1
  O  O56  1  0.47324200  0.36159500  0.30855400  1
  O  O57  1  0.59590000  0.36411000  0.55063700  1
  O  O58  1  0.81333700  0.36370600  0.97717600  1
  O  O59  1  0.66789800  0.86353000  0.26322900  1
  O  O60  1  0.51872200  0.13898600  0.18847000  1
  O  O61  1  0.73478400  0.13642700  0.61979600  1
  O  O62  1  0.84823200  0.13699800  0.85647000  1
  O  O63  1  0.59690800  0.86592900  0.04801100  1
  O  O64  1  0.80970800  0.86309200  0.47785500  1
  O  O65  1  0.93306100  0.86606300  0.71429900  1
  O  O66  1  0.66542000  0.13527800  0.40426300  1
  O  O67  1  0.73715500  0.63445400  0.11797900  1
  O  O68  1  0.86198000  0.63797700  0.35822500  1
  O  O69  1  0.00066900  0.63776400  0.56896500  1
  O  O70  1  0.93702800  0.36392300  0.21345400  1
  O  O71  1  0.00340800  0.13797200  0.07402400  1
