# generated using pymatgen
data_LiMnPO4
_symmetry_space_group_name_H-M   'P 1'
_cell_length_a   7.49297100
_cell_length_b   8.88510900
_cell_length_c   17.65054200
_cell_angle_alpha   60.72143653
_cell_angle_beta   90.00000000
_cell_angle_gamma   90.00000000
_symmetry_Int_Tables_number   1
_chemical_formula_structural   LiMnPO4
_chemical_formula_sum   'Li12 Mn12 P12 O48'
_cell_volume   1024.98376142
_cell_formula_units_Z   12
loop_
 _symmetry_equiv_pos_site_id
 _symmetry_equiv_pos_as_xyz
  1  'x, y, z'
loop_
 _atom_site_type_symbol
 _atom_site_label
 _atom_site_symmetry_multiplicity
 _atom_site_fract_x
 _atom_site_fract_y
 _atom_site_fract_z
 _atom_site_occupancy
  Li  Li0  1  0.98161000  0.29494900  0.92894900  1
  Li  Li1  1  0.01916600  0.64392200  0.58656800  1
  Li  Li2  1  0.00498700  0.00184400  0.23777700  1
  Li  Li3  1  0.50498700  0.99815600  0.26222300  1
  Li  Li4  1  0.51916600  0.35607800  0.91343200  1
  Li  Li5  1  0.48161000  0.70505100  0.57105100  1
  Li  Li6  1  0.51839000  0.29494900  0.42894900  1
  Li  Li7  1  0.48083400  0.64392200  0.08656800  1
  Li  Li8  1  0.49501300  0.00184400  0.73777700  1
  Li  Li9  1  0.99501300  0.99815600  0.76222300  1
  Li  Li10  1  0.98083400  0.35607800  0.41343200  1
  Li  Li11  1  0.01839000  0.70505100  0.07105100  1
  Mn  Mn12  1  0.69084000  0.65141700  0.40889500  1
  Mn  Mn13  1  0.80357500  0.31812400  0.76281000  1
  Mn  Mn14  1  0.68586700  0.01398500  0.08231500  1
  Mn  Mn15  1  0.18586700  0.98601500  0.41768500  1
  Mn  Mn16  1  0.30357500  0.68187600  0.73719000  1
  Mn  Mn17  1  0.19084000  0.34858300  0.09110500  1
  Mn  Mn18  1  0.80916000  0.65141700  0.90889500  1
  Mn  Mn19  1  0.69642500  0.31812400  0.26281000  1
  Mn  Mn20  1  0.81413300  0.01398500  0.58231500  1
  Mn  Mn21  1  0.31413300  0.98601500  0.91768500  1
  Mn  Mn22  1  0.19642500  0.68187600  0.23719000  1
  Mn  Mn23  1  0.30916000  0.34858300  0.59110500  1
  P  P24  1  0.26000300  0.64897300  0.40801000  1
  P  P25  1  0.22879400  0.31076400  0.76988900  1
  P  P26  1  0.25705100  0.03740200  0.07403500  1
  P  P27  1  0.75705100  0.96259800  0.42596500  1
  P  P28  1  0.72879400  0.68923600  0.73011100  1
  P  P29  1  0.76000300  0.35102700  0.09199000  1
  P  P30  1  0.23999700  0.64897300  0.90801000  1
  P  P31  1  0.27120600  0.31076400  0.26988900  1
  P  P32  1  0.24294900  0.03740200  0.57403500  1
  P  P33  1  0.74294900  0.96259800  0.92596500  1
  P  P34  1  0.77120600  0.68923600  0.23011100  1
  P  P35  1  0.73999700  0.35102700  0.59199000  1
  O  O36  1  0.43689200  0.56624300  0.39907800  1
  O  O37  1  0.88852200  0.41102500  0.63338800  1
  O  O38  1  0.38532400  0.25404100  0.83653700  1
  O  O39  1  0.21722800  0.59196700  0.50430900  1
  O  O40  1  0.78395400  0.09338200  0.95831800  1
  O  O41  1  0.76307100  0.79659400  0.27861500  1
  O  O42  1  0.26012700  0.94130800  0.17513400  1
  O  O43  1  0.05428700  0.26479900  0.82480500  1
  O  O44  1  0.43881400  0.12927900  0.03733000  1
  O  O45  1  0.23205400  0.50480400  0.70055200  1
  O  O46  1  0.11417200  0.18337500  0.04172100  1
  O  O47  1  0.27511200  0.84976200  0.35600000  1
  O  O48  1  0.77511200  0.15023800  0.14400000  1
  O  O49  1  0.61417200  0.81662500  0.45827900  1
  O  O50  1  0.73205400  0.49519600  0.79944800  1
  O  O51  1  0.93881400  0.87072100  0.46267000  1
  O  O52  1  0.55428700  0.73520100  0.67519500  1
  O  O53  1  0.76012700  0.05869200  0.32486600  1
  O  O54  1  0.26307100  0.20340600  0.22138500  1
  O  O55  1  0.28395400  0.90661800  0.54168200  1
  O  O56  1  0.71722800  0.40803300  0.99569100  1
  O  O57  1  0.88532400  0.74595900  0.66346300  1
  O  O58  1  0.38852200  0.58897500  0.86661200  1
  O  O59  1  0.93689200  0.43375700  0.10092200  1
  O  O60  1  0.06310800  0.56624300  0.89907800  1
  O  O61  1  0.61147800  0.41102500  0.13338800  1
  O  O62  1  0.11467600  0.25404100  0.33653700  1
  O  O63  1  0.28277200  0.59196700  0.00430900  1
  O  O64  1  0.71604600  0.09338200  0.45831800  1
  O  O65  1  0.73692900  0.79659400  0.77861500  1
  O  O66  1  0.23987300  0.94130800  0.67513400  1
  O  O67  1  0.44571300  0.26479900  0.32480500  1
  O  O68  1  0.06118600  0.12927900  0.53733000  1
  O  O69  1  0.26794600  0.50480400  0.20055200  1
  O  O70  1  0.38582800  0.18337500  0.54172100  1
  O  O71  1  0.22488800  0.84976200  0.85600000  1
  O  O72  1  0.72488800  0.15023800  0.64400000  1
  O  O73  1  0.76794600  0.49519600  0.29944800  1
  O  O74  1  0.88582800  0.81662500  0.95827900  1
  O  O75  1  0.56118600  0.87072100  0.96267000  1
  O  O76  1  0.94571300  0.73520100  0.17519500  1
  O  O77  1  0.73987300  0.05869200  0.82486600  1
  O  O78  1  0.23692900  0.20340600  0.72138500  1
  O  O79  1  0.21604600  0.90661800  0.04168200  1
  O  O80  1  0.78277200  0.40803300  0.49569100  1
  O  O81  1  0.61467600  0.74595900  0.16346300  1
  O  O82  1  0.11147800  0.58897500  0.36661200  1
  O  O83  1  0.56310800  0.43375700  0.60092200  1
