# generated using pymatgen
data_Li4Cr3Co(PO4)4
_symmetry_space_group_name_H-M   'P 1'
_cell_length_a   6.27577000
_cell_length_b   4.77213800
_cell_length_c   10.23645199
_cell_angle_alpha   89.58929411
_cell_angle_beta   90.00000000
_cell_angle_gamma   90.00000000
_symmetry_Int_Tables_number   1
_chemical_formula_structural   Li4Cr3Co(PO4)4
_chemical_formula_sum   'Li4 Cr3 Co1 P4 O16'
_cell_volume   306.56199165
_cell_formula_units_Z   1
loop_
 _symmetry_equiv_pos_site_id
 _symmetry_equiv_pos_as_xyz
  1  'x, y, z'
loop_
 _atom_site_type_symbol
 _atom_site_label
 _atom_site_symmetry_multiplicity
 _atom_site_fract_x
 _atom_site_fract_y
 _atom_site_fract_z
 _atom_site_occupancy
  Li  Li0  1  0.25198300  0.99515800  0.00015600  1
  Li  Li1  1  0.74801700  0.99515800  0.00015600  1
  Li  Li2  1  0.74665100  0.50228400  0.49837200  1
  Li  Li3  1  0.25334900  0.50228400  0.49837200  1
  Cr  Cr4  1  0.50000000  0.54473600  0.78384600  1
  Cr  Cr5  1  0.00000000  0.45450000  0.21806200  1
  Cr  Cr6  1  0.00000000  0.04937600  0.71559700  1
  Co  Co7  1  0.50000000  0.97948000  0.27853100  1
  P  P8  1  0.00000000  0.91718200  0.40544500  1
  P  P9  1  0.00000000  0.58063400  0.90566400  1
  P  P10  1  0.50000000  0.41627200  0.09393100  1
  P  P11  1  0.50000000  0.08388300  0.59423300  1
  O  O12  1  0.00000000  0.80585800  0.54954500  1
  O  O13  1  0.20116600  0.78598800  0.33914300  1
  O  O14  1  0.79883400  0.78598800  0.33914300  1
  O  O15  1  0.50000000  0.75952700  0.60133800  1
  O  O16  1  0.50000000  0.74020000  0.09767000  1
  O  O17  1  0.19861600  0.71410500  0.83868100  1
  O  O18  1  0.80138400  0.71410500  0.83868100  1
  O  O19  1  0.00000000  0.68949800  0.04883200  1
  O  O20  1  0.50000000  0.29944200  0.95157200  1
  O  O21  1  0.69570000  0.27836000  0.16390200  1
  O  O22  1  0.30430000  0.27836000  0.16390200  1
  O  O23  1  0.00000000  0.25602700  0.89903000  1
  O  O24  1  0.00000000  0.24150300  0.39957300  1
  O  O25  1  0.69749300  0.21490900  0.66284300  1
  O  O26  1  0.30250700  0.21490900  0.66284300  1
  O  O27  1  0.50000000  0.20027100  0.45093300  1
