# generated using pymatgen
data_SrLiLa3MnO8
_symmetry_space_group_name_H-M   'P 1'
_cell_length_a   5.43616057
_cell_length_b   6.89788624
_cell_length_c   21.76884299
_cell_angle_alpha   89.99956555
_cell_angle_beta   89.99993483
_cell_angle_gamma   66.79384369
_symmetry_Int_Tables_number   1
_chemical_formula_structural   SrLiLa3MnO8
_chemical_formula_sum   'Sr4 Li4 La12 Mn4 O32'
_cell_volume   750.24500381
_cell_formula_units_Z   4
loop_
 _symmetry_equiv_pos_site_id
 _symmetry_equiv_pos_as_xyz
  1  'x, y, z'
loop_
 _atom_site_type_symbol
 _atom_site_label
 _atom_site_symmetry_multiplicity
 _atom_site_fract_x
 _atom_site_fract_y
 _atom_site_fract_z
 _atom_site_occupancy
  Sr  Sr0  1  0.36013200  0.27975400  0.99999000  1
  Sr  Sr1  1  0.36010700  0.27982600  0.50001600  1
  Sr  Sr2  1  0.63992100  0.72025000  0.25001000  1
  Sr  Sr3  1  0.63995000  0.72016700  0.74998900  1
  Li  Li4  1  0.49999800  0.99999900  0.12500100  1
  Li  Li5  1  0.49999800  0.00000000  0.62500100  1
  Li  Li6  1  0.49999900  0.00000100  0.37500000  1
  Li  Li7  1  0.50000000  0.99999800  0.87499800  1
  La  La8  1  0.63534500  0.72932500  0.99999500  1
  La  La9  1  0.63534400  0.72932000  0.49999900  1
  La  La10  1  0.36466200  0.27067400  0.25000500  1
  La  La11  1  0.36467200  0.27067600  0.75000300  1
  La  La12  1  0.13766600  0.72467200  0.12604700  1
  La  La13  1  0.13765000  0.72469800  0.62604500  1
  La  La14  1  0.86235600  0.27532300  0.12395400  1
  La  La15  1  0.86236500  0.27529600  0.62395300  1
  La  La16  1  0.13767600  0.72466900  0.37395600  1
  La  La17  1  0.13766200  0.72467800  0.87395100  1
  La  La18  1  0.86236300  0.27531500  0.37604600  1
  La  La19  1  0.86235200  0.27531900  0.87604300  1
  Mn  Mn20  1  0.99908200  0.00174100  0.49997400  1
  Mn  Mn21  1  0.00085500  0.99826600  0.75003500  1
  Mn  Mn22  1  0.99912500  0.00174800  0.99997100  1
  Mn  Mn23  1  0.00088100  0.99824800  0.25003300  1
  O  O24  1  0.15862100  0.68269000  0.99999500  1
  O  O25  1  0.15863100  0.68267500  0.49999900  1
  O  O26  1  0.84135300  0.31732600  0.25000600  1
  O  O27  1  0.84134800  0.31733800  0.74999800  1
  O  O28  1  0.83798600  0.32401100  0.99999400  1
  O  O29  1  0.83800000  0.32400100  0.50000200  1
  O  O30  1  0.16200600  0.67597900  0.25000400  1
  O  O31  1  0.16199800  0.67598600  0.74999900  1
  O  O32  1  0.31699100  0.36597300  0.13272600  1
  O  O33  1  0.31699000  0.36597300  0.63272300  1
  O  O34  1  0.68297900  0.63404000  0.11726700  1
  O  O35  1  0.68297000  0.63403300  0.61726900  1
  O  O36  1  0.31700000  0.36596100  0.36727800  1
  O  O37  1  0.31700700  0.36596400  0.86726800  1
  O  O38  1  0.68296500  0.63404300  0.38273600  1
  O  O39  1  0.68297200  0.63404700  0.88272400  1
  O  O40  1  0.75665500  0.99808900  0.06116200  1
  O  O41  1  0.75666600  0.99807100  0.56116300  1
  O  O42  1  0.75476000  0.00189800  0.18884200  1
  O  O43  1  0.75475400  0.00190800  0.68883800  1
  O  O44  1  0.24524500  0.99809500  0.06116300  1
  O  O45  1  0.24526000  0.99807800  0.56116500  1
  O  O46  1  0.24333500  0.00192500  0.18884200  1
  O  O47  1  0.24334300  0.00193000  0.68883800  1
  O  O48  1  0.75477300  0.00189500  0.31115400  1
  O  O49  1  0.75476300  0.00191200  0.81114700  1
  O  O50  1  0.24332600  0.00192300  0.31115400  1
  O  O51  1  0.24332200  0.00193100  0.81114900  1
  O  O52  1  0.75666100  0.99808200  0.43884900  1
  O  O53  1  0.75666200  0.99808900  0.93884400  1
  O  O54  1  0.24525500  0.99808200  0.43884600  1
  O  O55  1  0.24524300  0.99808900  0.93884300  1
