# generated using pymatgen
data_Li3Zn(Fe5O8)4
_symmetry_space_group_name_H-M   'P 1'
_cell_length_a   8.47291231
_cell_length_b   8.47291231
_cell_length_c   8.47713889
_cell_angle_alpha   89.62028683
_cell_angle_beta   89.62028683
_cell_angle_gamma   90.39309763
_symmetry_Int_Tables_number   1
_chemical_formula_structural   Li3Zn(Fe5O8)4
_chemical_formula_sum   'Li3 Zn1 Fe20 O32'
_cell_volume   608.53462523
_cell_formula_units_Z   1
loop_
 _symmetry_equiv_pos_site_id
 _symmetry_equiv_pos_as_xyz
  1  'x, y, z'
loop_
 _atom_site_type_symbol
 _atom_site_label
 _atom_site_symmetry_multiplicity
 _atom_site_fract_x
 _atom_site_fract_y
 _atom_site_fract_z
 _atom_site_occupancy
  Li  Li0  1  0.12607700  0.62756300  0.87534800  1
  Li  Li1  1  0.62472000  0.62472000  0.37388100  1
  Li  Li2  1  0.62756300  0.12607700  0.87534800  1
  Zn  Zn3  1  0.00551500  0.00551500  0.99349000  1
  Fe  Fe4  1  0.00199400  0.50691400  0.49629500  1
  Fe  Fe5  1  0.12700900  0.12700900  0.37313000  1
  Fe  Fe6  1  0.12363900  0.87233400  0.63232600  1
  Fe  Fe7  1  0.13122600  0.37849100  0.12099600  1
  Fe  Fe8  1  0.24784300  0.74715100  0.25062500  1
  Fe  Fe9  1  0.24886500  0.24886500  0.76107300  1
  Fe  Fe10  1  0.37506400  0.62536000  0.62311700  1
  Fe  Fe11  1  0.37849100  0.13122600  0.12099600  1
  Fe  Fe12  1  0.37438000  0.87677700  0.87676600  1
  Fe  Fe13  1  0.38078300  0.38078300  0.37316600  1
  Fe  Fe14  1  0.50691400  0.00199400  0.49629500  1
  Fe  Fe15  1  0.50531100  0.50531100  0.99334800  1
  Fe  Fe16  1  0.62462100  0.87746000  0.12442600  1
  Fe  Fe17  1  0.62536000  0.37506400  0.62311700  1
  Fe  Fe18  1  0.74416200  0.74416200  0.75733900  1
  Fe  Fe19  1  0.74715100  0.24784300  0.25062500  1
  Fe  Fe20  1  0.87206900  0.87206900  0.37371700  1
  Fe  Fe21  1  0.87677700  0.37438000  0.87676600  1
  Fe  Fe22  1  0.87746000  0.62462100  0.12442600  1
  Fe  Fe23  1  0.87233400  0.12363900  0.63232600  1
  O  O24  1  0.11602500  0.88747000  0.38244700  1
  O  O25  1  0.11450400  0.61475000  0.12635000  1
  O  O26  1  0.11866100  0.11866100  0.61572900  1
  O  O27  1  0.13677100  0.63547300  0.62187700  1
  O  O28  1  0.11231700  0.37592600  0.88628800  1
  O  O29  1  0.12670000  0.36522200  0.36587300  1
  O  O30  1  0.14099600  0.87237800  0.85898600  1
  O  O31  1  0.14136600  0.14136600  0.13575100  1
  O  O32  1  0.37185200  0.87206800  0.62994400  1
  O  O33  1  0.36522200  0.12670000  0.36587300  1
  O  O34  1  0.37590700  0.63653000  0.86563000  1
  O  O35  1  0.37350100  0.62937500  0.38719300  1
  O  O36  1  0.36682300  0.36682300  0.12143200  1
  O  O37  1  0.37956000  0.88820800  0.11890800  1
  O  O38  1  0.38211600  0.38211600  0.63172400  1
  O  O39  1  0.37592600  0.11231700  0.88628800  1
  O  O40  1  0.61634000  0.61634000  0.62453600  1
  O  O41  1  0.61322900  0.87797000  0.88504300  1
  O  O42  1  0.62937500  0.37350100  0.38719300  1
  O  O43  1  0.63548600  0.87727500  0.36545700  1
  O  O44  1  0.61475000  0.11450400  0.12635000  1
  O  O45  1  0.63547300  0.13677100  0.62187700  1
  O  O46  1  0.63529100  0.63529100  0.12604800  1
  O  O47  1  0.63653000  0.37590700  0.86563000  1
  O  O48  1  0.87727500  0.63548600  0.36545700  1
  O  O49  1  0.87206800  0.37185200  0.62994400  1
  O  O50  1  0.86678300  0.86678300  0.13460100  1
  O  O51  1  0.88162600  0.88162600  0.61870000  1
  O  O52  1  0.87237800  0.14099600  0.85898600  1
  O  O53  1  0.87797000  0.61322900  0.88504300  1
  O  O54  1  0.88747000  0.11602500  0.38244700  1
  O  O55  1  0.88820800  0.37956000  0.11890800  1
