# generated using pymatgen
data_LiVFeP2(HO5)2
_symmetry_space_group_name_H-M   'P 1'
_cell_length_a   5.22098200
_cell_length_b   7.44217493
_cell_length_c   10.51817600
_cell_angle_alpha   105.31167818
_cell_angle_beta   96.59897358
_cell_angle_gamma   109.94809238
_symmetry_Int_Tables_number   1
_chemical_formula_structural   LiVFeP2(HO5)2
_chemical_formula_sum   'Li2 V2 Fe2 P4 H4 O20'
_cell_volume   360.93426433
_cell_formula_units_Z   2
loop_
 _symmetry_equiv_pos_site_id
 _symmetry_equiv_pos_as_xyz
  1  'x, y, z'
loop_
 _atom_site_type_symbol
 _atom_site_label
 _atom_site_symmetry_multiplicity
 _atom_site_fract_x
 _atom_site_fract_y
 _atom_site_fract_z
 _atom_site_occupancy
  Li  Li0  1  0.57198600  0.64429200  0.79362700  1
  Li  Li1  1  0.42801400  0.35570800  0.20637300  1
  V  V2  1  0.00000000  0.50000000  0.00000000  1
  V  V3  1  0.50000000  0.00000000  0.50000000  1
  Fe  Fe4  1  0.00000000  0.00000000  0.00000000  1
  Fe  Fe5  1  0.50000000  0.50000000  0.50000000  1
  P  P6  1  0.49899800  0.04544800  0.82163700  1
  P  P7  1  0.99719000  0.44678300  0.67734000  1
  P  P8  1  0.00281000  0.55321700  0.32266000  1
  P  P9  1  0.50100200  0.95455200  0.17836300  1
  H  H10  1  0.32141200  0.31721000  0.96751900  1
  H  H11  1  0.16656000  0.17431100  0.51487900  1
  H  H12  1  0.83344000  0.82568900  0.48512100  1
  H  H13  1  0.67858800  0.68279000  0.03248100  1
  O  O14  1  0.81925000  0.69065400  0.97662500  1
  O  O15  1  0.64517300  0.27962800  0.90293800  1
  O  O16  1  0.12384900  0.48308400  0.82880800  1
  O  O17  1  0.24791700  0.95618900  0.87968100  1
  O  O18  1  0.70732500  0.94312300  0.83585200  1
  O  O19  1  0.77748000  0.54010800  0.66884100  1
  O  O20  1  0.25394400  0.55168100  0.62529200  1
  O  O21  1  0.39524800  0.01970100  0.67199900  1
  O  O22  1  0.87278800  0.21679000  0.59566000  1
  O  O23  1  0.34368800  0.20123800  0.48410400  1
  O  O24  1  0.65631200  0.79876200  0.51589600  1
  O  O25  1  0.12721200  0.78321000  0.40434000  1
  O  O26  1  0.60475200  0.98029900  0.32800100  1
  O  O27  1  0.74605600  0.44831900  0.37470800  1
  O  O28  1  0.22252000  0.45989200  0.33115900  1
  O  O29  1  0.29267500  0.05687700  0.16414800  1
  O  O30  1  0.75208300  0.04381100  0.12031900  1
  O  O31  1  0.87615100  0.51691600  0.17119200  1
  O  O32  1  0.35482700  0.72037200  0.09706200  1
  O  O33  1  0.18075000  0.30934600  0.02337500  1
