# generated using pymatgen
data_Li2Mn3(BO3)3
_symmetry_space_group_name_H-M   'P 1'
_cell_length_a   6.30120900
_cell_length_b   8.16399295
_cell_length_c   8.72027580
_cell_angle_alpha   117.53234032
_cell_angle_beta   108.88942875
_cell_angle_gamma   90.89181990
_symmetry_Int_Tables_number   1
_chemical_formula_structural   Li2Mn3(BO3)3
_chemical_formula_sum   'Li4 Mn6 B6 O18'
_cell_volume   369.00113251
_cell_formula_units_Z   2
loop_
 _symmetry_equiv_pos_site_id
 _symmetry_equiv_pos_as_xyz
  1  'x, y, z'
loop_
 _atom_site_type_symbol
 _atom_site_label
 _atom_site_symmetry_multiplicity
 _atom_site_fract_x
 _atom_site_fract_y
 _atom_site_fract_z
 _atom_site_occupancy
  Li  Li0  1  0.58762000  0.02001300  0.71959100  1
  Li  Li1  1  0.87897800  0.27983200  0.30151100  1
  Li  Li2  1  0.74029000  0.69166900  0.98236300  1
  Li  Li3  1  0.25415200  0.69260300  0.97896500  1
  Mn  Mn4  1  0.85841300  0.69412500  0.65484400  1
  Mn  Mn5  1  0.32643200  0.61823400  0.59722700  1
  Mn  Mn6  1  0.49067100  0.36666500  0.01790600  1
  Mn  Mn7  1  0.99477500  0.33538200  0.00300400  1
  Mn  Mn8  1  0.67744500  0.99798200  0.37680500  1
  Mn  Mn9  1  0.16892700  0.00320700  0.35481100  1
  B  B10  1  0.58784000  0.34349300  0.67950800  1
  B  B11  1  0.07958700  0.34361200  0.66390900  1
  B  B12  1  0.99081200  0.99114300  0.00069200  1
  B  B13  1  0.50349400  0.98245600  0.99485200  1
  B  B14  1  0.92601000  0.66158400  0.33093800  1
  B  B15  1  0.41515800  0.67521500  0.33029200  1
  O  O16  1  0.90921100  0.04240100  0.86403600  1
  O  O17  1  0.45773900  0.08497100  0.90482700  1
  O  O18  1  0.51628800  0.14813900  0.55990900  1
  O  O19  1  0.98013900  0.15563300  0.53445800  1
  O  O20  1  0.68717300  0.41018500  0.86842600  1
  O  O21  1  0.17772300  0.40792400  0.85052700  1
  O  O22  1  0.07051300  0.12165500  0.18651900  1
  O  O23  1  0.60449800  0.07853600  0.18897700  1
  O  O24  1  0.07233400  0.46395700  0.58923100  1
  O  O25  1  0.56389300  0.46905900  0.61173400  1
  O  O26  1  0.98366400  0.79843400  0.94049500  1
  O  O27  1  0.45907300  0.78625500  0.89512500  1
  O  O28  1  0.83188800  0.47237900  0.22534300  1
  O  O29  1  0.31830300  0.49094900  0.21426400  1
  O  O30  1  0.07788700  0.73940700  0.51741200  1
  O  O31  1  0.52585900  0.74705900  0.52330000  1
  O  O32  1  0.87180400  0.78546400  0.26246300  1
  O  O33  1  0.40324300  0.80036800  0.25940500  1
