# generated using pymatgen
data_Li3V3P8O29
_symmetry_space_group_name_H-M   'P 1'
_cell_length_a   9.71697500
_cell_length_b   9.77936480
_cell_length_c   14.34837190
_cell_angle_alpha   90.90551988
_cell_angle_beta   90.08477945
_cell_angle_gamma   119.78097795
_symmetry_Int_Tables_number   1
_chemical_formula_structural   Li3V3P8O29
_chemical_formula_sum   'Li6 V6 P16 O58'
_cell_volume   1183.17755057
_cell_formula_units_Z   2
loop_
 _symmetry_equiv_pos_site_id
 _symmetry_equiv_pos_as_xyz
  1  'x, y, z'
loop_
 _atom_site_type_symbol
 _atom_site_label
 _atom_site_symmetry_multiplicity
 _atom_site_fract_x
 _atom_site_fract_y
 _atom_site_fract_z
 _atom_site_occupancy
  Li  Li0  1  0.77383600  0.67897300  0.94357200  1
  Li  Li1  1  0.09731300  0.32961000  0.55384800  1
  Li  Li2  1  0.90514000  0.67167300  0.43511300  1
  Li  Li3  1  0.33778900  0.67327700  0.90431100  1
  Li  Li4  1  0.04757700  0.06295500  0.01089400  1
  Li  Li5  1  0.99615900  0.99951100  0.48277600  1
  V  V6  1  0.99411800  0.42906900  0.75340900  1
  V  V7  1  0.00281100  0.56270400  0.24428100  1
  V  V8  1  0.43724700  0.43230500  0.24974900  1
  V  V9  1  0.56341200  0.56630700  0.74635000  1
  V  V10  1  0.43620900  0.00020900  0.74681200  1
  V  V11  1  0.56021600  0.00188400  0.25357300  1
  P  P12  1  0.29870300  0.07976600  0.15893000  1
  P  P13  1  0.30284500  0.21932200  0.66243500  1
  P  P14  1  0.78021200  0.07716500  0.65824000  1
  P  P15  1  0.66339700  0.33567100  0.86813500  1
  P  P16  1  0.67190700  0.34030100  0.36717300  1
  P  P17  1  0.90866400  0.21282600  0.16278500  1
  P  P18  1  0.08956400  0.31383900  0.34159800  1
  P  P19  1  0.77298700  0.68495700  0.15525600  1
  P  P20  1  0.22342000  0.31103500  0.84516000  1
  P  P21  1  0.91264100  0.68246400  0.65505100  1
  P  P22  1  0.09149200  0.78167700  0.83385100  1
  P  P23  1  0.32596400  0.66090100  0.63243000  1
  P  P24  1  0.33762900  0.66584100  0.13499700  1
  P  P25  1  0.21456200  0.91596300  0.34187900  1
  P  P26  1  0.69608700  0.78313100  0.33518500  1
  P  P27  1  0.69502800  0.91475700  0.84241100  1
  O  O28  1  0.18215000  0.98649100  0.42523400  1
  O  O29  1  0.34511000  0.08556500  0.66726300  1
  O  O30  1  0.20431700  0.22253600  0.93062400  1
  O  O31  1  0.34688300  0.25743400  0.17158900  1
  O  O32  1  0.45336300  0.07143100  0.17190500  1
  O  O33  1  0.52579200  0.18460700  0.82004500  1
  O  O34  1  0.61717700  0.07094900  0.67229200  1
  O  O35  1  0.79012700  0.99149100  0.92698600  1
  O  O36  1  0.73233800  0.08435900  0.17116000  1
  O  O37  1  0.52380100  0.33891200  0.32147400  1
  O  O38  1  0.46014300  0.37994200  0.67534800  1
  O  O39  1  0.66635000  0.19003500  0.32222900  1
  O  O40  1  0.67168700  0.34301700  0.97100700  1
  O  O41  1  0.67559600  0.34954700  0.47052500  1
  O  O42  1  0.81699600  0.34361400  0.82269900  1
  O  O43  1  0.61713600  0.52919500  0.17127100  1
  O  O44  1  0.65914500  0.48063200  0.82613000  1
  O  O45  1  0.91374500  0.25527600  0.66851300  1
  O  O46  1  0.98997900  0.19575400  0.25755800  1
  O  O47  1  0.02546100  0.23563700  0.43230200  1
  O  O48  1  0.98860700  0.19411600  0.08055600  1
  O  O49  1  0.91803400  0.37744800  0.17245900  1
  O  O50  1  0.81996200  0.48770000  0.32529800  1
  O  O51  1  0.08568500  0.34979500  0.83112100  1
  O  O52  1  0.91307000  0.52812000  0.67563700  1
  O  O53  1  0.74074300  0.65245700  0.67338900  1
  O  O54  1  0.20481200  0.20073200  0.75593600  1
  O  O55  1  0.20472500  0.20905000  0.58046400  1
  O  O56  1  0.80844700  0.80522500  0.41288500  1
  O  O57  1  0.26319700  0.35144200  0.32882600  1
  O  O58  1  0.08437900  0.46758900  0.32639700  1
  O  O59  1  0.91250300  0.65096500  0.17093100  1
  O  O60  1  0.17941200  0.51070600  0.67223900  1
  O  O61  1  0.10214600  0.62670600  0.82605600  1
  O  O62  1  0.99378400  0.78456500  0.91211900  1
  O  O63  1  0.96965300  0.75030600  0.56216500  1
  O  O64  1  0.01977200  0.80339500  0.73626100  1
  O  O65  1  0.08658800  0.73678900  0.33320100  1
  O  O66  1  0.34002600  0.52160200  0.17645200  1
  O  O67  1  0.37679800  0.47268400  0.83251600  1
  O  O68  1  0.18402700  0.66159400  0.17501100  1
  O  O69  1  0.33652700  0.66585400  0.03113000  1
  O  O70  1  0.32928600  0.65551600  0.52943100  1
  O  O71  1  0.32976800  0.80987400  0.67843700  1
  O  O72  1  0.54461100  0.62007500  0.32875800  1
  O  O73  1  0.47476600  0.66205800  0.68102100  1
  O  O74  1  0.26566300  0.91939200  0.83379100  1
  O  O75  1  0.19310600  0.99496700  0.24916000  1
  O  O76  1  0.20189100  0.01005800  0.07349300  1
  O  O77  1  0.38098600  0.92988700  0.33283900  1
  O  O78  1  0.47825800  0.81472900  0.18067100  1
  O  O79  1  0.53151400  0.90826700  0.82880000  1
  O  O80  1  0.65277500  0.73616100  0.83611800  1
  O  O81  1  0.78572200  0.75897100  0.06397100  1
  O  O82  1  0.79042700  0.80468400  0.23788400  1
  O  O83  1  0.65055800  0.91445800  0.33370200  1
  O  O84  1  0.80506900  0.00717300  0.57259300  1
  O  O85  1  0.79741000  0.99346700  0.74987100  1
