# generated using pymatgen
data_Li2Fe7(OF2)4
_symmetry_space_group_name_H-M   'P 1'
_cell_length_a   11.08669060
_cell_length_b   11.08669060
_cell_length_c   6.35540717
_cell_angle_alpha   73.61499293
_cell_angle_beta   73.61499293
_cell_angle_gamma   45.36547320
_symmetry_Int_Tables_number   1
_chemical_formula_structural   Li2Fe7(OF2)4
_chemical_formula_sum   'Li4 Fe14 O8 F16'
_cell_volume   529.26674888
_cell_formula_units_Z   2
loop_
 _symmetry_equiv_pos_site_id
 _symmetry_equiv_pos_as_xyz
  1  'x, y, z'
loop_
 _atom_site_type_symbol
 _atom_site_label
 _atom_site_symmetry_multiplicity
 _atom_site_fract_x
 _atom_site_fract_y
 _atom_site_fract_z
 _atom_site_occupancy
  Li  Li0  1  0.99591000  0.49575900  0.98214400  1
  Li  Li1  1  0.49575900  0.99591000  0.48214400  1
  Li  Li2  1  0.14170800  0.85012400  0.26112500  1
  Li  Li3  1  0.85012400  0.14170800  0.76112500  1
  Fe  Fe4  1  0.32009100  0.34388300  0.66945800  1
  Fe  Fe5  1  0.50298200  0.51807100  0.48676200  1
  Fe  Fe6  1  0.69510300  0.14064200  0.29533800  1
  Fe  Fe7  1  0.97475900  0.67554700  0.45059200  1
  Fe  Fe8  1  0.85048800  0.31663700  0.12899000  1
  Fe  Fe9  1  0.30755900  0.01980100  0.10113300  1
  Fe  Fe10  1  0.34388300  0.32009100  0.16945800  1
  Fe  Fe11  1  0.51807100  0.50298200  0.98676200  1
  Fe  Fe12  1  0.67228000  0.64241300  0.83103500  1
  Fe  Fe13  1  0.67554700  0.97475900  0.95059200  1
  Fe  Fe14  1  0.31663700  0.85048800  0.62899000  1
  Fe  Fe15  1  0.14064200  0.69510300  0.79533800  1
  Fe  Fe16  1  0.01980100  0.30755900  0.60113300  1
  Fe  Fe17  1  0.64241300  0.67228000  0.33103500  1
  O  O18  1  0.08838800  0.57038700  0.71201000  1
  O  O19  1  0.26064500  0.73273300  0.52774400  1
  O  O20  1  0.60133300  0.57017400  0.16816500  1
  O  O21  1  0.57038700  0.08838800  0.21201000  1
  O  O22  1  0.92287500  0.41463100  0.86444900  1
  O  O23  1  0.73273300  0.26064500  0.02774400  1
  O  O24  1  0.57017400  0.60133300  0.66816500  1
  O  O25  1  0.41463100  0.92287500  0.36444900  1
  F  F26  1  0.56934100  0.09788700  0.65560300  1
  F  F27  1  0.93472400  0.88922800  0.33179500  1
  F  F28  1  0.41791100  0.40474900  0.34488700  1
  F  F29  1  0.09451200  0.05980700  0.15500000  1
  F  F30  1  0.24933000  0.26351500  0.49649200  1
  F  F31  1  0.73220600  0.74661600  0.00069100  1
  F  F32  1  0.26371200  0.72947800  0.98431400  1
  F  F33  1  0.09788700  0.56934100  0.15560300  1
  F  F34  1  0.41884700  0.91845300  0.80943600  1
  F  F35  1  0.74661600  0.73220600  0.50069100  1
  F  F36  1  0.40474900  0.41791100  0.84488700  1
  F  F37  1  0.26351500  0.24933000  0.99649200  1
  F  F38  1  0.88922800  0.93472400  0.83179500  1
  F  F39  1  0.05980700  0.09451200  0.65500000  1
  F  F40  1  0.72947800  0.26371200  0.48431400  1
  F  F41  1  0.91845300  0.41884700  0.30943600  1
