# generated using pymatgen
data_LiNiPO4
_symmetry_space_group_name_H-M   'P 1'
_cell_length_a   4.97543751
_cell_length_b   8.26209900
_cell_length_c   8.62598110
_cell_angle_alpha   100.06478787
_cell_angle_beta   90.04942512
_cell_angle_gamma   107.53285691
_symmetry_Int_Tables_number   1
_chemical_formula_structural   LiNiPO4
_chemical_formula_sum   'Li4 Ni4 P4 O16'
_cell_volume   332.37560311
_cell_formula_units_Z   4
loop_
 _symmetry_equiv_pos_site_id
 _symmetry_equiv_pos_as_xyz
  1  'x, y, z'
loop_
 _atom_site_type_symbol
 _atom_site_label
 _atom_site_symmetry_multiplicity
 _atom_site_fract_x
 _atom_site_fract_y
 _atom_site_fract_z
 _atom_site_occupancy
  Li  Li0  1  0.65137300  0.30307500  0.21736200  1
  Li  Li1  1  0.15118600  0.30299700  0.71742200  1
  Li  Li2  1  0.71185100  0.42353700  0.57043700  1
  Li  Li3  1  0.21171600  0.42349700  0.07050900  1
  Ni  Ni4  1  0.02232200  0.04515400  0.00753400  1
  Ni  Ni5  1  0.84070300  0.68137700  0.28050800  1
  Ni  Ni6  1  0.52196800  0.04516500  0.50755600  1
  Ni  Ni7  1  0.34075300  0.68137100  0.78044600  1
  P  P8  1  0.30101100  0.60124000  0.43362600  1
  P  P9  1  0.80088900  0.60122100  0.93365700  1
  P  P10  1  0.06248100  0.12538500  0.35416600  1
  P  P11  1  0.56246200  0.12527600  0.85417000  1
  O  O12  1  0.40116500  0.79955600  0.46661100  1
  O  O13  1  0.90099700  0.79947800  0.96646300  1
  O  O14  1  0.46358100  0.92710600  0.82070200  1
  O  O15  1  0.96368500  0.92713600  0.32073300  1
  O  O16  1  0.43822400  0.53612300  0.28225600  1
  O  O17  1  0.93828700  0.53615000  0.78234100  1
  O  O18  1  0.39111700  0.19075000  0.37984800  1
  O  O19  1  0.89105400  0.19049600  0.87989500  1
  O  O20  1  0.97253600  0.53632600  0.40804300  1
  O  O21  1  0.47249700  0.53621800  0.90798800  1
  O  O22  1  0.92429700  0.19018100  0.50520800  1
  O  O23  1  0.42465700  0.19009700  0.00539400  1
  O  O24  1  0.96941600  0.19047100  0.20972700  1
  O  O25  1  0.46924400  0.19049400  0.70990200  1
  O  O26  1  0.39317200  0.53560700  0.57798600  1
  O  O27  1  0.89294300  0.53568800  0.07803600  1
