# generated using pymatgen
data_Li2Mn(BO2)5
_symmetry_space_group_name_H-M   'P 1'
_cell_length_a   15.45550400
_cell_length_b   7.13067000
_cell_length_c   7.25072088
_cell_angle_alpha   86.00981231
_cell_angle_beta   90.00000000
_cell_angle_gamma   90.00000000
_symmetry_Int_Tables_number   1
_chemical_formula_structural   Li2Mn(BO2)5
_chemical_formula_sum   'Li8 Mn4 B20 O40'
_cell_volume   797.15115813
_cell_formula_units_Z   4
loop_
 _symmetry_equiv_pos_site_id
 _symmetry_equiv_pos_as_xyz
  1  'x, y, z'
loop_
 _atom_site_type_symbol
 _atom_site_label
 _atom_site_symmetry_multiplicity
 _atom_site_fract_x
 _atom_site_fract_y
 _atom_site_fract_z
 _atom_site_occupancy
  Li  Li0  1  0.83130000  0.00739600  0.09733200  1
  Li  Li1  1  0.66870000  0.50739600  0.09733200  1
  Li  Li2  1  0.07525800  0.41027200  0.31268000  1
  Li  Li3  1  0.42474200  0.91027200  0.31268000  1
  Li  Li4  1  0.57525800  0.08972800  0.68732000  1
  Li  Li5  1  0.92474200  0.58972800  0.68732000  1
  Li  Li6  1  0.33130000  0.49260400  0.90266800  1
  Li  Li7  1  0.16870000  0.99260400  0.90266800  1
  Mn  Mn8  1  0.87619400  0.47219700  0.15856600  1
  Mn  Mn9  1  0.62380600  0.97219700  0.15856600  1
  Mn  Mn10  1  0.37619400  0.02780300  0.84143400  1
  Mn  Mn11  1  0.12380600  0.52780300  0.84143400  1
  B  B12  1  0.97615200  0.09538900  0.19790900  1
  B  B13  1  0.52384800  0.59538900  0.19790900  1
  B  B14  1  0.22543400  0.48478400  0.21600500  1
  B  B15  1  0.27456600  0.98478400  0.21600500  1
  B  B16  1  0.49796000  0.26176900  0.26088000  1
  B  B17  1  0.00204000  0.76176900  0.26088000  1
  B  B18  1  0.37988800  0.49074200  0.32182500  1
  B  B19  1  0.12011200  0.99074200  0.32182500  1
  B  B20  1  0.74294800  0.51535700  0.45597300  1
  B  B21  1  0.75705200  0.01535700  0.45597300  1
  B  B22  1  0.24294800  0.98464300  0.54402700  1
  B  B23  1  0.25705200  0.48464300  0.54402700  1
  B  B24  1  0.87988800  0.00925800  0.67817500  1
  B  B25  1  0.62011200  0.50925800  0.67817500  1
  B  B26  1  0.99796000  0.23823100  0.73912000  1
  B  B27  1  0.50204000  0.73823100  0.73912000  1
  B  B28  1  0.72543400  0.01521600  0.78399500  1
  B  B29  1  0.77456600  0.51521600  0.78399500  1
  B  B30  1  0.47615200  0.40461100  0.80209100  1
  B  B31  1  0.02384800  0.90461100  0.80209100  1
  O  O32  1  0.16090900  0.48029600  0.09043500  1
  O  O33  1  0.33909100  0.98029600  0.09043500  1
  O  O34  1  0.91704100  0.22325800  0.13148700  1
  O  O35  1  0.58295900  0.72325800  0.13148700  1
  O  O36  1  0.18880400  0.00823600  0.17204500  1
  O  O37  1  0.54910900  0.40683800  0.17664200  1
  O  O38  1  0.31119600  0.50823600  0.17204500  1
  O  O39  1  0.95089100  0.90683800  0.17664200  1
  O  O40  1  0.52706000  0.07856200  0.27804300  1
  O  O41  1  0.97294000  0.57856200  0.27804300  1
  O  O42  1  0.76850400  0.52377100  0.27407700  1
  O  O43  1  0.05334900  0.13863100  0.27748600  1
  O  O44  1  0.73149600  0.02377100  0.27407700  1
  O  O45  1  0.44665100  0.63863100  0.27748600  1
  O  O46  1  0.41862700  0.30261800  0.32708200  1
  O  O47  1  0.08137300  0.80261800  0.32708200  1
  O  O48  1  0.19777100  0.45768900  0.40174200  1
  O  O49  1  0.30222900  0.95768900  0.40174200  1
  O  O50  1  0.65861900  0.47938100  0.49855700  1
  O  O51  1  0.15861900  0.02061900  0.50144300  1
  O  O52  1  0.84138100  0.97938100  0.49855700  1
  O  O53  1  0.34138100  0.52061900  0.50144300  1
  O  O54  1  0.69777100  0.04231100  0.59825800  1
  O  O55  1  0.80222900  0.54231100  0.59825800  1
  O  O56  1  0.91862700  0.19738200  0.67291800  1
  O  O57  1  0.58137300  0.69738200  0.67291800  1
  O  O58  1  0.55334900  0.36136900  0.72251400  1
  O  O59  1  0.26850400  0.97622900  0.72592300  1
  O  O60  1  0.94665100  0.86136900  0.72251400  1
  O  O61  1  0.23149600  0.47622900  0.72592300  1
  O  O62  1  0.02706000  0.42143800  0.72195700  1
  O  O63  1  0.47294000  0.92143800  0.72195700  1
  O  O64  1  0.04910900  0.09316200  0.82335800  1
  O  O65  1  0.68880400  0.49176400  0.82795500  1
  O  O66  1  0.45089100  0.59316200  0.82335800  1
  O  O67  1  0.81119600  0.99176400  0.82795500  1
  O  O68  1  0.41704100  0.27674200  0.86851300  1
  O  O69  1  0.08295900  0.77674200  0.86851300  1
  O  O70  1  0.66090900  0.01970400  0.90956500  1
  O  O71  1  0.83909100  0.51970400  0.90956500  1
