# generated using pymatgen
data_Li2VPO5
_symmetry_space_group_name_H-M   'P 1'
_cell_length_a   7.23706100
_cell_length_b   7.28010113
_cell_length_c   7.90983412
_cell_angle_alpha   91.46371595
_cell_angle_beta   89.69364440
_cell_angle_gamma   116.36222354
_symmetry_Int_Tables_number   1
_chemical_formula_structural   Li2VPO5
_chemical_formula_sum   'Li8 V4 P4 O20'
_cell_volume   373.27238165
_cell_formula_units_Z   4
loop_
 _symmetry_equiv_pos_site_id
 _symmetry_equiv_pos_as_xyz
  1  'x, y, z'
loop_
 _atom_site_type_symbol
 _atom_site_label
 _atom_site_symmetry_multiplicity
 _atom_site_fract_x
 _atom_site_fract_y
 _atom_site_fract_z
 _atom_site_occupancy
  Li  Li0  1  0.15858600  0.68925300  0.55674900  1
  Li  Li1  1  0.72661800  0.85136700  0.93917400  1
  Li  Li2  1  0.37079400  0.53824500  0.71867800  1
  Li  Li3  1  0.17061800  0.42865800  0.04972200  1
  Li  Li4  1  0.80076300  0.55966300  0.96200200  1
  Li  Li5  1  0.29374500  0.17095600  0.06401000  1
  Li  Li6  1  0.84366300  0.35121500  0.43957100  1
  Li  Li7  1  0.50184600  0.00926300  0.47781600  1
  V  V8  1  0.50444900  0.73476000  0.24675000  1
  V  V9  1  0.01132100  0.77045200  0.25241600  1
  V  V10  1  0.98331700  0.22612000  0.74468200  1
  V  V11  1  0.49455500  0.24135100  0.74999200  1
  P  P12  1  0.24600600  0.77854100  0.89377700  1
  P  P13  1  0.75790800  0.72731600  0.60400800  1
  P  P14  1  0.24170300  0.26847100  0.39743900  1
  P  P15  1  0.75324500  0.22535300  0.10899300  1
  O  O16  1  0.14170400  0.87090100  0.01373000  1
  O  O17  1  0.33981300  0.91701000  0.73939400  1
  O  O18  1  0.26810200  0.77315400  0.33482500  1
  O  O19  1  0.41282000  0.73442500  0.98464800  1
  O  O20  1  0.58397800  0.74826400  0.50647100  1
  O  O21  1  0.08508400  0.56512300  0.81971600  1
  O  O22  1  0.89952500  0.92796400  0.69925600  1
  O  O23  1  0.74636700  0.72268100  0.14756900  1
  O  O24  1  0.13305500  0.36452200  0.51831800  1
  O  O25  1  0.65322700  0.57196700  0.75013800  1
  O  O26  1  0.33617300  0.41386500  0.24479800  1
  O  O27  1  0.88308400  0.64881400  0.48934500  1
  O  O28  1  0.25846500  0.28528100  0.84321600  1
  O  O29  1  0.08610400  0.06435800  0.31696900  1
  O  O30  1  0.91537400  0.43902200  0.17929000  1
  O  O31  1  0.40955800  0.23996400  0.49732100  1
  O  O32  1  0.58919000  0.25976000  0.00572600  1
  O  O33  1  0.73325200  0.22307900  0.65845700  1
  O  O34  1  0.65762300  0.07877100  0.25695000  1
  O  O35  1  0.87058500  0.14302300  0.98919300  1
