# generated using pymatgen
data_LiVP2HO8
_symmetry_space_group_name_H-M   'P 1'
_cell_length_a   7.78885600
_cell_length_b   7.96969614
_cell_length_c   9.75459227
_cell_angle_alpha   90.42914438
_cell_angle_beta   112.40990388
_cell_angle_gamma   89.89205402
_symmetry_Int_Tables_number   1
_chemical_formula_structural   LiVP2HO8
_chemical_formula_sum   'Li4 V4 P8 H4 O32'
_cell_volume   559.77014034
_cell_formula_units_Z   4
loop_
 _symmetry_equiv_pos_site_id
 _symmetry_equiv_pos_as_xyz
  1  'x, y, z'
loop_
 _atom_site_type_symbol
 _atom_site_label
 _atom_site_symmetry_multiplicity
 _atom_site_fract_x
 _atom_site_fract_y
 _atom_site_fract_z
 _atom_site_occupancy
  Li  Li0  1  0.34859700  0.36741700  0.22759400  1
  Li  Li1  1  0.14975800  0.87177900  0.27298800  1
  Li  Li2  1  0.65431300  0.63649700  0.77708400  1
  Li  Li3  1  0.34560000  0.36613100  0.72901400  1
  V  V4  1  0.98600600  0.49701100  0.24756800  1
  V  V5  1  0.51372400  0.99694900  0.25356600  1
  V  V6  1  0.99772200  0.50173900  0.74890000  1
  V  V7  1  0.50430900  0.00289600  0.75066100  1
  P  P8  1  0.76920900  0.84699500  0.06864900  1
  P  P9  1  0.26157000  0.65134800  0.06868800  1
  P  P10  1  0.73157500  0.35030100  0.43173600  1
  P  P11  1  0.77231300  0.85465300  0.57022100  1
  P  P12  1  0.23511600  0.15430200  0.43139200  1
  P  P13  1  0.26115800  0.65917100  0.56564200  1
  P  P14  1  0.73343200  0.34780700  0.93207300  1
  P  P15  1  0.23508000  0.15192000  0.93068500  1
  H  H16  1  0.48865300  0.50944000  0.01225000  1
  H  H17  1  0.49016400  0.51017400  0.50935500  1
  H  H18  1  0.00424700  0.00283800  0.49572600  1
  H  H19  1  0.01271200  0.01168800  0.98579200  1
  O  O20  1  0.94725500  0.94135000  0.09483800  1
  O  O21  1  0.85943500  0.33145700  0.09828200  1
  O  O22  1  0.81385900  0.67131600  0.13899000  1
  O  O23  1  0.64734000  0.94296200  0.14146300  1
  O  O24  1  0.44102700  0.54787500  0.09645400  1
  O  O25  1  0.35512200  0.17394200  0.09857600  1
  O  O26  1  0.30948200  0.82460900  0.14264000  1
  O  O27  1  0.15423700  0.54856400  0.14625700  1
  O  O28  1  0.84937900  0.44616300  0.35731900  1
  O  O29  1  0.68796900  0.17341200  0.36431900  1
  O  O30  1  0.63825200  0.83280200  0.40492500  1
  O  O31  1  0.55179600  0.44417300  0.40654100  1
  O  O32  1  0.34818300  0.05210000  0.35566400  1
  O  O33  1  0.18722700  0.32604600  0.35387000  1
  O  O34  1  0.94919400  0.94647800  0.58866800  1
  O  O35  1  0.85999100  0.34517600  0.59893400  1
  O  O36  1  0.14444600  0.67547400  0.39817200  1
  O  O37  1  0.06048900  0.05009300  0.40625800  1
  O  O38  1  0.81380900  0.68034400  0.64875800  1
  O  O39  1  0.65316700  0.94796600  0.64699300  1
  O  O40  1  0.44624100  0.55688900  0.59524500  1
  O  O41  1  0.35824200  0.17862000  0.59875000  1
  O  O42  1  0.31925900  0.82907200  0.64108800  1
  O  O43  1  0.15864000  0.54891200  0.63995300  1
  O  O44  1  0.84108600  0.45388900  0.85664600  1
  O  O45  1  0.68552500  0.17290500  0.86173300  1
  O  O46  1  0.64243700  0.82745000  0.90147700  1
  O  O47  1  0.55356200  0.44771500  0.90412300  1
  O  O48  1  0.35338300  0.05704300  0.85729600  1
  O  O49  1  0.18626300  0.32408400  0.85088400  1
  O  O50  1  0.14098400  0.66005400  0.90103300  1
  O  O51  1  0.05299900  0.05743000  0.90267900  1
