# generated using pymatgen
data_NaLi2V3O9
_symmetry_space_group_name_H-M   'P 1'
_cell_length_a   10.17544558
_cell_length_b   10.17544558
_cell_length_c   10.06577082
_cell_angle_alpha   73.19435534
_cell_angle_beta   73.19435534
_cell_angle_gamma   52.73533387
_symmetry_Int_Tables_number   1
_chemical_formula_structural   NaLi2V3O9
_chemical_formula_sum   'Na4 Li8 V12 O36'
_cell_volume   785.06371247
_cell_formula_units_Z   4
loop_
 _symmetry_equiv_pos_site_id
 _symmetry_equiv_pos_as_xyz
  1  'x, y, z'
loop_
 _atom_site_type_symbol
 _atom_site_label
 _atom_site_symmetry_multiplicity
 _atom_site_fract_x
 _atom_site_fract_y
 _atom_site_fract_z
 _atom_site_occupancy
  Na  Na0  1  0.46223200  0.20653900  0.16656100  1
  Na  Na1  1  0.20530500  0.79469500  0.00000000  1
  Na  Na2  1  0.79346100  0.53776800  0.83343900  1
  Na  Na3  1  0.12787700  0.87212300  0.50000000  1
  Li  Li4  1  0.49913000  0.83162200  0.33600200  1
  Li  Li5  1  0.85318000  0.48376300  0.33459900  1
  Li  Li6  1  0.83721300  0.83134500  0.16430300  1
  Li  Li7  1  0.83390200  0.16609800  0.00000000  1
  Li  Li8  1  0.16865500  0.16278700  0.83569700  1
  Li  Li9  1  0.51623700  0.14682000  0.66540100  1
  Li  Li10  1  0.16837800  0.50087000  0.66399800  1
  Li  Li11  1  0.50505600  0.49494400  0.50000000  1
  V  V12  1  0.10427700  0.08821400  0.19488800  1
  V  V13  1  0.56065900  0.91448200  0.97373500  1
  V  V14  1  0.08551800  0.43934100  0.02626500  1
  V  V15  1  0.41991300  0.77053600  0.69108300  1
  V  V16  1  0.24947400  0.22671700  0.47673700  1
  V  V17  1  0.77328300  0.75052600  0.52326300  1
  V  V18  1  0.22946400  0.58008700  0.30891700  1
  V  V19  1  0.75134400  0.10525900  0.36330600  1
  V  V20  1  0.58632000  0.55826700  0.14425900  1
  V  V21  1  0.91178600  0.89572300  0.80511200  1
  V  V22  1  0.44173300  0.41368000  0.85574100  1
  V  V23  1  0.89474100  0.24865600  0.63669400  1
  O  O24  1  0.57012200  0.72315900  0.00156900  1
  O  O25  1  0.38213700  0.07838000  0.91613400  1
  O  O26  1  0.28323500  0.92269200  0.24992400  1
  O  O27  1  0.62837800  0.57033400  0.28999500  1
  O  O28  1  0.09229400  0.28007100  0.17317400  1
  O  O29  1  0.92162000  0.61786300  0.08386600  1
  O  O30  1  0.58022300  0.94266500  0.12234700  1
  O  O31  1  0.27684100  0.42987800  0.99843100  1
  O  O32  1  0.93884400  0.91558400  0.95695100  1
  O  O33  1  0.05527900  0.24371300  0.49796800  1
  O  O34  1  0.75966200  0.71194200  0.37865700  1
  O  O35  1  0.40863400  0.04869000  0.41682100  1
  O  O36  1  0.23944700  0.38923100  0.33462000  1
  O  O37  1  0.72523600  0.08572600  0.21371500  1
  O  O38  1  0.25551000  0.94847800  0.74786400  1
  O  O39  1  0.05152200  0.74449000  0.25213600  1
  O  O40  1  0.91427400  0.27476400  0.78628500  1
  O  O41  1  0.39475700  0.56841000  0.17108900  1
  O  O42  1  0.61076900  0.76055300  0.66538000  1
  O  O43  1  0.08441600  0.06115600  0.04304900  1
  O  O44  1  0.95131000  0.59136600  0.58317900  1
  O  O45  1  0.74575100  0.38287000  0.08055400  1
  O  O46  1  0.28805800  0.24033800  0.62134300  1
  O  O47  1  0.75628700  0.94472100  0.50203200  1
  O  O48  1  0.58844200  0.28519400  0.41879200  1
  O  O49  1  0.24673100  0.60698400  0.46093900  1
  O  O50  1  0.94318500  0.09424300  0.33711500  1
  O  O51  1  0.05733500  0.41977700  0.87765300  1
  O  O52  1  0.71992900  0.90770600  0.82682600  1
  O  O53  1  0.42966600  0.37162200  0.71000500  1
  O  O54  1  0.07730800  0.71676500  0.75007600  1
  O  O55  1  0.90575700  0.05681500  0.66288500  1
  O  O56  1  0.39301600  0.75326900  0.53906100  1
  O  O57  1  0.71480600  0.41155800  0.58120800  1
  O  O58  1  0.61713000  0.25424900  0.91944600  1
  O  O59  1  0.43159000  0.60524300  0.82891100  1
