# generated using pymatgen
data_Li2VF6
_symmetry_space_group_name_H-M   'P 1'
_cell_length_a   8.58034300
_cell_length_b   8.69196214
_cell_length_c   10.25787897
_cell_angle_alpha   85.85522058
_cell_angle_beta   84.81389262
_cell_angle_gamma   61.67895871
_symmetry_Int_Tables_number   1
_chemical_formula_structural   Li2VF6
_chemical_formula_sum   'Li12 V6 F36'
_cell_volume   670.32678839
_cell_formula_units_Z   6
loop_
 _symmetry_equiv_pos_site_id
 _symmetry_equiv_pos_as_xyz
  1  'x, y, z'
loop_
 _atom_site_type_symbol
 _atom_site_label
 _atom_site_symmetry_multiplicity
 _atom_site_fract_x
 _atom_site_fract_y
 _atom_site_fract_z
 _atom_site_occupancy
  Li  Li0  1  0.30480600  0.98492700  0.72530300  1
  Li  Li1  1  0.94541100  0.65491500  0.43401800  1
  Li  Li2  1  0.87412300  0.45726000  0.95819500  1
  Li  Li3  1  0.20188200  0.80309300  0.24738900  1
  Li  Li4  1  0.99775600  0.72799500  0.77342800  1
  Li  Li5  1  0.66826800  0.37982200  0.46914200  1
  Li  Li6  1  0.62360600  0.33689100  0.02498400  1
  Li  Li7  1  0.12242200  0.56263800  0.04541000  1
  Li  Li8  1  0.55097700  0.09823000  0.54867800  1
  Li  Li9  1  0.05329500  0.34318500  0.56988600  1
  Li  Li10  1  0.70716700  0.00380800  0.26965900  1
  Li  Li11  1  0.35651900  0.04532600  0.06135500  1
  V  V12  1  0.00231400  0.00205500  0.49894900  1
  V  V13  1  0.66225000  0.66141700  0.71153900  1
  V  V14  1  0.98929200  0.00730200  0.99551600  1
  V  V15  1  0.66534900  0.66482700  0.20671600  1
  V  V16  1  0.33647800  0.33302300  0.79385300  1
  V  V17  1  0.33842100  0.33551800  0.29401400  1
  F  F18  1  0.92507500  0.92177100  0.64970500  1
  F  F19  1  0.92785600  0.93248200  0.16187100  1
  F  F20  1  0.57263500  0.88927000  0.62824600  1
  F  F21  1  0.58223800  0.88481600  0.11971800  1
  F  F22  1  0.77425900  0.72692200  0.82745800  1
  F  F23  1  0.75100300  0.76450700  0.32946500  1
  F  F24  1  0.21248000  0.94033800  0.57510200  1
  F  F25  1  0.89260200  0.58208400  0.60550400  1
  F  F26  1  0.44631200  0.75326600  0.80676400  1
  F  F27  1  0.21386700  0.92967200  0.07233300  1
  F  F28  1  0.88964200  0.58391100  0.10948600  1
  F  F29  1  0.44189300  0.74622100  0.28926200  1
  F  F30  1  0.59499000  0.57489900  0.58388300  1
  F  F31  1  0.06013900  0.77523500  0.93729600  1
  F  F32  1  0.75364400  0.44759900  0.81008100  1
  F  F33  1  0.61025000  0.55979000  0.07544400  1
  F  F34  1  0.07872800  0.77757200  0.42404100  1
  F  F35  1  0.74992300  0.46220300  0.31074300  1
  F  F36  1  0.23458200  0.54232100  0.70372300  1
  F  F37  1  0.90821800  0.23859500  0.54940700  1
  F  F38  1  0.41417400  0.41174000  0.92673600  1
  F  F39  1  0.24201800  0.55955400  0.20021900  1
  F  F40  1  0.90815500  0.23881300  0.04952900  1
  F  F41  1  0.43439800  0.40885000  0.41260700  1
  F  F42  1  0.54689100  0.24843000  0.68832500  1
  F  F43  1  0.10870500  0.42906900  0.89744800  1
  F  F44  1  0.76166500  0.08654600  0.94956000  1
  F  F45  1  0.56025600  0.24523000  0.19208100  1
  F  F46  1  0.12034700  0.41565100  0.39898800  1
  F  F47  1  0.76178600  0.08235600  0.43782900  1
  F  F48  1  0.25834500  0.23082400  0.66490200  1
  F  F49  1  0.25471700  0.25913300  0.16720600  1
  F  F50  1  0.39251600  0.12328600  0.88526200  1
  F  F51  1  0.43452000  0.11659500  0.38443400  1
  F  F52  1  0.08876500  0.05466500  0.84336700  1
  F  F53  1  0.07617000  0.05651500  0.34053800  1
