# generated using pymatgen
data_Li5Cr5O12
_symmetry_space_group_name_H-M   'P 1'
_cell_length_a   5.06849200
_cell_length_b   5.08697753
_cell_length_c   19.52609971
_cell_angle_alpha   87.81049538
_cell_angle_beta   94.56143081
_cell_angle_gamma   119.72295210
_symmetry_Int_Tables_number   1
_chemical_formula_structural   Li5Cr5O12
_chemical_formula_sum   'Li10 Cr10 O24'
_cell_volume   435.82506570
_cell_formula_units_Z   2
loop_
 _symmetry_equiv_pos_site_id
 _symmetry_equiv_pos_as_xyz
  1  'x, y, z'
loop_
 _atom_site_type_symbol
 _atom_site_label
 _atom_site_symmetry_multiplicity
 _atom_site_fract_x
 _atom_site_fract_y
 _atom_site_fract_z
 _atom_site_occupancy
  Li  Li0  1  0.15797100  0.82803100  0.50191000  1
  Li  Li1  1  0.09660500  0.17790700  0.24743200  1
  Li  Li2  1  0.86576700  0.49466400  0.62456400  1
  Li  Li3  1  0.65430000  0.82232200  0.00248900  1
  Li  Li4  1  0.91054100  0.82064600  0.74876000  1
  Li  Li5  1  0.23566200  0.49142600  0.74876100  1
  Li  Li6  1  0.37648400  0.50271100  0.12504100  1
  Li  Li7  1  0.83081000  0.17731500  0.50145100  1
  Li  Li8  1  0.41837300  0.82399300  0.24736600  1
  Li  Li9  1  0.33159100  0.17922000  0.00243700  1
  Cr  Cr10  1  0.62631200  0.49589700  0.87468500  1
  Cr  Cr11  1  0.95396900  0.16541800  0.87514100  1
  Cr  Cr12  1  0.29094500  0.83009400  0.87525800  1
  Cr  Cr13  1  0.21482900  0.17442200  0.62492400  1
  Cr  Cr14  1  0.55756700  0.84060700  0.62516500  1
  Cr  Cr15  1  0.12389500  0.49750600  0.37496300  1
  Cr  Cr16  1  0.45910700  0.16805100  0.37491300  1
  Cr  Cr17  1  0.78780800  0.82556700  0.37490000  1
  Cr  Cr18  1  0.70934100  0.16986800  0.12484800  1
  Cr  Cr19  1  0.04326000  0.83555900  0.12482900  1
  O  O20  1  0.61329600  0.83062100  0.82130100  1
  O  O21  1  0.64306700  0.15759600  0.92825100  1
  O  O22  1  0.30838900  0.49024600  0.92970900  1
  O  O23  1  0.49751400  0.13040000  0.57125200  1
  O  O24  1  0.24775900  0.87053000  0.67649900  1
  O  O25  1  0.12218100  0.84562800  0.32180000  1
  O  O26  1  0.53567700  0.52158200  0.67930800  1
  O  O27  1  0.14038600  0.15708000  0.42811100  1
  O  O28  1  0.80814200  0.49081900  0.42966700  1
  O  O29  1  0.99716800  0.11825500  0.06974400  1
  O  O30  1  0.94880200  0.49770700  0.82032900  1
  O  O31  1  0.25762200  0.16426000  0.82211800  1
  O  O32  1  0.20803200  0.48060000  0.57285400  1
  O  O33  1  0.75582000  0.88749100  0.18010800  1
  O  O34  1  0.97240900  0.84558900  0.92811900  1
  O  O35  1  0.86520300  0.87865300  0.56970200  1
  O  O36  1  0.04429500  0.50300500  0.17573600  1
  O  O37  1  0.91755800  0.14193000  0.68122700  1
  O  O38  1  0.43351000  0.49132400  0.32036100  1
  O  O39  1  0.76731800  0.15847300  0.32196000  1
  O  O40  1  0.70860800  0.50308600  0.07402000  1
  O  O41  1  0.47327100  0.84518200  0.42832300  1
  O  O42  1  0.38197400  0.88733800  0.06963000  1
  O  O43  1  0.37052500  0.11838300  0.18001500  1
