# generated using pymatgen
data_LiSnPO4
_symmetry_space_group_name_H-M   'P 1'
_cell_length_a   5.39672000
_cell_length_b   8.68467700
_cell_length_c   25.14235400
_cell_angle_alpha   90.00000000
_cell_angle_beta   90.00000000
_cell_angle_gamma   90.00000000
_symmetry_Int_Tables_number   1
_chemical_formula_structural   LiSnPO4
_chemical_formula_sum   'Li12 Sn12 P12 O48'
_cell_volume   1178.39120838
_cell_formula_units_Z   12
loop_
 _symmetry_equiv_pos_site_id
 _symmetry_equiv_pos_as_xyz
  1  'x, y, z'
loop_
 _atom_site_type_symbol
 _atom_site_label
 _atom_site_symmetry_multiplicity
 _atom_site_fract_x
 _atom_site_fract_y
 _atom_site_fract_z
 _atom_site_occupancy
  Li  Li0  1  0.74168300  0.92923300  0.09046700  1
  Li  Li1  1  0.22471600  0.41783900  0.07372100  1
  Li  Li2  1  0.73476600  0.58296100  0.25946600  1
  Li  Li3  1  0.23476600  0.08296100  0.24053400  1
  Li  Li4  1  0.72471600  0.91783900  0.42627900  1
  Li  Li5  1  0.24168300  0.42923300  0.40953300  1
  Li  Li6  1  0.74168300  0.57076700  0.59046700  1
  Li  Li7  1  0.22471600  0.08216100  0.57372100  1
  Li  Li8  1  0.73476600  0.91703900  0.75946600  1
  Li  Li9  1  0.23476600  0.41703900  0.74053400  1
  Li  Li10  1  0.72471600  0.58216100  0.92627900  1
  Li  Li11  1  0.24168300  0.07076700  0.90953300  1
  Sn  Sn12  1  0.74132800  0.25791100  0.98214100  1
  Sn  Sn13  1  0.21678400  0.75692000  0.18387400  1
  Sn  Sn14  1  0.75725300  0.24940000  0.14928400  1
  Sn  Sn15  1  0.25725300  0.74940000  0.35071600  1
  Sn  Sn16  1  0.71678400  0.25692000  0.31612600  1
  Sn  Sn17  1  0.24132800  0.75791100  0.51785900  1
  Sn  Sn18  1  0.74132800  0.24208900  0.48214100  1
  Sn  Sn19  1  0.21678400  0.74308000  0.68387400  1
  Sn  Sn20  1  0.75725300  0.25060000  0.64928400  1
  Sn  Sn21  1  0.25725300  0.75060000  0.85071600  1
  Sn  Sn22  1  0.71678400  0.24308000  0.81612600  1
  Sn  Sn23  1  0.24132800  0.74208900  0.01785900  1
  P  P24  1  0.72472500  0.58200700  0.06162300  1
  P  P25  1  0.25508200  0.08408600  0.10420900  1
  P  P26  1  0.72747700  0.92360300  0.22668700  1
  P  P27  1  0.22747700  0.42360300  0.27331300  1
  P  P28  1  0.75508200  0.58408600  0.39579100  1
  P  P29  1  0.22472500  0.08200700  0.43837700  1
  P  P30  1  0.72472500  0.91799300  0.56162300  1
  P  P31  1  0.25508200  0.41591400  0.60420900  1
  P  P32  1  0.72747700  0.57639700  0.72668700  1
  P  P33  1  0.22747700  0.07639700  0.77331300  1
  P  P34  1  0.75508200  0.91591400  0.89579100  1
  P  P35  1  0.22472500  0.41799300  0.93837700  1
  O  O36  1  0.69637600  0.54038600  0.00232200  1
  O  O37  1  0.37821400  0.95701200  0.07017400  1
  O  O38  1  0.41426800  0.23616000  0.09803600  1
  O  O39  1  0.98566600  0.11872800  0.08403400  1
  O  O40  1  0.88089000  0.73454600  0.06582800  1
  O  O41  1  0.45731900  0.60952900  0.08472000  1
  O  O42  1  0.86280800  0.45625800  0.09394100  1
  O  O43  1  0.24815900  0.04275500  0.16388400  1
  O  O44  1  0.74199300  0.96779200  0.16745400  1
  O  O45  1  0.09630800  0.54844400  0.23929500  1
  O  O46  1  0.49526900  0.39300900  0.25143400  1
  O  O47  1  0.07275700  0.26949100  0.26895400  1
  O  O48  1  0.57275700  0.76949100  0.23104600  1
  O  O49  1  0.99526900  0.89300900  0.24856600  1
  O  O50  1  0.59630800  0.04844400  0.26070500  1
  O  O51  1  0.24199300  0.46779200  0.33254600  1
  O  O52  1  0.74815900  0.54275500  0.33611600  1
  O  O53  1  0.36280800  0.95625800  0.40605900  1
  O  O54  1  0.95731900  0.10952900  0.41528000  1
  O  O55  1  0.38089000  0.23454600  0.43417200  1
  O  O56  1  0.48566600  0.61872800  0.41596600  1
  O  O57  1  0.91426800  0.73616000  0.40196400  1
  O  O58  1  0.87821400  0.45701200  0.42982600  1
  O  O59  1  0.19637600  0.04038600  0.49767800  1
  O  O60  1  0.69637600  0.95961400  0.50232200  1
  O  O61  1  0.37821400  0.54298800  0.57017400  1
  O  O62  1  0.41426800  0.26384000  0.59803600  1
  O  O63  1  0.98566600  0.38127200  0.58403400  1
  O  O64  1  0.88089000  0.76545400  0.56582800  1
  O  O65  1  0.45731900  0.89047100  0.58472000  1
  O  O66  1  0.86280800  0.04374200  0.59394100  1
  O  O67  1  0.24815900  0.45724500  0.66388400  1
  O  O68  1  0.74199300  0.53220800  0.66745400  1
  O  O69  1  0.09630800  0.95155600  0.73929500  1
  O  O70  1  0.49526900  0.10699100  0.75143400  1
  O  O71  1  0.07275700  0.23050900  0.76895400  1
  O  O72  1  0.57275700  0.73050900  0.73104600  1
  O  O73  1  0.99526900  0.60699100  0.74856600  1
  O  O74  1  0.59630800  0.45155600  0.76070500  1
  O  O75  1  0.24199300  0.03220800  0.83254600  1
  O  O76  1  0.74815900  0.95724500  0.83611600  1
  O  O77  1  0.36280800  0.54374200  0.90605900  1
  O  O78  1  0.95731900  0.39047100  0.91528000  1
  O  O79  1  0.38089000  0.26545400  0.93417200  1
  O  O80  1  0.48566600  0.88127200  0.91596600  1
  O  O81  1  0.91426800  0.76384000  0.90196400  1
  O  O82  1  0.87821400  0.04298800  0.92982600  1
  O  O83  1  0.19637600  0.45961400  0.99767800  1
