# generated using pymatgen
data_Li32Mn13Cr3O48
_symmetry_space_group_name_H-M   'P 1'
_cell_length_a   5.00142900
_cell_length_b   8.67823169
_cell_length_c   19.47028162
_cell_angle_alpha   98.34593722
_cell_angle_beta   94.77266626
_cell_angle_gamma   89.90202929
_symmetry_Int_Tables_number   1
_chemical_formula_structural   Li32Mn13Cr3O48
_chemical_formula_sum   'Li32 Mn13 Cr3 O48'
_cell_volume   833.18471068
_cell_formula_units_Z   1
loop_
 _symmetry_equiv_pos_site_id
 _symmetry_equiv_pos_as_xyz
  1  'x, y, z'
loop_
 _atom_site_type_symbol
 _atom_site_label
 _atom_site_symmetry_multiplicity
 _atom_site_fract_x
 _atom_site_fract_y
 _atom_site_fract_z
 _atom_site_occupancy
  Li  Li0  1  0.99158100  0.16830500  0.24941400  1
  Li  Li1  1  0.87533600  0.37443500  0.37513400  1
  Li  Li2  1  0.74941200  0.24979300  0.00007800  1
  Li  Li3  1  0.74366300  0.91998800  0.00052300  1
  Li  Li4  1  0.99449900  0.16761500  0.74970300  1
  Li  Li5  1  0.75586700  0.57967200  0.49992200  1
  Li  Li6  1  0.87557000  0.37561100  0.87518600  1
  Li  Li7  1  0.74985600  0.25146200  0.49985000  1
  Li  Li8  1  0.74415300  0.91921000  0.50053500  1
  Li  Li9  1  0.62477000  0.12511300  0.12500500  1
  Li  Li10  1  0.75530400  0.58041900  0.99972000  1
  Li  Li11  1  0.50715900  0.33163800  0.25042300  1
  Li  Li12  1  0.62217800  0.12468700  0.62519500  1
  Li  Li13  1  0.50036900  0.00047700  0.24994600  1
  Li  Li14  1  0.49401100  0.66824200  0.24987200  1
  Li  Li15  1  0.50569800  0.33218800  0.75031300  1
  Li  Li16  1  0.37680700  0.87423100  0.37484600  1
  Li  Li17  1  0.49833100  0.00016100  0.74984700  1
  Li  Li18  1  0.24946900  0.74973500  0.00001700  1
  Li  Li19  1  0.49421800  0.66790600  0.74991100  1
  Li  Li20  1  0.24459600  0.41914800  0.00016800  1
  Li  Li21  1  0.37702000  0.87458400  0.87487200  1
  Li  Li22  1  0.25724300  0.08152000  0.49928400  1
  Li  Li23  1  0.24950500  0.74980900  0.49998600  1
  Li  Li24  1  0.12480700  0.62503000  0.12498700  1
  Li  Li25  1  0.24329800  0.41840600  0.50003200  1
  Li  Li26  1  0.00605500  0.83150200  0.24994700  1
  Li  Li27  1  0.25700600  0.08102300  0.99985400  1
  Li  Li28  1  0.12443700  0.62441200  0.62480800  1
  Li  Li29  1  0.00010100  0.49996900  0.24991200  1
  Li  Li30  1  0.00627400  0.83186300  0.75030900  1
  Li  Li31  1  0.00111800  0.50057600  0.75030700  1
  Mn  Mn32  1  0.87324200  0.70696300  0.37450300  1
  Mn  Mn33  1  0.87326600  0.70767700  0.87437500  1
  Mn  Mn34  1  0.62554000  0.79134500  0.12501000  1
  Mn  Mn35  1  0.62472300  0.45848500  0.12500200  1
  Mn  Mn36  1  0.62623900  0.79146400  0.62500800  1
  Mn  Mn37  1  0.62339400  0.45962100  0.62439000  1
  Mn  Mn38  1  0.37493700  0.54173300  0.37507600  1
  Mn  Mn39  1  0.37564400  0.21013500  0.37556700  1
  Mn  Mn40  1  0.37476400  0.54158500  0.87499500  1
  Mn  Mn41  1  0.37580700  0.20968100  0.87557700  1
  Mn  Mn42  1  0.12463100  0.95843400  0.12495000  1
  Mn  Mn43  1  0.12563200  0.29153100  0.12494500  1
  Mn  Mn44  1  0.12651000  0.95746800  0.62564800  1
  Cr  Cr45  1  0.88004900  0.03976100  0.37500100  1
  Cr  Cr46  1  0.88067500  0.04163100  0.87483900  1
  Cr  Cr47  1  0.12032100  0.28991800  0.62505100  1
  O  O48  1  0.96373200  0.10640200  0.06895200  1
  O  O49  1  0.92811600  0.78504300  0.06902000  1
  O  O50  1  0.92752400  0.42738500  0.06811400  1
  O  O51  1  0.96782300  0.10688100  0.56901900  1
  O  O52  1  0.82206600  0.96503500  0.18113900  1
  O  O53  1  0.82261900  0.32261500  0.18202200  1
  O  O54  1  0.92813500  0.78503200  0.56894700  1
  O  O55  1  0.92307400  0.42949800  0.56734900  1
  O  O56  1  0.78661200  0.64340500  0.18100600  1
  O  O57  1  0.71196000  0.85337400  0.31856400  1
  O  O58  1  0.82222100  0.96535000  0.68094700  1
  O  O59  1  0.82547500  0.32424400  0.68183300  1
  O  O60  1  0.67798700  0.53445300  0.31901800  1
  O  O61  1  0.67556700  0.17708600  0.31790000  1
  O  O62  1  0.78670600  0.64371200  0.68081200  1
  O  O63  1  0.71229700  0.85349600  0.81827200  1
  O  O64  1  0.46369800  0.60651600  0.06903300  1
  O  O65  1  0.57139800  0.71516800  0.43107100  1
  O  O66  1  0.57262400  0.07386200  0.43211100  1
  O  O67  1  0.67804300  0.53408700  0.81888400  1
  O  O68  1  0.67682600  0.17583400  0.81796700  1
  O  O69  1  0.42758400  0.92725000  0.06806600  1
  O  O70  1  0.42839000  0.28521800  0.06915400  1
  O  O71  1  0.53700000  0.39426300  0.43095400  1
  O  O72  1  0.46236000  0.60729000  0.56888500  1
  O  O73  1  0.57113300  0.71492300  0.93098000  1
  O  O74  1  0.56929300  0.07344200  0.93236100  1
  O  O75  1  0.32242100  0.82273400  0.18202900  1
  O  O76  1  0.32194500  0.46499100  0.18112000  1
  O  O77  1  0.42835000  0.92758300  0.56793500  1
  O  O78  1  0.42870500  0.28591200  0.56913500  1
  O  O79  1  0.53762600  0.39425100  0.93109300  1
  O  O80  1  0.28624700  0.14342200  0.18101200  1
  O  O81  1  0.21294900  0.35707800  0.31906000  1
  O  O82  1  0.32250000  0.82166700  0.68179500  1
  O  O83  1  0.32329900  0.46402100  0.68106200  1
  O  O84  1  0.17738900  0.67771600  0.31811000  1
  O  O85  1  0.17525400  0.03689700  0.31905900  1
  O  O86  1  0.28861200  0.14009000  0.68162700  1
  O  O87  1  0.21286900  0.35682700  0.81890100  1
  O  O88  1  0.07264700  0.57241800  0.43191800  1
  O  O89  1  0.07557900  0.21728300  0.43166100  1
  O  O90  1  0.17744400  0.67749100  0.81799800  1
  O  O91  1  0.17879400  0.03637900  0.81887800  1
  O  O92  1  0.03321600  0.89338700  0.43112500  1
  O  O93  1  0.07258900  0.57249700  0.93193200  1
  O  O94  1  0.07508900  0.21651600  0.93139900  1
  O  O95  1  0.03112900  0.89381800  0.93093700  1
