# generated using pymatgen
data_Li4Si4Bi2O13
_symmetry_space_group_name_H-M   'P 1'
_cell_length_a   5.24521500
_cell_length_b   14.65977100
_cell_length_c   15.13730100
_cell_angle_alpha   90.00000000
_cell_angle_beta   90.00000000
_cell_angle_gamma   90.00000000
_symmetry_Int_Tables_number   1
_chemical_formula_structural   Li4Si4Bi2O13
_chemical_formula_sum   'Li16 Si16 Bi8 O52'
_cell_volume   1163.96233633
_cell_formula_units_Z   4
loop_
 _symmetry_equiv_pos_site_id
 _symmetry_equiv_pos_as_xyz
  1  'x, y, z'
loop_
 _atom_site_type_symbol
 _atom_site_label
 _atom_site_symmetry_multiplicity
 _atom_site_fract_x
 _atom_site_fract_y
 _atom_site_fract_z
 _atom_site_occupancy
  Li  Li0  1  0.14922700  0.02487500  0.22137600  1
  Li  Li1  1  0.65608900  0.09673000  0.90537500  1
  Li  Li2  1  0.64894900  0.14411800  0.11639100  1
  Li  Li3  1  0.19873200  0.22474100  0.83910700  1
  Li  Li4  1  0.69873200  0.27525900  0.33910700  1
  Li  Li5  1  0.14894900  0.35588200  0.61639100  1
  Li  Li6  1  0.15608900  0.40327000  0.40537500  1
  Li  Li7  1  0.64922700  0.47512500  0.72137600  1
  Li  Li8  1  0.35077300  0.52487500  0.22137600  1
  Li  Li9  1  0.84391100  0.59673000  0.90537500  1
  Li  Li10  1  0.85105100  0.64411800  0.11639100  1
  Li  Li11  1  0.30126800  0.72474100  0.83910700  1
  Li  Li12  1  0.80126800  0.77525900  0.33910700  1
  Li  Li13  1  0.35105100  0.85588200  0.61639100  1
  Li  Li14  1  0.34391100  0.90327000  0.40537500  1
  Li  Li15  1  0.85077300  0.97512500  0.72137600  1
  Si  Si16  1  0.16788900  0.03091100  0.99828100  1
  Si  Si17  1  0.65933900  0.05404800  0.32256700  1
  Si  Si18  1  0.85394200  0.19636300  0.72336500  1
  Si  Si19  1  0.17917200  0.22331600  0.05036700  1
  Si  Si20  1  0.67917200  0.27668400  0.55036700  1
  Si  Si21  1  0.35394200  0.30363700  0.22336500  1
  Si  Si22  1  0.15933900  0.44595200  0.82256700  1
  Si  Si23  1  0.66788900  0.46908900  0.49828100  1
  Si  Si24  1  0.33211100  0.53091100  0.99828100  1
  Si  Si25  1  0.84066100  0.55404800  0.32256700  1
  Si  Si26  1  0.64605800  0.69636300  0.72336500  1
  Si  Si27  1  0.32082800  0.72331600  0.05036700  1
  Si  Si28  1  0.82082800  0.77668400  0.55036700  1
  Si  Si29  1  0.14605800  0.80363700  0.22336500  1
  Si  Si30  1  0.34066100  0.94595200  0.82256700  1
  Si  Si31  1  0.83211100  0.96908900  0.49828100  1
  Bi  Bi32  1  0.35600900  0.08269300  0.63178800  1
  Bi  Bi33  1  0.16502600  0.16732600  0.41708600  1
  Bi  Bi34  1  0.66502600  0.33267400  0.91708600  1
  Bi  Bi35  1  0.85600900  0.41730700  0.13178800  1
  Bi  Bi36  1  0.14399100  0.58269300  0.63178800  1
  Bi  Bi37  1  0.33497400  0.66732600  0.41708600  1
  Bi  Bi38  1  0.83497400  0.83267400  0.91708600  1
  Bi  Bi39  1  0.64399100  0.91730700  0.13178800  1
  O  O40  1  0.42457900  0.03278800  0.05899400  1
  O  O41  1  0.77656200  0.04168800  0.22267500  1
  O  O42  1  0.24977000  0.03408000  0.89044600  1
  O  O43  1  0.04495000  0.04785600  0.51189600  1
  O  O44  1  0.34794300  0.04797800  0.32488000  1
  O  O45  1  0.75207100  0.09785800  0.68750000  1
  O  O46  1  0.01221000  0.12905900  0.02236900  1
  O  O47  1  0.76436600  0.15015600  0.36271200  1
  O  O48  1  0.16385300  0.20555200  0.71529900  1
  O  O49  1  0.48949500  0.19186900  0.53042600  1
  O  O50  1  0.23669000  0.21868400  0.15916800  1
  O  O51  1  0.77638900  0.20477000  0.82866300  1
  O  O52  1  0.44783000  0.21872800  0.99612800  1
  O  O53  1  0.94783000  0.28127200  0.49612800  1
  O  O54  1  0.27638900  0.29523000  0.32866300  1
  O  O55  1  0.73669000  0.28131600  0.65916800  1
  O  O56  1  0.98949500  0.30813100  0.03042600  1
  O  O57  1  0.66385300  0.29444800  0.21529900  1
  O  O58  1  0.26436600  0.34984400  0.86271200  1
  O  O59  1  0.51221000  0.37094100  0.52236900  1
  O  O60  1  0.25207100  0.40214200  0.18750000  1
  O  O61  1  0.84794300  0.45202200  0.82488000  1
  O  O62  1  0.54495000  0.45214400  0.01189600  1
  O  O63  1  0.74977000  0.46592000  0.39044600  1
  O  O64  1  0.27656200  0.45831200  0.72267500  1
  O  O65  1  0.92457900  0.46721200  0.55899400  1
  O  O66  1  0.07542100  0.53278800  0.05899400  1
  O  O67  1  0.72343800  0.54168800  0.22267500  1
  O  O68  1  0.25023000  0.53408000  0.89044600  1
  O  O69  1  0.45505000  0.54785600  0.51189600  1
  O  O70  1  0.15205700  0.54797800  0.32488000  1
  O  O71  1  0.74792900  0.59785800  0.68750000  1
  O  O72  1  0.48779000  0.62905900  0.02236900  1
  O  O73  1  0.73563400  0.65015600  0.36271200  1
  O  O74  1  0.33614700  0.70555200  0.71529900  1
  O  O75  1  0.01050500  0.69186900  0.53042600  1
  O  O76  1  0.26331000  0.71868400  0.15916800  1
  O  O77  1  0.72361100  0.70477000  0.82866300  1
  O  O78  1  0.05217000  0.71872800  0.99612800  1
  O  O79  1  0.55217000  0.78127200  0.49612800  1
  O  O80  1  0.22361100  0.79523000  0.32866300  1
  O  O81  1  0.76331000  0.78131600  0.65916800  1
  O  O82  1  0.51050500  0.80813100  0.03042600  1
  O  O83  1  0.83614700  0.79444800  0.21529900  1
  O  O84  1  0.23563400  0.84984400  0.86271200  1
  O  O85  1  0.98779000  0.87094100  0.52236900  1
  O  O86  1  0.24792900  0.90214200  0.18750000  1
  O  O87  1  0.65205700  0.95202200  0.82488000  1
  O  O88  1  0.95505000  0.95214400  0.01189600  1
  O  O89  1  0.75023000  0.96592000  0.39044600  1
  O  O90  1  0.22343800  0.95831200  0.72267500  1
  O  O91  1  0.57542100  0.96721200  0.55899400  1
