# generated using pymatgen
data_Ba8LiTa7O24
_symmetry_space_group_name_H-M   'P 1'
_cell_length_a   5.89823222
_cell_length_b   5.89823222
_cell_length_c   19.14726800
_cell_angle_alpha   90.00000000
_cell_angle_beta   90.00000000
_cell_angle_gamma   120.00000243
_symmetry_Int_Tables_number   1
_chemical_formula_structural   Ba8LiTa7O24
_chemical_formula_sum   'Ba8 Li1 Ta7 O24'
_cell_volume   576.87427303
_cell_formula_units_Z   1
loop_
 _symmetry_equiv_pos_site_id
 _symmetry_equiv_pos_as_xyz
  1  'x, y, z'
loop_
 _atom_site_type_symbol
 _atom_site_label
 _atom_site_symmetry_multiplicity
 _atom_site_fract_x
 _atom_site_fract_y
 _atom_site_fract_z
 _atom_site_occupancy
  Ba  Ba0  1  0.33333300  0.66666700  0.24989700  1
  Ba  Ba1  1  0.33333300  0.66666700  0.85455100  1
  Ba  Ba2  1  0.00000000  0.00000000  0.99371500  1
  Ba  Ba3  1  0.00000000  0.00000000  0.50051800  1
  Ba  Ba4  1  0.33333300  0.66666700  0.63438300  1
  Ba  Ba5  1  0.66666700  0.33333300  0.13235800  1
  Ba  Ba6  1  0.66666700  0.33333300  0.75368100  1
  Ba  Ba7  1  0.66666700  0.33333300  0.36495000  1
  Li  Li8  1  0.00000000  0.00000000  0.83284200  1
  Ta  Ta9  1  0.33333300  0.66666700  0.06084700  1
  Ta  Ta10  1  0.00000000  0.00000000  0.18210200  1
  Ta  Ta11  1  0.00000000  0.00000000  0.31798700  1
  Ta  Ta12  1  0.00000000  0.00000000  0.68870800  1
  Ta  Ta13  1  0.33333300  0.66666700  0.43921200  1
  Ta  Ta14  1  0.66666700  0.33333300  0.56009300  1
  Ta  Ta15  1  0.66666700  0.33333300  0.93607900  1
  O  O16  1  0.15810300  0.84189700  0.74260300  1
  O  O17  1  0.00064000  0.50032000  0.00490600  1
  O  O18  1  0.99850300  0.49925100  0.49886900  1
  O  O19  1  0.16987000  0.83013000  0.12445000  1
  O  O20  1  0.16919000  0.83081000  0.37671000  1
  O  O21  1  0.16987000  0.33974000  0.12445000  1
  O  O22  1  0.16919000  0.33838000  0.37671000  1
  O  O23  1  0.15810300  0.31620600  0.74260300  1
  O  O24  1  0.32178700  0.16089400  0.24966100  1
  O  O25  1  0.66162000  0.83081000  0.37671000  1
  O  O26  1  0.66026000  0.83013000  0.12445000  1
  O  O27  1  0.49968000  0.50032000  0.00490600  1
  O  O28  1  0.50074900  0.49925100  0.49886900  1
  O  O29  1  0.33648200  0.16824100  0.61991800  1
  O  O30  1  0.34884000  0.17442000  0.88229300  1
  O  O31  1  0.68379400  0.84189700  0.74260300  1
  O  O32  1  0.83175900  0.66351800  0.61991800  1
  O  O33  1  0.49968000  0.99936000  0.00490600  1
  O  O34  1  0.50074900  0.00149700  0.49886900  1
  O  O35  1  0.82558000  0.65116000  0.88229300  1
  O  O36  1  0.83910600  0.67821300  0.24966100  1
  O  O37  1  0.82558000  0.17442000  0.88229300  1
  O  O38  1  0.83175900  0.16824100  0.61991800  1
  O  O39  1  0.83910600  0.16089400  0.24966100  1
