# generated using pymatgen
data_LiNiPO4
_symmetry_space_group_name_H-M   'P 1'
_cell_length_a   4.68547500
_cell_length_b   10.30198100
_cell_length_c   6.15411200
_cell_angle_alpha   89.99937019
_cell_angle_beta   89.99996915
_cell_angle_gamma   89.99995330
_symmetry_Int_Tables_number   1
_chemical_formula_structural   LiNiPO4
_chemical_formula_sum   'Li4 Ni4 P4 O16'
_cell_volume   297.05698261
_cell_formula_units_Z   4
loop_
 _symmetry_equiv_pos_site_id
 _symmetry_equiv_pos_as_xyz
  1  'x, y, z'
loop_
 _atom_site_type_symbol
 _atom_site_label
 _atom_site_symmetry_multiplicity
 _atom_site_fract_x
 _atom_site_fract_y
 _atom_site_fract_z
 _atom_site_occupancy
  Li  Li0  1  0.48383300  0.21542800  0.74999700  1
  Li  Li1  1  0.98383300  0.28457300  0.25000300  1
  Li  Li2  1  0.01616700  0.71542700  0.74999700  1
  Li  Li3  1  0.51616700  0.78457300  0.25000300  1
  Ni  Ni4  1  0.00000000  0.00000000  0.50000000  1
  Ni  Ni5  1  0.50000100  0.50000000  0.50000000  1
  Ni  Ni6  1  0.00000000  0.00000000  0.00000000  1
  Ni  Ni7  1  0.50000000  0.50000000  0.00000000  1
  P  P8  1  0.41349000  0.09250200  0.24999400  1
  P  P9  1  0.91349000  0.40749700  0.75000500  1
  P  P10  1  0.08650900  0.59250200  0.24999400  1
  P  P11  1  0.58651100  0.90749800  0.75000600  1
  O  O12  1  0.72674900  0.04918500  0.75000400  1
  O  O13  1  0.22674900  0.45081500  0.24999700  1
  O  O14  1  0.77325100  0.54918500  0.75000300  1
  O  O15  1  0.27325100  0.95081500  0.24999600  1
  O  O16  1  0.74465600  0.08587800  0.24999600  1
  O  O17  1  0.24465700  0.41412200  0.75000400  1
  O  O18  1  0.75534400  0.58587800  0.24999600  1
  O  O19  1  0.25534300  0.91412200  0.75000400  1
  O  O20  1  0.28929700  0.15654100  0.04259700  1
  O  O21  1  0.28930000  0.15654100  0.45739000  1
  O  O22  1  0.78929900  0.34345800  0.54261000  1
  O  O23  1  0.78929700  0.34345900  0.95740400  1
  O  O24  1  0.21070300  0.65654100  0.04259600  1
  O  O25  1  0.21070100  0.65654100  0.45739000  1
  O  O26  1  0.71070000  0.84345900  0.54261000  1
  O  O27  1  0.71070300  0.84345900  0.95740300  1
