# generated using pymatgen
data_LiVPO4
_symmetry_space_group_name_H-M   'P 1'
_cell_length_a   11.22221800
_cell_length_b   5.70756000
_cell_length_c   9.97687228
_cell_angle_alpha   88.01674953
_cell_angle_beta   90.00000000
_cell_angle_gamma   90.00000000
_symmetry_Int_Tables_number   1
_chemical_formula_structural   LiVPO4
_chemical_formula_sum   'Li8 V8 P8 O32'
_cell_volume   638.65067133
_cell_formula_units_Z   8
loop_
 _symmetry_equiv_pos_site_id
 _symmetry_equiv_pos_as_xyz
  1  'x, y, z'
loop_
 _atom_site_type_symbol
 _atom_site_label
 _atom_site_symmetry_multiplicity
 _atom_site_fract_x
 _atom_site_fract_y
 _atom_site_fract_z
 _atom_site_occupancy
  Li  Li0  1  0.88994900  0.91887000  0.93006500  1
  Li  Li1  1  0.61005100  0.91887000  0.43006500  1
  Li  Li2  1  0.34004600  0.54184400  0.67021900  1
  Li  Li3  1  0.15995400  0.54184400  0.17021900  1
  Li  Li4  1  0.84004600  0.45815600  0.82978100  1
  Li  Li5  1  0.65995400  0.45815600  0.32978100  1
  Li  Li6  1  0.38994900  0.08113000  0.56993500  1
  Li  Li7  1  0.11005100  0.08113000  0.06993500  1
  V  V8  1  0.09956900  0.86842100  0.72979200  1
  V  V9  1  0.40043100  0.86842100  0.22979200  1
  V  V10  1  0.62878500  0.66904900  0.98386000  1
  V  V11  1  0.87121500  0.66904900  0.48386000  1
  V  V12  1  0.12878500  0.33095100  0.51614000  1
  V  V13  1  0.37121500  0.33095100  0.01614000  1
  V  V14  1  0.59956900  0.13157900  0.77020800  1
  V  V15  1  0.90043100  0.13157900  0.27020800  1
  P  P16  1  0.35789800  0.88102700  0.90582700  1
  P  P17  1  0.14210200  0.88102700  0.40582700  1
  P  P18  1  0.60574200  0.62231200  0.64737000  1
  P  P19  1  0.89425800  0.62231200  0.14737000  1
  P  P20  1  0.10574200  0.37768800  0.85263000  1
  P  P21  1  0.39425800  0.37768800  0.35263000  1
  P  P22  1  0.85789800  0.11897300  0.59417300  1
  P  P23  1  0.64210200  0.11897300  0.09417300  1
  O  O24  1  0.20389600  0.96008100  0.53893100  1
  O  O25  1  0.92818200  0.89729100  0.64425500  1
  O  O26  1  0.29610400  0.96008100  0.03893100  1
  O  O27  1  0.57181800  0.89729100  0.14425500  1
  O  O28  1  0.27282700  0.80715000  0.79581000  1
  O  O29  1  0.53923500  0.86532000  0.63046000  1
  O  O30  1  0.22717300  0.80715000  0.29581000  1
  O  O31  1  0.96076500  0.86532000  0.13046000  1
  O  O32  1  0.44023700  0.66942500  0.94114100  1
  O  O33  1  0.68242100  0.61900300  0.77834900  1
  O  O34  1  0.05976300  0.66942500  0.44114100  1
  O  O35  1  0.68578300  0.60076900  0.52081500  1
  O  O36  1  0.01435600  0.58184400  0.84179200  1
  O  O37  1  0.81757900  0.61900300  0.27834900  1
  O  O38  1  0.81421700  0.60076900  0.02081500  1
  O  O39  1  0.48564400  0.58184400  0.34179200  1
  O  O40  1  0.51435600  0.41815600  0.65820800  1
  O  O41  1  0.18578300  0.39923100  0.97918500  1
  O  O42  1  0.18242100  0.38099700  0.72165100  1
  O  O43  1  0.98564400  0.41815600  0.15820800  1
  O  O44  1  0.31421700  0.39923100  0.47918500  1
  O  O45  1  0.94023700  0.33057500  0.55885900  1
  O  O46  1  0.31757900  0.38099700  0.22165100  1
  O  O47  1  0.55976300  0.33057500  0.05885900  1
  O  O48  1  0.03923500  0.13468000  0.86954000  1
  O  O49  1  0.77282700  0.19285000  0.70419000  1
  O  O50  1  0.46076500  0.13468000  0.36954000  1
  O  O51  1  0.72717300  0.19285000  0.20419000  1
  O  O52  1  0.42818200  0.10270900  0.85574500  1
  O  O53  1  0.70389600  0.03991900  0.96106900  1
  O  O54  1  0.07181800  0.10270900  0.35574500  1
  O  O55  1  0.79610400  0.03991900  0.46106900  1
