# generated using pymatgen
data_LiCo3P4O15
_symmetry_space_group_name_H-M   'P 1'
_cell_length_a   6.35089100
_cell_length_b   10.48186235
_cell_length_c   17.54807214
_cell_angle_alpha   90.02186622
_cell_angle_beta   90.21955401
_cell_angle_gamma   90.06304697
_symmetry_Int_Tables_number   1
_chemical_formula_structural   LiCo3P4O15
_chemical_formula_sum   'Li4 Co12 P16 O60'
_cell_volume   1168.15114333
_cell_formula_units_Z   4
loop_
 _symmetry_equiv_pos_site_id
 _symmetry_equiv_pos_as_xyz
  1  'x, y, z'
loop_
 _atom_site_type_symbol
 _atom_site_label
 _atom_site_symmetry_multiplicity
 _atom_site_fract_x
 _atom_site_fract_y
 _atom_site_fract_z
 _atom_site_occupancy
  Li  Li0  1  0.31245000  0.54218100  0.53247900  1
  Li  Li1  1  0.67642700  0.03120900  0.49771000  1
  Li  Li2  1  0.31142700  0.96070400  0.03126200  1
  Li  Li3  1  0.17592800  0.52986500  0.00235200  1
  Co  Co4  1  0.42025200  0.49070100  0.86703900  1
  Co  Co5  1  0.39824900  0.01282800  0.84108400  1
  Co  Co6  1  0.68080800  0.74342700  0.75776300  1
  Co  Co7  1  0.18349800  0.24292800  0.74157200  1
  Co  Co8  1  0.89301300  0.50809800  0.65938300  1
  Co  Co9  1  0.91854500  0.99016900  0.63338000  1
  Co  Co10  1  0.40207800  0.00496100  0.36750300  1
  Co  Co11  1  0.39544400  0.48673800  0.34156800  1
  Co  Co12  1  0.68013600  0.75571900  0.25808600  1
  Co  Co13  1  0.18314900  0.25632800  0.24030400  1
  Co  Co14  1  0.89021100  0.99229200  0.15929100  1
  Co  Co15  1  0.90073900  0.50561900  0.13303800  1
  P  P16  1  0.35262600  0.22646100  0.95081200  1
  P  P17  1  0.53752300  0.76189300  0.92990500  1
  P  P18  1  0.91453900  0.48017600  0.82039300  1
  P  P19  1  0.90128500  0.00437300  0.79282800  1
  P  P20  1  0.39993700  0.50511200  0.70610200  1
  P  P21  1  0.41370900  0.98044400  0.67978100  1
  P  P22  1  0.03093800  0.25871100  0.57047800  1
  P  P23  1  0.86730600  0.72773600  0.55161400  1
  P  P24  1  0.35875000  0.27458600  0.45155100  1
  P  P25  1  0.54328600  0.73556500  0.42921400  1
  P  P26  1  0.91062000  0.01977300  0.32011600  1
  P  P27  1  0.90005100  0.49579100  0.29232900  1
  P  P28  1  0.39806000  0.99503100  0.20649800  1
  P  P29  1  0.41052400  0.52023400  0.17959000  1
  P  P30  1  0.03609100  0.23864000  0.07071400  1
  P  P31  1  0.87318900  0.77286400  0.05151300  1
  O  O32  1  0.49769600  0.13584600  0.98980000  1
  O  O33  1  0.12098900  0.19923700  0.98893300  1
  O  O34  1  0.38410600  0.37220000  0.95582400  1
  O  O35  1  0.41627500  0.63596500  0.94086500  1
  O  O36  1  0.39583700  0.87851900  0.91904300  1
  O  O37  1  0.70711000  0.75284500  0.86799700  1
  O  O38  1  0.10238800  0.50368600  0.87321500  1
  O  O39  1  0.31652400  0.18991500  0.86533700  1
  O  O40  1  0.71297300  0.45756600  0.86631400  1
  O  O41  1  0.09294700  0.97952700  0.84254000  1
  O  O42  1  0.70159600  0.03255000  0.83823000  1
  O  O43  1  0.88293200  0.59616300  0.76379700  1
  O  O44  1  0.95117500  0.36968600  0.76183000  1
  O  O45  1  0.44601500  0.61094800  0.76801600  1
  O  O46  1  0.36506700  0.38805100  0.76243800  1
  O  O47  1  0.86795200  0.88720000  0.73671600  1
  O  O48  1  0.94745900  0.11153500  0.73187600  1
  O  O49  1  0.45309500  0.86869600  0.73767100  1
  O  O50  1  0.38026300  0.09725000  0.73568900  1
  O  O51  1  0.20808600  0.53342900  0.65574800  1
  O  O52  1  0.58596100  0.48234600  0.65486500  1
  O  O53  1  0.21205300  0.95674100  0.63382300  1
  O  O54  1  0.81727700  0.68837200  0.63540800  1
  O  O55  1  0.60102000  0.00390600  0.62763400  1
  O  O56  1  0.20821700  0.24919200  0.63019900  1
  O  O57  1  0.89533200  0.37537300  0.58857400  1
  O  O58  1  0.90693300  0.13403200  0.56036700  1
  O  O59  1  0.88204600  0.87445800  0.54570200  1
  O  O60  1  0.64399000  0.69452300  0.50921300  1
  O  O61  1  0.03923400  0.64972200  0.51830000  1
  O  O62  1  0.49159000  0.37090200  0.49160000  1
  O  O63  1  0.12253900  0.28702000  0.48803400  1
  O  O64  1  0.41854800  0.13220000  0.45510200  1
  O  O65  1  0.44679100  0.86783800  0.44258500  1
  O  O66  1  0.38860100  0.62594700  0.41624000  1
  O  O67  1  0.71383200  0.73980400  0.36706800  1
  O  O68  1  0.10524400  0.99696000  0.37051000  1
  O  O69  1  0.31712000  0.31061500  0.36632700  1
  O  O70  1  0.71654600  0.03891300  0.37012600  1
  O  O71  1  0.09073000  0.51994800  0.34260000  1
  O  O72  1  0.69948600  0.46673600  0.33714000  1
  O  O73  1  0.87854400  0.90405900  0.26368800  1
  O  O74  1  0.94653400  0.13062100  0.26190000  1
  O  O75  1  0.44440700  0.88979400  0.26890500  1
  O  O76  1  0.36572900  0.11303600  0.26235100  1
  O  O77  1  0.86882900  0.61328500  0.23637000  1
  O  O78  1  0.94707400  0.38877400  0.23103900  1
  O  O79  1  0.44930300  0.63372200  0.23601800  1
  O  O80  1  0.37599300  0.40461000  0.23594900  1
  O  O81  1  0.20552500  0.96627500  0.15646800  1
  O  O82  1  0.58325500  0.01603500  0.15452500  1
  O  O83  1  0.21604700  0.53947400  0.12945400  1
  O  O84  1  0.81841400  0.81198200  0.13483900  1
  O  O85  1  0.60405400  0.49576300  0.12992700  1
  O  O86  1  0.21538200  0.24346100  0.13053100  1
  O  O87  1  0.88762700  0.12923100  0.09137100  1
  O  O88  1  0.93782700  0.36998000  0.05798800  1
  O  O89  1  0.91360700  0.62812400  0.04654000  1
  O  O90  1  0.64478400  0.79374500  0.01026600  1
  O  O91  1  0.03668100  0.85684800  0.01728100  1
