# generated using pymatgen
data_Li3Fe4(BO3)4
_symmetry_space_group_name_H-M   'P 1'
_cell_length_a   5.24471900
_cell_length_b   9.01189852
_cell_length_c   11.39454503
_cell_angle_alpha   112.66539258
_cell_angle_beta   102.77154120
_cell_angle_gamma   89.66994610
_symmetry_Int_Tables_number   1
_chemical_formula_structural   Li3Fe4(BO3)4
_chemical_formula_sum   'Li6 Fe8 B8 O24'
_cell_volume   482.78246261
_cell_formula_units_Z   2
loop_
 _symmetry_equiv_pos_site_id
 _symmetry_equiv_pos_as_xyz
  1  'x, y, z'
loop_
 _atom_site_type_symbol
 _atom_site_label
 _atom_site_symmetry_multiplicity
 _atom_site_fract_x
 _atom_site_fract_y
 _atom_site_fract_z
 _atom_site_occupancy
  Li  Li0  1  0.02962400  0.03762900  0.41473200  1
  Li  Li1  1  0.29260800  0.27667100  0.90316000  1
  Li  Li2  1  0.48400600  0.51000300  0.66635200  1
  Li  Li3  1  0.25979500  0.24001600  0.15915900  1
  Li  Li4  1  0.52830000  0.53817700  0.41085200  1
  Li  Li5  1  0.76937000  0.74558500  0.16283200  1
  Fe  Fe6  1  0.01354200  0.35296200  0.37976900  1
  Fe  Fe7  1  0.26289300  0.93045500  0.88035500  1
  Fe  Fe8  1  0.49401200  0.15038200  0.63173100  1
  Fe  Fe9  1  0.24503600  0.56732500  0.13143200  1
  Fe  Fe10  1  0.77453000  0.45350100  0.88784300  1
  Fe  Fe11  1  0.52677100  0.84998200  0.38104400  1
  Fe  Fe12  1  0.96467700  0.66349300  0.63453200  1
  Fe  Fe13  1  0.74524600  0.05673300  0.12362000  1
  B  B14  1  0.01990800  0.68605300  0.37518500  1
  B  B15  1  0.26536600  0.60006900  0.87406600  1
  B  B16  1  0.46520200  0.81357700  0.62995300  1
  B  B17  1  0.23816300  0.89391500  0.12782200  1
  B  B18  1  0.52562400  0.18979100  0.38163400  1
  B  B19  1  0.76412400  0.10538800  0.87610000  1
  B  B20  1  0.98998700  0.31813700  0.62645100  1
  B  B21  1  0.73275800  0.39293100  0.12641800  1
  O  O22  1  0.02962500  0.10196700  0.88379300  1
  O  O23  1  0.11299900  0.71885000  0.85089500  1
  O  O24  1  0.16468800  0.49027600  0.91493200  1
  O  O25  1  0.12946800  0.18644300  0.62388200  1
  O  O26  1  0.09445800  0.43654600  0.59723100  1
  O  O27  1  0.25317600  0.84334800  0.68708100  1
  O  O28  1  0.26357800  0.65746700  0.34377900  1
  O  O29  1  0.51157400  0.59186200  0.85350100  1
  O  O30  1  0.61758800  0.21187300  0.82992000  1
  O  O31  1  0.41582600  0.08712700  0.42832500  1
  O  O32  1  0.39298800  0.31286500  0.36165800  1
  O  O33  1  0.63260600  0.01050500  0.91842300  1
  O  O34  1  0.33851000  0.00285900  0.08419300  1
  O  O35  1  0.57857800  0.66980700  0.60666600  1
  O  O36  1  0.55775200  0.92632600  0.59012200  1
  O  O37  1  0.40445500  0.78961700  0.16466700  1
  O  O38  1  0.46436700  0.37374800  0.11073400  1
  O  O39  1  0.74140100  0.33013400  0.65514500  1
  O  O40  1  0.76984000  0.16145900  0.35144200  1
  O  O41  1  0.90615800  0.58381000  0.41797000  1
  O  O42  1  0.89389900  0.81572800  0.36254800  1
  O  O43  1  0.84108800  0.51170500  0.09663300  1
  O  O44  1  0.89504900  0.29018800  0.16680400  1
  O  O45  1  0.98451600  0.89338300  0.13765400  1
