# generated using pymatgen
data_Li2FeSiO4
_symmetry_space_group_name_H-M   'P 1'
_cell_length_a   7.45824416
_cell_length_b   7.45833354
_cell_length_c   8.03278216
_cell_angle_alpha   114.78354028
_cell_angle_beta   114.78394087
_cell_angle_gamma   94.98953143
_symmetry_Int_Tables_number   1
_chemical_formula_structural   Li2FeSiO4
_chemical_formula_sum   'Li8 Fe4 Si4 O16'
_cell_volume   349.10740933
_cell_formula_units_Z   4
loop_
 _symmetry_equiv_pos_site_id
 _symmetry_equiv_pos_as_xyz
  1  'x, y, z'
loop_
 _atom_site_type_symbol
 _atom_site_label
 _atom_site_symmetry_multiplicity
 _atom_site_fract_x
 _atom_site_fract_y
 _atom_site_fract_z
 _atom_site_occupancy
  Li  Li0  1  0.66060200  0.84389300  0.00170100  1
  Li  Li1  1  0.16057900  0.34392900  0.00168400  1
  Li  Li2  1  0.34387400  0.16058100  0.50165600  1
  Li  Li3  1  0.84386200  0.66059000  0.50166200  1
  Li  Li4  1  0.54971800  0.20315900  0.25299200  1
  Li  Li5  1  0.04971600  0.70319100  0.25298400  1
  Li  Li6  1  0.70317900  0.04970100  0.75299800  1
  Li  Li7  1  0.20318400  0.54975900  0.75301400  1
  Fe  Fe8  1  0.58886600  0.42029300  0.01135100  1
  Fe  Fe9  1  0.42021600  0.58863500  0.51128300  1
  Fe  Fe10  1  0.08885200  0.92037800  0.01130200  1
  Fe  Fe11  1  0.92037500  0.08892700  0.51129600  1
  Si  Si12  1  0.46838500  0.79305400  0.25402900  1
  Si  Si13  1  0.96851700  0.29317200  0.25416600  1
  Si  Si14  1  0.79306000  0.46841300  0.75403100  1
  Si  Si15  1  0.29311900  0.96846300  0.75405300  1
  O  O16  1  0.87585700  0.06249400  0.03590000  1
  O  O17  1  0.37577500  0.56250100  0.03576700  1
  O  O18  1  0.56250200  0.37572000  0.53574200  1
  O  O19  1  0.06244000  0.87575800  0.53573200  1
  O  O20  1  0.77186700  0.37935600  0.25474300  1
  O  O21  1  0.27189200  0.87940700  0.25470000  1
  O  O22  1  0.87936800  0.27190600  0.75472200  1
  O  O23  1  0.37940500  0.77190300  0.75471800  1
  O  O24  1  0.63071800  0.95641500  0.25222200  1
  O  O25  1  0.13072100  0.45648300  0.25218600  1
  O  O26  1  0.95644900  0.63074000  0.75221400  1
  O  O27  1  0.45646900  0.13074000  0.75218000  1
  O  O28  1  0.10060700  0.27737700  0.47053500  1
  O  O29  1  0.60051300  0.77729000  0.47043100  1
  O  O30  1  0.77730600  0.60056400  0.97049800  1
  O  O31  1  0.27732500  0.10052600  0.97042900  1
