# generated using pymatgen
data_LiCoCO4
_symmetry_space_group_name_H-M   'P 1'
_cell_length_a   9.42404200
_cell_length_b   3.15399600
_cell_length_c   9.67509962
_cell_angle_alpha   71.83132510
_cell_angle_beta   90.00000000
_cell_angle_gamma   90.00000000
_symmetry_Int_Tables_number   1
_chemical_formula_structural   LiCoCO4
_chemical_formula_sum   'Li4 Co4 C4 O16'
_cell_volume   273.23895743
_cell_formula_units_Z   4
loop_
 _symmetry_equiv_pos_site_id
 _symmetry_equiv_pos_as_xyz
  1  'x, y, z'
loop_
 _atom_site_type_symbol
 _atom_site_label
 _atom_site_symmetry_multiplicity
 _atom_site_fract_x
 _atom_site_fract_y
 _atom_site_fract_z
 _atom_site_occupancy
  Li  Li0  1  0.59249600  0.42767200  0.81637000  1
  Li  Li1  1  0.09249600  0.57232800  0.68363000  1
  Li  Li2  1  0.90750400  0.42767200  0.31637000  1
  Li  Li3  1  0.40750400  0.57232800  0.18363000  1
  Co  Co4  1  0.88208600  0.79482700  0.94877400  1
  Co  Co5  1  0.38208600  0.20517300  0.55122600  1
  Co  Co6  1  0.61791400  0.79482700  0.44877400  1
  Co  Co7  1  0.11791400  0.20517300  0.05122600  1
  C  C8  1  0.33143300  0.90232900  0.86236000  1
  C  C9  1  0.83143300  0.09767100  0.63764000  1
  C  C10  1  0.16856700  0.90232900  0.36236000  1
  C  C11  1  0.66856700  0.09767100  0.13764000  1
  O  O12  1  0.25419000  0.77827100  0.98491800  1
  O  O13  1  0.00227800  0.35904400  0.88460900  1
  O  O14  1  0.46365200  0.87421300  0.87104600  1
  O  O15  1  0.76225100  0.95293100  0.76112600  1
  O  O16  1  0.26225100  0.04706900  0.73887400  1
  O  O17  1  0.96365200  0.12578700  0.62895400  1
  O  O18  1  0.50227800  0.64095600  0.61539100  1
  O  O19  1  0.75419000  0.22172900  0.51508200  1
  O  O20  1  0.24581000  0.77827100  0.48491800  1
  O  O21  1  0.49772200  0.35904400  0.38460900  1
  O  O22  1  0.03634800  0.87421300  0.37104600  1
  O  O23  1  0.73774900  0.95293100  0.26112600  1
  O  O24  1  0.23774900  0.04706900  0.23887400  1
  O  O25  1  0.53634800  0.12578700  0.12895400  1
  O  O26  1  0.99772200  0.64095600  0.11539100  1
  O  O27  1  0.74581000  0.22172900  0.01508200  1
