# generated using pymatgen
data_Li4Ti15O32
_symmetry_space_group_name_H-M   'P 1'
_cell_length_a   19.76762503
_cell_length_b   19.76762503
_cell_length_c   19.76762500
_cell_angle_alpha   17.37286414
_cell_angle_beta   17.37286414
_cell_angle_gamma   17.37286484
_symmetry_Int_Tables_number   1
_chemical_formula_structural   Li4Ti15O32
_chemical_formula_sum   'Li4 Ti15 O32'
_cell_volume   600.97358245
_cell_formula_units_Z   1
loop_
 _symmetry_equiv_pos_site_id
 _symmetry_equiv_pos_as_xyz
  1  'x, y, z'
loop_
 _atom_site_type_symbol
 _atom_site_label
 _atom_site_symmetry_multiplicity
 _atom_site_fract_x
 _atom_site_fract_y
 _atom_site_fract_z
 _atom_site_occupancy
  Li  Li0  1  0.18766700  0.18766700  0.18766700  1
  Li  Li1  1  0.84327400  0.84327400  0.84327400  1
  Li  Li2  1  0.24993700  0.24993700  0.24993700  1
  Li  Li3  1  0.49875800  0.49875800  0.49875800  1
  Ti  Ti4  1  0.72382600  0.21718000  0.21718000  1
  Ti  Ti5  1  0.34535100  0.34535100  0.34535100  1
  Ti  Ti6  1  0.21718000  0.72382600  0.21718000  1
  Ti  Ti7  1  0.21718000  0.21718000  0.72382600  1
  Ti  Ti8  1  0.09572000  0.09572000  0.09572000  1
  Ti  Ti9  1  0.72165000  0.21031100  0.72165000  1
  Ti  Ti10  1  0.96543400  0.47794600  0.96543400  1
  Ti  Ti11  1  0.96543400  0.96543400  0.47794600  1
  Ti  Ti12  1  0.47794600  0.96543400  0.96543400  1
  Ti  Ti13  1  0.21031100  0.72165000  0.72165000  1
  Ti  Ti14  1  0.72165000  0.72165000  0.21031100  1
  Ti  Ti15  1  0.46913300  0.46913300  0.96974100  1
  Ti  Ti16  1  0.96974100  0.46913300  0.46913300  1
  Ti  Ti17  1  0.59429400  0.59429400  0.59429400  1
  Ti  Ti18  1  0.46913300  0.96974100  0.46913300  1
  O  O19  1  0.51074500  0.07467300  0.51074500  1
  O  O20  1  0.07467300  0.51074500  0.51074500  1
  O  O21  1  0.40225200  0.40225200  0.40225200  1
  O  O22  1  0.03506300  0.03506300  0.03506300  1
  O  O23  1  0.66425300  0.13119200  0.66425300  1
  O  O24  1  0.92401000  0.92401000  0.36523100  1
  O  O25  1  0.92401000  0.36523100  0.92401000  1
  O  O26  1  0.25997000  0.25997000  0.82739300  1
  O  O27  1  0.51074500  0.51074500  0.07467300  1
  O  O28  1  0.55570500  0.02377800  0.02377800  1
  O  O29  1  0.82739300  0.25997000  0.25997000  1
  O  O30  1  0.15378600  0.15378600  0.15378600  1
  O  O31  1  0.78540600  0.78540600  0.78540600  1
  O  O32  1  0.13119200  0.66425300  0.66425300  1
  O  O33  1  0.36523100  0.92401000  0.92401000  1
  O  O34  1  0.42473400  0.42473400  0.86595800  1
  O  O35  1  0.66425300  0.66425300  0.13119200  1
  O  O36  1  0.02377800  0.02377800  0.55570500  1
  O  O37  1  0.25997000  0.82739300  0.25997000  1
  O  O38  1  0.02377800  0.55570500  0.02377800  1
  O  O39  1  0.90220500  0.90220500  0.90220500  1
  O  O40  1  0.86595800  0.42473400  0.42473400  1
  O  O41  1  0.53392300  0.53392300  0.53392300  1
  O  O42  1  0.61320600  0.17463500  0.17463500  1
  O  O43  1  0.28401900  0.28401900  0.28401900  1
  O  O44  1  0.17463500  0.17463500  0.61320600  1
  O  O45  1  0.42473400  0.86595800  0.42473400  1
  O  O46  1  0.17463500  0.61320600  0.17463500  1
  O  O47  1  0.76113000  0.32490200  0.76113000  1
  O  O48  1  0.76113000  0.76113000  0.32490200  1
  O  O49  1  0.65246200  0.65246200  0.65246200  1
  O  O50  1  0.32490200  0.76113000  0.76113000  1
