# generated using pymatgen
data_Li2VF5
_symmetry_space_group_name_H-M   'P 1'
_cell_length_a   5.35157400
_cell_length_b   7.72448300
_cell_length_c   10.09109300
_cell_angle_alpha   90.00000000
_cell_angle_beta   90.00000000
_cell_angle_gamma   90.00000000
_symmetry_Int_Tables_number   1
_chemical_formula_structural   Li2VF5
_chemical_formula_sum   'Li8 V4 F20'
_cell_volume   417.14703927
_cell_formula_units_Z   4
loop_
 _symmetry_equiv_pos_site_id
 _symmetry_equiv_pos_as_xyz
  1  'x, y, z'
loop_
 _atom_site_type_symbol
 _atom_site_label
 _atom_site_symmetry_multiplicity
 _atom_site_fract_x
 _atom_site_fract_y
 _atom_site_fract_z
 _atom_site_occupancy
  Li  Li0  1  0.81582600  0.13931000  0.50252700  1
  Li  Li1  1  0.81582600  0.13931000  0.99747300  1
  Li  Li2  1  0.31582600  0.36069000  0.00252700  1
  Li  Li3  1  0.31582600  0.36069000  0.49747300  1
  Li  Li4  1  0.68417400  0.63931000  0.50252700  1
  Li  Li5  1  0.68417400  0.63931000  0.99747300  1
  Li  Li6  1  0.18417400  0.86069000  0.00252700  1
  Li  Li7  1  0.18417400  0.86069000  0.49747300  1
  V  V8  1  0.29099200  0.11796600  0.25000000  1
  V  V9  1  0.79099200  0.38203400  0.75000000  1
  V  V10  1  0.20900800  0.61796600  0.25000000  1
  V  V11  1  0.70900800  0.88203400  0.75000000  1
  F  F12  1  0.05661600  0.05397800  0.11443900  1
  F  F13  1  0.05661600  0.05397800  0.38556100  1
  F  F14  1  0.62248100  0.14050200  0.75000000  1
  F  F15  1  0.51226500  0.18041400  0.10020000  1
  F  F16  1  0.51226500  0.18041400  0.39980000  1
  F  F17  1  0.01226500  0.31958600  0.60020000  1
  F  F18  1  0.01226500  0.31958600  0.89980000  1
  F  F19  1  0.12248100  0.35949800  0.25000000  1
  F  F20  1  0.55661600  0.44602200  0.61443900  1
  F  F21  1  0.55661600  0.44602200  0.88556100  1
  F  F22  1  0.44338400  0.55397800  0.11443900  1
  F  F23  1  0.44338400  0.55397800  0.38556100  1
  F  F24  1  0.87751900  0.64050200  0.75000000  1
  F  F25  1  0.98773500  0.68041400  0.10020000  1
  F  F26  1  0.98773500  0.68041400  0.39980000  1
  F  F27  1  0.48773500  0.81958600  0.60020000  1
  F  F28  1  0.48773500  0.81958600  0.89980000  1
  F  F29  1  0.37751900  0.85949800  0.25000000  1
  F  F30  1  0.94338400  0.94602200  0.61443900  1
  F  F31  1  0.94338400  0.94602200  0.88556100  1
