# generated using pymatgen
data_Na2LiFePCO7
_symmetry_space_group_name_H-M   'P 1'
_cell_length_a   6.66255600
_cell_length_b   8.85570576
_cell_length_c   10.31479924
_cell_angle_alpha   88.36064878
_cell_angle_beta   89.54361416
_cell_angle_gamma   89.40484002
_symmetry_Int_Tables_number   1
_chemical_formula_structural   Na2LiFePCO7
_chemical_formula_sum   'Na8 Li4 Fe4 P4 C4 O28'
_cell_volume   608.29021026
_cell_formula_units_Z   4
loop_
 _symmetry_equiv_pos_site_id
 _symmetry_equiv_pos_as_xyz
  1  'x, y, z'
loop_
 _atom_site_type_symbol
 _atom_site_label
 _atom_site_symmetry_multiplicity
 _atom_site_fract_x
 _atom_site_fract_y
 _atom_site_fract_z
 _atom_site_occupancy
  Na  Na0  1  0.75672700  0.91827400  0.11902800  1
  Na  Na1  1  0.75437700  0.91839500  0.61996300  1
  Na  Na2  1  0.00045100  0.73951200  0.37447600  1
  Na  Na3  1  0.49995600  0.73994600  0.37536000  1
  Na  Na4  1  0.49919800  0.74045200  0.87355000  1
  Na  Na5  1  0.49669200  0.25862500  0.12445900  1
  Na  Na6  1  0.49712500  0.26166500  0.62232100  1
  Na  Na7  1  0.00388000  0.26060300  0.62607000  1
  Li  Li8  1  0.98398100  0.72442900  0.88151500  1
  Li  Li9  1  0.01458500  0.27117000  0.12348800  1
  Li  Li10  1  0.24136100  0.09307400  0.37350700  1
  Li  Li11  1  0.23601200  0.08910200  0.87510900  1
  Fe  Fe12  1  0.24962000  0.64923200  0.10708100  1
  Fe  Fe13  1  0.24742700  0.64808900  0.60984500  1
  Fe  Fe14  1  0.75249100  0.35164600  0.38794200  1
  Fe  Fe15  1  0.75240100  0.34887600  0.89117800  1
  P  P16  1  0.75593000  0.58302700  0.14588100  1
  P  P17  1  0.75353500  0.58831800  0.64914900  1
  P  P18  1  0.24724100  0.40463400  0.34946300  1
  P  P19  1  0.24499200  0.41099800  0.85418300  1
  C  C20  1  0.24089600  0.95404300  0.13522100  1
  C  C21  1  0.24745800  0.94671300  0.64021400  1
  C  C22  1  0.75362900  0.06025900  0.36190000  1
  C  C23  1  0.75960600  0.05263200  0.86630700  1
  O  O24  1  0.74672000  0.91522900  0.35377000  1
  O  O25  1  0.77364700  0.90688900  0.86041100  1
  O  O26  1  0.25081800  0.91120700  0.01544900  1
  O  O27  1  0.24846100  0.90731100  0.51866900  1
  O  O28  1  0.24706300  0.85160700  0.22924700  1
  O  O29  1  0.24009700  0.84315000  0.73228600  1
  O  O30  1  0.93519700  0.68448300  0.10049400  1
  O  O31  1  0.56194400  0.67084800  0.10363700  1
  O  O32  1  0.93607500  0.68413700  0.60193300  1
  O  O33  1  0.56225100  0.68344700  0.61279100  1
  O  O34  1  0.75387300  0.56565700  0.29717200  1
  O  O35  1  0.25242600  0.55942100  0.41564000  1
  O  O36  1  0.76400000  0.56779800  0.80028000  1
  O  O37  1  0.22842700  0.56875400  0.91529300  1
  O  O38  1  0.77055900  0.42456800  0.08708200  1
  O  O39  1  0.23236000  0.42984000  0.19913300  1
  O  O40  1  0.75018700  0.43263500  0.58554900  1
  O  O41  1  0.24244200  0.43373400  0.70378000  1
  O  O42  1  0.43730400  0.30702500  0.38202200  1
  O  O43  1  0.06901900  0.30484600  0.39788600  1
  O  O44  1  0.43924600  0.32274800  0.89397700  1
  O  O45  1  0.07032200  0.30399200  0.89916500  1
  O  O46  1  0.76260800  0.14681500  0.25840400  1
  O  O47  1  0.75494500  0.13719300  0.76068900  1
  O  O48  1  0.75162400  0.12258100  0.47539500  1
  O  O49  1  0.74953600  0.11851900  0.97725700  1
  O  O50  1  0.22549900  0.09495900  0.16410200  1
  O  O51  1  0.25377600  0.08689200  0.67127900  1
