# generated using pymatgen
data_Li3Cr2(PO4)3
_symmetry_space_group_name_H-M   'P 1'
_cell_length_a   8.99786593
_cell_length_b   8.37831644
_cell_length_c   8.38618238
_cell_angle_alpha   59.88374026
_cell_angle_beta   89.75074843
_cell_angle_gamma   62.11752585
_symmetry_Int_Tables_number   1
_chemical_formula_structural   Li3Cr2(PO4)3
_chemical_formula_sum   'Li6 Cr4 P6 O24'
_cell_volume   460.93097535
_cell_formula_units_Z   2
loop_
 _symmetry_equiv_pos_site_id
 _symmetry_equiv_pos_as_xyz
  1  'x, y, z'
loop_
 _atom_site_type_symbol
 _atom_site_label
 _atom_site_symmetry_multiplicity
 _atom_site_fract_x
 _atom_site_fract_y
 _atom_site_fract_z
 _atom_site_occupancy
  Li  Li0  1  0.84836897  0.81439909  0.91786183  1
  Li  Li1  1  0.85653573  0.40829245  0.67151000  1
  Li  Li2  1  0.62657247  0.18750540  0.25439035  1
  Li  Li3  1  0.13782611  0.94219893  0.73081533  1
  Li  Li4  1  0.13507097  0.60197381  0.32812997  1
  Li  Li5  1  0.13441547  0.18738719  0.07879008  1
  Cr  Cr6  1  0.95517581  0.69714671  0.64774951  1
  Cr  Cr7  1  0.56390901  0.29432383  0.85326510  1
  Cr  Cr8  1  0.43204056  0.71280127  0.14354869  1
  Cr  Cr9  1  0.04128548  0.30675624  0.34551871  1
  P  P10  1  0.75176369  0.49777834  0.96177635  1
  P  P11  1  0.74701426  0.20939324  0.53946522  1
  P  P12  1  0.74739160  0.79165068  0.25048025  1
  P  P13  1  0.24975248  0.21281185  0.74735746  1
  P  P14  1  0.25095302  0.78836841  0.46333414  1
  P  P15  1  0.24363899  0.50610421  0.03866805  1
  O  O16  1  0.80085207  0.66555740  0.82652208  1
  O  O17  1  0.73686615  0.38458923  0.86748154  1
  O  O18  1  0.89977808  0.25436978  0.53639487  1
  O  O19  1  0.73052740  0.13409212  0.74594259  1
  O  O20  1  0.58024290  0.60908451  0.00029320  1
  O  O21  1  0.79867840  0.02445264  0.50879707  1
  O  O22  1  0.80297024  0.70078428  0.46796388  1
  O  O23  1  0.90545260  0.64223242  0.20612417  1
  O  O24  1  0.90852827  0.30975403  0.15423306  1
  O  O25  1  0.41807495  0.19738730  0.80241734  1
  O  O26  1  0.26696496  0.98802842  0.87523673  1
  O  O27  1  0.57545326  0.40677874  0.37975187  1
  O  O28  1  0.42732298  0.58904154  0.61347843  1
  O  O29  1  0.71866317  0.02208149  0.12755600  1
  O  O30  1  0.58246704  0.79827021  0.20010293  1
  O  O31  1  0.09300949  0.69820605  0.84054753  1
  O  O32  1  0.09223247  0.36615648  0.78965979  1
  O  O33  1  0.19353315  0.30052756  0.53097934  1
  O  O34  1  0.19043937  0.97613228  0.49296682  1
  O  O35  1  0.42109195  0.38308257  0.01276904  1
  O  O36  1  0.26656526  0.86853761  0.25529201  1
  O  O37  1  0.10792555  0.72850948  0.47594247  1
  O  O38  1  0.25853509  0.61896820  0.13270357  1
  O  O39  1  0.19274659  0.34023903  0.16755663  1
