# generated using pymatgen
data_Li6Nb3V3O16
_symmetry_space_group_name_H-M   'P 1'
_cell_length_a   6.06760951
_cell_length_b   6.06760951
_cell_length_c   10.10154108
_cell_angle_alpha   89.71265832
_cell_angle_beta   89.71265832
_cell_angle_gamma   60.40953600
_symmetry_Int_Tables_number   1
_chemical_formula_structural   Li6Nb3V3O16
_chemical_formula_sum   'Li6 Nb3 V3 O16'
_cell_volume   323.38783308
_cell_formula_units_Z   1
loop_
 _symmetry_equiv_pos_site_id
 _symmetry_equiv_pos_as_xyz
  1  'x, y, z'
loop_
 _atom_site_type_symbol
 _atom_site_label
 _atom_site_symmetry_multiplicity
 _atom_site_fract_x
 _atom_site_fract_y
 _atom_site_fract_z
 _atom_site_occupancy
  Li  Li0  1  0.34591400  0.34591400  0.49770000  1
  Li  Li1  1  0.33404300  0.33404300  0.10497900  1
  Li  Li2  1  0.99333200  0.99333200  0.00039600  1
  Li  Li3  1  0.98653600  0.98653600  0.50180000  1
  Li  Li4  1  0.67327900  0.67327900  0.98731800  1
  Li  Li5  1  0.66921600  0.66921600  0.61650700  1
  Nb  Nb6  1  0.17378300  0.17378300  0.77223600  1
  Nb  Nb7  1  0.83472200  0.34423900  0.28722500  1
  Nb  Nb8  1  0.34423900  0.83472200  0.28722500  1
  V  V9  1  0.83379500  0.83379500  0.28402900  1
  V  V10  1  0.66657300  0.18451400  0.79061900  1
  V  V11  1  0.18451400  0.66657300  0.79061900  1
  O  O12  1  0.69330500  0.15575800  0.38967100  1
  O  O13  1  0.48159900  0.48159900  0.68326700  1
  O  O14  1  0.33576700  0.33576700  0.89406100  1
  O  O15  1  0.00346700  0.00346700  0.68204700  1
  O  O16  1  0.00810200  0.00810200  0.18022200  1
  O  O17  1  0.15575800  0.69330500  0.38967100  1
  O  O18  1  0.48915500  0.02954600  0.67855700  1
  O  O19  1  0.02954600  0.48915500  0.67855700  1
  O  O20  1  0.85009800  0.85009800  0.88216600  1
  O  O21  1  0.15452800  0.15452800  0.39762500  1
  O  O22  1  0.97387200  0.51053400  0.17420500  1
  O  O23  1  0.51053400  0.97387200  0.17420500  1
  O  O24  1  0.66175200  0.66175200  0.40073200  1
  O  O25  1  0.84189500  0.30272400  0.89323700  1
  O  O26  1  0.51399800  0.51399800  0.18024900  1
  O  O27  1  0.30272400  0.84189500  0.89323700  1
