# generated using pymatgen
data_LiMnP3(HO5)2
_symmetry_space_group_name_H-M   'P 1'
_cell_length_a   11.42698400
_cell_length_b   8.81547700
_cell_length_c   9.47355989
_cell_angle_alpha   63.56657207
_cell_angle_beta   90.00000000
_cell_angle_gamma   90.00000000
_symmetry_Int_Tables_number   1
_chemical_formula_structural   LiMnP3(HO5)2
_chemical_formula_sum   'Li4 Mn4 P12 H8 O40'
_cell_volume   854.54127914
_cell_formula_units_Z   4
loop_
 _symmetry_equiv_pos_site_id
 _symmetry_equiv_pos_as_xyz
  1  'x, y, z'
loop_
 _atom_site_type_symbol
 _atom_site_label
 _atom_site_symmetry_multiplicity
 _atom_site_fract_x
 _atom_site_fract_y
 _atom_site_fract_z
 _atom_site_occupancy
  Li  Li0  1  0.83673700  0.92376400  0.58528100  1
  Li  Li1  1  0.66326300  0.92376400  0.08528100  1
  Li  Li2  1  0.33673700  0.07623600  0.91471900  1
  Li  Li3  1  0.16326300  0.07623600  0.41471900  1
  Mn  Mn4  1  0.10305200  0.59698700  0.71819300  1
  Mn  Mn5  1  0.60305200  0.40301300  0.78180700  1
  Mn  Mn6  1  0.39694800  0.59698700  0.21819300  1
  Mn  Mn7  1  0.89694800  0.40301300  0.28180700  1
  P  P8  1  0.02304900  0.90290900  0.81863700  1
  P  P9  1  0.52746000  0.73338900  0.86206200  1
  P  P10  1  0.47695100  0.90290900  0.31863700  1
  P  P11  1  0.38570300  0.67727900  0.63329600  1
  P  P12  1  0.97254000  0.73338900  0.36206200  1
  P  P13  1  0.88570300  0.32272100  0.86670400  1
  P  P14  1  0.11429700  0.67727900  0.13329600  1
  P  P15  1  0.02746000  0.26661100  0.63793800  1
  P  P16  1  0.61429700  0.32272100  0.36670400  1
  P  P17  1  0.52304900  0.09709100  0.68136300  1
  P  P18  1  0.47254000  0.26661100  0.13793800  1
  P  P19  1  0.97695100  0.09709100  0.18136300  1
  H  H20  1  0.84545200  0.65666300  0.97544200  1
  H  H21  1  0.27177700  0.43870200  0.98154200  1
  H  H22  1  0.65454800  0.65666300  0.47544200  1
  H  H23  1  0.77177700  0.56129800  0.51845800  1
  H  H24  1  0.22822300  0.43870200  0.48154200  1
  H  H25  1  0.34545200  0.34333700  0.52455800  1
  H  H26  1  0.72822300  0.56129800  0.01845800  1
  H  H27  1  0.15454800  0.34333700  0.02455800  1
  O  O28  1  0.89575300  0.90995600  0.77609100  1
  O  O29  1  0.57743500  0.91018800  0.72679100  1
  O  O30  1  0.50617900  0.75996300  0.00645300  1
  O  O31  1  0.10689700  0.81706800  0.75570700  1
  O  O32  1  0.40491900  0.71191700  0.78747300  1
  O  O33  1  0.46766200  0.82687700  0.50732300  1
  O  O34  1  0.60424700  0.90995600  0.27609100  1
  O  O35  1  0.61083200  0.59579700  0.87321800  1
  O  O36  1  0.92256500  0.91018800  0.22679100  1
  O  O37  1  0.99382100  0.75996300  0.50645300  1
  O  O38  1  0.26008900  0.71271300  0.58652900  1
  O  O39  1  0.39310300  0.81706800  0.25570700  1
  O  O40  1  0.20471700  0.40754600  0.93333400  1
  O  O41  1  0.93915900  0.49016200  0.83739600  1
  O  O42  1  0.43915900  0.50983800  0.66260400  1
  O  O43  1  0.09508100  0.71191700  0.28747300  1
  O  O44  1  0.70471700  0.59245400  0.56666600  1
  O  O45  1  0.03233800  0.82687700  0.00732200  1
  O  O46  1  0.88916800  0.59579700  0.37321800  1
  O  O47  1  0.76008900  0.28728700  0.91347100  1
  O  O48  1  0.23991100  0.71271300  0.08652900  1
  O  O49  1  0.11083200  0.40420300  0.62678200  1
  O  O50  1  0.96766200  0.17312300  0.99267700  1
  O  O51  1  0.29528300  0.40754600  0.43333400  1
  O  O52  1  0.90491900  0.28808300  0.71252700  1
  O  O53  1  0.56084100  0.49016200  0.33739600  1
  O  O54  1  0.06084100  0.50983800  0.16260400  1
  O  O55  1  0.79528300  0.59245400  0.06666600  1
  O  O56  1  0.60689700  0.18293200  0.74429300  1
  O  O57  1  0.73991100  0.28728700  0.41347100  1
  O  O58  1  0.00617900  0.24003700  0.49354700  1
  O  O59  1  0.07743500  0.08981200  0.77320900  1
  O  O60  1  0.38916800  0.40420300  0.12678200  1
  O  O61  1  0.39575300  0.09004400  0.72390900  1
  O  O62  1  0.53233800  0.17312300  0.49267700  1
  O  O63  1  0.59508100  0.28808300  0.21252700  1
  O  O64  1  0.89310300  0.18293200  0.24429300  1
  O  O65  1  0.49382100  0.24003700  0.99354700  1
  O  O66  1  0.42256500  0.08981200  0.27320900  1
  O  O67  1  0.10424700  0.09004400  0.22390900  1
