# generated using pymatgen
data_LiCoPO4
_symmetry_space_group_name_H-M   'P 1'
_cell_length_a   5.16928645
_cell_length_b   8.95288554
_cell_length_c   10.73349267
_cell_angle_alpha   114.66228795
_cell_angle_beta   103.86522565
_cell_angle_gamma   89.99571419
_symmetry_Int_Tables_number   1
_chemical_formula_structural   LiCoPO4
_chemical_formula_sum   'Li4 Co4 P4 O16'
_cell_volume   435.46123268
_cell_formula_units_Z   4
loop_
 _symmetry_equiv_pos_site_id
 _symmetry_equiv_pos_as_xyz
  1  'x, y, z'
loop_
 _atom_site_type_symbol
 _atom_site_label
 _atom_site_symmetry_multiplicity
 _atom_site_fract_x
 _atom_site_fract_y
 _atom_site_fract_z
 _atom_site_occupancy
  Li  Li0  1  0.11466100  0.11514600  0.23017500  1
  Li  Li1  1  0.61469600  0.61518700  0.23017400  1
  Li  Li2  1  0.86527200  0.86531200  0.73024900  1
  Li  Li3  1  0.36514100  0.36524600  0.73015000  1
  Co  Co4  1  0.06256500  0.39597600  0.12551700  1
  Co  Co5  1  0.31308100  0.97941200  0.62549200  1
  Co  Co6  1  0.56263500  0.89592400  0.12545000  1
  Co  Co7  1  0.81309400  0.47943600  0.62556300  1
  P  P8  1  0.38038600  0.71356900  0.76045200  1
  P  P9  1  0.88041500  0.21369400  0.76054500  1
  P  P10  1  0.63001800  0.29680200  0.26055000  1
  P  P11  1  0.13010000  0.79689300  0.26050000  1
  O  O12  1  0.46114000  0.79374400  0.92227800  1
  O  O13  1  0.96156500  0.29390500  0.92235400  1
  O  O14  1  0.71072400  0.37717000  0.42238400  1
  O  O15  1  0.21136700  0.87740700  0.42231000  1
  O  O16  1  0.21201200  0.82811900  0.70417900  1
  O  O17  1  0.71204000  0.32822900  0.70432800  1
  O  O18  1  0.63566700  0.68424200  0.70339000  1
  O  O19  1  0.13547300  0.18419300  0.70329100  1
  O  O20  1  0.74520800  0.41004100  0.20395700  1
  O  O21  1  0.24500800  0.90991700  0.20365600  1
  O  O22  1  0.20844700  0.54373000  0.70313800  1
  O  O23  1  0.70832800  0.04388600  0.70338800  1
  O  O24  1  0.31791500  0.26967800  0.20386600  1
  O  O25  1  0.81798100  0.76981100  0.20397900  1
  O  O26  1  0.74181600  0.12592200  0.20317800  1
  O  O27  1  0.24176100  0.62592700  0.20314600  1
