# generated using pymatgen
data_Li3Co2(PO4)3
_symmetry_space_group_name_H-M   'P 1'
_cell_length_a   8.71419200
_cell_length_b   8.71296200
_cell_length_c   14.77152596
_cell_angle_alpha   54.78666485
_cell_angle_beta   90.00000000
_cell_angle_gamma   90.00000000
_symmetry_Int_Tables_number   1
_chemical_formula_structural   Li3Co2(PO4)3
_chemical_formula_sum   'Li12 Co8 P12 O48'
_cell_volume   916.31766548
_cell_formula_units_Z   4
loop_
 _symmetry_equiv_pos_site_id
 _symmetry_equiv_pos_as_xyz
  1  'x, y, z'
loop_
 _atom_site_type_symbol
 _atom_site_label
 _atom_site_symmetry_multiplicity
 _atom_site_fract_x
 _atom_site_fract_y
 _atom_site_fract_z
 _atom_site_occupancy
  Li  Li0  1  0.93756500  0.34898900  0.70979500  1
  Li  Li1  1  0.22487700  0.03054300  0.17925900  1
  Li  Li2  1  0.26841400  0.38724000  0.81791900  1
  Li  Li3  1  0.76841400  0.61276000  0.68208100  1
  Li  Li4  1  0.72487700  0.96945700  0.32074100  1
  Li  Li5  1  0.43756500  0.65101100  0.79020500  1
  Li  Li6  1  0.56243500  0.34898900  0.20979500  1
  Li  Li7  1  0.27512300  0.03054300  0.67925900  1
  Li  Li8  1  0.23158600  0.38724000  0.31791900  1
  Li  Li9  1  0.73158600  0.61276000  0.18208100  1
  Li  Li10  1  0.77512300  0.96945700  0.82074100  1
  Li  Li11  1  0.06243500  0.65101100  0.29020500  1
  Co  Co12  1  0.45789700  0.63596800  0.60316200  1
  Co  Co13  1  0.95789700  0.36403200  0.89683800  1
  Co  Co14  1  0.54021400  0.13568400  0.10878400  1
  Co  Co15  1  0.04021400  0.86431600  0.39121600  1
  Co  Co16  1  0.95978600  0.13568400  0.60878400  1
  Co  Co17  1  0.45978600  0.86431600  0.89121600  1
  Co  Co18  1  0.04210300  0.63596800  0.10316200  1
  Co  Co19  1  0.54210300  0.36403200  0.39683800  1
  P  P20  1  0.75473500  0.54324800  0.49975600  1
  P  P21  1  0.60830800  0.25489700  0.85083500  1
  P  P22  1  0.89306100  0.95955200  0.14776200  1
  P  P23  1  0.39306100  0.04044800  0.35223800  1
  P  P24  1  0.10830800  0.74510300  0.64916500  1
  P  P25  1  0.25473500  0.45675200  0.00024400  1
  P  P26  1  0.74526500  0.54324800  0.99975600  1
  P  P27  1  0.89169200  0.25489700  0.35083500  1
  P  P28  1  0.60693900  0.95955200  0.64776200  1
  P  P29  1  0.10693900  0.04044800  0.85223800  1
  P  P30  1  0.39169200  0.74510300  0.14916500  1
  P  P31  1  0.24526500  0.45675200  0.50024400  1
  O  O32  1  0.12932500  0.61649400  0.42912200  1
  O  O33  1  0.33449100  0.47950100  0.58162200  1
  O  O34  1  0.10855800  0.21758100  0.85294400  1
  O  O35  1  0.40752000  0.90055100  0.16783800  1
  O  O36  1  0.65255500  0.54737800  0.58460000  1
  O  O37  1  0.58169400  0.17325700  0.97445400  1
  O  O38  1  0.77460100  0.33496700  0.81565300  1
  O  O39  1  0.01940500  0.91636800  0.23519600  1
  O  O40  1  0.83370500  0.73849000  0.42929900  1
  O  O41  1  0.73600100  0.98725500  0.18322900  1
  O  O42  1  0.94392100  0.13568800  0.03611600  1
  O  O43  1  0.48918800  0.41675400  0.78388600  1
  O  O44  1  0.98918800  0.58324600  0.71611400  1
  O  O45  1  0.44392100  0.86431200  0.46388400  1
  O  O46  1  0.23600100  0.01274500  0.31677100  1
  O  O47  1  0.33370500  0.26151000  0.07070100  1
  O  O48  1  0.51940500  0.08363200  0.26480400  1
  O  O49  1  0.27460100  0.66503300  0.68434700  1
  O  O50  1  0.08169400  0.82674300  0.52554600  1
  O  O51  1  0.15255500  0.45262200  0.91540000  1
  O  O52  1  0.60855800  0.78241900  0.64705600  1
  O  O53  1  0.90752000  0.09944900  0.33216200  1
  O  O54  1  0.83449100  0.52049900  0.91837800  1
  O  O55  1  0.62932500  0.38350600  0.07087800  1
  O  O56  1  0.37067500  0.61649400  0.92912200  1
  O  O57  1  0.16550900  0.47950100  0.08162200  1
  O  O58  1  0.09248000  0.90055100  0.66783800  1
  O  O59  1  0.39144200  0.21758100  0.35294400  1
  O  O60  1  0.84744500  0.54737800  0.08460000  1
  O  O61  1  0.91830600  0.17325700  0.47445400  1
  O  O62  1  0.72539900  0.33496700  0.31565300  1
  O  O63  1  0.48059500  0.91636800  0.73519600  1
  O  O64  1  0.66629500  0.73849000  0.92929900  1
  O  O65  1  0.76399900  0.98725500  0.68322900  1
  O  O66  1  0.55607900  0.13568800  0.53611600  1
  O  O67  1  0.01081200  0.41675400  0.28388600  1
  O  O68  1  0.51081200  0.58324600  0.21611400  1
  O  O69  1  0.05607900  0.86431200  0.96388400  1
  O  O70  1  0.26399900  0.01274500  0.81677100  1
  O  O71  1  0.16629500  0.26151000  0.57070100  1
  O  O72  1  0.98059500  0.08363200  0.76480400  1
  O  O73  1  0.22539900  0.66503300  0.18434700  1
  O  O74  1  0.41830600  0.82674300  0.02554600  1
  O  O75  1  0.34744500  0.45262200  0.41540000  1
  O  O76  1  0.59248000  0.09944900  0.83216200  1
  O  O77  1  0.89144200  0.78241900  0.14705600  1
  O  O78  1  0.66550900  0.52049900  0.41837800  1
  O  O79  1  0.87067500  0.38350600  0.57087800  1
