# generated using pymatgen
data_Li3V3P8O29
_symmetry_space_group_name_H-M   'P 1'
_cell_length_a   9.73952600
_cell_length_b   9.77728936
_cell_length_c   14.26358488
_cell_angle_alpha   89.51538486
_cell_angle_beta   89.61402261
_cell_angle_gamma   60.17934846
_symmetry_Int_Tables_number   1
_chemical_formula_structural   Li3V3P8O29
_chemical_formula_sum   'Li6 V6 P16 O58'
_cell_volume   1178.36617688
_cell_formula_units_Z   2
loop_
 _symmetry_equiv_pos_site_id
 _symmetry_equiv_pos_as_xyz
  1  'x, y, z'
loop_
 _atom_site_type_symbol
 _atom_site_label
 _atom_site_symmetry_multiplicity
 _atom_site_fract_x
 _atom_site_fract_y
 _atom_site_fract_z
 _atom_site_occupancy
  Li  Li0  1  0.31061600  0.91575700  0.43777200  1
  Li  Li1  1  0.90905200  0.32310100  0.94331800  1
  Li  Li2  1  0.22462600  0.68528500  0.55597800  1
  Li  Li3  1  0.77342000  0.31752000  0.43960700  1
  Li  Li4  1  0.69305100  0.08390200  0.55930100  1
  Li  Li5  1  0.01462000  0.94342400  0.00746800  1
  V  V6  1  0.43527200  0.56910100  0.75891300  1
  V  V7  1  0.56228500  0.43390500  0.24156700  1
  V  V8  1  0.99860400  0.56813500  0.25161300  1
  V  V9  1  0.00275100  0.43497500  0.74637700  1
  V  V10  1  0.56489800  0.99591700  0.75821500  1
  V  V11  1  0.43583300  0.00451500  0.24286000  1
  P  P12  1  0.78364300  0.91648800  0.16134600  1
  P  P13  1  0.91224300  0.77524200  0.66044400  1
  P  P14  1  0.31904900  0.91089600  0.65754700  1
  P  P15  1  0.67139000  0.66190800  0.87089700  1
  P  P16  1  0.66177000  0.66584200  0.36623900  1
  P  P17  1  0.30492000  0.78059300  0.15927100  1
  P  P18  1  0.23024900  0.68016500  0.34069300  1
  P  P19  1  0.91606200  0.31457400  0.15629500  1
  P  P20  1  0.07993800  0.69222900  0.84369900  1
  P  P21  1  0.76676000  0.32331200  0.65780900  1
  P  P22  1  0.69273900  0.22243200  0.83858900  1
  P  P23  1  0.34127000  0.33377400  0.63427100  1
  P  P24  1  0.32785900  0.33770900  0.13002000  1
  P  P25  1  0.68122400  0.09071500  0.34259000  1
  P  P26  1  0.08737200  0.22547200  0.33753700  1
  P  P27  1  0.21760600  0.08481300  0.83902300  1
  O  O28  1  0.74753700  0.01768100  0.43499300  1
  O  O29  1  0.74176000  0.91848500  0.66240400  1
  O  O30  1  0.00893000  0.78283900  0.92945700  1
  O  O31  1  0.91535200  0.74117700  0.17089700  1
  O  O32  1  0.62013600  0.92086600  0.17084200  1
  O  O33  1  0.67251600  0.81103300  0.82651300  1
  O  O34  1  0.47819500  0.90374600  0.68233200  1
  O  O35  1  0.20341400  0.00163600  0.92184000  1
  O  O36  1  0.34948200  0.91241100  0.16877200  1
  O  O37  1  0.81464100  0.65900200  0.32211700  1
  O  O38  1  0.90442000  0.62069900  0.67767500  1
  O  O39  1  0.51661200  0.81962300  0.32620600  1
  O  O40  1  0.66801700  0.65982200  0.97458500  1
  O  O41  1  0.66408200  0.65764400  0.47041700  1
  O  O42  1  0.51787700  0.66998000  0.82601300  1
  O  O43  1  0.91430100  0.47147100  0.17292300  1
  O  O44  1  0.81562600  0.51133000  0.82857500  1
  O  O45  1  0.33866600  0.74317800  0.66692100  1
  O  O46  1  0.20897200  0.79820200  0.25588800  1
  O  O47  1  0.24236700  0.75299000  0.43022600  1
  O  O48  1  0.20566700  0.80150000  0.07734200  1
  O  O49  1  0.46165900  0.61850500  0.16841100  1
  O  O50  1  0.65782800  0.52014900  0.32251800  1
  O  O51  1  0.25638600  0.65198000  0.83042000  1
  O  O52  1  0.61687500  0.48127700  0.67985100  1
  O  O53  1  0.91329300  0.34516800  0.66695300  1
  O  O54  1  0.99296100  0.79837500  0.75265600  1
  O  O55  1  0.00540400  0.76726400  0.57603400  1
  O  O56  1  0.99236600  0.22764600  0.41985400  1
  O  O57  1  0.08500600  0.65687900  0.33567300  1
  O  O58  1  0.38111800  0.52175100  0.31978700  1
  O  O59  1  0.74316300  0.34542100  0.16988700  1
  O  O60  1  0.34083800  0.48176200  0.67555300  1
  O  O61  1  0.53372800  0.38222800  0.82949800  1
  O  O62  1  0.79354700  0.21380700  0.91810100  1
  O  O63  1  0.75712800  0.25182700  0.56740800  1
  O  O64  1  0.78573600  0.20225900  0.74046100  1
  O  O65  1  0.65823900  0.25995900  0.33466000  1
  O  O66  1  0.18535900  0.48266800  0.17694500  1
  O  O67  1  0.07749900  0.53616100  0.82879000  1
  O  O68  1  0.48117600  0.33131500  0.17377300  1
  O  O69  1  0.33043100  0.33438300  0.02651800  1
  O  O70  1  0.33710100  0.33662000  0.53025100  1
  O  O71  1  0.48529900  0.18114100  0.67607200  1
  O  O72  1  0.09275900  0.38011900  0.32320300  1
  O  O73  1  0.18663500  0.34107900  0.68003600  1
  O  O74  1  0.65481000  0.08607900  0.83475900  1
  O  O75  1  0.79890600  0.99427700  0.25801500  1
  O  O76  1  0.80497100  0.99480200  0.07825200  1
  O  O77  1  0.52293700  0.09601300  0.31934900  1
  O  O78  1  0.32858900  0.18737900  0.17484200  1
  O  O79  1  0.38033300  0.08312100  0.82776300  1
  O  O80  1  0.08221100  0.26065300  0.83435600  1
  O  O81  1  0.98167800  0.23855900  0.06488300  1
  O  O82  1  0.01270800  0.19997400  0.24165900  1
  O  O83  1  0.25829700  0.08189300  0.33737300  1
  O  O84  1  0.25601000  0.98216100  0.56440300  1
  O  O85  1  0.20018500  0.01192300  0.74094400  1
