# generated using pymatgen
data_Li3Cr3GaO8
_symmetry_space_group_name_H-M   'P 1'
_cell_length_a   5.18233796
_cell_length_b   5.91950415
_cell_length_c   10.67121360
_cell_angle_alpha   73.50953004
_cell_angle_beta   75.80844698
_cell_angle_gamma   72.85100688
_symmetry_Int_Tables_number   1
_chemical_formula_structural   Li3Cr3GaO8
_chemical_formula_sum   'Li6 Cr6 Ga2 O16'
_cell_volume   295.24453025
_cell_formula_units_Z   2
loop_
 _symmetry_equiv_pos_site_id
 _symmetry_equiv_pos_as_xyz
  1  'x, y, z'
loop_
 _atom_site_type_symbol
 _atom_site_label
 _atom_site_symmetry_multiplicity
 _atom_site_fract_x
 _atom_site_fract_y
 _atom_site_fract_z
 _atom_site_occupancy
  Li  Li0  1  0.99544096  0.51351463  0.99876265  1
  Li  Li1  1  0.00337854  0.12520400  0.25316373  1
  Li  Li2  1  0.99771341  0.25279583  0.49818373  1
  Li  Li3  1  0.00261138  0.37198974  0.75090176  1
  Li  Li4  1  0.00000977  0.98944071  0.99680379  1
  Li  Li5  1  0.99840186  0.74922715  0.49877945  1
  Cr  Cr6  1  0.49080488  0.31642135  0.12562035  1
  Cr  Cr7  1  0.49456508  0.81086203  0.12722672  1
  Cr  Cr8  1  0.50029177  0.06211079  0.62567983  1
  Cr  Cr9  1  0.51062150  0.18376644  0.87453415  1
  Cr  Cr10  1  0.51380404  0.93227981  0.37414401  1
  Cr  Cr11  1  0.48554652  0.56692292  0.62728182  1
  Ga  Ga12  1  0.49822549  0.43902692  0.37424972  1
  Ga  Ga13  1  0.50700890  0.69382573  0.87094164  1
  O  O14  1  0.27632993  0.15644973  0.06186264  1
  O  O15  1  0.28375443  0.64436359  0.05697251  1
  O  O16  1  0.28663545  0.26683431  0.30964683  1
  O  O17  1  0.28773476  0.02990783  0.81270838  1
  O  O18  1  0.28754013  0.77731285  0.31459251  1
  O  O19  1  0.27012329  0.40313460  0.56138865  1
  O  O20  1  0.28699298  0.52067071  0.80746535  1
  O  O21  1  0.28865027  0.89374674  0.55901588  1
  O  O22  1  0.72931694  0.10037128  0.43914119  1
  O  O23  1  0.70984986  0.46536011  0.18647214  1
  O  O24  1  0.70953413  0.99346056  0.18384812  1
  O  O25  1  0.71118862  0.24319484  0.68385109  1
  O  O26  1  0.71477194  0.58912231  0.45141542  1
  O  O27  1  0.72493949  0.34795454  0.94308687  1
  O  O28  1  0.71339516  0.71608847  0.68652493  1
  O  O29  1  0.72079752  0.84448145  0.94585014  1
