# generated using pymatgen
data_Li19Cr4P8O35F
_symmetry_space_group_name_H-M   'P 1'
_cell_length_a   6.87957200
_cell_length_b   10.57014223
_cell_length_c   10.59276994
_cell_angle_alpha   85.29282581
_cell_angle_beta   108.93925489
_cell_angle_gamma   108.94233908
_symmetry_Int_Tables_number   1
_chemical_formula_structural   Li19Cr4P8O35F
_chemical_formula_sum   'Li19 Cr4 P8 O35 F1'
_cell_volume   688.89518685
_cell_formula_units_Z   1
loop_
 _symmetry_equiv_pos_site_id
 _symmetry_equiv_pos_as_xyz
  1  'x, y, z'
loop_
 _atom_site_type_symbol
 _atom_site_label
 _atom_site_symmetry_multiplicity
 _atom_site_fract_x
 _atom_site_fract_y
 _atom_site_fract_z
 _atom_site_occupancy
  Li  Li0  1  0.00707200  0.25126400  0.76035200  1
  Li  Li1  1  0.50450600  0.25088700  0.76056000  1
  Li  Li2  1  0.62342800  0.26137200  0.51586100  1
  Li  Li3  1  0.37670000  0.48630700  0.74597800  1
  Li  Li4  1  0.11839700  0.73872500  0.99499300  1
  Li  Li5  1  0.87813200  0.01130300  0.24715900  1
  Li  Li6  1  0.73409300  0.73372600  0.73968100  1
  Li  Li7  1  0.22996900  0.72505000  0.73116100  1
  Li  Li8  1  0.26411600  0.26599200  0.26371000  1
  Li  Li9  1  0.77354000  0.27438400  0.27145900  1
  Li  Li10  1  0.00141500  0.49879700  0.50057400  1
  Li  Li11  1  0.61994300  0.99468500  0.74860300  1
  Li  Li12  1  0.38317500  0.25906400  0.00402100  1
  Li  Li13  1  0.83753100  0.73110600  0.48605900  1
  Li  Li14  1  0.14478500  0.51138200  0.25559700  1
  Li  Li15  1  0.99698600  0.74456900  0.23568800  1
  Li  Li16  1  0.48239300  0.74574200  0.23493300  1
  Li  Li17  1  0.00100200  0.99929400  0.99925200  1
  Li  Li18  1  0.49761600  0.99942800  0.99916900  1
  Cr  Cr19  1  0.26102300  0.00419800  0.50133800  1
  Cr  Cr20  1  0.75126600  0.50056600  0.99816400  1
  Cr  Cr21  1  0.73947200  0.99839500  0.50380400  1
  Cr  Cr22  1  0.25292700  0.49835500  0.00342000  1
  P  P23  1  0.87006500  0.50413600  0.72612800  1
  P  P24  1  0.13129700  0.27399900  0.49625300  1
  P  P25  1  0.63577900  0.77464300  0.99588500  1
  P  P26  1  0.36576900  0.00494900  0.22754600  1
  P  P27  1  0.13361800  0.99306500  0.77540600  1
  P  P28  1  0.86617500  0.22478300  0.00564300  1
  P  P29  1  0.64031300  0.49510600  0.27611000  1
  P  P30  1  0.35981900  0.72430200  0.50425100  1
  O  O31  1  0.75730700  0.09612900  0.91695100  1
  O  O32  1  0.24205800  0.08223700  0.90306700  1
  O  O33  1  0.07611300  0.30024100  0.96983900  1
  O  O34  1  0.69792900  0.30193100  0.96619900  1
  O  O35  1  0.29979900  0.03290500  0.69616800  1
  O  O36  1  0.92326300  0.02870900  0.69789800  1
  O  O37  1  0.43926000  0.44237900  0.93231900  1
  O  O38  1  0.56435600  0.07065900  0.56030700  1
  O  O39  1  0.77587700  0.35115500  0.69342400  1
  O  O40  1  0.22417400  0.30783900  0.64822200  1
  O  O41  1  0.88822900  0.18285400  0.45815800  1
  O  O42  1  0.73491400  0.54535000  0.79974100  1
  O  O43  1  0.26551400  0.19826600  0.45518300  1
  O  O44  1  0.11361700  0.54075600  0.81345200  1
  O  O45  1  0.57417900  0.80610400  0.84465000  1
  O  O46  1  0.42700000  0.15556600  0.19551500  1
  O  O47  1  0.87811300  0.59253000  0.60439000  1
  O  O48  1  0.12212400  0.39392700  0.40649500  1
  O  O49  1  0.68076500  0.40671000  0.39745900  1
  O  O50  1  0.32257100  0.60504900  0.59497000  1
  O  O51  1  0.92532400  0.19415700  0.15748000  1
  O  O52  1  0.07486900  0.84160800  0.80623400  1
  O  O53  1  0.24351500  0.81497900  0.54099400  1
  O  O54  1  0.61101200  0.80095400  0.54432900  1
  O  O55  1  0.39065200  0.45467500  0.20202100  1
  O  O56  1  0.75999400  0.45905500  0.18847600  1
  O  O57  1  0.73203600  0.64884600  0.30861700  1
  O  O58  1  0.26750100  0.68995900  0.35247000  1
  O  O59  1  0.06506600  0.55707700  0.06957200  1
  O  O60  1  0.42977400  0.69730700  0.03513100  1
  O  O61  1  0.57245600  0.96556600  0.30753000  1
  O  O62  1  0.19725800  0.97037900  0.30559800  1
  O  O63  1  0.80603100  0.69897100  0.03128400  1
  O  O64  1  0.25696500  0.91284000  0.10167900  1
  O  O65  1  0.74464400  0.90264600  0.08593400  1
  F  F66  1  0.93341700  0.92762100  0.44197100  1
