# generated using pymatgen
data_LiVPO4
_symmetry_space_group_name_H-M   'P 1'
_cell_length_a   6.00315300
_cell_length_b   7.64705900
_cell_length_c   14.00893600
_cell_angle_alpha   90.00000000
_cell_angle_beta   90.00000000
_cell_angle_gamma   90.00000000
_symmetry_Int_Tables_number   1
_chemical_formula_structural   LiVPO4
_chemical_formula_sum   'Li8 V8 P8 O32'
_cell_volume   643.10073265
_cell_formula_units_Z   8
loop_
 _symmetry_equiv_pos_site_id
 _symmetry_equiv_pos_as_xyz
  1  'x, y, z'
loop_
 _atom_site_type_symbol
 _atom_site_label
 _atom_site_symmetry_multiplicity
 _atom_site_fract_x
 _atom_site_fract_y
 _atom_site_fract_z
 _atom_site_occupancy
  Li  Li0  1  0.15821200  0.19011500  0.22477000  1
  Li  Li1  1  0.65821200  0.19011500  0.27523000  1
  Li  Li2  1  0.65821200  0.30988500  0.77523000  1
  Li  Li3  1  0.15821200  0.30988500  0.72477000  1
  Li  Li4  1  0.34178800  0.69011500  0.22477000  1
  Li  Li5  1  0.84178800  0.69011500  0.27523000  1
  Li  Li6  1  0.34178800  0.80988500  0.72477000  1
  Li  Li7  1  0.84178800  0.80988500  0.77523000  1
  V  V8  1  0.39294300  0.18571900  0.53205300  1
  V  V9  1  0.89294300  0.18571900  0.96794700  1
  V  V10  1  0.39294300  0.31428100  0.03205300  1
  V  V11  1  0.89294300  0.31428100  0.46794700  1
  V  V12  1  0.10705700  0.68571900  0.53205300  1
  V  V13  1  0.60705700  0.68571900  0.96794700  1
  V  V14  1  0.10705700  0.81428100  0.03205300  1
  V  V15  1  0.60705700  0.81428100  0.46794700  1
  P  P16  1  0.89705300  0.05168200  0.63038100  1
  P  P17  1  0.39705300  0.05168200  0.86961900  1
  P  P18  1  0.89705300  0.44831800  0.13038100  1
  P  P19  1  0.39705300  0.44831800  0.36961900  1
  P  P20  1  0.60294700  0.55168200  0.63038100  1
  P  P21  1  0.10294700  0.55168200  0.86961900  1
  P  P22  1  0.60294700  0.94831800  0.13038100  1
  P  P23  1  0.10294700  0.94831800  0.36961900  1
  O  O24  1  0.79918000  0.95828600  0.05496900  1
  O  O25  1  0.29918000  0.95828600  0.44503100  1
  O  O26  1  0.32123900  0.10312000  0.77001100  1
  O  O27  1  0.82123900  0.10312000  0.72998900  1
  O  O28  1  0.48372300  0.12669500  0.13571500  1
  O  O29  1  0.98372300  0.12669500  0.36428500  1
  O  O30  1  0.06037600  0.19854900  0.59099100  1
  O  O31  1  0.56037600  0.19854900  0.90900900  1
  O  O32  1  0.06037600  0.30145100  0.09099100  1
  O  O33  1  0.56037600  0.30145100  0.40900900  1
  O  O34  1  0.48372300  0.37330500  0.63571500  1
  O  O35  1  0.98372300  0.37330500  0.86428500  1
  O  O36  1  0.82123900  0.39688000  0.22998900  1
  O  O37  1  0.32123900  0.39688000  0.27001100  1
  O  O38  1  0.79918000  0.54171400  0.55496900  1
  O  O39  1  0.29918000  0.54171400  0.94503100  1
  O  O40  1  0.20082000  0.45828600  0.44503100  1
  O  O41  1  0.70082000  0.45828600  0.05496900  1
  O  O42  1  0.67876100  0.60312000  0.72998900  1
  O  O43  1  0.17876100  0.60312000  0.77001100  1
  O  O44  1  0.01627700  0.62669500  0.13571500  1
  O  O45  1  0.51627700  0.62669500  0.36428500  1
  O  O46  1  0.43962400  0.69854900  0.59099100  1
  O  O47  1  0.93962400  0.69854900  0.90900900  1
  O  O48  1  0.43962400  0.80145100  0.09099100  1
  O  O49  1  0.93962400  0.80145100  0.40900900  1
  O  O50  1  0.01627700  0.87330500  0.63571500  1
  O  O51  1  0.51627700  0.87330500  0.86428500  1
  O  O52  1  0.67876100  0.89688000  0.22998900  1
  O  O53  1  0.17876100  0.89688000  0.27001100  1
  O  O54  1  0.70082000  0.04171400  0.55496900  1
  O  O55  1  0.20082000  0.04171400  0.94503100  1
