# generated using pymatgen
data_Li4Mn3Fe(BO3)4
_symmetry_space_group_name_H-M   'P 1'
_cell_length_a   5.24788900
_cell_length_b   5.25102486
_cell_length_c   20.87713532
_cell_angle_alpha   90.77322407
_cell_angle_beta   90.88309835
_cell_angle_gamma   119.84359601
_symmetry_Int_Tables_number   1
_chemical_formula_structural   Li4Mn3Fe(BO3)4
_chemical_formula_sum   'Li8 Mn6 Fe2 B8 O24'
_cell_volume   498.80593995
_cell_formula_units_Z   2
loop_
 _symmetry_equiv_pos_site_id
 _symmetry_equiv_pos_as_xyz
  1  'x, y, z'
loop_
 _atom_site_type_symbol
 _atom_site_label
 _atom_site_symmetry_multiplicity
 _atom_site_fract_x
 _atom_site_fract_y
 _atom_site_fract_z
 _atom_site_occupancy
  Li  Li0  1  0.67873700  0.65164000  0.33379200  1
  Li  Li1  1  0.65276500  0.67872900  0.08355600  1
  Li  Li2  1  0.67865900  0.65080100  0.83380600  1
  Li  Li3  1  0.65166900  0.67765100  0.58394000  1
  Li  Li4  1  0.34771300  0.33491200  0.20879200  1
  Li  Li5  1  0.33775400  0.34611700  0.45823500  1
  Li  Li6  1  0.34881200  0.33781500  0.70845800  1
  Li  Li7  1  0.33786800  0.34760800  0.95891600  1
  Mn  Mn8  1  0.66864700  0.00360000  0.44259400  1
  Mn  Mn9  1  0.67045500  0.00313100  0.94188500  1
  Mn  Mn10  1  0.32048100  0.00032300  0.06765200  1
  Mn  Mn11  1  0.00185600  0.32561900  0.31574200  1
  Mn  Mn12  1  0.00311000  0.32345200  0.81629900  1
  Mn  Mn13  1  0.00643500  0.67431400  0.69080200  1
  Fe  Fe14  1  0.31757100  0.00472200  0.56631300  1
  Fe  Fe15  1  0.00020000  0.67565400  0.19148100  1
  B  B16  1  0.99662200  0.34041900  0.06377800  1
  B  B17  1  0.99684000  0.33834600  0.56311900  1
  B  B18  1  0.66972100  0.00597700  0.18824800  1
  B  B19  1  0.66669000  0.00614500  0.68689700  1
  B  B20  1  0.34074700  0.99798700  0.31212300  1
  B  B21  1  0.34171900  0.99752300  0.81278000  1
  B  B22  1  0.00332000  0.66542100  0.43855100  1
  B  B23  1  0.00443700  0.66558500  0.93800800  1
  O  O24  1  0.93185100  0.25522400  0.20692000  1
  O  O25  1  0.93003200  0.24923700  0.70816000  1
  O  O26  1  0.74557800  0.06996600  0.04861700  1
  O  O27  1  0.96653300  0.57786000  0.08417000  1
  O  O28  1  0.74138500  0.07074300  0.54971300  1
  O  O29  1  0.97861300  0.58476100  0.58160700  1
  O  O30  1  0.41763400  0.02543200  0.17423100  1
  O  O31  1  0.73060700  0.64270200  0.43096500  1
  O  O32  1  0.42301500  0.03821400  0.67157700  1
  O  O33  1  0.73110400  0.64159200  0.93079400  1
  O  O34  1  0.65309900  0.73426700  0.18216500  1
  O  O35  1  0.64309500  0.73288700  0.68005300  1
  O  O36  1  0.36889600  0.27256000  0.30536100  1
  O  O37  1  0.37079500  0.27216900  0.80545500  1
  O  O38  1  0.27140100  0.36918900  0.05649900  1
  O  O39  1  0.57841600  0.96817400  0.33292300  1
  O  O40  1  0.26985300  0.35829500  0.55622900  1
  O  O41  1  0.57920400  0.96696700  0.83337400  1
  O  O42  1  0.03568500  0.42218200  0.42318700  1
  O  O43  1  0.03728700  0.42239500  0.92281800  1
  O  O44  1  0.24612500  0.92878400  0.45955200  1
  O  O45  1  0.24716700  0.92965100  0.95906900  1
  O  O46  1  0.07036700  0.74747800  0.29684000  1
  O  O47  1  0.07062800  0.74697900  0.79775400  1
