# generated using pymatgen
data_LiMn2(PO4)2
_symmetry_space_group_name_H-M   'P 1'
_cell_length_a   8.66222000
_cell_length_b   8.66583485
_cell_length_c   13.36519902
_cell_angle_alpha   108.56136244
_cell_angle_beta   108.49086023
_cell_angle_gamma   90.56063364
_symmetry_Int_Tables_number   1
_chemical_formula_structural   LiMn2(PO4)2
_chemical_formula_sum   'Li6 Mn12 P12 O48'
_cell_volume   895.10828233
_cell_formula_units_Z   6
loop_
 _symmetry_equiv_pos_site_id
 _symmetry_equiv_pos_as_xyz
  1  'x, y, z'
loop_
 _atom_site_type_symbol
 _atom_site_label
 _atom_site_symmetry_multiplicity
 _atom_site_fract_x
 _atom_site_fract_y
 _atom_site_fract_z
 _atom_site_occupancy
  Li  Li0  1  0.12005000  0.14553400  0.13187700  1
  Li  Li1  1  0.00000000  0.00000000  0.50000000  1
  Li  Li2  1  0.50000000  0.50000000  0.00000000  1
  Li  Li3  1  0.24901100  0.25029600  0.74897800  1
  Li  Li4  1  0.75098900  0.74970400  0.25102200  1
  Li  Li5  1  0.87995000  0.85446600  0.86812300  1
  Mn  Mn6  1  0.00587700  0.68797500  0.07127700  1
  Mn  Mn7  1  0.56231300  0.24613800  0.18276100  1
  Mn  Mn8  1  0.11235100  0.64047600  0.37609400  1
  Mn  Mn9  1  0.39685000  0.85558300  0.12583200  1
  Mn  Mn10  1  0.50556300  0.18969300  0.57057800  1
  Mn  Mn11  1  0.93949500  0.25775500  0.32419300  1
  Mn  Mn12  1  0.06050500  0.74224500  0.67580700  1
  Mn  Mn13  1  0.49443700  0.81030700  0.42942200  1
  Mn  Mn14  1  0.88764900  0.35952400  0.62390600  1
  Mn  Mn15  1  0.60315000  0.14441700  0.87416800  1
  Mn  Mn16  1  0.43768700  0.75386200  0.81723900  1
  Mn  Mn17  1  0.99412300  0.31202500  0.92872300  1
  P  P18  1  0.31447400  0.53043500  0.18515700  1
  P  P19  1  0.66460400  0.08400400  0.37535100  1
  P  P20  1  0.83414400  0.41398700  0.12548300  1
  P  P21  1  0.18491600  0.96873000  0.31303600  1
  P  P22  1  0.21805400  0.43271900  0.56452800  1
  P  P23  1  0.71984100  0.93760200  0.06289400  1
  P  P24  1  0.28015900  0.06239800  0.93710600  1
  P  P25  1  0.78194600  0.56728100  0.43547200  1
  P  P26  1  0.81508400  0.03127000  0.68696400  1
  P  P27  1  0.16585600  0.58601300  0.87451700  1
  P  P28  1  0.33539600  0.91599600  0.62464900  1
  P  P29  1  0.68552600  0.46956500  0.81484300  1
  O  O30  1  0.37851800  0.04654500  0.05219300  1
  O  O31  1  0.13843500  0.49874400  0.09483500  1
  O  O32  1  0.12399000  0.13263600  0.30065600  1
  O  O33  1  0.36317200  0.35960400  0.18631000  1
  O  O34  1  0.53518100  0.09571700  0.26790600  1
  O  O35  1  0.84910700  0.28223800  0.01944000  1
  O  O36  1  0.36032300  0.00026100  0.40452900  1
  O  O37  1  0.75240300  0.11146300  0.15527600  1
  O  O38  1  0.65191700  0.39078600  0.11874600  1
  O  O39  1  0.43396300  0.62433000  0.15351200  1
  O  O40  1  0.12107400  0.44933600  0.44977000  1
  O  O41  1  0.20189700  0.87483400  0.19746700  1
  O  O42  1  0.29898300  0.63116400  0.29957300  1
  O  O43  1  0.06659600  0.87452700  0.34455000  1
  O  O44  1  0.12034500  0.31663900  0.59621000  1
  O  O45  1  0.62899300  0.81648200  0.09450800  1
  O  O46  1  0.35920700  0.09894800  0.63225600  1
  O  O47  1  0.84721800  0.10610200  0.38222300  1
  O  O48  1  0.85600600  0.59587200  0.13239900  1
  O  O49  1  0.75183800  0.38924900  0.34561700  1
  O  O50  1  0.96762100  0.39823700  0.23081600  1
  O  O51  1  0.65301200  0.21439300  0.48250800  1
  O  O52  1  0.38476900  0.37649100  0.56231700  1
  O  O53  1  0.88741500  0.88472500  0.05158600  1
  O  O54  1  0.11258500  0.11527500  0.94841400  1
  O  O55  1  0.61523100  0.62350900  0.43768300  1
  O  O56  1  0.03237900  0.60176300  0.76918400  1
  O  O57  1  0.34698800  0.78560700  0.51749200  1
  O  O58  1  0.24816200  0.61075100  0.65438300  1
  O  O59  1  0.14399400  0.40412800  0.86760100  1
  O  O60  1  0.15278200  0.89389800  0.61777700  1
  O  O61  1  0.64079300  0.90105200  0.36774400  1
  O  O62  1  0.37100700  0.18351800  0.90549200  1
  O  O63  1  0.93340400  0.12547300  0.65545000  1
  O  O64  1  0.87965500  0.68336100  0.40379000  1
  O  O65  1  0.70101700  0.36883600  0.70042700  1
  O  O66  1  0.79810300  0.12516600  0.80253300  1
  O  O67  1  0.87892600  0.55066400  0.55023000  1
  O  O68  1  0.56603700  0.37567000  0.84648800  1
  O  O69  1  0.34808300  0.60921400  0.88125400  1
  O  O70  1  0.24759700  0.88853700  0.84472400  1
  O  O71  1  0.63967700  0.99973900  0.59547100  1
  O  O72  1  0.15089300  0.71776200  0.98056000  1
  O  O73  1  0.46481900  0.90428300  0.73209400  1
  O  O74  1  0.63682800  0.64039600  0.81369000  1
  O  O75  1  0.87601000  0.86736400  0.69934400  1
  O  O76  1  0.86156500  0.50125600  0.90516500  1
  O  O77  1  0.62148200  0.95345500  0.94780700  1
