# generated using pymatgen
data_Li2VFeP2(O4F)2
_symmetry_space_group_name_H-M   'P 1'
_cell_length_a   5.24306159
_cell_length_b   10.77144240
_cell_length_c   7.42833059
_cell_angle_alpha   72.99841955
_cell_angle_beta   71.14987852
_cell_angle_gamma   97.67578414
_symmetry_Int_Tables_number   1
_chemical_formula_structural   Li2VFeP2(O4F)2
_chemical_formula_sum   'Li4 V2 Fe2 P4 O16 F4'
_cell_volume   367.41608292
_cell_formula_units_Z   2
loop_
 _symmetry_equiv_pos_site_id
 _symmetry_equiv_pos_as_xyz
  1  'x, y, z'
loop_
 _atom_site_type_symbol
 _atom_site_label
 _atom_site_symmetry_multiplicity
 _atom_site_fract_x
 _atom_site_fract_y
 _atom_site_fract_z
 _atom_site_occupancy
  Li  Li0  1  0.27257100  0.80885400  0.81101900  1
  Li  Li1  1  0.27220000  0.30779300  0.80827700  1
  Li  Li2  1  0.72780000  0.69220700  0.19172300  1
  Li  Li3  1  0.72742900  0.19114600  0.18898100  1
  V  V4  1  0.00000000  0.50000000  0.00000000  1
  V  V5  1  0.00000000  0.00000000  0.50000000  1
  Fe  Fe6  1  0.00000000  0.00000000  0.00000000  1
  Fe  Fe7  1  0.00000000  0.50000000  0.50000000  1
  P  P8  1  0.32280800  0.82072800  0.23669000  1
  P  P9  1  0.32323300  0.32107700  0.23809500  1
  P  P10  1  0.67676700  0.67892300  0.76190500  1
  P  P11  1  0.67719200  0.17927200  0.76331000  1
  O  O12  1  0.13041600  0.83406100  0.11095000  1
  O  O13  1  0.13430800  0.33490600  0.11011500  1
  O  O14  1  0.24892400  0.89311000  0.38936500  1
  O  O15  1  0.30537800  0.67070100  0.34120600  1
  O  O16  1  0.24843000  0.39364500  0.38982800  1
  O  O17  1  0.30619500  0.17096200  0.34314600  1
  O  O18  1  0.63333500  0.87748400  0.08818800  1
  O  O19  1  0.63319300  0.37541900  0.08945800  1
  O  O20  1  0.36680700  0.62458100  0.91054200  1
  O  O21  1  0.36666500  0.12251600  0.91181200  1
  O  O22  1  0.69380500  0.82903800  0.65685400  1
  O  O23  1  0.75157000  0.60635500  0.61017200  1
  O  O24  1  0.69462200  0.32929900  0.65879400  1
  O  O25  1  0.75107600  0.10689000  0.61063500  1
  O  O26  1  0.86569200  0.66509400  0.88988500  1
  O  O27  1  0.86958400  0.16593900  0.88905000  1
  F  F28  1  0.12695800  0.96306800  0.74041900  1
  F  F29  1  0.12733100  0.46303000  0.73434100  1
  F  F30  1  0.87266900  0.53697000  0.26565900  1
  F  F31  1  0.87304200  0.03693200  0.25958100  1
