# generated using pymatgen
data_Li2MnCrO4
_symmetry_space_group_name_H-M   'P 1'
_cell_length_a   5.27422171
_cell_length_b   5.27422242
_cell_length_c   5.27422199
_cell_angle_alpha   134.25031995
_cell_angle_beta   134.25028904
_cell_angle_gamma   66.69734990
_symmetry_Int_Tables_number   1
_chemical_formula_structural   Li2MnCrO4
_chemical_formula_sum   'Li2 Mn1 Cr1 O4'
_cell_volume   74.07497886
_cell_formula_units_Z   1
loop_
 _symmetry_equiv_pos_site_id
 _symmetry_equiv_pos_as_xyz
  1  'x, y, z'
loop_
 _atom_site_type_symbol
 _atom_site_label
 _atom_site_symmetry_multiplicity
 _atom_site_fract_x
 _atom_site_fract_y
 _atom_site_fract_z
 _atom_site_occupancy
  Li  Li0  1  0.25000100  0.75000000  0.49999900  1
  Li  Li1  1  0.50000100  0.49999900  0.99999900  1
  Mn  Mn2  1  0.00000100  0.99999900  0.00000000  1
  Cr  Cr3  1  0.74999400  0.25000400  0.50000300  1
  O  O4  1  0.52047200  0.02047100  0.50000000  1
  O  O5  1  0.22959400  0.22959200  0.99999900  1
  O  O6  1  0.97952900  0.47952800  0.49999900  1
  O  O7  1  0.77040800  0.77040700  0.00000000  1
