# generated using pymatgen
data_Li3V3P8O29
_symmetry_space_group_name_H-M   'P 1'
_cell_length_a   9.74877300
_cell_length_b   9.75745581
_cell_length_c   14.29410122
_cell_angle_alpha   90.22714604
_cell_angle_beta   90.06544437
_cell_angle_gamma   119.78935325
_symmetry_Int_Tables_number   1
_chemical_formula_structural   Li3V3P8O29
_chemical_formula_sum   'Li6 V6 P16 O58'
_cell_volume   1180.01020628
_cell_formula_units_Z   2
loop_
 _symmetry_equiv_pos_site_id
 _symmetry_equiv_pos_as_xyz
  1  'x, y, z'
loop_
 _atom_site_type_symbol
 _atom_site_label
 _atom_site_symmetry_multiplicity
 _atom_site_fract_x
 _atom_site_fract_y
 _atom_site_fract_z
 _atom_site_occupancy
  Li  Li0  1  0.67530700  0.90913900  0.55690700  1
  Li  Li1  1  0.09542200  0.32457300  0.05580000  1
  Li  Li2  1  0.09365400  0.76889200  0.55798100  1
  Li  Li3  1  0.66426000  0.33595200  0.10076400  1
  Li  Li4  1  0.98039100  0.94137700  0.00075800  1
  Li  Li5  1  0.04080200  0.06142800  0.50567600  1
  V  V6  1  0.99955400  0.43209600  0.25480800  1
  V  V7  1  0.99939500  0.56229800  0.75058100  1
  V  V8  1  0.56077300  0.99881100  0.75704600  1
  V  V9  1  0.43102800  0.99857600  0.24588100  1
  V  V10  1  0.56579300  0.56785800  0.25251900  1
  V  V11  1  0.43678400  0.43886900  0.74661200  1
  P  P12  1  0.69465400  0.77616300  0.84398900  1
  P  P13  1  0.68937200  0.91790300  0.34089100  1
  P  P14  1  0.22542700  0.30428900  0.34270900  1
  P  P15  1  0.32906700  0.66090800  0.13128800  1
  P  P16  1  0.33485000  0.67151100  0.63218500  1
  P  P17  1  0.09066000  0.31376800  0.84095400  1
  P  P18  1  0.91072200  0.21723200  0.66175800  1
  P  P19  1  0.21757700  0.91487600  0.84473200  1
  P  P20  1  0.78231800  0.08849500  0.15861500  1
  P  P21  1  0.08730000  0.77635800  0.34119300  1
  P  P22  1  0.90858900  0.68926400  0.16145200  1
  P  P23  1  0.66349100  0.33111600  0.36668200  1
  P  P24  1  0.66607700  0.33563900  0.86606900  1
  P  P25  1  0.77864200  0.69538200  0.65951000  1
  P  P26  1  0.30646200  0.08461600  0.66206700  1
  P  P27  1  0.30863600  0.22201800  0.15877900  1
  O  O28  1  0.78775700  0.79518200  0.57872500  1
  O  O29  1  0.65680800  0.74485300  0.32822800  1
  O  O30  1  0.80290000  0.00682100  0.07769200  1
  O  O31  1  0.65083200  0.90969100  0.82990700  1
  O  O32  1  0.53952100  0.61644400  0.82890100  1
  O  O33  1  0.46763100  0.65015200  0.18139600  1
  O  O34  1  0.38492100  0.45800100  0.33071300  1
  O  O35  1  0.20913300  0.21413000  0.07825200  1
  O  O36  1  0.26135500  0.34582600  0.82722800  1
  O  O37  1  0.48366400  0.81735700  0.67688500  1
  O  O38  1  0.53291200  0.91758200  0.32194100  1
  O  O39  1  0.33600300  0.52520400  0.67839900  1
  O  O40  1  0.33062500  0.65443100  0.02803200  1
  O  O41  1  0.34235600  0.67682600  0.52834700  1
  O  O42  1  0.17663600  0.51635100  0.17241000  1
  O  O43  1  0.38003500  0.91965700  0.83198000  1
  O  O44  1  0.34051900  0.81488500  0.17455800  1
  O  O45  1  0.09007100  0.34612700  0.32891500  1
  O  O46  1  0.98882000  0.19691600  0.75763200  1
  O  O47  1  0.98985400  0.19605400  0.57927500  1
  O  O48  1  0.02168900  0.24533000  0.93285100  1
  O  O49  1  0.09203200  0.47300500  0.82191000  1
  O  O50  1  0.18331000  0.67180800  0.66980700  1
  O  O51  1  0.92004500  0.26600500  0.16251300  1
  O  O52  1  0.08830600  0.61898300  0.32338400  1
  O  O53  1  0.25839700  0.91556000  0.32631800  1
  O  O54  1  0.80444400  0.01642100  0.25687100  1
  O  O55  1  0.76405300  0.98281700  0.43312300  1
  O  O56  1  0.20586200  0.99923600  0.57949400  1
  O  O57  1  0.73448100  0.08375300  0.66672600  1
  O  O58  1  0.92075700  0.38110100  0.67199100  1
  O  O59  1  0.08686600  0.73914200  0.82688600  1
  O  O60  1  0.81534600  0.33559200  0.32079900  1
  O  O61  1  0.90371700  0.52795900  0.17041400  1
  O  O62  1  0.99016400  0.78744200  0.07991200  1
  O  O63  1  0.02310300  0.78353200  0.43387300  1
  O  O64  1  0.98620600  0.78945100  0.25738500  1
  O  O65  1  0.91481200  0.65544400  0.66002200  1
  O  O66  1  0.66479300  0.18516300  0.82467700  1
  O  O67  1  0.62592100  0.09573900  0.16732200  1
  O  O68  1  0.81698600  0.47932600  0.82156100  1
  O  O69  1  0.67116200  0.33793200  0.97001200  1
  O  O70  1  0.66703100  0.32913400  0.46978600  1
  O  O71  1  0.66459400  0.47809700  0.32165100  1
  O  O72  1  0.45983500  0.07602000  0.67437900  1
  O  O73  1  0.52095100  0.18444000  0.31810600  1
  O  O74  1  0.73194100  0.64872900  0.16784200  1
  O  O75  1  0.80357400  0.79445200  0.75458000  1
  O  O76  1  0.78649800  0.79822400  0.92983000  1
  O  O77  1  0.61842500  0.53894600  0.67073400  1
  O  O78  1  0.52186100  0.33729800  0.82210100  1
  O  O79  1  0.47230300  0.37436500  0.16919300  1
  O  O80  1  0.34555900  0.08302800  0.16158000  1
  O  O81  1  0.19320400  0.98140800  0.93145400  1
  O  O82  1  0.20312700  0.00634300  0.75499400  1
  O  O83  1  0.35045300  0.26096600  0.66664000  1
  O  O84  1  0.20175600  0.21181100  0.42853400  1
  O  O85  1  0.20795400  0.19742600  0.25296900  1
