# generated using pymatgen
data_Li7Ti5O12
_symmetry_space_group_name_H-M   'P 1'
_cell_length_a   5.08089793
_cell_length_b   5.08089793
_cell_length_c   9.98184141
_cell_angle_alpha   85.16189214
_cell_angle_beta   85.16189214
_cell_angle_gamma   120.01359281
_symmetry_Int_Tables_number   1
_chemical_formula_structural   Li7Ti5O12
_chemical_formula_sum   'Li7 Ti5 O12'
_cell_volume   219.93378719
_cell_formula_units_Z   1
loop_
 _symmetry_equiv_pos_site_id
 _symmetry_equiv_pos_as_xyz
  1  'x, y, z'
loop_
 _atom_site_type_symbol
 _atom_site_label
 _atom_site_symmetry_multiplicity
 _atom_site_fract_x
 _atom_site_fract_y
 _atom_site_fract_z
 _atom_site_occupancy
  Li  Li0  1  0.75423100  0.75423100  0.25688700  1
  Li  Li1  1  0.58957000  0.92172700  0.74433000  1
  Li  Li2  1  0.24576900  0.24576900  0.74311300  1
  Li  Li3  1  0.07827300  0.41043000  0.25567000  1
  Li  Li4  1  0.41043000  0.07827300  0.25567000  1
  Li  Li5  1  0.92172700  0.58957000  0.74433000  1
  Li  Li6  1  0.00000000  0.00000000  0.50000000  1
  Ti  Ti7  1  0.66672700  0.33327300  0.50000000  1
  Ti  Ti8  1  0.50000000  0.50000000  0.00000000  1
  Ti  Ti9  1  0.82887100  0.17112900  0.00000000  1
  Ti  Ti10  1  0.33327300  0.66672700  0.50000000  1
  Ti  Ti11  1  0.17112900  0.82887100  0.00000000  1
  O  O12  1  0.60806300  0.60806300  0.61298300  1
  O  O13  1  0.39193700  0.39193700  0.38701700  1
  O  O14  1  0.68286100  0.03772900  0.38692700  1
  O  O15  1  0.45557000  0.79809000  0.11873900  1
  O  O16  1  0.54443000  0.20191000  0.88126100  1
  O  O17  1  0.20191000  0.54443000  0.88126100  1
  O  O18  1  0.31713900  0.96227100  0.61307300  1
  O  O19  1  0.96227100  0.31713900  0.61307300  1
  O  O20  1  0.03772900  0.68286100  0.38692700  1
  O  O21  1  0.79809000  0.45557000  0.11873900  1
  O  O22  1  0.12651600  0.12651600  0.12143900  1
  O  O23  1  0.87348400  0.87348400  0.87856100  1
