# generated using pymatgen
data_Li3Mn5O8
_symmetry_space_group_name_H-M   'P 1'
_cell_length_a   6.09519958
_cell_length_b   6.09519958
_cell_length_c   6.09519965
_cell_angle_alpha   59.94281322
_cell_angle_beta   59.94281322
_cell_angle_gamma   59.94281032
_symmetry_Int_Tables_number   1
_chemical_formula_structural   Li3Mn5O8
_chemical_formula_sum   'Li3 Mn5 O8'
_cell_volume   159.91350037
_cell_formula_units_Z   1
loop_
 _symmetry_equiv_pos_site_id
 _symmetry_equiv_pos_as_xyz
  1  'x, y, z'
loop_
 _atom_site_type_symbol
 _atom_site_label
 _atom_site_symmetry_multiplicity
 _atom_site_fract_x
 _atom_site_fract_y
 _atom_site_fract_z
 _atom_site_occupancy
  Li  Li0  1  0.00000000  0.00000000  0.50000000  1
  Li  Li1  1  0.50000000  0.00000000  0.00000000  1
  Li  Li2  1  0.00000000  0.50000000  0.00000000  1
  Mn  Mn3  1  0.50000000  0.50000000  0.50000000  1
  Mn  Mn4  1  0.00000000  0.00000000  0.00000000  1
  Mn  Mn5  1  0.50000000  0.00000000  0.50000000  1
  Mn  Mn6  1  0.50000000  0.50000000  0.00000000  1
  Mn  Mn7  1  0.00000000  0.50000000  0.50000000  1
  O  O8  1  0.26636500  0.26636500  0.26636500  1
  O  O9  1  0.75028500  0.24925500  0.75028500  1
  O  O10  1  0.75028500  0.75028500  0.24925500  1
  O  O11  1  0.24925500  0.75028500  0.75028500  1
  O  O12  1  0.75074500  0.24971500  0.24971500  1
  O  O13  1  0.24971500  0.24971500  0.75074500  1
  O  O14  1  0.24971500  0.75074500  0.24971500  1
  O  O15  1  0.73363500  0.73363500  0.73363500  1
