# generated using pymatgen
data_Li5V3P8O29
_symmetry_space_group_name_H-M   'P 1'
_cell_length_a   9.78766300
_cell_length_b   9.82130409
_cell_length_c   14.07200899
_cell_angle_alpha   89.53350531
_cell_angle_beta   89.45027083
_cell_angle_gamma   60.33291192
_symmetry_Int_Tables_number   1
_chemical_formula_structural   Li5V3P8O29
_chemical_formula_sum   'Li10 V6 P16 O58'
_cell_volume   1175.32709755
_cell_formula_units_Z   2
loop_
 _symmetry_equiv_pos_site_id
 _symmetry_equiv_pos_as_xyz
  1  'x, y, z'
loop_
 _atom_site_type_symbol
 _atom_site_label
 _atom_site_symmetry_multiplicity
 _atom_site_fract_x
 _atom_site_fract_y
 _atom_site_fract_z
 _atom_site_occupancy
  Li  Li0  1  0.69128400  0.08345000  0.44107700  1
  Li  Li1  1  0.22837200  0.67838400  0.43881600  1
  Li  Li2  1  0.09531700  0.67814200  0.94296200  1
  Li  Li3  1  0.22528300  0.08959700  0.94026400  1
  Li  Li4  1  0.09216400  0.22805200  0.44011700  1
  Li  Li5  1  0.77764400  0.91714700  0.06104100  1
  Li  Li6  1  0.91769900  0.30432900  0.05779300  1
  Li  Li7  1  0.66183000  0.66348200  0.88824200  1
  Li  Li8  1  0.76805800  0.32190500  0.56222300  1
  Li  Li9  1  0.31822900  0.90814500  0.55809900  1
  V  V10  1  0.99972000  0.57260600  0.74363000  1
  V  V11  1  0.00032100  0.43576700  0.25050800  1
  V  V12  1  0.56738600  0.00223500  0.25098800  1
  V  V13  1  0.43214800  0.99936900  0.74765200  1
  V  V14  1  0.56426100  0.43024800  0.75672300  1
  V  V15  1  0.43685100  0.56697000  0.24471400  1
  P  P16  1  0.68399100  0.23107500  0.16089600  1
  P  P17  1  0.68412700  0.08697900  0.65903200  1
  P  P18  1  0.23740200  0.67977700  0.65658700  1
  P  P19  1  0.32318600  0.33619500  0.87155300  1
  P  P20  1  0.33259000  0.33459600  0.37012700  1
  P  P21  1  0.08929100  0.68237100  0.15746800  1
  P  P22  1  0.91382900  0.76991200  0.34074500  1
  P  P23  1  0.23080100  0.09236200  0.15831200  1
  P  P24  1  0.77036200  0.90658100  0.84139200  1
  P  P25  1  0.08614600  0.23296000  0.65898400  1
  P  P26  1  0.90976600  0.32239600  0.84204300  1
  P  P27  1  0.66650600  0.66258800  0.62868700  1
  P  P28  1  0.67230800  0.66628400  0.12789000  1
  P  P29  1  0.76547100  0.32131100  0.34323700  1
  P  P30  1  0.31826500  0.91219700  0.33944100  1
  P  P31  1  0.31661500  0.77114500  0.83986600  1
  O  O32  1  0.76065400  0.24264300  0.43450300  1
  O  O33  1  0.66533200  0.25181800  0.66378800  1
  O  O34  1  0.76686000  0.98397200  0.93188000  1
  O  O35  1  0.66624100  0.08131900  0.16333200  1
  O  O36  1  0.52047800  0.37605300  0.17615900  1
  O  O37  1  0.47193000  0.34010500  0.82808100  1
  O  O38  1  0.38359900  0.52099900  0.67285100  1
  O  O39  1  0.22757700  0.76347200  0.92299100  1
  O  O40  1  0.25369900  0.65989500  0.16065900  1
  O  O41  1  0.48615600  0.18637200  0.33304700  1
  O  O42  1  0.52242500  0.09537300  0.68148500  1
  O  O43  1  0.32993300  0.48576500  0.33096200  1
  O  O44  1  0.31130100  0.35258700  0.97662400  1
  O  O45  1  0.31926000  0.33264200  0.47587800  1
  O  O46  1  0.17705100  0.48559000  0.82494300  1
  O  O47  1  0.37759400  0.10531600  0.17726400  1
  O  O48  1  0.32621200  0.18594400  0.83424700  1
  O  O49  1  0.08729100  0.66196800  0.66489500  1
  O  O50  1  0.99104200  0.79425500  0.24418000  1
  O  O51  1  0.01050200  0.75577700  0.42440800  1
  O  O52  1  0.99999300  0.75068600  0.06745200  1
  O  O53  1  0.09645700  0.52150200  0.17934000  1
  O  O54  1  0.18226700  0.33083400  0.32701500  1
  O  O55  1  0.92202100  0.74002900  0.83551000  1
  O  O56  1  0.09683700  0.38311400  0.67707800  1
  O  O57  1  0.25037400  0.08482100  0.65830000  1
  O  O58  1  0.78973100  0.99611500  0.75037800  1
  O  O59  1  0.75245500  0.00576000  0.56815000  1
  O  O60  1  0.24344900  0.00252600  0.42918800  1
  O  O61  1  0.74764700  0.91490900  0.34188300  1
  O  O62  1  0.90313900  0.61796600  0.32222000  1
  O  O63  1  0.07937600  0.25907600  0.16620600  1
  O  O64  1  0.81562800  0.66369500  0.67474200  1
  O  O65  1  0.89448600  0.48646600  0.82393000  1
  O  O66  1  0.00394200  0.24549400  0.92917900  1
  O  O67  1  0.99723300  0.24648900  0.56969300  1
  O  O68  1  0.99849800  0.21364500  0.75048800  1
  O  O69  1  0.91565100  0.33901000  0.33949400  1
  O  O70  1  0.67519000  0.81392200  0.16333700  1
  O  O71  1  0.62756900  0.88186100  0.82423800  1
  O  O72  1  0.82046700  0.51382800  0.17050500  1
  O  O73  1  0.68197000  0.65352500  0.02147000  1
  O  O74  1  0.67704500  0.65635300  0.52318700  1
  O  O75  1  0.66892100  0.51312800  0.67194500  1
  O  O76  1  0.48010900  0.90195500  0.32083500  1
  O  O77  1  0.51393100  0.81327900  0.66514400  1
  O  O78  1  0.74501900  0.34314500  0.84255500  1
  O  O79  1  0.78700900  0.20734000  0.25637900  1
  O  O80  1  0.77226400  0.23581100  0.07613200  1
  O  O81  1  0.61766100  0.47975900  0.32683000  1
  O  O82  1  0.52408300  0.66495100  0.17039300  1
  O  O83  1  0.48538400  0.62857900  0.82771500  1
  O  O84  1  0.33557200  0.92037800  0.83873500  1
  O  O85  1  0.22802700  0.01886200  0.06725100  1
  O  O86  1  0.20978600  0.00122400  0.24918300  1
  O  O87  1  0.33500400  0.74881200  0.33977200  1
  O  O88  1  0.24023300  0.75853800  0.56560000  1
  O  O89  1  0.21875500  0.79355300  0.74319600  1
