# generated using pymatgen
data_Li4MnCrO6
_symmetry_space_group_name_H-M   'P 1'
_cell_length_a   5.04342900
_cell_length_b   8.65993267
_cell_length_c   9.75427835
_cell_angle_alpha   98.20585127
_cell_angle_beta   95.26574809
_cell_angle_gamma   89.76047329
_symmetry_Int_Tables_number   1
_chemical_formula_structural   Li4MnCrO6
_chemical_formula_sum   'Li16 Mn4 Cr4 O24'
_cell_volume   419.86696169
_cell_formula_units_Z   4
loop_
 _symmetry_equiv_pos_site_id
 _symmetry_equiv_pos_as_xyz
  1  'x, y, z'
loop_
 _atom_site_type_symbol
 _atom_site_label
 _atom_site_symmetry_multiplicity
 _atom_site_fract_x
 _atom_site_fract_y
 _atom_site_fract_z
 _atom_site_occupancy
  Li  Li0  1  0.99654800  0.16737600  0.49874700  1
  Li  Li1  1  0.87473300  0.37621300  0.74972300  1
  Li  Li2  1  0.75013900  0.25004300  0.00062100  1
  Li  Li3  1  0.74071200  0.92047800  0.99960000  1
  Li  Li4  1  0.75512700  0.57996800  0.00019800  1
  Li  Li5  1  0.62384400  0.12268800  0.24996200  1
  Li  Li6  1  0.50267800  0.33195100  0.50056600  1
  Li  Li7  1  0.49992400  0.00036700  0.50008400  1
  Li  Li8  1  0.49207400  0.66784500  0.49937700  1
  Li  Li9  1  0.37413500  0.87525700  0.75024600  1
  Li  Li10  1  0.25373800  0.75077800  0.99919000  1
  Li  Li11  1  0.24281900  0.42067900  0.00010600  1
  Li  Li12  1  0.25814600  0.07858400  0.99986100  1
  Li  Li13  1  0.12378800  0.62286100  0.25008800  1
  Li  Li14  1  0.00594900  0.83122000  0.50094400  1
  Li  Li15  1  0.00345200  0.50136100  0.49977300  1
  Mn  Mn16  1  0.62538700  0.79185400  0.25036800  1
  Mn  Mn17  1  0.37326500  0.54272700  0.75019100  1
  Mn  Mn18  1  0.37613300  0.20768700  0.74984700  1
  Mn  Mn19  1  0.12567600  0.29138500  0.24979500  1
  Cr  Cr20  1  0.87213600  0.70492600  0.74847100  1
  Cr  Cr21  1  0.87765700  0.04509900  0.75160400  1
  Cr  Cr22  1  0.62245200  0.45528000  0.24981100  1
  Cr  Cr23  1  0.12287200  0.95512200  0.24969900  1
  O  O24  1  0.96651200  0.10705000  0.13780800  1
  O  O25  1  0.92731400  0.78709300  0.13880900  1
  O  O26  1  0.93191500  0.42701100  0.13423500  1
  O  O27  1  0.81755500  0.96444000  0.36313200  1
  O  O28  1  0.82406700  0.32512600  0.36340700  1
  O  O29  1  0.78590200  0.64387500  0.36262100  1
  O  O30  1  0.71819800  0.85644300  0.63835700  1
  O  O31  1  0.67775300  0.53532700  0.63877500  1
  O  O32  1  0.67757200  0.17557900  0.63722600  1
  O  O33  1  0.46664200  0.60679600  0.13816000  1
  O  O34  1  0.56683900  0.71264200  0.86235200  1
  O  O35  1  0.56811200  0.07416400  0.86577000  1
  O  O36  1  0.43190200  0.92683000  0.13465100  1
  O  O37  1  0.42672200  0.28711200  0.13862000  1
  O  O38  1  0.53802600  0.39284100  0.86175700  1
  O  O39  1  0.32412900  0.82497800  0.36323200  1
  O  O40  1  0.31762900  0.46428400  0.36288300  1
  O  O41  1  0.28615600  0.14405100  0.36203000  1
  O  O42  1  0.21053800  0.35646800  0.63851000  1
  O  O43  1  0.18160300  0.67659300  0.63472800  1
  O  O44  1  0.18404500  0.03658000  0.63732400  1
  O  O45  1  0.07263300  0.57459100  0.86286100  1
  O  O46  1  0.07198000  0.21413600  0.86083000  1
  O  O47  1  0.03287300  0.89424300  0.86305500  1
