# generated using pymatgen
data_LiTi2(PO4)3
_symmetry_space_group_name_H-M   'P 1'
_cell_length_a   11.99911900
_cell_length_b   8.63991400
_cell_length_c   8.71758354
_cell_angle_alpha   89.91089742
_cell_angle_beta   90.00000000
_cell_angle_gamma   90.00000000
_symmetry_Int_Tables_number   1
_chemical_formula_structural   LiTi2(PO4)3
_chemical_formula_sum   'Li4 Ti8 P12 O48'
_cell_volume   903.76261599
_cell_formula_units_Z   4
loop_
 _symmetry_equiv_pos_site_id
 _symmetry_equiv_pos_as_xyz
  1  'x, y, z'
loop_
 _atom_site_type_symbol
 _atom_site_label
 _atom_site_symmetry_multiplicity
 _atom_site_fract_x
 _atom_site_fract_y
 _atom_site_fract_z
 _atom_site_occupancy
  Li  Li0  1  0.81759700  0.28759400  0.22900900  1
  Li  Li1  1  0.68240300  0.78759400  0.22900900  1
  Li  Li2  1  0.31759700  0.21240600  0.77099100  1
  Li  Li3  1  0.18240300  0.71240600  0.77099100  1
  Ti  Ti4  1  0.88394100  0.75431100  0.03213500  1
  Ti  Ti5  1  0.87900200  0.24952800  0.54891500  1
  Ti  Ti6  1  0.62099800  0.74952800  0.54891500  1
  Ti  Ti7  1  0.61605900  0.25431100  0.03213500  1
  Ti  Ti8  1  0.37900200  0.25047200  0.45108500  1
  Ti  Ti9  1  0.38394100  0.74568900  0.96786500  1
  Ti  Ti10  1  0.11605900  0.24568900  0.96786500  1
  Ti  Ti11  1  0.12099800  0.75047200  0.45108500  1
  P  P12  1  0.99833100  0.03982800  0.25245200  1
  P  P13  1  0.85522500  0.39849200  0.89609800  1
  P  P14  1  0.85540800  0.60854000  0.39489700  1
  P  P15  1  0.64459200  0.10854000  0.39489700  1
  P  P16  1  0.64477500  0.89849200  0.89609800  1
  P  P17  1  0.50166900  0.53982800  0.25245200  1
  P  P18  1  0.49833100  0.46017200  0.74754800  1
  P  P19  1  0.35540800  0.89146000  0.60510300  1
  P  P20  1  0.35522500  0.10150800  0.10390200  1
  P  P21  1  0.14477500  0.60150800  0.10390200  1
  P  P22  1  0.14459200  0.39146000  0.60510300  1
  P  P23  1  0.00166900  0.96017200  0.74754800  1
  O  O24  1  0.97473600  0.34333100  0.93374300  1
  O  O25  1  0.97404900  0.66294100  0.43315300  1
  O  O26  1  0.92734500  0.06356300  0.64774100  1
  O  O27  1  0.92458200  0.93682300  0.15093400  1
  O  O28  1  0.92122600  0.14853300  0.34407900  1
  O  O29  1  0.92459700  0.86209700  0.85216100  1
  O  O30  1  0.84586800  0.42997700  0.40134900  1
  O  O31  1  0.84433800  0.57446700  0.91089300  1
  O  O32  1  0.82605600  0.34931500  0.73087900  1
  O  O33  1  0.82284600  0.66259300  0.23090600  1
  O  O34  1  0.77691900  0.32173400  0.01565900  1
  O  O35  1  0.77155200  0.67974600  0.50980900  1
  O  O36  1  0.72308100  0.82173400  0.01565900  1
  O  O37  1  0.72844800  0.17974600  0.50980900  1
  O  O38  1  0.67715400  0.16259300  0.23090600  1
  O  O39  1  0.67394400  0.84931500  0.73087900  1
  O  O40  1  0.65566200  0.07446700  0.91089300  1
  O  O41  1  0.65413200  0.92997700  0.40134900  1
  O  O42  1  0.57540300  0.36209700  0.85216100  1
  O  O43  1  0.57877400  0.64853300  0.34407900  1
  O  O44  1  0.57541800  0.43682300  0.15093400  1
  O  O45  1  0.57265500  0.56356300  0.64774100  1
  O  O46  1  0.52595100  0.16294100  0.43315300  1
  O  O47  1  0.52526400  0.84333100  0.93374300  1
  O  O48  1  0.47404900  0.83705900  0.56684700  1
  O  O49  1  0.47473600  0.15666900  0.06625700  1
  O  O50  1  0.42734500  0.43643700  0.35225900  1
  O  O51  1  0.42458200  0.56317700  0.84906600  1
  O  O52  1  0.42122600  0.35146700  0.65592100  1
  O  O53  1  0.42459700  0.63790300  0.14783900  1
  O  O54  1  0.34586800  0.07002300  0.59865100  1
  O  O55  1  0.34433800  0.92553300  0.08910700  1
  O  O56  1  0.32284600  0.83740700  0.76909400  1
  O  O57  1  0.32605600  0.15068500  0.26912100  1
  O  O58  1  0.27691900  0.17826600  0.98434100  1
  O  O59  1  0.27155200  0.82025400  0.49019100  1
  O  O60  1  0.22308100  0.67826600  0.98434100  1
  O  O61  1  0.22844800  0.32025400  0.49019100  1
  O  O62  1  0.17394400  0.65068500  0.26912100  1
  O  O63  1  0.17715400  0.33740700  0.76909400  1
  O  O64  1  0.15566200  0.42553300  0.08910700  1
  O  O65  1  0.15413200  0.57002300  0.59865100  1
  O  O66  1  0.07540300  0.13790300  0.14783900  1
  O  O67  1  0.07541800  0.06317700  0.84906600  1
  O  O68  1  0.07877400  0.85146700  0.65592100  1
  O  O69  1  0.07265500  0.93643700  0.35225900  1
  O  O70  1  0.02526400  0.65666900  0.06625700  1
  O  O71  1  0.02595100  0.33705900  0.56684700  1
