# generated using pymatgen
data_Li6Bi2O7
_symmetry_space_group_name_H-M   'P 1'
_cell_length_a   6.30793300
_cell_length_b   5.59324800
_cell_length_c   10.89085520
_cell_angle_alpha   70.63429738
_cell_angle_beta   90.00000000
_cell_angle_gamma   90.00000000
_symmetry_Int_Tables_number   1
_chemical_formula_structural   Li6Bi2O7
_chemical_formula_sum   'Li12 Bi4 O14'
_cell_volume   362.50902120
_cell_formula_units_Z   2
loop_
 _symmetry_equiv_pos_site_id
 _symmetry_equiv_pos_as_xyz
  1  'x, y, z'
loop_
 _atom_site_type_symbol
 _atom_site_label
 _atom_site_symmetry_multiplicity
 _atom_site_fract_x
 _atom_site_fract_y
 _atom_site_fract_z
 _atom_site_occupancy
  Li  Li0  1  0.78523400  0.20206900  0.14930100  1
  Li  Li1  1  0.24012000  0.21415100  0.14009800  1
  Li  Li2  1  0.49146700  0.84476300  0.12098300  1
  Li  Li3  1  0.74012000  0.78584900  0.35990200  1
  Li  Li4  1  0.28523400  0.79793100  0.35069900  1
  Li  Li5  1  0.99146700  0.15523700  0.37901700  1
  Li  Li6  1  0.00853300  0.84476300  0.62098300  1
  Li  Li7  1  0.71476600  0.20206900  0.64930100  1
  Li  Li8  1  0.25988000  0.21415100  0.64009800  1
  Li  Li9  1  0.50853300  0.15523700  0.87901700  1
  Li  Li10  1  0.75988000  0.78584900  0.85990200  1
  Li  Li11  1  0.21476600  0.79793100  0.85069900  1
  Bi  Bi12  1  0.00981100  0.72974500  0.13245700  1
  Bi  Bi13  1  0.50981100  0.27025500  0.36754300  1
  Bi  Bi14  1  0.49018900  0.72974500  0.63245700  1
  Bi  Bi15  1  0.99018900  0.27025500  0.86754300  1
  O  O16  1  0.00000000  0.50000000  0.00000000  1
  O  O17  1  0.75172400  0.98024500  0.00586900  1
  O  O18  1  0.01381900  0.96972700  0.25369600  1
  O  O19  1  0.51381900  0.03027300  0.24630400  1
  O  O20  1  0.30231400  0.53600800  0.22540700  1
  O  O21  1  0.80231400  0.46399200  0.27459300  1
  O  O22  1  0.25172400  0.01975500  0.49413100  1
  O  O23  1  0.74827600  0.98024500  0.50586900  1
  O  O24  1  0.50000000  0.50000000  0.50000000  1
  O  O25  1  0.19768600  0.53600800  0.72540700  1
  O  O26  1  0.69768600  0.46399200  0.77459300  1
  O  O27  1  0.48618100  0.96972700  0.75369600  1
  O  O28  1  0.98618100  0.03027300  0.74630400  1
  O  O29  1  0.24827600  0.01975500  0.99413100  1
