# generated using pymatgen
data_Li24MnCr11O36
_symmetry_space_group_name_H-M   'P 1'
_cell_length_a   5.06131400
_cell_length_b   9.75481796
_cell_length_c   13.26408192
_cell_angle_alpha   88.37125324
_cell_angle_beta   100.87125648
_cell_angle_gamma   99.24517103
_symmetry_Int_Tables_number   1
_chemical_formula_structural   Li24MnCr11O36
_chemical_formula_sum   'Li24 Mn1 Cr11 O36'
_cell_volume   634.76865233
_cell_formula_units_Z   1
loop_
 _symmetry_equiv_pos_site_id
 _symmetry_equiv_pos_as_xyz
  1  'x, y, z'
loop_
 _atom_site_type_symbol
 _atom_site_label
 _atom_site_symmetry_multiplicity
 _atom_site_fract_x
 _atom_site_fract_y
 _atom_site_fract_z
 _atom_site_occupancy
  Li  Li0  1  0.72216200  0.00026400  0.94219200  1
  Li  Li1  1  0.66625200  0.50035200  0.83195600  1
  Li  Li2  1  0.21987900  0.50004400  0.94003000  1
  Li  Li3  1  0.41549800  0.75170000  0.83367000  1
  Li  Li4  1  0.61429100  0.00172200  0.72607000  1
  Li  Li5  1  0.16401700  0.00081400  0.83274200  1
  Li  Li6  1  0.92101200  0.24964600  0.83365100  1
  Li  Li7  1  0.11028600  0.49933600  0.72655000  1
  Li  Li8  1  0.54756300  0.49953100  0.60723500  1
  Li  Li9  1  0.05323600  0.99998500  0.60803600  1
  Li  Li10  1  0.50272800  0.99825500  0.50102100  1
  Li  Li11  1  0.25032900  0.25057600  0.50114600  1
  Li  Li12  1  0.99958100  0.50134500  0.50169900  1
  Li  Li13  1  0.74919000  0.74902300  0.50099800  1
  Li  Li14  1  0.94651400  0.00100800  0.39382100  1
  Li  Li15  1  0.45155800  0.50119900  0.39458900  1
  Li  Li16  1  0.88602500  0.49982900  0.27250400  1
  Li  Li17  1  0.08038800  0.74935500  0.16518000  1
  Li  Li18  1  0.38932600  0.00138200  0.27455400  1
  Li  Li19  1  0.83424300  0.99992600  0.16544700  1
  Li  Li20  1  0.58825300  0.25081700  0.16660500  1
  Li  Li21  1  0.77991200  0.50119900  0.06049600  1
  Li  Li22  1  0.33168800  0.50059200  0.16624600  1
  Li  Li23  1  0.27997300  0.99988800  0.05870500  1
  Mn  Mn24  1  0.97075800  0.75025100  0.94537100  1
  Cr  Cr25  1  0.48342000  0.24935900  0.94571700  1
  Cr  Cr26  1  0.36149300  0.24995000  0.72291800  1
  Cr  Cr27  1  0.29915900  0.75155500  0.61134600  1
  Cr  Cr28  1  0.85560700  0.75149900  0.72281200  1
  Cr  Cr29  1  0.81192200  0.24982500  0.61154000  1
  Cr  Cr30  1  0.19342300  0.74869900  0.38517800  1
  Cr  Cr31  1  0.13903000  0.25298500  0.28218400  1
  Cr  Cr32  1  0.68990700  0.25280000  0.38580300  1
  Cr  Cr33  1  0.64131500  0.74916000  0.28084900  1
  Cr  Cr34  1  0.03678500  0.24803000  0.05682800  1
  Cr  Cr35  1  0.52362400  0.75075700  0.05390400  1
  O  O36  1  0.83439300  0.36087000  0.95514900  1
  O  O37  1  0.62027100  0.63908800  0.95379900  1
  O  O38  1  0.12357700  0.13837000  0.95231200  1
  O  O39  1  0.81106700  0.86483100  0.83440200  1
  O  O40  1  0.33083900  0.86128400  0.95247400  1
  O  O41  1  0.52044700  0.13535400  0.83570700  1
  O  O42  1  0.31131200  0.36548100  0.83192100  1
  O  O43  1  0.50123200  0.63899400  0.71315300  1
  O  O44  1  0.02263500  0.63633600  0.83419600  1
  O  O45  1  0.45139700  0.13869000  0.61945100  1
  O  O46  1  0.00527800  0.13772000  0.71555800  1
  O  O47  1  0.20805000  0.86296000  0.71511700  1
  O  O48  1  0.16232600  0.36243500  0.61969200  1
  O  O49  1  0.71268600  0.36235500  0.71322500  1
  O  O50  1  0.95551800  0.63849800  0.62048300  1
  O  O51  1  0.35345400  0.63607900  0.49918700  1
  O  O52  1  0.14790600  0.86378300  0.50070200  1
  O  O53  1  0.66376600  0.86326200  0.61907800  1
  O  O54  1  0.32526000  0.13832700  0.37884800  1
  O  O55  1  0.85129900  0.13693900  0.50096200  1
  O  O56  1  0.64479500  0.36502800  0.49889300  1
  O  O57  1  0.05402500  0.36395600  0.38020000  1
  O  O58  1  0.28021700  0.63687400  0.28787500  1
  O  O59  1  0.82468200  0.63705600  0.37883600  1
  O  O60  1  0.78086700  0.13797800  0.28903300  1
  O  O61  1  0.00787100  0.86303600  0.28868000  1
  O  O62  1  0.55325200  0.86284300  0.37879500  1
  O  O63  1  0.98060800  0.36531200  0.16916800  1
  O  O64  1  0.50821300  0.36403300  0.28756700  1
  O  O65  1  0.68654300  0.63548500  0.16705000  1
  O  O66  1  0.48214600  0.86377900  0.16615100  1
  O  O67  1  0.67171400  0.13713400  0.04919700  1
  O  O68  1  0.18709800  0.13691700  0.16703000  1
  O  O69  1  0.88520600  0.86271400  0.04773900  1
  O  O70  1  0.38029300  0.36192600  0.04647800  1
  O  O71  1  0.16230800  0.63797500  0.04694800  1
