# generated using pymatgen
data_LiNiPO4
_symmetry_space_group_name_H-M   'P 1'
_cell_length_a   4.92481901
_cell_length_b   9.95515001
_cell_length_c   6.99530801
_cell_angle_alpha   90.00397859
_cell_angle_beta   90.00579637
_cell_angle_gamma   89.99947332
_symmetry_Int_Tables_number   1
_chemical_formula_structural   LiNiPO4
_chemical_formula_sum   'Li4 Ni4 P4 O16'
_cell_volume   342.96114563
_cell_formula_units_Z   4
loop_
 _symmetry_equiv_pos_site_id
 _symmetry_equiv_pos_as_xyz
  1  'x, y, z'
loop_
 _atom_site_type_symbol
 _atom_site_label
 _atom_site_symmetry_multiplicity
 _atom_site_fract_x
 _atom_site_fract_y
 _atom_site_fract_z
 _atom_site_occupancy
  Li  Li0  1  0.24237700  0.15950200  0.99473600  1
  Li  Li1  1  0.74238600  0.34050200  0.49477700  1
  Li  Li2  1  0.24238800  0.65950000  0.50531100  1
  Li  Li3  1  0.74239400  0.84047600  0.00517100  1
  Ni  Ni4  1  0.73177500  0.35491100  0.99219200  1
  Ni  Ni5  1  0.23210500  0.64499700  0.00796100  1
  Ni  Ni6  1  0.23161800  0.14507400  0.49222700  1
  Ni  Ni7  1  0.73168500  0.85498300  0.50779000  1
  P  P8  1  0.75212500  0.09636700  0.75179400  1
  P  P9  1  0.25221700  0.40360000  0.25181800  1
  P  P10  1  0.75237900  0.59640900  0.74818600  1
  P  P11  1  0.25213200  0.90363500  0.24812300  1
  O  O12  1  0.19927700  0.05747700  0.23545300  1
  O  O13  1  0.69941900  0.44259100  0.73548600  1
  O  O14  1  0.19937600  0.55739600  0.26457700  1
  O  O15  1  0.69926700  0.94256900  0.76451300  1
  O  O16  1  0.06219600  0.12659400  0.74642900  1
  O  O17  1  0.56228300  0.37338400  0.24644000  1
  O  O18  1  0.06246400  0.62658400  0.75366200  1
  O  O19  1  0.56218500  0.87341200  0.25350100  1
  O  O20  1  0.62752700  0.14958400  0.56038300  1
  O  O21  1  0.12762600  0.35039600  0.06038300  1
  O  O22  1  0.62779800  0.64959500  0.93962500  1
  O  O23  1  0.12754200  0.85042800  0.43953700  1
  O  O24  1  0.63016100  0.16707500  0.92911500  1
  O  O25  1  0.13016300  0.33291900  0.42910600  1
  O  O26  1  0.63036700  0.66712500  0.57091500  1
  O  O27  1  0.13016400  0.83291500  0.07078900  1
