# generated using pymatgen
data_Na7Li3V10O30
_symmetry_space_group_name_H-M   'P 1'
_cell_length_a   8.02983300
_cell_length_b   11.10118696
_cell_length_c   16.57240756
_cell_angle_alpha   94.01338876
_cell_angle_beta   103.48139561
_cell_angle_gamma   102.48741506
_symmetry_Int_Tables_number   1
_chemical_formula_structural   Na7Li3V10O30
_chemical_formula_sum   'Na14 Li6 V20 O60'
_cell_volume   1391.26316728
_cell_formula_units_Z   2
loop_
 _symmetry_equiv_pos_site_id
 _symmetry_equiv_pos_as_xyz
  1  'x, y, z'
loop_
 _atom_site_type_symbol
 _atom_site_label
 _atom_site_symmetry_multiplicity
 _atom_site_fract_x
 _atom_site_fract_y
 _atom_site_fract_z
 _atom_site_occupancy
  Na  Na0  1  0.09964700  0.15016900  0.03274700  1
  Na  Na1  1  0.27674500  0.47321700  0.09228200  1
  Na  Na2  1  0.92342100  0.32681300  0.30759500  1
  Na  Na3  1  0.32301300  0.92695700  0.10764200  1
  Na  Na4  1  0.70045400  0.54973000  0.23403900  1
  Na  Na5  1  0.87674700  0.87325800  0.29225400  1
  Na  Na6  1  0.47822000  0.27353500  0.49347500  1
  Na  Na7  1  0.52262800  0.72657300  0.50787400  1
  Na  Na8  1  0.29946400  0.95054100  0.43363300  1
  Na  Na9  1  0.12199600  0.12877500  0.70714100  1
  Na  Na10  1  0.07630000  0.67137400  0.69165100  1
  Na  Na11  1  0.67692000  0.07353900  0.89203600  1
  Na  Na12  1  0.72309200  0.52685400  0.90778000  1
  Na  Na13  1  0.50063300  0.74932400  0.83294600  1
  Li  Li14  1  0.50438500  0.24557300  0.16814300  1
  Li  Li15  1  0.10467700  0.64567200  0.36834400  1
  Li  Li16  1  0.70574300  0.04780400  0.56867200  1
  Li  Li17  1  0.89705300  0.35282600  0.63241300  1
  Li  Li18  1  0.30145500  0.44462600  0.76701500  1
  Li  Li19  1  0.90437600  0.84557000  0.96805300  1
  V  V20  1  0.73253800  0.01143600  0.10525100  1
  V  V21  1  0.86150600  0.38806600  0.09475100  1
  V  V22  1  0.54660300  0.70360200  0.04129500  1
  V  V23  1  0.14673300  0.10380900  0.24126300  1
  V  V24  1  0.65623200  0.09975600  0.35795600  1
  V  V25  1  0.05637700  0.69963800  0.15775400  1
  V  V26  1  0.33384500  0.41140900  0.30596700  1
  V  V27  1  0.46163100  0.78813700  0.29484700  1
  V  V28  1  0.74858500  0.50192900  0.44427600  1
  V  V29  1  0.93255400  0.81156600  0.50527800  1
  V  V30  1  0.06005600  0.19058800  0.49616800  1
  V  V31  1  0.25324400  0.49828100  0.55839300  1
  V  V32  1  0.53581500  0.21263000  0.70469100  1
  V  V33  1  0.66431900  0.58461200  0.69354600  1
  V  V34  1  0.94523000  0.30451200  0.83881600  1
  V  V35  1  0.34679300  0.90400200  0.64115600  1
  V  V36  1  0.85638500  0.89837300  0.75742500  1
  V  V37  1  0.45605900  0.29968000  0.95757100  1
  V  V38  1  0.13273300  0.61136700  0.90509200  1
  V  V39  1  0.26147900  0.98795900  0.89471400  1
  O  O40  1  0.81596900  0.01555100  0.02075800  1
  O  O41  1  0.98665900  0.54661800  0.09568000  1
  O  O42  1  0.58869500  0.10112400  0.10104600  1
  O  O43  1  0.36768700  0.30107900  0.04035500  1
  O  O44  1  0.90691600  0.06000700  0.20212700  1
  O  O45  1  0.30685700  0.65975600  0.00212300  1
  O  O46  1  0.59200000  0.59222100  0.09882500  1
  O  O47  1  0.76879100  0.37164000  0.17611400  1
  O  O48  1  0.60803100  0.85382400  0.10707800  1
  O  O49  1  0.96767400  0.70076300  0.24049900  1
  O  O50  1  0.25230400  0.10753700  0.16422900  1
  O  O51  1  0.01168500  0.30398100  0.10232300  1
  O  O52  1  0.41620500  0.41541500  0.22120600  1
  O  O53  1  0.00364500  0.80644700  0.09654100  1
  O  O54  1  0.60402700  0.20661600  0.29667000  1
  O  O55  1  0.89591700  0.14245500  0.39529300  1
  O  O56  1  0.29635400  0.74178200  0.19439300  1
  O  O57  1  0.85287400  0.50463200  0.36667200  1
  O  O58  1  0.61170000  0.70411100  0.30230000  1
  O  O59  1  0.58680900  0.94669200  0.29579700  1
  O  O60  1  0.20822500  0.25396900  0.30701000  1
  O  O61  1  0.19002900  0.50122900  0.30165200  1
  O  O62  1  0.56703500  0.10112300  0.44046900  1
  O  O63  1  0.50912100  0.45788600  0.40313600  1
  O  O64  1  0.19196800  0.99233700  0.29882100  1
  O  O65  1  0.79699800  0.39453800  0.50562600  1
  O  O66  1  0.36858900  0.77146000  0.37609700  1
  O  O67  1  0.96704000  0.18132800  0.57777200  1
  O  O68  1  0.80738400  0.65405200  0.50714100  1
  O  O69  1  0.78944500  0.90174200  0.50124600  1
  O  O70  1  0.20817400  0.10459900  0.50467500  1
  O  O71  1  0.18811900  0.34710700  0.49464400  1
  O  O72  1  0.62709800  0.22100700  0.62258100  1
  O  O73  1  0.01601500  0.81514900  0.42082200  1
  O  O74  1  0.20244400  0.60594300  0.49748900  1
  O  O75  1  0.80338900  0.00501400  0.69615700  1
  O  O76  1  0.49371000  0.54157300  0.59512600  1
  O  O77  1  0.45220600  0.90747500  0.56413600  1
  O  O78  1  0.81056200  0.49725100  0.69680900  1
  O  O79  1  0.78855200  0.74420600  0.69602000  1
  O  O80  1  0.41015000  0.05472200  0.70601500  1
  O  O81  1  0.39072300  0.30142900  0.70030900  1
  O  O82  1  0.15756800  0.49437700  0.63902900  1
  O  O83  1  0.70527400  0.25977000  0.80314300  1
  O  O84  1  0.10691400  0.85997800  0.60203700  1
  O  O85  1  0.39153200  0.79221000  0.69881000  1
  O  O86  1  0.99456300  0.19360400  0.89619700  1
  O  O87  1  0.57337200  0.56936300  0.77553700  1
  O  O88  1  0.98859000  0.70087400  0.90090900  1
  O  O89  1  0.76790000  0.90062200  0.84017600  1
  O  O90  1  0.04249200  0.30941900  0.75862300  1
  O  O91  1  0.38655500  0.14659400  0.89576300  1
  O  O92  1  0.21637700  0.61547900  0.82067800  1
  O  O93  1  0.40266200  0.40612000  0.89606400  1
  O  O94  1  0.09627800  0.94160200  0.79432800  1
  O  O95  1  0.69618000  0.34182500  0.99440500  1
  O  O96  1  0.65222800  0.70743300  0.96422400  1
  O  O97  1  0.41171400  0.90400600  0.90233100  1
  O  O98  1  0.00787700  0.45379500  0.90604000  1
  O  O99  1  0.16847100  0.97145900  0.97597600  1
