# generated using pymatgen
data_Li4MnP2O9
_symmetry_space_group_name_H-M   'P 1'
_cell_length_a   7.86443804
_cell_length_b   7.86443804
_cell_length_c   7.02544320
_cell_angle_alpha   89.32382032
_cell_angle_beta   89.32382032
_cell_angle_gamma   51.13170471
_symmetry_Int_Tables_number   1
_chemical_formula_structural   Li4MnP2O9
_chemical_formula_sum   'Li8 Mn2 P4 O18'
_cell_volume   338.28368960
_cell_formula_units_Z   2
loop_
 _symmetry_equiv_pos_site_id
 _symmetry_equiv_pos_as_xyz
  1  'x, y, z'
loop_
 _atom_site_type_symbol
 _atom_site_label
 _atom_site_symmetry_multiplicity
 _atom_site_fract_x
 _atom_site_fract_y
 _atom_site_fract_z
 _atom_site_occupancy
  Li  Li0  1  0.89223000  0.89223000  0.23255300  1
  Li  Li1  1  0.36650500  0.36650500  0.71064900  1
  Li  Li2  1  0.50000000  0.00000000  0.50000000  1
  Li  Li3  1  0.00000000  0.50000000  0.50000000  1
  Li  Li4  1  0.63349500  0.63349500  0.28935100  1
  Li  Li5  1  0.10777000  0.10777000  0.76744700  1
  Li  Li6  1  0.75890600  0.24109400  0.00000000  1
  Li  Li7  1  0.24109400  0.75890600  0.00000000  1
  Mn  Mn8  1  0.00000000  0.50000000  0.00000000  1
  Mn  Mn9  1  0.50000000  0.00000000  0.00000000  1
  P  P10  1  0.39723500  0.39723500  0.24269000  1
  P  P11  1  0.87568100  0.87568100  0.70846000  1
  P  P12  1  0.12431900  0.12431900  0.29154000  1
  P  P13  1  0.60276500  0.60276500  0.75731000  1
  O  O14  1  0.50389000  0.50389000  0.23563600  1
  O  O15  1  0.96904800  0.96904800  0.81353200  1
  O  O16  1  0.87277100  0.87277100  0.49312000  1
  O  O17  1  0.55941000  0.17894800  0.12351500  1
  O  O18  1  0.17894800  0.55941000  0.12351500  1
  O  O19  1  0.34503500  0.34503500  0.43494000  1
  O  O20  1  0.62583900  0.00984600  0.76621400  1
  O  O21  1  0.00984600  0.62583900  0.76621400  1
  O  O22  1  0.76249100  0.76249100  0.10357900  1
  O  O23  1  0.23750900  0.23750900  0.89642100  1
  O  O24  1  0.99015400  0.37416100  0.23378600  1
  O  O25  1  0.37416100  0.99015400  0.23378600  1
  O  O26  1  0.65496500  0.65496500  0.56506000  1
  O  O27  1  0.82105200  0.44059000  0.87648500  1
  O  O28  1  0.44059000  0.82105200  0.87648500  1
  O  O29  1  0.12722900  0.12722900  0.50688000  1
  O  O30  1  0.03095200  0.03095200  0.18646800  1
  O  O31  1  0.49611000  0.49611000  0.76436400  1
