# generated using pymatgen
data_Li6Co5(P2O7)4
_symmetry_space_group_name_H-M   'P 1'
_cell_length_a   12.88677639
_cell_length_b   9.06972996
_cell_length_c   10.49413509
_cell_angle_alpha   65.84579798
_cell_angle_beta   87.79314224
_cell_angle_gamma   73.67232619
_symmetry_Int_Tables_number   1
_chemical_formula_structural   Li6Co5(P2O7)4
_chemical_formula_sum   'Li12 Co10 P16 O56'
_cell_volume   1069.91659017
_cell_formula_units_Z   2
loop_
 _symmetry_equiv_pos_site_id
 _symmetry_equiv_pos_as_xyz
  1  'x, y, z'
loop_
 _atom_site_type_symbol
 _atom_site_label
 _atom_site_symmetry_multiplicity
 _atom_site_fract_x
 _atom_site_fract_y
 _atom_site_fract_z
 _atom_site_occupancy
  Li  Li0  1  0.43075400  0.11366800  0.40344600  1
  Li  Li1  1  0.69073000  0.08360200  0.87130600  1
  Li  Li2  1  0.47443600  0.18216000  0.99046200  1
  Li  Li3  1  0.25000000  0.50000000  0.50000000  1
  Li  Li4  1  0.19572600  0.10467700  0.86230800  1
  Li  Li5  1  0.58038200  0.86882800  0.59765900  1
  Li  Li6  1  0.06924600  0.88633200  0.59655400  1
  Li  Li7  1  0.80927000  0.91639800  0.12869400  1
  Li  Li8  1  0.91961800  0.13117200  0.40234100  1
  Li  Li9  1  0.30427400  0.89532300  0.13769200  1
  Li  Li10  1  0.75000000  0.50000000  0.50000000  1
  Li  Li11  1  0.02556400  0.81784000  0.00953800  1
  Co  Co12  1  0.81640300  0.51288000  0.75501100  1
  Co  Co13  1  0.51195000  0.80551300  0.99103100  1
  Co  Co14  1  0.98805000  0.19448700  0.00896900  1
  Co  Co15  1  0.68359700  0.48712000  0.24498900  1
  Co  Co16  1  0.14488100  0.09824300  0.28958300  1
  Co  Co17  1  0.18175800  0.49850300  0.24133600  1
  Co  Co18  1  0.86019300  0.90221300  0.71369200  1
  Co  Co19  1  0.35511900  0.90175700  0.71041700  1
  Co  Co20  1  0.31824200  0.50149700  0.75866400  1
  Co  Co21  1  0.63980700  0.09778700  0.28630800  1
  P  P22  1  0.93983200  0.44570000  0.18985800  1
  P  P23  1  0.77922300  0.71597600  0.95929600  1
  P  P24  1  0.21724500  0.29009400  0.03956200  1
  P  P25  1  0.06346400  0.54376700  0.80644100  1
  P  P26  1  0.43653600  0.45623300  0.19355900  1
  P  P27  1  0.72077700  0.28402400  0.04070400  1
  P  P28  1  0.56016800  0.55430000  0.81014200  1
  P  P29  1  0.35116700  0.79719800  0.44907100  1
  P  P30  1  0.14883300  0.20280200  0.55092900  1
  P  P31  1  0.04100800  0.82084000  0.29965700  1
  P  P32  1  0.54073500  0.80745900  0.29670500  1
  P  P33  1  0.28275500  0.70990600  0.96043800  1
  P  P34  1  0.84866400  0.80793200  0.44506400  1
  P  P35  1  0.95926500  0.19254100  0.70329500  1
  P  P36  1  0.65133600  0.19206800  0.55493600  1
  P  P37  1  0.45899200  0.17916000  0.70034300  1
  O  O38  1  0.30619700  0.65920100  0.54729600  1
  O  O39  1  0.55006500  0.93607100  0.35291500  1
  O  O40  1  0.96010900  0.72023500  0.39418300  1
  O  O41  1  0.27994700  0.91152500  0.31112400  1
  O  O42  1  0.99360800  0.27012200  0.18691300  1
  O  O43  1  0.14549500  0.68661900  0.31134800  1
  O  O44  1  0.49011200  0.26946700  0.22508800  1
  O  O45  1  0.34745900  0.48083100  0.28810100  1
  O  O46  1  0.44640300  0.06391400  0.63161100  1
  O  O47  1  0.94993500  0.06392900  0.64708500  1
  O  O48  1  0.82308100  0.30412600  0.96439300  1
  O  O49  1  0.87275300  0.54646800  0.03740700  1
  O  O50  1  0.01783800  0.54234600  0.19135700  1
  O  O51  1  0.68543000  0.13715100  0.03789500  1
  O  O52  1  0.32703100  0.85448500  0.96038600  1
  O  O53  1  0.77534800  0.91551900  0.30761200  1
  O  O54  1  0.31871100  0.29503000  0.96213800  1
  O  O55  1  0.62724700  0.45353200  0.96259300  1
  O  O56  1  0.62714900  0.08125400  0.48954500  1
  O  O57  1  0.22744500  0.27623100  0.19030900  1
  O  O58  1  0.77293000  0.72835900  0.80818800  1
  O  O59  1  0.98565000  0.92686400  0.14735300  1
  O  O60  1  0.37900400  0.90331500  0.51717500  1
  O  O61  1  0.85204100  0.32520400  0.68570200  1
  O  O62  1  0.18128900  0.70497000  0.03786200  1
  O  O63  1  0.98174200  0.44241000  0.82640400  1
  O  O64  1  0.87285100  0.91874600  0.51045500  1
  O  O65  1  0.50639200  0.72987800  0.81308700  1
  O  O66  1  0.51435000  0.07313600  0.85264700  1
  O  O67  1  0.19380300  0.34079900  0.45270400  1
  O  O68  1  0.12099600  0.09668500  0.48282500  1
  O  O69  1  0.85665100  0.42996000  0.29850400  1
  O  O70  1  0.48216200  0.45765400  0.80864300  1
  O  O71  1  0.53989100  0.27976500  0.60581700  1
  O  O72  1  0.00988800  0.73053300  0.77491200  1
  O  O73  1  0.01656200  0.10258900  0.85465400  1
  O  O74  1  0.35450500  0.31338100  0.68865200  1
  O  O75  1  0.27255500  0.72376900  0.80969100  1
  O  O76  1  0.72465200  0.08448100  0.69238800  1
  O  O77  1  0.64334900  0.57004000  0.70149600  1
  O  O78  1  0.03738700  0.29240200  0.60087200  1
  O  O79  1  0.67691900  0.69587400  0.03560700  1
  O  O80  1  0.37447600  0.53505900  0.03719800  1
  O  O81  1  0.72707000  0.27164100  0.19181200  1
  O  O82  1  0.17296900  0.14551500  0.03961400  1
  O  O83  1  0.81457000  0.86284900  0.96210500  1
  O  O84  1  0.48343800  0.89741100  0.14534600  1
  O  O85  1  0.12552400  0.46494100  0.96280200  1
  O  O86  1  0.80854000  0.66398700  0.54469900  1
  O  O87  1  0.69146000  0.33601300  0.45530100  1
  O  O88  1  0.51825800  0.55759000  0.17359600  1
  O  O89  1  0.15254100  0.51916900  0.71189900  1
  O  O90  1  0.46261300  0.70759800  0.39912800  1
  O  O91  1  0.64795900  0.67479600  0.31429800  1
  O  O92  1  0.22005400  0.08847500  0.68887600  1
  O  O93  1  0.05359700  0.93608600  0.36838900  1
