# generated using pymatgen
data_Li4FeSb(WO6)2
_symmetry_space_group_name_H-M   'P 1'
_cell_length_a   5.17146353
_cell_length_b   7.52267089
_cell_length_c   10.90944924
_cell_angle_alpha   85.89804114
_cell_angle_beta   90.08114248
_cell_angle_gamma   90.01573060
_symmetry_Int_Tables_number   1
_chemical_formula_structural   Li4FeSb(WO6)2
_chemical_formula_sum   'Li8 Fe2 Sb2 W4 O24'
_cell_volume   423.32505093
_cell_formula_units_Z   2
loop_
 _symmetry_equiv_pos_site_id
 _symmetry_equiv_pos_as_xyz
  1  'x, y, z'
loop_
 _atom_site_type_symbol
 _atom_site_label
 _atom_site_symmetry_multiplicity
 _atom_site_fract_x
 _atom_site_fract_y
 _atom_site_fract_z
 _atom_site_occupancy
  Li  Li0  1  0.99761700  0.30417200  0.78156100  1
  Li  Li1  1  0.99763000  0.30427700  0.28161300  1
  Li  Li2  1  0.50294700  0.76860200  0.54078300  1
  Li  Li3  1  0.50295500  0.76862200  0.04080600  1
  Li  Li4  1  0.00296900  0.74574200  0.75721900  1
  Li  Li5  1  0.00297200  0.74573000  0.25724800  1
  Li  Li6  1  0.49615800  0.30150700  0.04074500  1
  Li  Li7  1  0.49614800  0.30151900  0.54075200  1
  Fe  Fe8  1  0.50127200  0.50213900  0.75510700  1
  Fe  Fe9  1  0.50130200  0.50215000  0.25510900  1
  Sb  Sb10  1  0.99819800  0.00283300  0.00053300  1
  Sb  Sb11  1  0.99821300  0.00284100  0.50054400  1
  W  W12  1  0.00227000  0.50121600  0.00050100  1
  W  W13  1  0.49716400  0.00149800  0.25207000  1
  W  W14  1  0.00228800  0.50121500  0.50044600  1
  W  W15  1  0.49716800  0.00150500  0.75206200  1
  O  O16  1  0.29732100  0.43405500  0.40448000  1
  O  O17  1  0.29738900  0.43403700  0.90450400  1
  O  O18  1  0.12704300  0.75089900  0.49508600  1
  O  O19  1  0.12704900  0.75090700  0.99508600  1
  O  O20  1  0.31833600  0.06248300  0.59143000  1
  O  O21  1  0.31832100  0.06244500  0.09142800  1
  O  O22  1  0.19372900  0.43775700  0.64683300  1
  O  O23  1  0.19369500  0.43777700  0.14683100  1
  O  O24  1  0.80251100  0.92471500  0.65214600  1
  O  O25  1  0.80253400  0.92471800  0.15212800  1
  O  O26  1  0.38327400  0.75874000  0.74087600  1
  O  O27  1  0.38326500  0.75873000  0.24088800  1
  O  O28  1  0.62218600  0.23666700  0.74290900  1
  O  O29  1  0.62216800  0.23664300  0.24291300  1
  O  O30  1  0.18455400  0.06185600  0.83946300  1
  O  O31  1  0.18455300  0.06184500  0.33946500  1
  O  O32  1  0.82336200  0.54823700  0.84398000  1
  O  O33  1  0.82340600  0.54820500  0.34397200  1
  O  O34  1  0.68599200  0.92937600  0.90224900  1
  O  O35  1  0.68605600  0.92936500  0.40223900  1
  O  O36  1  0.86642500  0.24905100  0.99358200  1
  O  O37  1  0.86643000  0.24905800  0.49356600  1
  O  O38  1  0.69657700  0.54962800  0.08963400  1
  O  O39  1  0.69655400  0.54964000  0.58961900  1
