# generated using pymatgen
data_Li3V2(O2F)2
_symmetry_space_group_name_H-M   'P 1'
_cell_length_a   5.99343933
_cell_length_b   5.99343933
_cell_length_c   14.88106678
_cell_angle_alpha   89.65543182
_cell_angle_beta   89.65543182
_cell_angle_gamma   59.71779497
_symmetry_Int_Tables_number   1
_chemical_formula_structural   Li3V2(O2F)2
_chemical_formula_sum   'Li12 V8 O16 F8'
_cell_volume   461.59856331
_cell_formula_units_Z   4
loop_
 _symmetry_equiv_pos_site_id
 _symmetry_equiv_pos_as_xyz
  1  'x, y, z'
loop_
 _atom_site_type_symbol
 _atom_site_label
 _atom_site_symmetry_multiplicity
 _atom_site_fract_x
 _atom_site_fract_y
 _atom_site_fract_z
 _atom_site_occupancy
  Li  Li0  1  0.30230500  0.87640500  0.83018800  1
  Li  Li1  1  0.33237200  0.83966400  0.33280600  1
  Li  Li2  1  0.49667000  0.49667000  0.95389100  1
  Li  Li3  1  0.87640500  0.30230500  0.83018800  1
  Li  Li4  1  0.83966400  0.33237200  0.33280600  1
  Li  Li5  1  0.66694700  0.66694700  0.69047900  1
  Li  Li6  1  0.83771100  0.83771100  0.84009900  1
  Li  Li7  1  0.83346100  0.83346100  0.33408100  1
  Li  Li8  1  0.02326100  0.49290400  0.96289700  1
  Li  Li9  1  0.49290400  0.02326100  0.96289700  1
  Li  Li10  1  0.16745000  0.63551900  0.71104700  1
  Li  Li11  1  0.63551900  0.16745000  0.71104700  1
  V  V12  1  0.49586700  0.49586700  0.49512000  1
  V  V13  1  0.00266300  0.00266300  0.50888500  1
  V  V14  1  0.66669400  0.66669400  0.16351000  1
  V  V15  1  0.00217300  0.49740600  0.49746700  1
  V  V16  1  0.17050000  0.17050000  0.16677900  1
  V  V17  1  0.49740600  0.00217300  0.49746700  1
  V  V18  1  0.16697400  0.66830200  0.16900500  1
  V  V19  1  0.66830200  0.16697400  0.16900500  1
  O  O20  1  0.34222000  0.83480900  0.10119300  1
  O  O21  1  0.33472100  0.81890500  0.56529800  1
  O  O22  1  0.50450200  0.50450200  0.23933100  1
  O  O23  1  0.81890500  0.33472100  0.56529800  1
  O  O24  1  0.83480900  0.34222000  0.10119300  1
  O  O25  1  0.01073900  0.01073900  0.24356900  1
  O  O26  1  0.66600200  0.66600200  0.42224600  1
  O  O27  1  0.83363600  0.83363600  0.10359900  1
  O  O28  1  0.83283200  0.83283200  0.56521600  1
  O  O29  1  0.98534000  0.50597700  0.24083000  1
  O  O30  1  0.15769400  0.15769400  0.42773600  1
  O  O31  1  0.33655000  0.33655000  0.56453400  1
  O  O32  1  0.32308200  0.32308200  0.10018600  1
  O  O33  1  0.50597700  0.98534000  0.24083000  1
  O  O34  1  0.16656500  0.68313300  0.42713500  1
  O  O35  1  0.68313300  0.16656500  0.42713500  1
  F  F36  1  0.50558000  0.50558000  0.74268400  1
  F  F37  1  0.98591400  0.98591400  0.75344700  1
  F  F38  1  0.67254800  0.67254800  0.92391800  1
  F  F39  1  0.96726100  0.51592800  0.75617300  1
  F  F40  1  0.16625100  0.16625100  0.91556800  1
  F  F41  1  0.51592800  0.96726100  0.75617300  1
  F  F42  1  0.16754800  0.67370500  0.91185400  1
  F  F43  1  0.67370500  0.16754800  0.91185400  1
