# generated using pymatgen
data_Li4CrFe3O8
_symmetry_space_group_name_H-M   'P 1'
_cell_length_a   5.18767200
_cell_length_b   7.87917476
_cell_length_c   7.87858344
_cell_angle_alpha   81.78704449
_cell_angle_beta   83.75887225
_cell_angle_gamma   70.98693577
_symmetry_Int_Tables_number   1
_chemical_formula_structural   Li4CrFe3O8
_chemical_formula_sum   'Li8 Cr2 Fe6 O16'
_cell_volume   300.67646820
_cell_formula_units_Z   2
loop_
 _symmetry_equiv_pos_site_id
 _symmetry_equiv_pos_as_xyz
  1  'x, y, z'
loop_
 _atom_site_type_symbol
 _atom_site_label
 _atom_site_symmetry_multiplicity
 _atom_site_fract_x
 _atom_site_fract_y
 _atom_site_fract_z
 _atom_site_occupancy
  Li  Li0  1  0.00000000  0.00000000  0.00000000  1
  Li  Li1  1  0.00120700  0.74958900  0.75004100  1
  Li  Li2  1  0.00132500  0.87477100  0.37461600  1
  Li  Li3  1  0.00021700  0.37508000  0.87386800  1
  Li  Li4  1  0.00000000  0.50000000  0.50000000  1
  Li  Li5  1  0.99978300  0.62492000  0.12613200  1
  Li  Li6  1  0.99867500  0.12522900  0.62538400  1
  Li  Li7  1  0.99879300  0.25041100  0.24995900  1
  Cr  Cr8  1  0.50014400  0.43795600  0.68667800  1
  Cr  Cr9  1  0.49985600  0.56204400  0.31332200  1
  Fe  Fe10  1  0.49984700  0.68687700  0.93777500  1
  Fe  Fe11  1  0.49958900  0.81221800  0.56262500  1
  Fe  Fe12  1  0.49964700  0.93703600  0.18772700  1
  Fe  Fe13  1  0.50035300  0.06296400  0.81227300  1
  Fe  Fe14  1  0.50041100  0.18778200  0.43737500  1
  Fe  Fe15  1  0.50015300  0.31312300  0.06222500  1
  O  O16  1  0.72882900  0.84815000  0.96927400  1
  O  O17  1  0.27132900  0.90208200  0.78066700  1
  O  O18  1  0.72950800  0.97222200  0.59409200  1
  O  O19  1  0.27317200  0.52605100  0.90316600  1
  O  O20  1  0.72607900  0.59729100  0.71970700  1
  O  O21  1  0.72544500  0.72227000  0.34471700  1
  O  O22  1  0.27457200  0.64960400  0.52981700  1
  O  O23  1  0.72696700  0.22546700  0.84318400  1
  O  O24  1  0.72542800  0.35039600  0.47018300  1
  O  O25  1  0.27303300  0.77453300  0.15681600  1
  O  O26  1  0.27455500  0.27773000  0.65528300  1
  O  O27  1  0.72682800  0.47394900  0.09683400  1
  O  O28  1  0.27392100  0.40270900  0.28029300  1
  O  O29  1  0.72867100  0.09791800  0.21933300  1
  O  O30  1  0.27049200  0.02777800  0.40590800  1
  O  O31  1  0.27117100  0.15185000  0.03072600  1
