# generated using pymatgen
data_Li3Mn(Si2O5)3
_symmetry_space_group_name_H-M   'P 1'
_cell_length_a   11.19034585
_cell_length_b   11.19034585
_cell_length_c   10.06164400
_cell_angle_alpha   90.00000000
_cell_angle_beta   90.00000000
_cell_angle_gamma   101.20488944
_symmetry_Int_Tables_number   1
_chemical_formula_structural   Li3Mn(Si2O5)3
_chemical_formula_sum   'Li12 Mn4 Si24 O60'
_cell_volume   1235.94111431
_cell_formula_units_Z   4
loop_
 _symmetry_equiv_pos_site_id
 _symmetry_equiv_pos_as_xyz
  1  'x, y, z'
loop_
 _atom_site_type_symbol
 _atom_site_label
 _atom_site_symmetry_multiplicity
 _atom_site_fract_x
 _atom_site_fract_y
 _atom_site_fract_z
 _atom_site_occupancy
  Li  Li0  1  0.23826400  0.23826400  0.00000000  1
  Li  Li1  1  0.01080400  0.48919600  0.25000000  1
  Li  Li2  1  0.48919600  0.01080400  0.75000000  1
  Li  Li3  1  0.26173600  0.26173600  0.50000000  1
  Li  Li4  1  0.93191000  0.06809000  0.77220900  1
  Li  Li5  1  0.43191000  0.56809000  0.72779100  1
  Li  Li6  1  0.56809000  0.43191000  0.27220900  1
  Li  Li7  1  0.06809000  0.93191000  0.22779100  1
  Li  Li8  1  0.73826400  0.73826400  0.50000000  1
  Li  Li9  1  0.98919600  0.51080400  0.75000000  1
  Li  Li10  1  0.51080400  0.98919600  0.25000000  1
  Li  Li11  1  0.76173600  0.76173600  0.00000000  1
  Mn  Mn12  1  0.33978100  0.16021900  0.25000000  1
  Mn  Mn13  1  0.16021900  0.33978100  0.75000000  1
  Mn  Mn14  1  0.66021900  0.83978100  0.75000000  1
  Mn  Mn15  1  0.83978100  0.66021900  0.25000000  1
  Si  Si16  1  0.04033300  0.18823700  0.19726900  1
  Si  Si17  1  0.18823700  0.04033300  0.80273100  1
  Si  Si18  1  0.45966700  0.31176300  0.69726900  1
  Si  Si19  1  0.31176300  0.45966700  0.30273100  1
  Si  Si20  1  0.25973800  0.51987500  0.00768300  1
  Si  Si21  1  0.75973800  0.01987500  0.49231700  1
  Si  Si22  1  0.51987500  0.25973800  0.99231700  1
  Si  Si23  1  0.01987500  0.75973800  0.50768300  1
  Si  Si24  1  0.57988600  0.20069500  0.45759500  1
  Si  Si25  1  0.07988600  0.70069500  0.04240500  1
  Si  Si26  1  0.70069500  0.07988600  0.95759500  1
  Si  Si27  1  0.20069500  0.57988600  0.54240500  1
  Si  Si28  1  0.79930500  0.42011400  0.45759500  1
  Si  Si29  1  0.92011400  0.29930500  0.95759500  1
  Si  Si30  1  0.29930500  0.92011400  0.04240500  1
  Si  Si31  1  0.42011400  0.79930500  0.54240500  1
  Si  Si32  1  0.48012500  0.74026200  0.00768300  1
  Si  Si33  1  0.98012500  0.24026200  0.49231700  1
  Si  Si34  1  0.74026200  0.48012500  0.99231700  1
  Si  Si35  1  0.24026200  0.98012500  0.50768300  1
  Si  Si36  1  0.68823700  0.54033300  0.69726900  1
  Si  Si37  1  0.54033300  0.68823700  0.30273100  1
  Si  Si38  1  0.81176300  0.95966700  0.19726900  1
  Si  Si39  1  0.95966700  0.81176300  0.80273100  1
  O  O40  1  0.00813600  0.28074600  0.08284200  1
  O  O41  1  0.28074600  0.00813600  0.91715800  1
  O  O42  1  0.26065500  0.02842000  0.66243100  1
  O  O43  1  0.02842000  0.26065500  0.33756900  1
  O  O44  1  0.16783800  0.15046800  0.16497200  1
  O  O45  1  0.15046800  0.16783800  0.83502800  1
  O  O46  1  0.09653300  0.25666200  0.58846400  1
  O  O47  1  0.25666200  0.09653300  0.41153600  1
  O  O48  1  0.00974700  0.64555100  0.17300000  1
  O  O49  1  0.64555100  0.00974700  0.82700000  1
  O  O50  1  0.50974700  0.14555100  0.32700000  1
  O  O51  1  0.14555100  0.50974700  0.67300000  1
  O  O52  1  0.40346700  0.24333800  0.08846400  1
  O  O53  1  0.24333800  0.40346700  0.91153600  1
  O  O54  1  0.33216200  0.34953200  0.66497200  1
  O  O55  1  0.34953200  0.33216200  0.33502800  1
  O  O56  1  0.47158000  0.23934500  0.83756900  1
  O  O57  1  0.23934500  0.47158000  0.16243100  1
  O  O58  1  0.21925400  0.49186400  0.41715800  1
  O  O59  1  0.49186400  0.21925400  0.58284200  1
  O  O60  1  0.66346000  0.10929700  0.51938800  1
  O  O61  1  0.60929700  0.16346000  0.01938800  1
  O  O62  1  0.10929700  0.66346000  0.48061200  1
  O  O63  1  0.16346000  0.60929700  0.98061200  1
  O  O64  1  0.39824200  0.60175800  0.98388400  1
  O  O65  1  0.66327600  0.33672400  0.41977600  1
  O  O66  1  0.94061200  0.05938800  0.20338100  1
  O  O67  1  0.83672400  0.16327600  0.91977600  1
  O  O68  1  0.89824200  0.10175800  0.51611600  1
  O  O69  1  0.55938800  0.44061200  0.70338100  1
  O  O70  1  0.60175800  0.39824200  0.01611600  1
  O  O71  1  0.44061200  0.55938800  0.29661900  1
  O  O72  1  0.33672400  0.66327600  0.58022400  1
  O  O73  1  0.05938800  0.94061200  0.79661900  1
  O  O74  1  0.16327600  0.83672400  0.08022400  1
  O  O75  1  0.10175800  0.89824200  0.48388400  1
  O  O76  1  0.33654000  0.89070300  0.48061200  1
  O  O77  1  0.89070300  0.33654000  0.51938800  1
  O  O78  1  0.83654000  0.39070300  0.01938800  1
  O  O79  1  0.39070300  0.83654000  0.98061200  1
  O  O80  1  0.78074600  0.50813600  0.58284200  1
  O  O81  1  0.50813600  0.78074600  0.41715800  1
  O  O82  1  0.76065500  0.52842000  0.83756900  1
  O  O83  1  0.52842000  0.76065500  0.16243100  1
  O  O84  1  0.65046800  0.66783800  0.66497200  1
  O  O85  1  0.66783800  0.65046800  0.33502800  1
  O  O86  1  0.75666200  0.59653300  0.08846400  1
  O  O87  1  0.59653300  0.75666200  0.91153600  1
  O  O88  1  0.99025300  0.35444900  0.82700000  1
  O  O89  1  0.85444900  0.49025300  0.32700000  1
  O  O90  1  0.35444900  0.99025300  0.17300000  1
  O  O91  1  0.49025300  0.85444900  0.67300000  1
  O  O92  1  0.90346700  0.74333800  0.41153600  1
  O  O93  1  0.74333800  0.90346700  0.58846400  1
  O  O94  1  0.83216200  0.84953200  0.83502800  1
  O  O95  1  0.84953200  0.83216200  0.16497200  1
  O  O96  1  0.97158000  0.73934500  0.66243100  1
  O  O97  1  0.73934500  0.97158000  0.33756900  1
  O  O98  1  0.99186400  0.71925400  0.91715800  1
  O  O99  1  0.71925400  0.99186400  0.08284200  1
