# generated using pymatgen
data_Li6Mn2P(CO4)4
_symmetry_space_group_name_H-M   'P 1'
_cell_length_a   9.51563212
_cell_length_b   9.51563212
_cell_length_c   9.51563212
_cell_angle_alpha   60.00000000
_cell_angle_beta   60.00000000
_cell_angle_gamma   60.00000000
_symmetry_Int_Tables_number   1
_chemical_formula_structural   Li6Mn2P(CO4)4
_chemical_formula_sum   'Li12 Mn4 P2 C8 O32'
_cell_volume   609.25336020
_cell_formula_units_Z   2
loop_
 _symmetry_equiv_pos_site_id
 _symmetry_equiv_pos_as_xyz
  1  'x, y, z'
loop_
 _atom_site_type_symbol
 _atom_site_label
 _atom_site_symmetry_multiplicity
 _atom_site_fract_x
 _atom_site_fract_y
 _atom_site_fract_z
 _atom_site_occupancy
  Li  Li0  1  0.55135200  0.94864800  0.94864800  1
  Li  Li1  1  0.30135200  0.30135200  0.69864800  1
  Li  Li2  1  0.55135200  0.94864800  0.55135200  1
  Li  Li3  1  0.94864800  0.55135200  0.94864800  1
  Li  Li4  1  0.69864800  0.69864800  0.30135200  1
  Li  Li5  1  0.30135200  0.69864800  0.69864800  1
  Li  Li6  1  0.55135200  0.55135200  0.94864800  1
  Li  Li7  1  0.94864800  0.55135200  0.55135200  1
  Li  Li8  1  0.69864800  0.30135200  0.69864800  1
  Li  Li9  1  0.30135200  0.69864800  0.30135200  1
  Li  Li10  1  0.94864800  0.94864800  0.55135200  1
  Li  Li11  1  0.69864800  0.30135200  0.30135200  1
  Mn  Mn12  1  0.12500000  0.62500000  0.12500000  1
  Mn  Mn13  1  0.62500000  0.12500000  0.12500000  1
  Mn  Mn14  1  0.12500000  0.12500000  0.12500000  1
  Mn  Mn15  1  0.12500000  0.12500000  0.62500000  1
  P  P16  1  0.75000000  0.75000000  0.75000000  1
  P  P17  1  0.50000000  0.50000000  0.50000000  1
  C  C18  1  0.34833400  0.95499800  0.34833400  1
  C  C19  1  0.95499800  0.34833400  0.34833400  1
  C  C20  1  0.34833400  0.34833400  0.95499800  1
  C  C21  1  0.34833400  0.34833400  0.34833400  1
  C  C22  1  0.90166600  0.90166600  0.90166600  1
  C  C23  1  0.90166600  0.90166600  0.29500200  1
  C  C24  1  0.29500200  0.90166600  0.90166600  1
  C  C25  1  0.90166600  0.29500200  0.90166600  1
  O  O26  1  0.29569900  0.03311800  0.76084600  1
  O  O27  1  0.03311800  0.29569900  0.91033700  1
  O  O28  1  0.48915400  0.95430100  0.21688200  1
  O  O29  1  0.33966300  0.21688200  0.95430100  1
  O  O30  1  0.33966300  0.95430100  0.48915400  1
  O  O31  1  0.68328100  0.68328100  0.68328100  1
  O  O32  1  0.95430100  0.33966300  0.21688200  1
  O  O33  1  0.95015800  0.68328100  0.68328100  1
  O  O34  1  0.68328100  0.68328100  0.95015800  1
  O  O35  1  0.48915400  0.33966300  0.95430100  1
  O  O36  1  0.21688200  0.48915400  0.95430100  1
  O  O37  1  0.68328100  0.95015800  0.68328100  1
  O  O38  1  0.48915400  0.21688200  0.33966300  1
  O  O39  1  0.95430100  0.48915400  0.33966300  1
  O  O40  1  0.21688200  0.33966300  0.48915400  1
  O  O41  1  0.91033700  0.76084600  0.03311800  1
  O  O42  1  0.33966300  0.48915400  0.21688200  1
  O  O43  1  0.03311800  0.91033700  0.76084600  1
  O  O44  1  0.29569900  0.76084600  0.91033700  1
  O  O45  1  0.76084600  0.03311800  0.91033700  1
  O  O46  1  0.56671900  0.29984200  0.56671900  1
  O  O47  1  0.03311800  0.76084600  0.29569900  1
  O  O48  1  0.76084600  0.91033700  0.29569900  1
  O  O49  1  0.29984200  0.56671900  0.56671900  1
  O  O50  1  0.56671900  0.56671900  0.29984200  1
  O  O51  1  0.29569900  0.91033700  0.03311800  1
  O  O52  1  0.56671900  0.56671900  0.56671900  1
  O  O53  1  0.91033700  0.29569900  0.76084600  1
  O  O54  1  0.91033700  0.03311800  0.29569900  1
  O  O55  1  0.76084600  0.29569900  0.03311800  1
  O  O56  1  0.21688200  0.95430100  0.33966300  1
  O  O57  1  0.95430100  0.21688200  0.48915400  1
