# generated using pymatgen
data_Li32Mn5Cr11O48
_symmetry_space_group_name_H-M   'P 1'
_cell_length_a   5.02216817
_cell_length_b   5.02216817
_cell_length_c   38.48053647
_cell_angle_alpha   88.94805263
_cell_angle_beta   88.94805263
_cell_angle_gamma   119.76284296
_symmetry_Int_Tables_number   1
_chemical_formula_structural   Li32Mn5Cr11O48
_chemical_formula_sum   'Li32 Mn5 Cr11 O48'
_cell_volume   841.96936289
_cell_formula_units_Z   1
loop_
 _symmetry_equiv_pos_site_id
 _symmetry_equiv_pos_as_xyz
  1  'x, y, z'
loop_
 _atom_site_type_symbol
 _atom_site_label
 _atom_site_symmetry_multiplicity
 _atom_site_fract_x
 _atom_site_fract_y
 _atom_site_fract_z
 _atom_site_occupancy
  Li  Li0  1  0.28831800  0.09155900  0.43742100  1
  Li  Li1  1  0.37625800  0.49975400  0.18768500  1
  Li  Li2  1  0.31518900  0.43669100  0.37497200  1
  Li  Li3  1  0.25352900  0.37420400  0.56255000  1
  Li  Li4  1  0.18529800  0.31256500  0.74992600  1
  Li  Li5  1  0.12452200  0.25438500  0.93770300  1
  Li  Li6  1  0.06271000  0.18763200  0.12497500  1
  Li  Li7  1  0.34102800  0.79191000  0.31241200  1
  Li  Li8  1  0.00223000  0.12147100  0.31247300  1
  Li  Li9  1  0.20809000  0.65897200  0.68758800  1
  Li  Li10  1  0.09350200  0.53767500  0.06226600  1
  Li  Li11  1  0.93699600  0.06300400  0.50000000  1
  Li  Li12  1  0.87852900  0.99777000  0.68752700  1
  Li  Li13  1  0.96177100  0.41231700  0.43753100  1
  Li  Li14  1  0.84369500  0.28867300  0.81222600  1
  Li  Li15  1  0.15769000  0.96276800  0.81245100  1
  Li  Li16  1  0.03723200  0.84231000  0.18754900  1
  Li  Li17  1  0.71132700  0.15630500  0.18777400  1
  Li  Li18  1  0.58768300  0.03822900  0.56246900  1
  Li  Li19  1  0.90844100  0.71168200  0.56257900  1
  Li  Li20  1  0.78695900  0.58823700  0.93764600  1
  Li  Li21  1  0.81236800  0.93729000  0.87502500  1
  Li  Li22  1  0.65664500  0.46047800  0.31254900  1
  Li  Li23  1  0.53952200  0.34335500  0.68745100  1
  Li  Li24  1  0.74561500  0.87547800  0.06229700  1
  Li  Li25  1  0.41176300  0.21304100  0.06235400  1
  Li  Li26  1  0.68743500  0.81470200  0.25007400  1
  Li  Li27  1  0.62579600  0.74647100  0.43745000  1
  Li  Li28  1  0.56330900  0.68481100  0.62502800  1
  Li  Li29  1  0.50024600  0.62374200  0.81231500  1
  Li  Li30  1  0.43570200  0.56429800  0.00000000  1
  Li  Li31  1  0.46232500  0.90649800  0.93773400  1
  Mn  Mn32  1  0.35460100  0.14597900  0.24998100  1
  Mn  Mn33  1  0.23044400  0.01987500  0.62490700  1
  Mn  Mn34  1  0.76970000  0.23030000  0.00000000  1
  Mn  Mn35  1  0.98012500  0.76955600  0.37509300  1
  Mn  Mn36  1  0.85402100  0.64539900  0.75001900  1
  Cr  Cr37  1  0.27140800  0.72859200  0.50000000  1
  Cr  Cr38  1  0.14164500  0.60814200  0.87495400  1
  Cr  Cr39  1  0.01877400  0.48414300  0.25003600  1
  Cr  Cr40  1  0.89649300  0.35036000  0.62493900  1
  Cr  Cr41  1  0.10189100  0.89810900  0.00000000  1
  Cr  Cr42  1  0.64964000  0.10350700  0.37506100  1
  Cr  Cr43  1  0.73368200  0.51668000  0.12496900  1
  Cr  Cr44  1  0.60321600  0.39678400  0.50000000  1
  Cr  Cr45  1  0.48332000  0.26631800  0.87503100  1
  Cr  Cr46  1  0.51585700  0.98122600  0.74996400  1
  Cr  Cr47  1  0.39185800  0.85835500  0.12504600  1
  O  O48  1  0.29280500  0.06188300  0.52802100  1
  O  O49  1  0.31670000  0.08683900  0.34695200  1
  O  O50  1  0.30333300  0.42887600  0.47118400  1
  O  O51  1  0.18104000  0.30598100  0.84652000  1
  O  O52  1  0.31707600  0.44324000  0.27838000  1
  O  O53  1  0.19843400  0.31946700  0.65359600  1
  O  O54  1  0.06952900  0.19718800  0.02850500  1
  O  O55  1  0.05514200  0.17839300  0.22145100  1
  O  O56  1  0.93090800  0.05454600  0.59642700  1
  O  O57  1  0.30627400  0.79211100  0.40291700  1
  O  O58  1  0.94545400  0.06909200  0.40357300  1
  O  O59  1  0.17430000  0.65776600  0.77811600  1
  O  O60  1  0.04272600  0.53214800  0.15339800  1
  O  O61  1  0.34223400  0.82570000  0.22188400  1
  O  O62  1  0.20788900  0.69372600  0.59708300  1
  O  O63  1  0.08694100  0.56594000  0.97187500  1
  O  O64  1  0.15700500  0.91727400  0.90342700  1
  O  O65  1  0.19602600  0.96136000  0.72212300  1
  O  O66  1  0.08272600  0.84299500  0.09657300  1
  O  O67  1  0.93659000  0.41798000  0.52812700  1
  O  O68  1  0.79289500  0.28139800  0.90331600  1
  O  O69  1  0.95662100  0.44286500  0.34713800  1
  O  O70  1  0.84296200  0.32723500  0.72176800  1
  O  O71  1  0.71860200  0.20710500  0.09668400  1
  O  O72  1  0.03864000  0.80397400  0.27787700  1
  O  O73  1  0.91316100  0.68330000  0.65304800  1
  O  O74  1  0.79285200  0.55713600  0.02783500  1
  O  O75  1  0.93811700  0.70719500  0.47197900  1
  O  O76  1  0.83198400  0.59304400  0.84667100  1
  O  O77  1  0.67276500  0.15703800  0.27823200  1
  O  O78  1  0.55713500  0.04337900  0.65286200  1
  O  O79  1  0.58202000  0.06341000  0.47187300  1
  O  O80  1  0.66295000  0.43423800  0.40326400  1
  O  O81  1  0.54030000  0.30247800  0.77790600  1
  O  O82  1  0.40695600  0.16801600  0.15332900  1
  O  O83  1  0.69752200  0.45970000  0.22209400  1
  O  O84  1  0.56576200  0.33705000  0.59673600  1
  O  O85  1  0.80281200  0.93047100  0.97149500  1
  O  O86  1  0.44286400  0.20714800  0.97216500  1
  O  O87  1  0.82160700  0.94485800  0.77854900  1
  O  O88  1  0.69401900  0.81896000  0.15348000  1
  O  O89  1  0.68053300  0.80156600  0.34640400  1
  O  O90  1  0.55676000  0.68292400  0.72162000  1
  O  O91  1  0.43083500  0.55527200  0.09650500  1
  O  O92  1  0.57112400  0.69666700  0.52881600  1
  O  O93  1  0.44472800  0.56916500  0.90349500  1
  O  O94  1  0.43406000  0.91305900  0.02812500  1
  O  O95  1  0.46785200  0.95727400  0.84660200  1
