# generated using pymatgen
data_Li3CrO4
_symmetry_space_group_name_H-M   'P 1'
_cell_length_a   5.76112882
_cell_length_b   9.90854895
_cell_length_c   5.76112297
_cell_angle_alpha   105.39242919
_cell_angle_beta   61.46466972
_cell_angle_gamma   105.39223278
_symmetry_Int_Tables_number   1
_chemical_formula_structural   Li3CrO4
_chemical_formula_sum   'Li12 Cr4 O16'
_cell_volume   274.80041202
_cell_formula_units_Z   4
loop_
 _symmetry_equiv_pos_site_id
 _symmetry_equiv_pos_as_xyz
  1  'x, y, z'
loop_
 _atom_site_type_symbol
 _atom_site_label
 _atom_site_symmetry_multiplicity
 _atom_site_fract_x
 _atom_site_fract_y
 _atom_site_fract_z
 _atom_site_occupancy
  Li  Li0  1  0.00011500  0.00015500  0.50013100  1
  Li  Li1  1  0.74981300  0.74981100  0.24979900  1
  Li  Li2  1  0.50014700  0.50015200  0.00015500  1
  Li  Li3  1  0.24976200  0.24981100  0.74974700  1
  Li  Li4  1  0.00047000  0.99991100  0.99963600  1
  Li  Li5  1  0.74926900  0.75002700  0.75060600  1
  Li  Li6  1  0.50009600  0.49988800  0.49982200  1
  Li  Li7  1  0.24946600  0.25008600  0.25046400  1
  Li  Li8  1  0.49963700  0.99991100  0.50047200  1
  Li  Li9  1  0.25060700  0.75002700  0.24926800  1
  Li  Li10  1  0.99982500  0.49988700  0.00009100  1
  Li  Li11  1  0.75046700  0.25008600  0.74946400  1
  Cr  Cr12  1  0.50051800  0.00058000  0.00055900  1
  Cr  Cr13  1  0.24975900  0.74974900  0.74973100  1
  Cr  Cr14  1  0.00030600  0.50038000  0.50034200  1
  Cr  Cr15  1  0.74982700  0.24974800  0.24979200  1
  O  O16  1  0.14825500  0.87499500  0.10173100  1
  O  O17  1  0.89668700  0.62493000  0.85343500  1
  O  O18  1  0.64824500  0.37499900  0.60175200  1
  O  O19  1  0.39654300  0.12505100  0.35331000  1
  O  O20  1  0.85331000  0.12505400  0.89654900  1
  O  O21  1  0.60173400  0.87499700  0.64825200  1
  O  O22  1  0.35344300  0.62493400  0.39668800  1
  O  O23  1  0.10172100  0.37498800  0.14823700  1
  O  O24  1  0.13820700  0.86079700  0.63821200  1
  O  O25  1  0.88869600  0.61141500  0.38868600  1
  O  O26  1  0.63813500  0.36090000  0.13814000  1
  O  O27  1  0.38861800  0.11144300  0.88860800  1
  O  O28  1  0.86126900  0.13855600  0.36127600  1
  O  O29  1  0.61182100  0.88913400  0.11181700  1
  O  O30  1  0.36137800  0.63854700  0.86138100  1
  O  O31  1  0.11185000  0.38905200  0.61184500  1
