# generated using pymatgen
data_LiCr2P3O13
_symmetry_space_group_name_H-M   'P 1'
_cell_length_a   6.18040223
_cell_length_b   21.63940000
_cell_length_c   6.97321401
_cell_angle_alpha   90.00000000
_cell_angle_beta   80.72081669
_cell_angle_gamma   90.00000000
_symmetry_Int_Tables_number   1
_chemical_formula_structural   LiCr2P3O13
_chemical_formula_sum   'Li4 Cr8 P12 O52'
_cell_volume   920.39535800
_cell_formula_units_Z   4
loop_
 _symmetry_equiv_pos_site_id
 _symmetry_equiv_pos_as_xyz
  1  'x, y, z'
loop_
 _atom_site_type_symbol
 _atom_site_label
 _atom_site_symmetry_multiplicity
 _atom_site_fract_x
 _atom_site_fract_y
 _atom_site_fract_z
 _atom_site_occupancy
  Li  Li0  1  0.17969600  0.36567300  0.80524500  1
  Li  Li1  1  0.82030400  0.63432700  0.19475500  1
  Li  Li2  1  0.67969600  0.13432700  0.30524500  1
  Li  Li3  1  0.32030400  0.86567300  0.69475500  1
  Cr  Cr4  1  0.77313000  0.06345200  0.78282800  1
  Cr  Cr5  1  0.72687000  0.56345200  0.71717200  1
  Cr  Cr6  1  0.78520300  0.79280000  0.95491900  1
  Cr  Cr7  1  0.71479700  0.29280000  0.54508100  1
  Cr  Cr8  1  0.21479700  0.20720000  0.04508100  1
  Cr  Cr9  1  0.22687000  0.93654800  0.21717200  1
  Cr  Cr10  1  0.27313000  0.43654800  0.28282800  1
  Cr  Cr11  1  0.28520300  0.70720000  0.45491900  1
  P  P12  1  0.72294200  0.89982400  0.29410600  1
  P  P13  1  0.77450900  0.70312300  0.58272900  1
  P  P14  1  0.22294200  0.60017600  0.79410600  1
  P  P15  1  0.11459200  0.08268100  0.34205100  1
  P  P16  1  0.61459200  0.41731900  0.84205100  1
  P  P17  1  0.38540800  0.58268100  0.15794900  1
  P  P18  1  0.77705800  0.39982400  0.20589400  1
  P  P19  1  0.27705800  0.10017600  0.70589400  1
  P  P20  1  0.88540800  0.91731900  0.65794900  1
  P  P21  1  0.22549100  0.29687700  0.41727100  1
  P  P22  1  0.27450900  0.79687700  0.08272900  1
  P  P23  1  0.72549100  0.20312300  0.91727100  1
  O  O24  1  0.26464900  0.16422800  0.79648600  1
  O  O25  1  0.61872600  0.58050700  0.04789900  1
  O  O26  1  0.10291200  0.79153400  0.94599900  1
  O  O27  1  0.23535100  0.66422800  0.70351400  1
  O  O28  1  0.63608600  0.37611200  0.66413300  1
  O  O29  1  0.98787900  0.43581500  0.20968200  1
  O  O30  1  0.77816300  0.38590800  0.97792500  1
  O  O31  1  0.38127400  0.41949200  0.95210100  1
  O  O32  1  0.98398200  0.68676700  0.43303300  1
  O  O33  1  0.51601800  0.18676700  0.06696700  1
  O  O34  1  0.11872600  0.91949300  0.54789900  1
  O  O35  1  0.68928600  0.26340200  0.81095700  1
  O  O36  1  0.41616800  0.55677300  0.72512000  1
  O  O37  1  0.01212100  0.56418500  0.79031800  1
  O  O38  1  0.08383200  0.05677300  0.77488000  1
  O  O39  1  0.89708800  0.20846600  0.05400100  1
  O  O40  1  0.22183700  0.61409200  0.02207500  1
  O  O41  1  0.60291200  0.70846600  0.44599900  1
  O  O42  1  0.21398900  0.84830600  0.23671100  1
  O  O43  1  0.78601100  0.15169400  0.76328900  1
  O  O44  1  0.27298900  0.52056500  0.21181100  1
  O  O45  1  0.28601100  0.34830600  0.26328900  1
  O  O46  1  0.20334500  0.43863500  0.51305100  1
  O  O47  1  0.48787900  0.06418500  0.70968200  1
  O  O48  1  0.72701100  0.47943500  0.78818900  1
  O  O49  1  0.36391400  0.62388800  0.33586700  1
  O  O50  1  0.74501800  0.22498100  0.44884500  1
  O  O51  1  0.22701100  0.02056500  0.28818900  1
  O  O52  1  0.77298900  0.97943500  0.71181100  1
  O  O53  1  0.13608600  0.12388800  0.16413300  1
  O  O54  1  0.31071400  0.73659800  0.18904300  1
  O  O55  1  0.91616800  0.94322700  0.22512000  1
  O  O56  1  0.88127400  0.08050700  0.45210100  1
  O  O57  1  0.70334500  0.06136500  0.01305100  1
  O  O58  1  0.86391400  0.87611200  0.83586700  1
  O  O59  1  0.51212100  0.93581500  0.29031800  1
  O  O60  1  0.81071400  0.76340200  0.68904300  1
  O  O61  1  0.01601800  0.31323300  0.56696700  1
  O  O62  1  0.25498200  0.77501900  0.55115500  1
  O  O63  1  0.48398200  0.81323300  0.93303300  1
  O  O64  1  0.29665500  0.93863500  0.98694900  1
  O  O65  1  0.75498200  0.72498100  0.05115500  1
  O  O66  1  0.72183700  0.88590800  0.52207500  1
  O  O67  1  0.18928600  0.23659800  0.31095700  1
  O  O68  1  0.79665500  0.56136500  0.48694900  1
  O  O69  1  0.58383200  0.44322700  0.27488100  1
  O  O70  1  0.76464900  0.33577200  0.29648600  1
  O  O71  1  0.73535100  0.83577200  0.20351400  1
  O  O72  1  0.24501800  0.27501900  0.94884500  1
  O  O73  1  0.71398900  0.65169400  0.73671100  1
  O  O74  1  0.27816300  0.11409200  0.47792500  1
  O  O75  1  0.39708800  0.29153400  0.55400100  1
