# generated using pymatgen
data_Li5MnHO4
_symmetry_space_group_name_H-M   'P 1'
_cell_length_a   8.81467300
_cell_length_b   9.16164500
_cell_length_c   10.92114200
_cell_angle_alpha   90.00000000
_cell_angle_beta   90.00000000
_cell_angle_gamma   90.00000000
_symmetry_Int_Tables_number   1
_chemical_formula_structural   Li5MnHO4
_chemical_formula_sum   'Li40 Mn8 H8 O32'
_cell_volume   881.95762499
_cell_formula_units_Z   8
loop_
 _symmetry_equiv_pos_site_id
 _symmetry_equiv_pos_as_xyz
  1  'x, y, z'
loop_
 _atom_site_type_symbol
 _atom_site_label
 _atom_site_symmetry_multiplicity
 _atom_site_fract_x
 _atom_site_fract_y
 _atom_site_fract_z
 _atom_site_occupancy
  Li  Li0  1  0.97894500  0.58020800  0.19544800  1
  Li  Li1  1  0.97894500  0.91979200  0.19544800  1
  Li  Li2  1  0.06726300  0.07325700  0.43441300  1
  Li  Li3  1  0.06726300  0.42674300  0.43441300  1
  Li  Li4  1  0.07104500  0.75000000  0.43887800  1
  Li  Li5  1  0.11985200  0.25000000  0.98101700  1
  Li  Li6  1  0.11006800  0.56824900  0.99042300  1
  Li  Li7  1  0.11006800  0.93175100  0.99042300  1
  Li  Li8  1  0.20312500  0.57678500  0.63976400  1
  Li  Li9  1  0.20312500  0.92321500  0.63976400  1
  Li  Li10  1  0.29687500  0.07678500  0.13976400  1
  Li  Li11  1  0.29687500  0.42321500  0.13976400  1
  Li  Li12  1  0.38993200  0.06824900  0.49042300  1
  Li  Li13  1  0.38993200  0.43175100  0.49042300  1
  Li  Li14  1  0.38014800  0.75000000  0.48101700  1
  Li  Li15  1  0.42895500  0.25000000  0.93887800  1
  Li  Li16  1  0.43273700  0.57325700  0.93441300  1
  Li  Li17  1  0.43273700  0.92674300  0.93441300  1
  Li  Li18  1  0.52105500  0.08020800  0.69544800  1
  Li  Li19  1  0.52105500  0.41979200  0.69544800  1
  Li  Li20  1  0.47894500  0.58020800  0.30455200  1
  Li  Li21  1  0.47894500  0.91979200  0.30455200  1
  Li  Li22  1  0.56726300  0.07325700  0.06558700  1
  Li  Li23  1  0.56726300  0.42674300  0.06558700  1
  Li  Li24  1  0.57104500  0.75000000  0.06112200  1
  Li  Li25  1  0.61985200  0.25000000  0.51898300  1
  Li  Li26  1  0.61006800  0.56824900  0.50957700  1
  Li  Li27  1  0.61006800  0.93175100  0.50957700  1
  Li  Li28  1  0.70312500  0.57678500  0.86023600  1
  Li  Li29  1  0.70312500  0.92321500  0.86023600  1
  Li  Li30  1  0.79687500  0.07678500  0.36023600  1
  Li  Li31  1  0.79687500  0.42321500  0.36023600  1
  Li  Li32  1  0.88993200  0.06824900  0.00957700  1
  Li  Li33  1  0.88993200  0.43175100  0.00957700  1
  Li  Li34  1  0.88014800  0.75000000  0.01898300  1
  Li  Li35  1  0.92895500  0.25000000  0.56112200  1
  Li  Li36  1  0.93273700  0.92674300  0.56558700  1
  Li  Li37  1  0.93273700  0.57325700  0.56558700  1
  Li  Li38  1  0.02105500  0.08020800  0.80455200  1
  Li  Li39  1  0.02105500  0.41979200  0.80455200  1
  Mn  Mn40  1  0.01893100  0.25000000  0.21493900  1
  Mn  Mn41  1  0.20941500  0.25000000  0.65614900  1
  Mn  Mn42  1  0.29058500  0.75000000  0.15614900  1
  Mn  Mn43  1  0.48106900  0.75000000  0.71493900  1
  Mn  Mn44  1  0.51893100  0.25000000  0.28506100  1
  Mn  Mn45  1  0.70941500  0.25000000  0.84385100  1
  Mn  Mn46  1  0.79058500  0.75000000  0.34385100  1
  Mn  Mn47  1  0.98106900  0.75000000  0.78506100  1
  H  H48  1  0.17249000  0.57861000  0.33144400  1
  H  H49  1  0.17249000  0.92139000  0.33144400  1
  H  H50  1  0.32751000  0.07861000  0.83144400  1
  H  H51  1  0.32751000  0.42139000  0.83144400  1
  H  H52  1  0.67249000  0.57861000  0.16855600  1
  H  H53  1  0.67249000  0.92139000  0.16855600  1
  H  H54  1  0.82751000  0.07861000  0.66855600  1
  H  H55  1  0.82751000  0.42139000  0.66855600  1
  O  O56  1  0.06243500  0.75000000  0.61651200  1
  O  O57  1  0.07937500  0.41810700  0.11353300  1
  O  O58  1  0.07937500  0.08189300  0.11353300  1
  O  O59  1  0.06220700  0.41469000  0.61831900  1
  O  O60  1  0.06220700  0.08531000  0.61831900  1
  O  O61  1  0.07706300  0.75000000  0.10309700  1
  O  O62  1  0.23268200  0.06367700  0.87741700  1
  O  O63  1  0.23268200  0.43632300  0.87741700  1
  O  O64  1  0.26731800  0.56367700  0.37741700  1
  O  O65  1  0.26731800  0.93632300  0.37741700  1
  O  O66  1  0.42293700  0.25000000  0.60309700  1
  O  O67  1  0.43779300  0.58531000  0.11831900  1
  O  O68  1  0.43779300  0.91469000  0.11831900  1
  O  O69  1  0.42062500  0.58189300  0.61353300  1
  O  O70  1  0.42062500  0.91810700  0.61353300  1
  O  O71  1  0.43756500  0.25000000  0.11651200  1
  O  O72  1  0.56243500  0.75000000  0.88348800  1
  O  O73  1  0.57937500  0.08189300  0.38646700  1
  O  O74  1  0.57937500  0.41810700  0.38646700  1
  O  O75  1  0.56220700  0.08531000  0.88168100  1
  O  O76  1  0.56220700  0.41469000  0.88168100  1
  O  O77  1  0.57706300  0.75000000  0.39690300  1
  O  O78  1  0.73268200  0.06367700  0.62258300  1
  O  O79  1  0.73268200  0.43632300  0.62258300  1
  O  O80  1  0.76731800  0.56367700  0.12258300  1
  O  O81  1  0.76731800  0.93632300  0.12258300  1
  O  O82  1  0.92293700  0.25000000  0.89690300  1
  O  O83  1  0.93779300  0.91469000  0.38168100  1
  O  O84  1  0.93779300  0.58531000  0.38168100  1
  O  O85  1  0.92062500  0.91810700  0.88646700  1
  O  O86  1  0.92062500  0.58189300  0.88646700  1
  O  O87  1  0.93756500  0.25000000  0.38348800  1
