# generated using pymatgen
data_LiMnF3
_symmetry_space_group_name_H-M   'P 1'
_cell_length_a   12.14357869
_cell_length_b   12.14357869
_cell_length_c   12.14357874
_cell_angle_alpha   28.48385005
_cell_angle_beta   28.48385005
_cell_angle_gamma   28.48384947
_symmetry_Int_Tables_number   1
_chemical_formula_structural   LiMnF3
_chemical_formula_sum   'Li6 Mn6 F18'
_cell_volume   359.98857764
_cell_formula_units_Z   6
loop_
 _symmetry_equiv_pos_site_id
 _symmetry_equiv_pos_as_xyz
  1  'x, y, z'
loop_
 _atom_site_type_symbol
 _atom_site_label
 _atom_site_symmetry_multiplicity
 _atom_site_fract_x
 _atom_site_fract_y
 _atom_site_fract_z
 _atom_site_occupancy
  Li  Li0  1  0.56398100  0.93601900  0.25000000  1
  Li  Li1  1  0.25000000  0.56398100  0.93601900  1
  Li  Li2  1  0.06398100  0.75000000  0.43601900  1
  Li  Li3  1  0.93601900  0.25000000  0.56398100  1
  Li  Li4  1  0.75000000  0.43601900  0.06398100  1
  Li  Li5  1  0.43601900  0.06398100  0.75000000  1
  Mn  Mn6  1  0.50000000  0.50000000  0.50000000  1
  Mn  Mn7  1  0.15576300  0.15576300  0.15576300  1
  Mn  Mn8  1  0.34423700  0.34423700  0.34423700  1
  Mn  Mn9  1  0.65576300  0.65576300  0.65576300  1
  Mn  Mn10  1  0.84423700  0.84423700  0.84423700  1
  Mn  Mn11  1  0.00000000  0.00000000  0.00000000  1
  F  F12  1  0.50024100  0.86605200  0.20888700  1
  F  F13  1  0.63394800  0.99975900  0.29111300  1
  F  F14  1  0.59159300  0.59159300  0.59159300  1
  F  F15  1  0.00024100  0.70888700  0.36605200  1
  F  F16  1  0.13394800  0.79111300  0.49975900  1
  F  F17  1  0.20888700  0.50024100  0.86605200  1
  F  F18  1  0.25000000  0.25000000  0.25000000  1
  F  F19  1  0.29111300  0.63394800  0.99975900  1
  F  F20  1  0.09159300  0.09159300  0.09159300  1
  F  F21  1  0.90840700  0.90840700  0.90840700  1
  F  F22  1  0.70888700  0.36605200  0.00024100  1
  F  F23  1  0.75000000  0.75000000  0.75000000  1
  F  F24  1  0.79111300  0.49975900  0.13394800  1
  F  F25  1  0.86605200  0.20888700  0.50024100  1
  F  F26  1  0.99975900  0.29111300  0.63394800  1
  F  F27  1  0.40840700  0.40840700  0.40840700  1
  F  F28  1  0.36605200  0.00024100  0.70888700  1
  F  F29  1  0.49975900  0.13394800  0.79111300  1
