# generated using pymatgen
data_Li3V3P8O29
_symmetry_space_group_name_H-M   'P 1'
_cell_length_a   9.74966800
_cell_length_b   9.76247497
_cell_length_c   14.42393076
_cell_angle_alpha   89.10420251
_cell_angle_beta   89.38466732
_cell_angle_gamma   60.23578415
_symmetry_Int_Tables_number   1
_chemical_formula_structural   Li3V3P8O29
_chemical_formula_sum   'Li6 V6 P16 O58'
_cell_volume   1191.61328212
_cell_formula_units_Z   2
loop_
 _symmetry_equiv_pos_site_id
 _symmetry_equiv_pos_as_xyz
  1  'x, y, z'
loop_
 _atom_site_type_symbol
 _atom_site_label
 _atom_site_symmetry_multiplicity
 _atom_site_fract_x
 _atom_site_fract_y
 _atom_site_fract_z
 _atom_site_occupancy
  Li  Li0  1  0.30562400  0.91944900  0.44035400  1
  Li  Li1  1  0.91412200  0.32024100  0.93777600  1
  Li  Li2  1  0.22146100  0.68697100  0.55871400  1
  Li  Li3  1  0.78336400  0.28742900  0.44827400  1
  Li  Li4  1  0.67816400  0.22539300  0.04945300  1
  Li  Li5  1  0.08156900  0.91393700  0.98623300  1
  V  V6  1  0.43525600  0.57185100  0.75602200  1
  V  V7  1  0.56395100  0.43467200  0.24916700  1
  V  V8  1  0.99919500  0.56844300  0.24791700  1
  V  V9  1  0.00099700  0.43768500  0.74867000  1
  V  V10  1  0.56638700  0.99587300  0.75251600  1
  V  V11  1  0.43559300  0.00730200  0.24662900  1
  P  P12  1  0.77955200  0.91992500  0.16374300  1
  P  P13  1  0.91031900  0.77882600  0.66120300  1
  P  P14  1  0.31588500  0.91361800  0.65668000  1
  P  P15  1  0.67023600  0.66274400  0.86992600  1
  P  P16  1  0.66529800  0.66572500  0.36519500  1
  P  P17  1  0.30990900  0.77948200  0.16358500  1
  P  P18  1  0.22744800  0.68012900  0.34127800  1
  P  P19  1  0.91206200  0.31759000  0.15423800  1
  P  P20  1  0.07974300  0.69468800  0.84161800  1
  P  P21  1  0.76995600  0.32402500  0.66112200  1
  P  P22  1  0.68344000  0.22544000  0.83752900  1
  P  P23  1  0.33777000  0.33620800  0.63504400  1
  P  P24  1  0.33340700  0.33750800  0.13293800  1
  P  P25  1  0.68685700  0.08547900  0.34583000  1
  P  P26  1  0.08529700  0.22582800  0.33346700  1
  P  P27  1  0.21822200  0.08214000  0.83696100  1
  O  O28  1  0.76082500  0.01083300  0.43419500  1
  O  O29  1  0.73869300  0.91859300  0.66788400  1
  O  O30  1  0.01172400  0.78850700  0.92605900  1
  O  O31  1  0.91452800  0.74602300  0.16773000  1
  O  O32  1  0.61850700  0.92089300  0.17438000  1
  O  O33  1  0.67180600  0.80932200  0.82439500  1
  O  O34  1  0.47586600  0.90412200  0.67972900  1
  O  O35  1  0.19127500  0.99964300  0.91591200  1
  O  O36  1  0.35151100  0.91308400  0.17217700  1
  O  O37  1  0.81545300  0.65980900  0.31962300  1
  O  O38  1  0.90321800  0.62349100  0.68001600  1
  O  O39  1  0.51801800  0.81944900  0.32869600  1
  O  O40  1  0.66576300  0.65805900  0.97251300  1
  O  O41  1  0.66985700  0.64520200  0.46725600  1
  O  O42  1  0.51645200  0.66930200  0.82558400  1
  O  O43  1  0.91081800  0.47457000  0.17241900  1
  O  O44  1  0.81448800  0.50937000  0.82974400  1
  O  O45  1  0.33604400  0.74484000  0.66617300  1
  O  O46  1  0.21081600  0.79825800  0.25814100  1
  O  O47  1  0.24053500  0.74946400  0.43033800  1
  O  O48  1  0.21372900  0.79551000  0.08214500  1
  O  O49  1  0.46436900  0.61714400  0.17323000  1
  O  O50  1  0.65892300  0.52156500  0.31779500  1
  O  O51  1  0.25645800  0.65158700  0.82771000  1
  O  O52  1  0.61948300  0.48296500  0.68264800  1
  O  O53  1  0.91653600  0.34589500  0.67176000  1
  O  O54  1  0.99419000  0.80061900  0.75123200  1
  O  O55  1  0.00128900  0.77192000  0.57722900  1
  O  O56  1  0.99052600  0.22787600  0.41477800  1
  O  O57  1  0.08228700  0.65768000  0.33275700  1
  O  O58  1  0.37867100  0.51963600  0.32046600  1
  O  O59  1  0.74126100  0.34156300  0.16538300  1
  O  O60  1  0.34282300  0.48367400  0.67091900  1
  O  O61  1  0.52427800  0.38211700  0.82495600  1
  O  O62  1  0.76655500  0.22859200  0.92398600  1
  O  O63  1  0.76407900  0.25425100  0.57240400  1
  O  O64  1  0.78906500  0.20707800  0.74739900  1
  O  O65  1  0.65971500  0.25843100  0.33496300  1
  O  O66  1  0.18727000  0.48506200  0.17520500  1
  O  O67  1  0.07223900  0.54094400  0.83179900  1
  O  O68  1  0.48828200  0.32694000  0.17500700  1
  O  O69  1  0.34510600  0.32969800  0.03052600  1
  O  O70  1  0.32998400  0.33344900  0.53280900  1
  O  O71  1  0.47391500  0.18430800  0.68304600  1
  O  O72  1  0.09293400  0.37991600  0.31836900  1
  O  O73  1  0.18310500  0.34849400  0.68342700  1
  O  O74  1  0.65486900  0.08379500  0.83476100  1
  O  O75  1  0.79857100  0.99586200  0.25743700  1
  O  O76  1  0.78775000  0.00903300  0.08171300  1
  O  O77  1  0.52608800  0.09378200  0.32178200  1
  O  O78  1  0.32777800  0.19038700  0.17825300  1
  O  O79  1  0.38240700  0.07168100  0.83016200  1
  O  O80  1  0.08518700  0.25973800  0.83544200  1
  O  O81  1  0.97713700  0.24596900  0.06269400  1
  O  O82  1  0.01182400  0.20147600  0.23820200  1
  O  O83  1  0.25615400  0.08186400  0.33563800  1
  O  O84  1  0.25147800  0.98279300  0.56426500  1
  O  O85  1  0.19726400  0.01439400  0.73876400  1
