# generated using pymatgen
data_Li8Mn3Cr(PO4)6
_symmetry_space_group_name_H-M   'P 1'
_cell_length_a   8.40615600
_cell_length_b   8.45468293
_cell_length_c   9.26572067
_cell_angle_alpha   91.01522779
_cell_angle_beta   116.31102367
_cell_angle_gamma   119.37233079
_symmetry_Int_Tables_number   1
_chemical_formula_structural   Li8Mn3Cr(PO4)6
_chemical_formula_sum   'Li8 Mn3 Cr1 P6 O24'
_cell_volume   490.56707834
_cell_formula_units_Z   1
loop_
 _symmetry_equiv_pos_site_id
 _symmetry_equiv_pos_as_xyz
  1  'x, y, z'
loop_
 _atom_site_type_symbol
 _atom_site_label
 _atom_site_symmetry_multiplicity
 _atom_site_fract_x
 _atom_site_fract_y
 _atom_site_fract_z
 _atom_site_occupancy
  Li  Li0  1  0.19576100  0.26532200  0.86779600  1
  Li  Li1  1  0.63469800  0.94388700  0.90177200  1
  Li  Li2  1  0.92816700  0.66090900  0.85337900  1
  Li  Li3  1  0.32983100  0.79710600  0.59143600  1
  Li  Li4  1  0.67136600  0.20487800  0.40997300  1
  Li  Li5  1  0.06999300  0.33856800  0.14423100  1
  Li  Li6  1  0.36318900  0.05641900  0.09634200  1
  Li  Li7  1  0.80391300  0.73379800  0.13674400  1
  Mn  Mn8  1  0.31094100  0.64944100  0.96849100  1
  Mn  Mn9  1  0.28868900  0.15002000  0.43679100  1
  Mn  Mn10  1  0.71541300  0.85210600  0.56217700  1
  Cr  Cr11  1  0.68758200  0.34966900  0.03221800  1
  P  P12  1  0.21774500  0.95362300  0.75214300  1
  P  P13  1  0.49297800  0.54607200  0.75587300  1
  P  P14  1  0.80763100  0.25451200  0.76244500  1
  P  P15  1  0.19038700  0.74279500  0.23732300  1
  P  P16  1  0.50667000  0.44976200  0.24758600  1
  P  P17  1  0.78538700  0.05246700  0.24485700  1
  O  O18  1  0.36385300  0.15390200  0.89467300  1
  O  O19  1  0.33432500  0.50407700  0.81888600  1
  O  O20  1  0.32384400  0.83992300  0.81032500  1
  O  O21  1  0.69141800  0.55114300  0.90149900  1
  O  O22  1  0.74734400  0.21143100  0.90323500  1
  O  O23  1  0.57798900  0.74820700  0.73407700  1
  O  O24  1  0.20014900  0.97209500  0.58366600  1
  O  O25  1  0.37817800  0.39328000  0.59522000  1
  O  O26  1  0.98462000  0.47086100  0.82034600  1
  O  O27  1  0.89165700  0.13146300  0.75281100  1
  O  O28  1  0.61563100  0.20651600  0.59273600  1
  O  O29  1  0.00439100  0.85646400  0.74681900  1
  O  O30  1  0.00157900  0.14820600  0.25609100  1
  O  O31  1  0.38143000  0.79001000  0.40726200  1
  O  O32  1  0.10856700  0.86850900  0.24414300  1
  O  O33  1  0.01123100  0.52800000  0.17738500  1
  O  O34  1  0.61780500  0.60271500  0.40805500  1
  O  O35  1  0.79172400  0.03447400  0.41001100  1
  O  O36  1  0.43151600  0.24881700  0.27359200  1
  O  O37  1  0.25273600  0.78632700  0.09582600  1
  O  O38  1  0.30337200  0.43453300  0.10246500  1
  O  O39  1  0.68255600  0.16991300  0.18176100  1
  O  O40  1  0.66339300  0.49593100  0.18302000  1
  O  O41  1  0.64035000  0.85184700  0.10451700  1
