# generated using pymatgen
data_LiMnSiO4
_symmetry_space_group_name_H-M   'P 1'
_cell_length_a   5.55631200
_cell_length_b   8.15525800
_cell_length_c   19.07208600
_cell_angle_alpha   90.00000000
_cell_angle_beta   90.00000000
_cell_angle_gamma   90.00000000
_symmetry_Int_Tables_number   1
_chemical_formula_structural   LiMnSiO4
_chemical_formula_sum   'Li12 Mn12 Si12 O48'
_cell_volume   864.21644418
_cell_formula_units_Z   12
loop_
 _symmetry_equiv_pos_site_id
 _symmetry_equiv_pos_as_xyz
  1  'x, y, z'
loop_
 _atom_site_type_symbol
 _atom_site_label
 _atom_site_symmetry_multiplicity
 _atom_site_fract_x
 _atom_site_fract_y
 _atom_site_fract_z
 _atom_site_occupancy
  Li  Li0  1  0.03668500  0.56259300  0.08318700  1
  Li  Li1  1  0.48301100  0.07341100  0.08394500  1
  Li  Li2  1  0.99802500  0.93015000  0.25022900  1
  Li  Li3  1  0.49802500  0.43015000  0.24977100  1
  Li  Li4  1  0.98301100  0.57341100  0.41605500  1
  Li  Li5  1  0.53668500  0.06259300  0.41681300  1
  Li  Li6  1  0.03668500  0.93740700  0.58318700  1
  Li  Li7  1  0.48301100  0.42658900  0.58394500  1
  Li  Li8  1  0.99802500  0.56985000  0.75022900  1
  Li  Li9  1  0.49802500  0.06985000  0.74977100  1
  Li  Li10  1  0.98301100  0.92658900  0.91605500  1
  Li  Li11  1  0.53668500  0.43740700  0.91681300  1
  Mn  Mn12  1  0.98516700  0.24807800  0.99912600  1
  Mn  Mn13  1  0.48516700  0.75192200  0.00087400  1
  Mn  Mn14  1  0.50981900  0.75071000  0.16696500  1
  Mn  Mn15  1  0.02236500  0.24847000  0.16687500  1
  Mn  Mn16  1  0.52236500  0.74847000  0.33312500  1
  Mn  Mn17  1  0.00981900  0.25071000  0.33303500  1
  Mn  Mn18  1  0.98516700  0.25192200  0.49912600  1
  Mn  Mn19  1  0.48516700  0.74807800  0.50087400  1
  Mn  Mn20  1  0.50981900  0.74929000  0.66696500  1
  Mn  Mn21  1  0.02236500  0.25153000  0.66687500  1
  Mn  Mn22  1  0.52236500  0.75153000  0.83312500  1
  Mn  Mn23  1  0.00981900  0.24929000  0.83303500  1
  Si  Si24  1  0.98504600  0.90318300  0.08287700  1
  Si  Si25  1  0.51106900  0.40450300  0.08332400  1
  Si  Si26  1  0.02211900  0.59612600  0.24964900  1
  Si  Si27  1  0.52211900  0.09612600  0.25035100  1
  Si  Si28  1  0.01106900  0.90450300  0.41667600  1
  Si  Si29  1  0.48504600  0.40318300  0.41712300  1
  Si  Si30  1  0.98504600  0.59681700  0.58287700  1
  Si  Si31  1  0.51106900  0.09549700  0.58332400  1
  Si  Si32  1  0.02211900  0.90387400  0.74964900  1
  Si  Si33  1  0.52211900  0.40387400  0.75035100  1
  Si  Si34  1  0.01106900  0.59549700  0.91667600  1
  Si  Si35  1  0.48504600  0.09681700  0.91712300  1
  O  O36  1  0.48091600  0.98394000  0.98802200  1
  O  O37  1  0.98091600  0.01606000  0.01197800  1
  O  O38  1  0.49695000  0.51883700  0.01285800  1
  O  O39  1  0.74873400  0.28015000  0.08039400  1
  O  O40  1  0.27315300  0.27954200  0.08660400  1
  O  O41  1  0.21120700  0.77258900  0.08301300  1
  O  O42  1  0.73207600  0.78778000  0.08296300  1
  O  O43  1  0.00740700  0.01703400  0.15341900  1
  O  O44  1  0.52004000  0.51828600  0.15392400  1
  O  O45  1  0.02310800  0.48059000  0.17951500  1
  O  O46  1  0.50934600  0.98351900  0.17953900  1
  O  O47  1  0.29605700  0.22641400  0.25126700  1
  O  O48  1  0.77369900  0.21366400  0.24982700  1
  O  O49  1  0.79605700  0.72641400  0.24873300  1
  O  O50  1  0.27369900  0.71366400  0.25017300  1
  O  O51  1  0.00934600  0.48351900  0.32046100  1
  O  O52  1  0.52310800  0.98059000  0.32048500  1
  O  O53  1  0.02004000  0.01828600  0.34607600  1
  O  O54  1  0.50740700  0.51703400  0.34658100  1
  O  O55  1  0.23207600  0.28778000  0.41703700  1
  O  O56  1  0.71120700  0.27258900  0.41698700  1
  O  O57  1  0.77315300  0.77954200  0.41339600  1
  O  O58  1  0.24873400  0.78015000  0.41960600  1
  O  O59  1  0.99695000  0.01883700  0.48714200  1
  O  O60  1  0.48091600  0.51606000  0.48802200  1
  O  O61  1  0.98091600  0.48394000  0.51197800  1
  O  O62  1  0.49695000  0.98116300  0.51285800  1
  O  O63  1  0.74873400  0.21985000  0.58039400  1
  O  O64  1  0.27315300  0.22045800  0.58660400  1
  O  O65  1  0.21120700  0.72741100  0.58301300  1
  O  O66  1  0.73207600  0.71222000  0.58296300  1
  O  O67  1  0.00740700  0.48296600  0.65341900  1
  O  O68  1  0.52004000  0.98171400  0.65392400  1
  O  O69  1  0.02310800  0.01941000  0.67951500  1
  O  O70  1  0.50934600  0.51648100  0.67953900  1
  O  O71  1  0.77369900  0.28633600  0.74982700  1
  O  O72  1  0.29605700  0.27358600  0.75126700  1
  O  O73  1  0.27369900  0.78633600  0.75017300  1
  O  O74  1  0.79605700  0.77358600  0.74873300  1
  O  O75  1  0.00934600  0.01648100  0.82046100  1
  O  O76  1  0.52310800  0.51941000  0.82048500  1
  O  O77  1  0.02004000  0.48171400  0.84607600  1
  O  O78  1  0.50740700  0.98296600  0.84658100  1
  O  O79  1  0.23207600  0.21222000  0.91703700  1
  O  O80  1  0.71120700  0.22741100  0.91698700  1
  O  O81  1  0.77315300  0.72045800  0.91339600  1
  O  O82  1  0.24873400  0.71985000  0.91960600  1
  O  O83  1  0.99695000  0.48116300  0.98714200  1
