# generated using pymatgen
data_Li7Mn8(BO3)8
_symmetry_space_group_name_H-M   'P 1'
_cell_length_a   5.27463700
_cell_length_b   9.07688243
_cell_length_c   11.55039905
_cell_angle_alpha   111.89740352
_cell_angle_beta   102.05791569
_cell_angle_gamma   89.63081772
_symmetry_Int_Tables_number   1
_chemical_formula_structural   Li7Mn8(BO3)8
_chemical_formula_sum   'Li7 Mn8 B8 O24'
_cell_volume   500.22477626
_cell_formula_units_Z   1
loop_
 _symmetry_equiv_pos_site_id
 _symmetry_equiv_pos_as_xyz
  1  'x, y, z'
loop_
 _atom_site_type_symbol
 _atom_site_label
 _atom_site_symmetry_multiplicity
 _atom_site_fract_x
 _atom_site_fract_y
 _atom_site_fract_z
 _atom_site_occupancy
  Li  Li0  1  0.97368900  0.96211800  0.08634900  1
  Li  Li1  1  0.71536100  0.74981500  0.32976300  1
  Li  Li2  1  0.46975600  0.46281000  0.09248300  1
  Li  Li3  1  0.52134400  0.49047400  0.82732800  1
  Li  Li4  1  0.22464000  0.26002900  0.34141100  1
  Li  Li5  1  0.20091600  0.22200800  0.58683900  1
  Li  Li6  1  0.02598100  0.99042400  0.83498000  1
  Mn  Mn7  1  0.97583400  0.64299500  0.11474000  1
  Mn  Mn8  1  0.74497300  0.43986200  0.37731900  1
  Mn  Mn9  1  0.72728900  0.03836600  0.61603100  1
  Mn  Mn10  1  0.47746300  0.14640700  0.12278900  1
  Mn  Mn11  1  0.53783700  0.85218500  0.86569700  1
  Mn  Mn12  1  0.25054300  0.93567400  0.36819900  1
  Mn  Mn13  1  0.21212300  0.58421700  0.61966200  1
  Mn  Mn14  1  0.02714600  0.33642400  0.86770600  1
  B  B15  1  0.97522900  0.31509800  0.12892600  1
  B  B16  1  0.75831000  0.10626400  0.37756800  1
  B  B17  1  0.73622200  0.38489300  0.62521500  1
  B  B18  1  0.47483900  0.81357200  0.12297900  1
  B  B19  1  0.53153700  0.18748300  0.87862700  1
  B  B20  1  0.24978900  0.61078700  0.37282800  1
  B  B21  1  0.24271700  0.89584900  0.62706500  1
  B  B22  1  0.03092500  0.68557500  0.86906200  1
  O  O23  1  0.73534200  0.34823200  0.16286900  1
  O  O24  1  0.85766000  0.48120800  0.57907600  1
  O  O25  1  0.88633500  0.27396000  0.66010900  1
  O  O26  1  0.59316800  0.91372500  0.07939100  1
  O  O27  1  0.59427800  0.68217800  0.13310800  1
  O  O28  1  0.93836200  0.83348100  0.89502300  1
  O  O29  1  0.91542900  0.57266000  0.90071300  1
  O  O30  1  0.65943400  0.98234400  0.40416900  1
  O  O31  1  0.58815300  0.20519900  0.33748400  1
  O  O32  1  0.76175200  0.14439800  0.83876100  1
  O  O33  1  0.49919200  0.60751200  0.35969800  1
  O  O34  1  0.48057000  0.40043600  0.63534900  1
  O  O35  1  0.23376000  0.84583800  0.15695900  1
  O  O36  1  0.41490800  0.78636700  0.65424100  1
  O  O37  1  0.32762500  0.00375400  0.58059500  1
  O  O38  1  0.09058400  0.41161600  0.08117600  1
  O  O39  1  0.09994100  0.18891800  0.14789000  1
  O  O40  1  0.43378400  0.33276600  0.88959900  1
  O  O41  1  0.39636600  0.08054600  0.91063900  1
  O  O42  1  0.15478700  0.50837600  0.42558200  1
  O  O43  1  0.07818600  0.70825600  0.33263700  1
  O  O44  1  0.25331800  0.65035600  0.81428000  1
  O  O45  1  0.02424600  0.13044200  0.39302100  1
  O  O46  1  0.00143800  0.89333900  0.65004000  1
