# generated using pymatgen
data_Li2V3WO8
_symmetry_space_group_name_H-M   'P 1'
_cell_length_a   8.62041717
_cell_length_b   8.58555411
_cell_length_c   8.61406622
_cell_angle_alpha   90.01283381
_cell_angle_beta   89.98205262
_cell_angle_gamma   90.01619116
_symmetry_Int_Tables_number   1
_chemical_formula_structural   Li2V3WO8
_chemical_formula_sum   'Li8 V12 W4 O32'
_cell_volume   637.53608261
_cell_formula_units_Z   4
loop_
 _symmetry_equiv_pos_site_id
 _symmetry_equiv_pos_as_xyz
  1  'x, y, z'
loop_
 _atom_site_type_symbol
 _atom_site_label
 _atom_site_symmetry_multiplicity
 _atom_site_fract_x
 _atom_site_fract_y
 _atom_site_fract_z
 _atom_site_occupancy
  Li  Li0  1  0.99873200  0.99956800  0.99927700  1
  Li  Li1  1  0.25038000  0.25156900  0.25132100  1
  Li  Li2  1  0.24966500  0.74844200  0.75113200  1
  Li  Li3  1  0.50106100  0.00052900  0.49876800  1
  Li  Li4  1  0.49850600  0.50040200  0.00087200  1
  Li  Li5  1  0.75013000  0.24905700  0.74910100  1
  Li  Li6  1  0.74938200  0.75193300  0.24919500  1
  Li  Li7  1  0.00114300  0.49912800  0.50136500  1
  V  V8  1  0.12219700  0.12791300  0.62605500  1
  V  V9  1  0.12285800  0.37932900  0.87162300  1
  V  V10  1  0.13040100  0.62587800  0.12030800  1
  V  V11  1  0.36987800  0.37351800  0.62012300  1
  V  V12  1  0.37742500  0.62062100  0.37091300  1
  V  V13  1  0.37805400  0.87192400  0.12579000  1
  V  V14  1  0.62218600  0.37207600  0.37360700  1
  V  V15  1  0.62232500  0.12143500  0.12907900  1
  V  V16  1  0.62994900  0.87359200  0.87969400  1
  V  V17  1  0.87002700  0.12648400  0.38057000  1
  V  V18  1  0.87726200  0.87917500  0.62884200  1
  V  V19  1  0.87797400  0.62832700  0.87372300  1
  W  W20  1  0.12624700  0.87541000  0.37529400  1
  W  W21  1  0.37393800  0.12408200  0.87539600  1
  W  W22  1  0.62601100  0.62419900  0.62450600  1
  W  W23  1  0.87387500  0.37595300  0.12441500  1
  O  O24  1  0.11099800  0.10674200  0.38040800  1
  O  O25  1  0.11828100  0.88918400  0.61264400  1
  O  O26  1  0.11257000  0.61334200  0.88714900  1
  O  O27  1  0.14057600  0.13949400  0.86983000  1
  O  O28  1  0.10982300  0.38381200  0.11206700  1
  O  O29  1  0.13703000  0.36278300  0.63715900  1
  O  O30  1  0.13302800  0.64372600  0.36313200  1
  O  O31  1  0.13931000  0.86750200  0.13771000  1
  O  O32  1  0.36055600  0.13196900  0.63767700  1
  O  O33  1  0.36682300  0.35640200  0.86269800  1
  O  O34  1  0.36300200  0.63690600  0.13700000  1
  O  O35  1  0.39139500  0.61623600  0.61219000  1
  O  O36  1  0.35976800  0.86010500  0.36950700  1
  O  O37  1  0.38754000  0.38657200  0.38709300  1
  O  O38  1  0.38148500  0.11054500  0.11262600  1
  O  O39  1  0.38935900  0.89265500  0.88018900  1
  O  O40  1  0.61093600  0.39299100  0.61954300  1
  O  O41  1  0.61854400  0.61070600  0.38716600  1
  O  O42  1  0.61279700  0.88697200  0.11269000  1
  O  O43  1  0.63889200  0.36020600  0.13051500  1
  O  O44  1  0.60822700  0.11634100  0.88758200  1
  O  O45  1  0.63724100  0.13687100  0.36293700  1
  O  O46  1  0.63324800  0.85619600  0.63680300  1
  O  O47  1  0.63945300  0.63218900  0.86207400  1
  O  O48  1  0.86100700  0.36774500  0.36224600  1
  O  O49  1  0.86746800  0.14513400  0.13717300  1
  O  O50  1  0.86301500  0.86321600  0.86292600  1
  O  O51  1  0.89128100  0.88401000  0.38756300  1
  O  O52  1  0.85967400  0.63978100  0.63024200  1
  O  O53  1  0.88733200  0.11344600  0.61325800  1
  O  O54  1  0.88140500  0.38970400  0.88766800  1
  O  O55  1  0.88833500  0.60611500  0.11970600  1
