# generated using pymatgen
data_Li3Ta7O19
_symmetry_space_group_name_H-M   'P 1'
_cell_length_a   6.30097129
_cell_length_b   6.30097129
_cell_length_c   20.16851700
_cell_angle_alpha   90.00000000
_cell_angle_beta   90.00000000
_cell_angle_gamma   119.99999254
_symmetry_Int_Tables_number   1
_chemical_formula_structural   Li3Ta7O19
_chemical_formula_sum   'Li6 Ta14 O38'
_cell_volume   693.45715155
_cell_formula_units_Z   2
loop_
 _symmetry_equiv_pos_site_id
 _symmetry_equiv_pos_as_xyz
  1  'x, y, z'
loop_
 _atom_site_type_symbol
 _atom_site_label
 _atom_site_symmetry_multiplicity
 _atom_site_fract_x
 _atom_site_fract_y
 _atom_site_fract_z
 _atom_site_occupancy
  Li  Li0  1  0.00000000  0.50000000  0.00000000  1
  Li  Li1  1  0.00000000  0.50000000  0.50000000  1
  Li  Li2  1  0.50000000  0.50000000  0.00000000  1
  Li  Li3  1  0.50000000  0.50000000  0.50000000  1
  Li  Li4  1  0.50000000  0.00000000  0.50000000  1
  Li  Li5  1  0.50000000  0.00000000  0.00000000  1
  Ta  Ta6  1  0.30508600  0.97070900  0.65485700  1
  Ta  Ta7  1  0.30508600  0.97070900  0.84514300  1
  Ta  Ta8  1  0.02929100  0.33437600  0.65485700  1
  Ta  Ta9  1  0.02929100  0.33437600  0.84514300  1
  Ta  Ta10  1  0.00000000  0.00000000  0.00000000  1
  Ta  Ta11  1  0.00000000  0.00000000  0.50000000  1
  Ta  Ta12  1  0.33437600  0.30508600  0.15485700  1
  Ta  Ta13  1  0.33437600  0.30508600  0.34514300  1
  Ta  Ta14  1  0.66562400  0.69491400  0.65485700  1
  Ta  Ta15  1  0.66562400  0.69491400  0.84514300  1
  Ta  Ta16  1  0.97070900  0.66562400  0.15485700  1
  Ta  Ta17  1  0.97070900  0.66562400  0.34514300  1
  Ta  Ta18  1  0.69491400  0.02929100  0.15485700  1
  Ta  Ta19  1  0.69491400  0.02929100  0.34514300  1
  O  O20  1  0.24306300  0.95961200  0.55491300  1
  O  O21  1  0.24306300  0.95961200  0.94508700  1
  O  O22  1  0.29462300  0.93072500  0.75000000  1
  O  O23  1  0.08589700  0.42019700  0.15029900  1
  O  O24  1  0.08589700  0.42019700  0.34970100  1
  O  O25  1  0.06927500  0.36389800  0.75000000  1
  O  O26  1  0.33429900  0.91410300  0.15029900  1
  O  O27  1  0.33429900  0.91410300  0.34970100  1
  O  O28  1  0.04038800  0.28345100  0.55491300  1
  O  O29  1  0.04038800  0.28345100  0.94508700  1
  O  O30  1  0.00000000  0.00000000  0.16376000  1
  O  O31  1  0.00000000  0.00000000  0.33624000  1
  O  O32  1  0.00000000  0.00000000  0.66376000  1
  O  O33  1  0.00000000  0.00000000  0.83624000  1
  O  O34  1  0.33333300  0.66666700  0.63793600  1
  O  O35  1  0.33333300  0.66666700  0.86206400  1
  O  O36  1  0.28345100  0.24306300  0.05491300  1
  O  O37  1  0.28345100  0.24306300  0.44508700  1
  O  O38  1  0.36389800  0.29462300  0.25000000  1
  O  O39  1  0.42019700  0.33429900  0.65029900  1
  O  O40  1  0.42019700  0.33429900  0.84970100  1
  O  O41  1  0.57980300  0.66570100  0.34970100  1
  O  O42  1  0.57980300  0.66570100  0.15029900  1
  O  O43  1  0.63610200  0.70537700  0.75000000  1
  O  O44  1  0.71654900  0.75693700  0.55491300  1
  O  O45  1  0.71654900  0.75693700  0.94508700  1
  O  O46  1  0.66666700  0.33333300  0.36206400  1
  O  O47  1  0.66666700  0.33333300  0.13793600  1
  O  O48  1  0.95961200  0.71654900  0.05491300  1
  O  O49  1  0.95961200  0.71654900  0.44508700  1
  O  O50  1  0.66570100  0.08589700  0.65029900  1
  O  O51  1  0.66570100  0.08589700  0.84970100  1
  O  O52  1  0.93072500  0.63610200  0.25000000  1
  O  O53  1  0.91410300  0.57980300  0.65029900  1
  O  O54  1  0.91410300  0.57980300  0.84970100  1
  O  O55  1  0.70537700  0.06927500  0.25000000  1
  O  O56  1  0.75693700  0.04038800  0.05491300  1
  O  O57  1  0.75693700  0.04038800  0.44508700  1
