# generated using pymatgen
data_Li4Nb2Fe3O10
_symmetry_space_group_name_H-M   'P 1'
_cell_length_a   5.43452353
_cell_length_b   10.67881765
_cell_length_c   8.13960926
_cell_angle_alpha   70.48731063
_cell_angle_beta   108.88993239
_cell_angle_gamma   101.91157758
_symmetry_Int_Tables_number   1
_chemical_formula_structural   Li4Nb2Fe3O10
_chemical_formula_sum   'Li8 Nb4 Fe6 O20'
_cell_volume   418.70160515
_cell_formula_units_Z   2
loop_
 _symmetry_equiv_pos_site_id
 _symmetry_equiv_pos_as_xyz
  1  'x, y, z'
loop_
 _atom_site_type_symbol
 _atom_site_label
 _atom_site_symmetry_multiplicity
 _atom_site_fract_x
 _atom_site_fract_y
 _atom_site_fract_z
 _atom_site_occupancy
  Li  Li0  1  0.74641500  0.26965100  0.61514400  1
  Li  Li1  1  0.74655600  0.76964800  0.61521500  1
  Li  Li2  1  0.25362500  0.23037100  0.38488500  1
  Li  Li3  1  0.25339800  0.73037000  0.38484500  1
  Li  Li4  1  0.61888000  0.21236500  0.23685100  1
  Li  Li5  1  0.61918800  0.71219400  0.23727000  1
  Li  Li6  1  0.38108700  0.28767200  0.76314700  1
  Li  Li7  1  0.38049900  0.78765300  0.76285800  1
  Nb  Nb8  1  0.90877700  0.47065500  0.30856700  1
  Nb  Nb9  1  0.90801800  0.97070400  0.30842100  1
  Nb  Nb10  1  0.09124000  0.02935400  0.69140700  1
  Nb  Nb11  1  0.09207700  0.52928500  0.69155900  1
  Fe  Fe12  1  0.00007500  0.75003000  0.00008900  1
  Fe  Fe13  1  0.32496200  0.99228000  0.11726200  1
  Fe  Fe14  1  0.67508300  0.50777900  0.88268300  1
  Fe  Fe15  1  0.00000700  0.24999500  0.00000100  1
  Fe  Fe16  1  0.32559700  0.49225000  0.11733900  1
  Fe  Fe17  1  0.67428500  0.00773100  0.88252300  1
  O  O18  1  0.58672600  0.35803300  0.33845200  1
  O  O19  1  0.58616100  0.85799600  0.33839400  1
  O  O20  1  0.41323600  0.14195400  0.66157400  1
  O  O21  1  0.41387000  0.64199100  0.66156600  1
  O  O22  1  0.77962900  0.38557600  0.77609900  1
  O  O23  1  0.77916800  0.88551800  0.77609600  1
  O  O24  1  0.22043000  0.11444300  0.22390300  1
  O  O25  1  0.22092500  0.61445200  0.22399300  1
  O  O26  1  0.88762100  0.10856000  0.44346500  1
  O  O27  1  0.88842800  0.60853900  0.44360200  1
  O  O28  1  0.11231900  0.39143600  0.55650100  1
  O  O29  1  0.11158700  0.89146400  0.55640800  1
  O  O30  1  0.68519600  0.10184400  0.07963400  1
  O  O31  1  0.68577000  0.60174600  0.07971000  1
  O  O32  1  0.31484600  0.39813000  0.92031300  1
  O  O33  1  0.31423400  0.89826800  0.92029600  1
  O  O34  1  0.01908100  0.13347900  0.82262900  1
  O  O35  1  0.02009000  0.63346600  0.82284800  1
  O  O36  1  0.98081500  0.36656100  0.17725400  1
  O  O37  1  0.98010000  0.86655700  0.17719900  1
