# generated using pymatgen
data_Li15(NiO2)14
_symmetry_space_group_name_H-M   'P 1'
_cell_length_a   5.20489430
_cell_length_b   5.20489430
_cell_length_c   34.16460185
_cell_angle_alpha   85.42438612
_cell_angle_beta   85.42438612
_cell_angle_gamma   32.77596214
_symmetry_Int_Tables_number   1
_chemical_formula_structural   Li15(NiO2)14
_chemical_formula_sum   'Li15 Ni14 O28'
_cell_volume   499.31670584
_cell_formula_units_Z   1
loop_
 _symmetry_equiv_pos_site_id
 _symmetry_equiv_pos_as_xyz
  1  'x, y, z'
loop_
 _atom_site_type_symbol
 _atom_site_label
 _atom_site_symmetry_multiplicity
 _atom_site_fract_x
 _atom_site_fract_y
 _atom_site_fract_z
 _atom_site_occupancy
  Li  Li0  1  0.08689000  0.08689000  0.96219800  1
  Li  Li1  1  0.04918100  0.04918100  0.90013600  1
  Li  Li2  1  0.16330400  0.16330400  0.84356500  1
  Li  Li3  1  0.71772500  0.71772500  0.78125300  1
  Li  Li4  1  0.85720500  0.85720500  0.64264700  1
  Li  Li5  1  0.28616500  0.28616500  0.71290300  1
  Li  Li6  1  0.00016500  0.00016500  0.49969800  1
  Li  Li7  1  0.42854300  0.42854300  0.57142600  1
  Li  Li8  1  0.14271800  0.14271800  0.35747800  1
  Li  Li9  1  0.57158600  0.57158600  0.42839500  1
  Li  Li10  1  0.71395200  0.71395200  0.28621100  1
  Li  Li11  1  0.28470300  0.28470300  0.21540000  1
  Li  Li12  1  0.85434900  0.85434900  0.14632600  1
  Li  Li13  1  0.52154000  0.52154000  0.02206000  1
  Li  Li14  1  0.41064400  0.41064400  0.08134200  1
  Ni  Ni15  1  0.31001200  0.31001200  0.96583200  1
  Ni  Ni16  1  0.83490900  0.83490900  0.89118500  1
  Ni  Ni17  1  0.42578200  0.42578200  0.81839100  1
  Ni  Ni18  1  0.00010700  0.00010700  0.74792700  1
  Ni  Ni19  1  0.57180400  0.57180400  0.67787900  1
  Ni  Ni20  1  0.14326500  0.14326500  0.60704100  1
  Ni  Ni21  1  0.71455600  0.71455600  0.53568100  1
  Ni  Ni22  1  0.28566800  0.28566800  0.46425200  1
  Ni  Ni23  1  0.85712000  0.85712000  0.39292300  1
  Ni  Ni24  1  0.42846600  0.42846600  0.32167900  1
  Ni  Ni25  1  0.99944900  0.99944900  0.25060300  1
  Ni  Ni26  1  0.56994700  0.56994700  0.17987000  1
  Ni  Ni27  1  0.14041600  0.14041600  0.10915800  1
  Ni  Ni28  1  0.72960700  0.72960700  0.03914000  1
  O  O29  1  0.67337100  0.67337100  0.98727000  1
  O  O30  1  0.21976500  0.21976500  0.91224600  1
  O  O31  1  0.92248500  0.92248500  0.94392600  1
  O  O32  1  0.79162200  0.79162200  0.83460300  1
  O  O33  1  0.48188400  0.48188400  0.86970000  1
  O  O34  1  0.36945300  0.36945300  0.76674400  1
  O  O35  1  0.05861100  0.05861100  0.79862700  1
  O  O36  1  0.94048500  0.94048500  0.69733900  1
  O  O37  1  0.63282000  0.63282000  0.72861000  1
  O  O38  1  0.51167800  0.51167800  0.62683700  1
  O  O39  1  0.20310100  0.20310100  0.65810500  1
  O  O40  1  0.08319200  0.08319200  0.55580400  1
  O  O41  1  0.77452700  0.77452700  0.58724800  1
  O  O42  1  0.65441200  0.65441200  0.48406300  1
  O  O43  1  0.34580500  0.34580500  0.51564700  1
  O  O44  1  0.22579300  0.22579300  0.41276900  1
  O  O45  1  0.91699100  0.91699100  0.44443200  1
  O  O46  1  0.79713500  0.79713500  0.34141200  1
  O  O47  1  0.48858000  0.48858000  0.37311500  1
  O  O48  1  0.36839800  0.36839800  0.27026400  1
  O  O49  1  0.05997400  0.05997400  0.30183600  1
  O  O50  1  0.93845600  0.93845600  0.19953200  1
  O  O51  1  0.63090200  0.63090200  0.23090400  1
  O  O52  1  0.50895000  0.50895000  0.12879700  1
  O  O53  1  0.20079400  0.20079400  0.16052500  1
  O  O54  1  0.08677200  0.08677200  0.05657200  1
  O  O55  1  0.77444100  0.77444100  0.09159800  1
  O  O56  1  0.34697100  0.34697100  0.02422900  1
