# generated using pymatgen
data_LiNi3OF5
_symmetry_space_group_name_H-M   'P 1'
_cell_length_a   5.13350246
_cell_length_b   5.55190034
_cell_length_c   5.18146459
_cell_angle_alpha   118.67663856
_cell_angle_beta   59.83312755
_cell_angle_gamma   117.11125157
_symmetry_Int_Tables_number   1
_chemical_formula_structural   LiNi3OF5
_chemical_formula_sum   'Li1 Ni3 O1 F5'
_cell_volume   107.43909885
_cell_formula_units_Z   1
loop_
 _symmetry_equiv_pos_site_id
 _symmetry_equiv_pos_as_xyz
  1  'x, y, z'
loop_
 _atom_site_type_symbol
 _atom_site_label
 _atom_site_symmetry_multiplicity
 _atom_site_fract_x
 _atom_site_fract_y
 _atom_site_fract_z
 _atom_site_occupancy
  Li  Li0  1  0.15683504  0.43952610  0.16377422  1
  Ni  Ni1  1  0.36430706  0.02756750  0.33090198  1
  Ni  Ni2  1  0.65500907  0.95104953  0.62776868  1
  Ni  Ni3  1  0.83509782  0.56437513  0.87362259  1
  O  O4  1  0.54663383  0.75062096  0.25601706  1
  F  F5  1  0.06083896  0.24805557  0.45182329  1
  F  F6  1  0.25182914  0.76130157  0.93329954  1
  F  F7  1  0.75236232  0.25179987  0.05313241  1
  F  F8  1  0.44208592  0.25702664  0.74808354  1
  F  F9  1  0.93500085  0.74867713  0.56157769  1
