# generated using pymatgen
data_Li2VFeP2(O4F)2
_symmetry_space_group_name_H-M   'P 1'
_cell_length_a   6.96443100
_cell_length_b   7.56959778
_cell_length_c   7.79007475
_cell_angle_alpha   117.28124834
_cell_angle_beta   91.18874433
_cell_angle_gamma   90.49437312
_symmetry_Int_Tables_number   1
_chemical_formula_structural   Li2VFeP2(O4F)2
_chemical_formula_sum   'Li4 V2 Fe2 P4 O16 F4'
_cell_volume   364.84143918
_cell_formula_units_Z   2
loop_
 _symmetry_equiv_pos_site_id
 _symmetry_equiv_pos_as_xyz
  1  'x, y, z'
loop_
 _atom_site_type_symbol
 _atom_site_label
 _atom_site_symmetry_multiplicity
 _atom_site_fract_x
 _atom_site_fract_y
 _atom_site_fract_z
 _atom_site_occupancy
  Li  Li0  1  0.34819500  0.92067700  0.73266500  1
  Li  Li1  1  0.84797700  0.42150800  0.23295700  1
  Li  Li2  1  0.15270000  0.57885700  0.76712800  1
  Li  Li3  1  0.65121200  0.07900600  0.26731400  1
  V  V4  1  0.00002800  0.00035600  0.99977700  1
  V  V5  1  0.74991100  0.24999000  0.75024300  1
  Fe  Fe6  1  0.50015300  0.49915700  0.50030100  1
  Fe  Fe7  1  0.24989600  0.74999800  0.24935500  1
  P  P8  1  0.89944500  0.77738400  0.53991400  1
  P  P9  1  0.60032700  0.72232400  0.96017200  1
  P  P10  1  0.39938900  0.27824300  0.04025900  1
  P  P11  1  0.10082300  0.22203400  0.45960300  1
  O  O12  1  0.73523500  0.89606500  0.98188200  1
  O  O13  1  0.78579800  0.96234200  0.57209200  1
  O  O14  1  0.71401200  0.53745500  0.92781700  1
  O  O15  1  0.99646100  0.31102300  0.65491100  1
  O  O16  1  0.76354600  0.60382800  0.51901700  1
  O  O17  1  0.45259100  0.67489000  0.78837100  1
  O  O18  1  0.95323700  0.17542200  0.28821300  1
  O  O19  1  0.50308200  0.18847600  0.84434400  1
  O  O20  1  0.49626000  0.81270400  0.15577800  1
  O  O21  1  0.04689200  0.82466600  0.71160600  1
  O  O22  1  0.54712600  0.32487300  0.21180100  1
  O  O23  1  0.23574200  0.39706400  0.48236000  1
  O  O24  1  0.00448600  0.68785800  0.34510100  1
  O  O25  1  0.28635500  0.46363700  0.07340400  1
  O  O26  1  0.21377200  0.03647900  0.42641600  1
  O  O27  1  0.26529500  0.10312000  0.01681000  1
  F  F28  1  0.89698100  0.23311000  0.96985900  1
  F  F29  1  0.39734700  0.73241700  0.46938100  1
  F  F30  1  0.60239300  0.26821500  0.53013700  1
  F  F31  1  0.10333300  0.76681800  0.03101400  1
