# generated using pymatgen
data_Li4Ni5Te(PO4)6
_symmetry_space_group_name_H-M   'P 1'
_cell_length_a   8.30417000
_cell_length_b   8.39669178
_cell_length_c   8.39912497
_cell_angle_alpha   64.26667771
_cell_angle_beta   64.61875516
_cell_angle_gamma   64.70885491
_symmetry_Int_Tables_number   1
_chemical_formula_structural   Li4Ni5Te(PO4)6
_chemical_formula_sum   'Li4 Ni5 Te1 P6 O24'
_cell_volume   455.24873997
_cell_formula_units_Z   1
loop_
 _symmetry_equiv_pos_site_id
 _symmetry_equiv_pos_as_xyz
  1  'x, y, z'
loop_
 _atom_site_type_symbol
 _atom_site_label
 _atom_site_symmetry_multiplicity
 _atom_site_fract_x
 _atom_site_fract_y
 _atom_site_fract_z
 _atom_site_occupancy
  Li  Li0  1  0.25833300  0.64294600  0.85624700  1
  Li  Li1  1  0.70549700  0.36258800  0.15948000  1
  Li  Li2  1  0.36949400  0.15642600  0.70358400  1
  Li  Li3  1  0.15508400  0.69898100  0.36765700  1
  Ni  Ni4  1  0.99089800  0.99933000  0.99890200  1
  Ni  Ni5  1  0.64632700  0.65011300  0.64740100  1
  Ni  Ni6  1  0.51061600  0.50191000  0.50101600  1
  Ni  Ni7  1  0.85889300  0.85624700  0.85405200  1
  Ni  Ni8  1  0.35101600  0.34851700  0.34747500  1
  Te  Te9  1  0.15267000  0.15453500  0.15776600  1
  P  P10  1  0.92719200  0.56798600  0.25385100  1
  P  P11  1  0.57033800  0.24813900  0.93117500  1
  P  P12  1  0.25147900  0.93465900  0.56524800  1
  P  P13  1  0.74872800  0.05154200  0.45746600  1
  P  P14  1  0.44759300  0.74794900  0.05079800  1
  P  P15  1  0.06152300  0.45688000  0.75224400  1
  O  O16  1  0.51830200  0.30676600  0.10121000  1
  O  O17  1  0.30939300  0.10424000  0.51363100  1
  O  O18  1  0.09979800  0.51375700  0.31331500  1
  O  O19  1  0.92890700  0.75480200  0.09698900  1
  O  O20  1  0.93396100  0.41879300  0.18340800  1
  O  O21  1  0.74270700  0.58071400  0.41142500  1
  O  O22  1  0.76269500  0.10195300  0.91705800  1
  O  O23  1  0.56622900  0.41495600  0.75218400  1
  O  O24  1  0.82718700  0.01832000  0.60351100  1
  O  O25  1  0.40296300  0.74367200  0.58340500  1
  O  O26  1  0.90242900  0.08308100  0.24614100  1
  O  O27  1  0.60962600  0.81384600  0.99775400  1
  O  O28  1  0.42088800  0.17164600  0.94361600  1
  O  O29  1  0.10817400  0.91680000  0.76228500  1
  O  O30  1  0.59514700  0.24748200  0.43396600  1
  O  O31  1  0.17898600  0.94275100  0.41701200  1
  O  O32  1  0.43360700  0.59307300  0.24541200  1
  O  O33  1  0.24039300  0.90442200  0.08970500  1
  O  O34  1  0.25247900  0.42925600  0.59261300  1
  O  O35  1  0.05678600  0.59599100  0.82506000  1
  O  O36  1  0.08154700  0.24814200  0.90486800  1
  O  O37  1  0.89347600  0.50495500  0.69702000  1
  O  O38  1  0.68177300  0.89985100  0.48280400  1
  O  O39  1  0.44686500  0.68898100  0.90424500  1
