# generated using pymatgen
data_LiMn2PO5
_symmetry_space_group_name_H-M   'P 1'
_cell_length_a   6.45592200
_cell_length_b   7.82908000
_cell_length_c   8.64602600
_cell_angle_alpha   90.00000000
_cell_angle_beta   90.00000000
_cell_angle_gamma   90.00000000
_symmetry_Int_Tables_number   1
_chemical_formula_structural   LiMn2PO5
_chemical_formula_sum   'Li4 Mn8 P4 O20'
_cell_volume   437.00413129
_cell_formula_units_Z   4
loop_
 _symmetry_equiv_pos_site_id
 _symmetry_equiv_pos_as_xyz
  1  'x, y, z'
loop_
 _atom_site_type_symbol
 _atom_site_label
 _atom_site_symmetry_multiplicity
 _atom_site_fract_x
 _atom_site_fract_y
 _atom_site_fract_z
 _atom_site_occupancy
  Li  Li0  1  0.54185800  0.65982100  0.61342600  1
  Li  Li1  1  0.54185800  0.84017900  0.11342600  1
  Li  Li2  1  0.04185800  0.15982100  0.88657400  1
  Li  Li3  1  0.04185800  0.34017900  0.38657400  1
  Mn  Mn4  1  0.98016500  0.51080900  0.00225500  1
  Mn  Mn5  1  0.48016500  0.48919100  0.99774500  1
  Mn  Mn6  1  0.75023800  0.62493600  0.33402000  1
  Mn  Mn7  1  0.75023800  0.87506400  0.83402000  1
  Mn  Mn8  1  0.48016500  0.01080900  0.49774500  1
  Mn  Mn9  1  0.98016500  0.98919100  0.50225500  1
  Mn  Mn10  1  0.25023800  0.12493600  0.16598000  1
  Mn  Mn11  1  0.25023800  0.37506400  0.66598000  1
  P  P12  1  0.25404200  0.66103700  0.34260800  1
  P  P13  1  0.25404200  0.83896300  0.84260800  1
  P  P14  1  0.75404200  0.16103700  0.15739200  1
  P  P15  1  0.75404200  0.33896300  0.65739200  1
  O  O16  1  0.29481700  0.57076300  0.49838000  1
  O  O17  1  0.44498600  0.63702900  0.23374600  1
  O  O18  1  0.06117200  0.57745800  0.26345600  1
  O  O19  1  0.72199800  0.67867500  0.98827700  1
  O  O20  1  0.22305700  0.64499400  0.86953100  1
  O  O21  1  0.22305700  0.85500600  0.36953100  1
  O  O22  1  0.72199800  0.82132500  0.48827700  1
  O  O23  1  0.44498600  0.86297100  0.73374600  1
  O  O24  1  0.06117200  0.92254200  0.76345600  1
  O  O25  1  0.29481700  0.92923700  0.99838000  1
  O  O26  1  0.79481700  0.07076300  0.00162000  1
  O  O27  1  0.94498600  0.13702900  0.26625400  1
  O  O28  1  0.56117200  0.07745800  0.23654400  1
  O  O29  1  0.22199800  0.17867500  0.51172300  1
  O  O30  1  0.72305700  0.14499400  0.63046900  1
  O  O31  1  0.72305700  0.35500600  0.13046900  1
  O  O32  1  0.22199800  0.32132500  0.01172300  1
  O  O33  1  0.94498600  0.36297100  0.76625400  1
  O  O34  1  0.56117200  0.42254200  0.73654400  1
  O  O35  1  0.79481700  0.42923700  0.50162000  1
