# generated using pymatgen
data_Li2MnCO4
_symmetry_space_group_name_H-M   'P 1'
_cell_length_a   5.11996000
_cell_length_b   6.85482900
_cell_length_c   11.04103526
_cell_angle_alpha   84.40064780
_cell_angle_beta   90.00000000
_cell_angle_gamma   90.00000000
_symmetry_Int_Tables_number   1
_chemical_formula_structural   Li2MnCO4
_chemical_formula_sum   'Li8 Mn4 C4 O16'
_cell_volume   385.65218480
_cell_formula_units_Z   4
loop_
 _symmetry_equiv_pos_site_id
 _symmetry_equiv_pos_as_xyz
  1  'x, y, z'
loop_
 _atom_site_type_symbol
 _atom_site_label
 _atom_site_symmetry_multiplicity
 _atom_site_fract_x
 _atom_site_fract_y
 _atom_site_fract_z
 _atom_site_occupancy
  Li  Li0  1  0.65332100  0.88214700  0.78592800  1
  Li  Li1  1  0.84667900  0.88214700  0.28592800  1
  Li  Li2  1  0.81492000  0.78070100  0.57079800  1
  Li  Li3  1  0.68508000  0.78070100  0.07079800  1
  Li  Li4  1  0.31492000  0.21929900  0.92920200  1
  Li  Li5  1  0.18508000  0.21929900  0.42920200  1
  Li  Li6  1  0.15332100  0.11785300  0.71407200  1
  Li  Li7  1  0.34667900  0.11785300  0.21407200  1
  Mn  Mn8  1  0.85375400  0.48468200  0.84360000  1
  Mn  Mn9  1  0.35375400  0.51531800  0.65640000  1
  Mn  Mn10  1  0.64624600  0.48468200  0.34360000  1
  Mn  Mn11  1  0.14624600  0.51531800  0.15640000  1
  C  C12  1  0.18684900  0.81343700  0.93584200  1
  C  C13  1  0.31315100  0.81343700  0.43584200  1
  C  C14  1  0.68684900  0.18656300  0.56415800  1
  C  C15  1  0.81315100  0.18656300  0.06415800  1
  O  O16  1  0.29884100  0.94003800  0.85669700  1
  O  O17  1  0.20115900  0.94003800  0.35669700  1
  O  O18  1  0.93632700  0.77626000  0.92747200  1
  O  O19  1  0.56367300  0.77626000  0.42747200  1
  O  O20  1  0.17622400  0.72374800  0.52320700  1
  O  O21  1  0.67342600  0.64473900  0.71032500  1
  O  O22  1  0.32377600  0.72374800  0.02320700  1
  O  O23  1  0.82657400  0.64473900  0.21032500  1
  O  O24  1  0.17342600  0.35526100  0.78967500  1
  O  O25  1  0.67622400  0.27625200  0.97679300  1
  O  O26  1  0.32657400  0.35526100  0.28967500  1
  O  O27  1  0.82377600  0.27625200  0.47679300  1
  O  O28  1  0.43632700  0.22374000  0.57252800  1
  O  O29  1  0.06367300  0.22374000  0.07252800  1
  O  O30  1  0.79884100  0.05996200  0.64330300  1
  O  O31  1  0.70115900  0.05996200  0.14330300  1
