# generated using pymatgen
data_Li2Fe5Si5O16
_symmetry_space_group_name_H-M   'P 1'
_cell_length_a   5.09569000
_cell_length_b   6.95696615
_cell_length_c   10.41608831
_cell_angle_alpha   89.36015857
_cell_angle_beta   89.87733429
_cell_angle_gamma   89.98823112
_symmetry_Int_Tables_number   1
_chemical_formula_structural   Li2Fe5Si5O16
_chemical_formula_sum   'Li2 Fe5 Si5 O16'
_cell_volume   369.23210770
_cell_formula_units_Z   1
loop_
 _symmetry_equiv_pos_site_id
 _symmetry_equiv_pos_as_xyz
  1  'x, y, z'
loop_
 _atom_site_type_symbol
 _atom_site_label
 _atom_site_symmetry_multiplicity
 _atom_site_fract_x
 _atom_site_fract_y
 _atom_site_fract_z
 _atom_site_occupancy
  Li  Li0  1  0.84407200  0.00254200  0.83717800  1
  Li  Li1  1  0.32080000  0.49683700  0.64440500  1
  Fe  Fe2  1  0.70252200  0.02026500  0.34550300  1
  Fe  Fe3  1  0.69276800  0.50996200  0.35474100  1
  Fe  Fe4  1  0.18324600  0.50199100  0.16338200  1
  Fe  Fe5  1  0.32370400  0.99766700  0.65220600  1
  Fe  Fe6  1  0.19523800  0.99586200  0.14799100  1
  Si  Si7  1  0.83588800  0.23917900  0.60369200  1
  Si  Si8  1  0.67857900  0.26843100  0.08686300  1
  Si  Si9  1  0.79612500  0.48968400  0.83569100  1
  Si  Si10  1  0.19218200  0.75567700  0.41126200  1
  Si  Si11  1  0.29022900  0.73356300  0.90405200  1
  O  O12  1  0.71937900  0.04408700  0.66804100  1
  O  O13  1  0.80237600  0.06828800  0.14538600  1
  O  O14  1  0.75839800  0.29736400  0.93034100  1
  O  O15  1  0.15186100  0.25475500  0.61908300  1
  O  O16  1  0.35902500  0.25560400  0.10629900  1
  O  O17  1  0.73147400  0.26233200  0.45384300  1
  O  O18  1  0.71248800  0.43001500  0.68872600  1
  O  O19  1  0.78892300  0.45609100  0.16318200  1
  O  O20  1  0.29781000  0.55577600  0.34351200  1
  O  O21  1  0.10622100  0.55723400  0.84107800  1
  O  O22  1  0.87186000  0.76366100  0.38137900  1
  O  O23  1  0.60301700  0.66990500  0.87575400  1
  O  O24  1  0.27414200  0.74664700  0.56200100  1
  O  O25  1  0.23851800  0.74154700  0.05850000  1
  O  O26  1  0.31229000  0.94791100  0.33532000  1
  O  O27  1  0.21686500  0.93712300  0.84058600  1
