# generated using pymatgen
data_LiMn(PO3)3
_symmetry_space_group_name_H-M   'P 1'
_cell_length_a   5.39284800
_cell_length_b   10.82897100
_cell_length_c   12.07886500
_cell_angle_alpha   90.00000000
_cell_angle_beta   90.00000000
_cell_angle_gamma   90.00000000
_symmetry_Int_Tables_number   1
_chemical_formula_structural   LiMn(PO3)3
_chemical_formula_sum   'Li4 Mn4 P12 O36'
_cell_volume   705.39357190
_cell_formula_units_Z   4
loop_
 _symmetry_equiv_pos_site_id
 _symmetry_equiv_pos_as_xyz
  1  'x, y, z'
loop_
 _atom_site_type_symbol
 _atom_site_label
 _atom_site_symmetry_multiplicity
 _atom_site_fract_x
 _atom_site_fract_y
 _atom_site_fract_z
 _atom_site_occupancy
  Li  Li0  1  0.10076600  0.11597700  0.08211700  1
  Li  Li1  1  0.60076600  0.38402300  0.91788300  1
  Li  Li2  1  0.89923400  0.61597700  0.41788300  1
  Li  Li3  1  0.39923400  0.88402300  0.58211700  1
  Mn  Mn4  1  0.59683500  0.02927200  0.86593600  1
  Mn  Mn5  1  0.09683500  0.47072800  0.13406400  1
  Mn  Mn6  1  0.40316500  0.52927200  0.63406400  1
  Mn  Mn7  1  0.90316500  0.97072800  0.36593600  1
  P  P8  1  0.88009800  0.07632000  0.62478400  1
  P  P9  1  0.39446400  0.15302400  0.35874100  1
  P  P10  1  0.08433300  0.19280100  0.81919300  1
  P  P11  1  0.58433300  0.30719900  0.18080700  1
  P  P12  1  0.89446400  0.34697600  0.64125900  1
  P  P13  1  0.38009800  0.42368000  0.37521600  1
  P  P14  1  0.11990200  0.57632000  0.87521600  1
  P  P15  1  0.60553600  0.65302400  0.14125900  1
  P  P16  1  0.91566700  0.69280100  0.68080700  1
  P  P17  1  0.41566700  0.80719900  0.31919300  1
  P  P18  1  0.10553600  0.84697600  0.85874100  1
  P  P19  1  0.61990200  0.92368000  0.12478400  1
  O  O20  1  0.50503200  0.00792300  0.04050400  1
  O  O21  1  0.63563100  0.04071800  0.67689300  1
  O  O22  1  0.53969500  0.06220800  0.42650100  1
  O  O23  1  0.08593200  0.08909000  0.72268300  1
  O  O24  1  0.14020500  0.12005300  0.31722300  1
  O  O25  1  0.84828000  0.18696700  0.88684100  1
  O  O26  1  0.32706300  0.18502800  0.87890000  1
  O  O27  1  0.57555100  0.18340600  0.25403400  1
  O  O28  1  0.87953800  0.21594400  0.57658000  1
  O  O29  1  0.37953800  0.28405600  0.42342000  1
  O  O30  1  0.07555100  0.31659400  0.74596600  1
  O  O31  1  0.82706300  0.31497200  0.12110000  1
  O  O32  1  0.34828000  0.31303300  0.11315900  1
  O  O33  1  0.64020500  0.37994700  0.68277700  1
  O  O34  1  0.58593200  0.41091000  0.27731700  1
  O  O35  1  0.03969500  0.43779200  0.57349900  1
  O  O36  1  0.13563100  0.45928200  0.32310700  1
  O  O37  1  0.00503200  0.49207700  0.95949600  1
  O  O38  1  0.49496800  0.50792300  0.45949600  1
  O  O39  1  0.36436900  0.54071800  0.82310700  1
  O  O40  1  0.46030500  0.56220800  0.07349900  1
  O  O41  1  0.91406800  0.58909000  0.77731700  1
  O  O42  1  0.85979500  0.62005300  0.18277700  1
  O  O43  1  0.15172000  0.68696700  0.61315900  1
  O  O44  1  0.67293700  0.68502800  0.62110000  1
  O  O45  1  0.42444900  0.68340600  0.24596600  1
  O  O46  1  0.12046200  0.71594400  0.92342000  1
  O  O47  1  0.62046200  0.78405600  0.07658000  1
  O  O48  1  0.92444900  0.81659400  0.75403400  1
  O  O49  1  0.17293700  0.81497200  0.37890000  1
  O  O50  1  0.65172000  0.81303300  0.38684100  1
  O  O51  1  0.35979500  0.87994700  0.81722300  1
  O  O52  1  0.41406800  0.91091000  0.22268300  1
  O  O53  1  0.96030500  0.93779200  0.92650100  1
  O  O54  1  0.86436900  0.95928200  0.17689300  1
  O  O55  1  0.99496800  0.99207700  0.54050400  1
