# generated using pymatgen
data_Li2VOF3
_symmetry_space_group_name_H-M   'P 1'
_cell_length_a   5.01875800
_cell_length_b   5.17862400
_cell_length_c   11.59613300
_cell_angle_alpha   90.00000000
_cell_angle_beta   90.00000000
_cell_angle_gamma   90.00000000
_symmetry_Int_Tables_number   1
_chemical_formula_structural   Li2VOF3
_chemical_formula_sum   'Li8 V4 O4 F12'
_cell_volume   301.38651896
_cell_formula_units_Z   4
loop_
 _symmetry_equiv_pos_site_id
 _symmetry_equiv_pos_as_xyz
  1  'x, y, z'
loop_
 _atom_site_type_symbol
 _atom_site_label
 _atom_site_symmetry_multiplicity
 _atom_site_fract_x
 _atom_site_fract_y
 _atom_site_fract_z
 _atom_site_occupancy
  Li  Li0  1  0.00000000  0.00000000  0.20797400  1
  Li  Li1  1  0.00000000  0.50000000  0.35209100  1
  Li  Li2  1  0.00000000  0.00000000  0.62752400  1
  Li  Li3  1  0.00000000  0.50000000  0.77840000  1
  Li  Li4  1  0.50000000  0.50000000  0.27840000  1
  Li  Li5  1  0.50000000  0.00000000  0.70797400  1
  Li  Li6  1  0.50000000  0.50000000  0.85209100  1
  Li  Li7  1  0.50000000  0.00000000  0.12752400  1
  V  V8  1  0.00000000  0.50000000  0.07152400  1
  V  V9  1  0.00000000  0.00000000  0.94276900  1
  V  V10  1  0.50000000  0.50000000  0.57152400  1
  V  V11  1  0.50000000  0.00000000  0.44276900  1
  O  O12  1  0.79973500  0.17873900  0.06046300  1
  O  O13  1  0.70026500  0.17873900  0.56046300  1
  O  O14  1  0.29973500  0.82126100  0.56046300  1
  O  O15  1  0.20026500  0.82126100  0.06046300  1
  F  F16  1  0.77539600  0.66318700  0.93974300  1
  F  F17  1  0.77769800  0.67175700  0.19741900  1
  F  F18  1  0.78330100  0.17985100  0.81225600  1
  F  F19  1  0.71669900  0.17985100  0.31225600  1
  F  F20  1  0.72230200  0.67175700  0.69741900  1
  F  F21  1  0.72460400  0.66318700  0.43974300  1
  F  F22  1  0.27539600  0.33681300  0.43974300  1
  F  F23  1  0.28330100  0.82014900  0.31225600  1
  F  F24  1  0.27769800  0.32824300  0.69741900  1
  F  F25  1  0.22230200  0.32824300  0.19741900  1
  F  F26  1  0.21669900  0.82014900  0.81225600  1
  F  F27  1  0.22460400  0.33681300  0.93974300  1
