# generated using pymatgen
data_LiNiPO4
_symmetry_space_group_name_H-M   'P 1'
_cell_length_a   4.90977401
_cell_length_b   7.94524900
_cell_length_c   8.93915701
_cell_angle_alpha   89.99999994
_cell_angle_beta   89.99454819
_cell_angle_gamma   89.99767200
_symmetry_Int_Tables_number   1
_chemical_formula_structural   LiNiPO4
_chemical_formula_sum   'Li4 Ni4 P4 O16'
_cell_volume   348.71094422
_cell_formula_units_Z   4
loop_
 _symmetry_equiv_pos_site_id
 _symmetry_equiv_pos_as_xyz
  1  'x, y, z'
loop_
 _atom_site_type_symbol
 _atom_site_label
 _atom_site_symmetry_multiplicity
 _atom_site_fract_x
 _atom_site_fract_y
 _atom_site_fract_z
 _atom_site_occupancy
  Li  Li0  1  0.93305800  0.05121300  0.61394300  1
  Li  Li1  1  0.43304400  0.44877500  0.11395700  1
  Li  Li2  1  0.93306400  0.55133000  0.88608100  1
  Li  Li3  1  0.43306700  0.94865300  0.38606800  1
  Ni  Ni4  1  0.99802500  0.66657300  0.47425400  1
  Ni  Ni5  1  0.49785100  0.83353300  0.97422300  1
  Ni  Ni6  1  0.99801700  0.16666400  0.02572600  1
  Ni  Ni7  1  0.49806500  0.33332800  0.52572700  1
  P  P8  1  0.56240000  0.22283400  0.85727300  1
  P  P9  1  0.06243000  0.27716100  0.35728600  1
  P  P10  1  0.56233700  0.72274900  0.64273000  1
  P  P11  1  0.06228400  0.77723700  0.14271900  1
  O  O12  1  0.66995100  0.05613900  0.93137500  1
  O  O13  1  0.16998300  0.44385000  0.43138800  1
  O  O14  1  0.66998600  0.55605000  0.56868300  1
  O  O15  1  0.16991800  0.94395000  0.06868100  1
  O  O16  1  0.20404300  0.13872400  0.45656900  1
  O  O17  1  0.70400600  0.36125200  0.95657000  1
  O  O18  1  0.20404000  0.63886400  0.04340300  1
  O  O19  1  0.70403800  0.86114300  0.54341200  1
  O  O20  1  0.25119100  0.24078200  0.85962900  1
  O  O21  1  0.75122100  0.25920800  0.35964300  1
  O  O22  1  0.25110300  0.74069200  0.64035800  1
  O  O23  1  0.75107200  0.75931200  0.14031700  1
  O  O24  1  0.67351200  0.22044100  0.69528000  1
  O  O25  1  0.17350600  0.27954600  0.19528100  1
  O  O26  1  0.67339300  0.72046000  0.80472200  1
  O  O27  1  0.17339400  0.77953600  0.30470300  1
