# generated using pymatgen
data_Li2VFeP2(HO5)2
_symmetry_space_group_name_H-M   'P 1'
_cell_length_a   5.43610800
_cell_length_b   7.40542510
_cell_length_c   14.33845733
_cell_angle_alpha   93.64169451
_cell_angle_beta   94.90825826
_cell_angle_gamma   106.27117361
_symmetry_Int_Tables_number   1
_chemical_formula_structural   Li2VFeP2(HO5)2
_chemical_formula_sum   'Li6 V3 Fe3 P6 H6 O30'
_cell_volume   549.75260901
_cell_formula_units_Z   3
loop_
 _symmetry_equiv_pos_site_id
 _symmetry_equiv_pos_as_xyz
  1  'x, y, z'
loop_
 _atom_site_type_symbol
 _atom_site_label
 _atom_site_symmetry_multiplicity
 _atom_site_fract_x
 _atom_site_fract_y
 _atom_site_fract_z
 _atom_site_occupancy
  Li  Li0  1  0.68446700  0.25890400  0.08206600  1
  Li  Li1  1  0.64894200  0.07404300  0.25127300  1
  Li  Li2  1  0.35105800  0.92595700  0.74872700  1
  Li  Li3  1  0.31553300  0.74109600  0.91793400  1
  Li  Li4  1  0.01826600  0.59154500  0.41623600  1
  Li  Li5  1  0.98173400  0.40845500  0.58376400  1
  V  V6  1  0.83383000  0.83352300  0.83301100  1
  V  V7  1  0.50000000  0.00000000  0.50000000  1
  V  V8  1  0.16617000  0.16647700  0.16698900  1
  Fe  Fe9  1  0.83313800  0.33337700  0.83335900  1
  Fe  Fe10  1  0.50000000  0.50000000  0.50000000  1
  Fe  Fe11  1  0.16686200  0.66662300  0.16664100  1
  P  P12  1  0.63506800  0.50710500  0.27503700  1
  P  P13  1  0.69797400  0.82602500  0.05880400  1
  P  P14  1  0.30202600  0.17397500  0.94119600  1
  P  P15  1  0.36493200  0.49289500  0.72496300  1
  P  P16  1  0.96977500  0.83980100  0.60728300  1
  P  P17  1  0.03022500  0.16019900  0.39271700  1
  H  H18  1  0.77202300  0.05129200  0.71301100  1
  H  H19  1  0.56207400  0.27994700  0.61991000  1
  H  H20  1  0.22797700  0.94870800  0.28698900  1
  H  H21  1  0.43792600  0.72005300  0.38009000  1
  H  H22  1  0.10490000  0.38433300  0.04634500  1
  H  H23  1  0.89510000  0.61566700  0.95365500  1
  O  O24  1  0.70373800  0.88485700  0.95696100  1
  O  O25  1  0.79020700  0.00836800  0.12897200  1
  O  O26  1  0.79648300  0.96980100  0.59090000  1
  O  O27  1  0.74227200  0.05571100  0.39841600  1
  O  O28  1  0.73158000  0.05548900  0.77936600  1
  O  O29  1  0.59067500  0.27516700  0.93481000  1
  O  O30  1  0.54302000  0.32501500  0.20442600  1
  O  O31  1  0.62613300  0.44803900  0.37704600  1
  O  O32  1  0.60181000  0.27785000  0.55353100  1
  O  O33  1  0.20979300  0.99163200  0.87102800  1
  O  O34  1  0.29626200  0.11514300  0.04303900  1
  O  O35  1  0.26842000  0.94451100  0.22063400  1
  O  O36  1  0.53808400  0.36158300  0.74169200  1
  O  O37  1  0.46191600  0.63841700  0.25830800  1
  O  O38  1  0.25772800  0.94428900  0.60158400  1
  O  O39  1  0.40932500  0.72483300  0.06519000  1
  O  O40  1  0.20351700  0.03019900  0.40910000  1
  O  O41  1  0.12890600  0.30538400  0.92468200  1
  O  O42  1  0.39819000  0.72215000  0.44646900  1
  O  O43  1  0.37386700  0.55196100  0.62295400  1
  O  O44  1  0.45698000  0.67498500  0.79557400  1
  O  O45  1  0.06503700  0.38855400  0.11282700  1
  O  O46  1  0.03444000  0.21656400  0.29026700  1
  O  O47  1  0.12017000  0.34319200  0.46223100  1
  O  O48  1  0.07641000  0.39187200  0.73135700  1
  O  O49  1  0.93496300  0.61144600  0.88717300  1
  O  O50  1  0.92359000  0.60812800  0.26864300  1
  O  O51  1  0.87109400  0.69461600  0.07531800  1
  O  O52  1  0.87983000  0.65680800  0.53776900  1
  O  O53  1  0.96556000  0.78343600  0.70973300  1
