# generated using pymatgen
data_Li4Nb2Ni3Sn3O16
_symmetry_space_group_name_H-M   'P 1'
_cell_length_a   6.12201849
_cell_length_b   6.12201849
_cell_length_c   9.84518309
_cell_angle_alpha   89.29532649
_cell_angle_beta   89.29532649
_cell_angle_gamma   60.22791157
_symmetry_Int_Tables_number   1
_chemical_formula_structural   Li4Nb2Ni3Sn3O16
_chemical_formula_sum   'Li4 Nb2 Ni3 Sn3 O16'
_cell_volume   320.25257175
_cell_formula_units_Z   1
loop_
 _symmetry_equiv_pos_site_id
 _symmetry_equiv_pos_as_xyz
  1  'x, y, z'
loop_
 _atom_site_type_symbol
 _atom_site_label
 _atom_site_symmetry_multiplicity
 _atom_site_fract_x
 _atom_site_fract_y
 _atom_site_fract_z
 _atom_site_occupancy
  Li  Li0  1  0.67392500  0.67392500  0.89803200  1
  Li  Li1  1  0.98730700  0.98730700  0.98428200  1
  Li  Li2  1  0.99309600  0.99309600  0.49847000  1
  Li  Li3  1  0.33155700  0.33155700  0.40664400  1
  Nb  Nb4  1  0.67564500  0.67564500  0.49936200  1
  Nb  Nb5  1  0.35175900  0.35175900  0.97788500  1
  Ni  Ni6  1  0.82890200  0.82890200  0.21461000  1
  Ni  Ni7  1  0.66057500  0.17161800  0.71230500  1
  Ni  Ni8  1  0.17161800  0.66057500  0.71230500  1
  Sn  Sn9  1  0.83250100  0.33807300  0.21454300  1
  Sn  Sn10  1  0.33807300  0.83250100  0.21454300  1
  Sn  Sn11  1  0.17114800  0.17114800  0.71654700  1
  O  O12  1  0.83316500  0.33951100  0.58820100  1
  O  O13  1  0.51295100  0.51295100  0.34128600  1
  O  O14  1  0.66697200  0.66697200  0.10171300  1
  O  O15  1  0.99551400  0.99551400  0.31215500  1
  O  O16  1  0.99782500  0.99782500  0.80024900  1
  O  O17  1  0.33951100  0.83316500  0.58820100  1
  O  O18  1  0.95745400  0.51646800  0.34662900  1
  O  O19  1  0.51646800  0.95745400  0.34662900  1
  O  O20  1  0.16113900  0.16113900  0.09375800  1
  O  O21  1  0.82855000  0.82855000  0.59138600  1
  O  O22  1  0.47865200  0.04065100  0.85189400  1
  O  O23  1  0.04065100  0.47865200  0.85189400  1
  O  O24  1  0.33483200  0.33483200  0.60951200  1
  O  O25  1  0.66278100  0.17071800  0.09216000  1
  O  O26  1  0.48677500  0.48677500  0.85046000  1
  O  O27  1  0.17071800  0.66278100  0.09216000  1
