# generated using pymatgen
data_LiMn(PO3)3
_symmetry_space_group_name_H-M   'P 1'
_cell_length_a   6.48034308
_cell_length_b   13.28328403
_cell_length_c   10.44624294
_cell_angle_alpha   89.99660992
_cell_angle_beta   89.97763205
_cell_angle_gamma   95.57023061
_symmetry_Int_Tables_number   1
_chemical_formula_structural   LiMn(PO3)3
_chemical_formula_sum   'Li4 Mn4 P12 O36'
_cell_volume   894.96888074
_cell_formula_units_Z   4
loop_
 _symmetry_equiv_pos_site_id
 _symmetry_equiv_pos_as_xyz
  1  'x, y, z'
loop_
 _atom_site_type_symbol
 _atom_site_label
 _atom_site_symmetry_multiplicity
 _atom_site_fract_x
 _atom_site_fract_y
 _atom_site_fract_z
 _atom_site_occupancy
  Li  Li0  1  0.17401000  0.17395300  0.99993000  1
  Li  Li1  1  0.92391400  0.42395500  0.49991900  1
  Li  Li2  1  0.67401300  0.67401400  0.00004900  1
  Li  Li3  1  0.42387800  0.92400700  0.50001800  1
  Mn  Mn4  1  0.48476300  0.48575200  0.99996900  1
  Mn  Mn5  1  0.23555700  0.73561600  0.50013100  1
  Mn  Mn6  1  0.98559600  0.98574500  0.99997500  1
  Mn  Mn7  1  0.73540600  0.23543000  0.49989400  1
  P  P8  1  0.70125600  0.35068300  0.78506500  1
  P  P9  1  0.45101100  0.60067800  0.28516900  1
  P  P10  1  0.20120800  0.85068200  0.78516500  1
  P  P11  1  0.95118200  0.10065400  0.28507200  1
  P  P12  1  0.78177000  0.13450900  0.78262200  1
  P  P13  1  0.53163600  0.38459100  0.28263900  1
  P  P14  1  0.28171500  0.63456900  0.78268400  1
  P  P15  1  0.03171200  0.88454100  0.28266900  1
  P  P16  1  0.24442200  0.24196800  0.43215900  1
  P  P17  1  0.99425600  0.49200200  0.93223200  1
  P  P18  1  0.74434400  0.74199100  0.43221800  1
  P  P19  1  0.49448800  0.99197300  0.93226700  1
  O  O20  1  0.90240700  0.38471100  0.87365200  1
  O  O21  1  0.65215600  0.63469100  0.37378700  1
  O  O22  1  0.40233500  0.88469700  0.87378900  1
  O  O23  1  0.15227700  0.13466200  0.37372700  1
  O  O24  1  0.66329200  0.23252900  0.82181500  1
  O  O25  1  0.41302400  0.48253200  0.32196500  1
  O  O26  1  0.16318000  0.73255600  0.82193900  1
  O  O27  1  0.91301400  0.98252700  0.32183500  1
  O  O28  1  0.34767600  0.29561200  0.30430300  1
  O  O29  1  0.09769700  0.54565500  0.80442300  1
  O  O30  1  0.84768400  0.79560600  0.30436100  1
  O  O31  1  0.59771000  0.04561300  0.80439100  1
  O  O32  1  0.95344400  0.12532300  0.87780600  1
  O  O33  1  0.70328300  0.37537300  0.37781500  1
  O  O34  1  0.45336200  0.62541500  0.87786900  1
  O  O35  1  0.20323900  0.87540800  0.37797600  1
  O  O36  1  0.01569700  0.11293000  0.14700500  1
  O  O37  1  0.76574400  0.36290600  0.64699800  1
  O  O38  1  0.51550100  0.61298900  0.14708600  1
  O  O39  1  0.26571700  0.86291600  0.64709100  1
  O  O40  1  0.32117700  0.05185000  0.97516000  1
  O  O41  1  0.07112300  0.30183500  0.47511800  1
  O  O42  1  0.82095800  0.55187300  0.97511200  1
  O  O43  1  0.57098900  0.80186900  0.47505500  1
  O  O44  1  0.15955900  0.46921200  0.02483300  1
  O  O45  1  0.90973300  0.71927500  0.52480800  1
  O  O46  1  0.65990000  0.96921900  0.02481700  1
  O  O47  1  0.40989100  0.21921700  0.52469600  1
  O  O48  1  0.51589300  0.39821500  0.83298300  1
  O  O49  1  0.26549400  0.64811600  0.33298700  1
  O  O50  1  0.01576200  0.89816000  0.83298700  1
  O  O51  1  0.76575400  0.14818200  0.33287600  1
  O  O52  1  0.57767200  0.38592000  0.14224200  1
  O  O53  1  0.32778200  0.63572500  0.64230700  1
  O  O54  1  0.07792500  0.88574200  0.14230900  1
  O  O55  1  0.82780000  0.13561400  0.64223500  1
