# generated using pymatgen
data_LiCr(PO3)3
_symmetry_space_group_name_H-M   'P 1'
_cell_length_a   5.21590800
_cell_length_b   12.49311700
_cell_length_c   12.49905600
_cell_angle_alpha   90.00000000
_cell_angle_beta   90.00000000
_cell_angle_gamma   90.00000000
_symmetry_Int_Tables_number   1
_chemical_formula_structural   LiCr(PO3)3
_chemical_formula_sum   'Li4 Cr4 P12 O36'
_cell_volume   814.47534749
_cell_formula_units_Z   4
loop_
 _symmetry_equiv_pos_site_id
 _symmetry_equiv_pos_as_xyz
  1  'x, y, z'
loop_
 _atom_site_type_symbol
 _atom_site_label
 _atom_site_symmetry_multiplicity
 _atom_site_fract_x
 _atom_site_fract_y
 _atom_site_fract_z
 _atom_site_occupancy
  Li  Li0  1  0.05664400  0.25000000  0.08364900  1
  Li  Li1  1  0.05664400  0.75000000  0.41635100  1
  Li  Li2  1  0.94335600  0.25000000  0.58364900  1
  Li  Li3  1  0.94335600  0.75000000  0.91635100  1
  Cr  Cr4  1  0.00000000  0.00000000  0.00000000  1
  Cr  Cr5  1  0.00000000  0.00000000  0.50000000  1
  Cr  Cr6  1  0.00000000  0.50000000  0.00000000  1
  Cr  Cr7  1  0.00000000  0.50000000  0.50000000  1
  P  P8  1  0.22994600  0.00000000  0.75000000  1
  P  P9  1  0.22994600  0.50000000  0.75000000  1
  P  P10  1  0.50423500  0.63439900  0.07942500  1
  P  P11  1  0.50423500  0.13439900  0.42057500  1
  P  P12  1  0.50423500  0.86560100  0.07942500  1
  P  P13  1  0.50423500  0.36560100  0.42057500  1
  P  P14  1  0.49576500  0.63439900  0.57942500  1
  P  P15  1  0.49576500  0.36560100  0.92057500  1
  P  P16  1  0.49576500  0.13439900  0.92057500  1
  P  P17  1  0.49576500  0.86560100  0.57942500  1
  P  P18  1  0.77005400  0.00000000  0.25000000  1
  P  P19  1  0.77005400  0.50000000  0.25000000  1
  O  O20  1  0.08980900  0.07562200  0.67767800  1
  O  O21  1  0.08980900  0.42437800  0.67767800  1
  O  O22  1  0.08980900  0.57562200  0.82232200  1
  O  O23  1  0.08980900  0.92437800  0.82232200  1
  O  O24  1  0.22599000  0.12689800  0.45223800  1
  O  O25  1  0.22599000  0.62689800  0.04776200  1
  O  O26  1  0.22599000  0.37310200  0.45223800  1
  O  O27  1  0.22599000  0.87310200  0.04776200  1
  O  O28  1  0.29721900  0.11678200  0.00727000  1
  O  O29  1  0.29721900  0.38321800  0.00727000  1
  O  O30  1  0.29721900  0.61678200  0.49273000  1
  O  O31  1  0.29721900  0.88321800  0.49273000  1
  O  O32  1  0.44904200  0.25000000  0.86887900  1
  O  O33  1  0.44904200  0.75000000  0.63112100  1
  O  O34  1  0.44760800  0.56338000  0.68124000  1
  O  O35  1  0.44760800  0.06338000  0.81876000  1
  O  O36  1  0.44760800  0.93662000  0.68124000  1
  O  O37  1  0.44760800  0.43662000  0.81876000  1
  O  O38  1  0.55239200  0.56338000  0.18124000  1
  O  O39  1  0.55239200  0.43662000  0.31876000  1
  O  O40  1  0.55239200  0.06338000  0.31876000  1
  O  O41  1  0.55239200  0.93662000  0.18124000  1
  O  O42  1  0.55095800  0.75000000  0.13112100  1
  O  O43  1  0.55095800  0.25000000  0.36887900  1
  O  O44  1  0.70278100  0.38321800  0.50727000  1
  O  O45  1  0.70278100  0.61678200  0.99273000  1
  O  O46  1  0.70278100  0.11678200  0.50727000  1
  O  O47  1  0.70278100  0.88321800  0.99273000  1
  O  O48  1  0.77401000  0.87310200  0.54776200  1
  O  O49  1  0.77401000  0.62689800  0.54776200  1
  O  O50  1  0.77401000  0.12689800  0.95223800  1
  O  O51  1  0.77401000  0.37310200  0.95223800  1
  O  O52  1  0.91019100  0.42437800  0.17767800  1
  O  O53  1  0.91019100  0.57562200  0.32232200  1
  O  O54  1  0.91019100  0.07562200  0.17767800  1
  O  O55  1  0.91019100  0.92437800  0.32232200  1
