# generated using pymatgen
data_Li2SbSO4F3
_symmetry_space_group_name_H-M   'P 1'
_cell_length_a   5.13408300
_cell_length_b   8.73965200
_cell_length_c   13.01814700
_cell_angle_alpha   90.00000000
_cell_angle_beta   90.00000000
_cell_angle_gamma   90.00000000
_symmetry_Int_Tables_number   1
_chemical_formula_structural   Li2SbSO4F3
_chemical_formula_sum   'Li8 Sb4 S4 O16 F12'
_cell_volume   584.12554155
_cell_formula_units_Z   4
loop_
 _symmetry_equiv_pos_site_id
 _symmetry_equiv_pos_as_xyz
  1  'x, y, z'
loop_
 _atom_site_type_symbol
 _atom_site_label
 _atom_site_symmetry_multiplicity
 _atom_site_fract_x
 _atom_site_fract_y
 _atom_site_fract_z
 _atom_site_occupancy
  Li  Li0  1  0.95856300  0.49263500  0.72109600  1
  Li  Li1  1  0.00410000  0.28943300  0.44606200  1
  Li  Li2  1  0.49590000  0.71056700  0.94606200  1
  Li  Li3  1  0.54143700  0.50736500  0.22109600  1
  Li  Li4  1  0.45856300  0.00736500  0.27890400  1
  Li  Li5  1  0.50410000  0.21056700  0.55393800  1
  Li  Li6  1  0.99590000  0.78943300  0.05393800  1
  Li  Li7  1  0.04143700  0.99263500  0.77890400  1
  Sb  Sb8  1  0.05680800  0.94222300  0.52609900  1
  Sb  Sb9  1  0.44319200  0.05777700  0.02609900  1
  Sb  Sb10  1  0.55680800  0.55777700  0.47390100  1
  Sb  Sb11  1  0.94319200  0.44222300  0.97390100  1
  S  S12  1  0.97284800  0.20369800  0.17780300  1
  S  S13  1  0.52715200  0.79630200  0.67780300  1
  S  S14  1  0.47284800  0.29630200  0.82219700  1
  S  S15  1  0.02715200  0.70369800  0.32219700  1
  O  O16  1  0.02350400  0.11875200  0.07604500  1
  O  O17  1  0.15573800  0.85289700  0.35363100  1
  O  O18  1  0.20713400  0.61335600  0.25944600  1
  O  O19  1  0.22502100  0.23035000  0.22909100  1
  O  O20  1  0.27497900  0.76965000  0.72909100  1
  O  O21  1  0.29286600  0.38664400  0.75944600  1
  O  O22  1  0.34426200  0.14710300  0.85363100  1
  O  O23  1  0.47649600  0.88124800  0.57604500  1
  O  O24  1  0.52350400  0.38124800  0.92395500  1
  O  O25  1  0.65573800  0.64710300  0.64636900  1
  O  O26  1  0.70713400  0.88664400  0.74055400  1
  O  O27  1  0.72502100  0.26965000  0.77090900  1
  O  O28  1  0.77497900  0.73035000  0.27090900  1
  O  O29  1  0.79286600  0.11335600  0.24055400  1
  O  O30  1  0.84426200  0.35289700  0.14636900  1
  O  O31  1  0.97649600  0.61875200  0.42395500  1
  F  F32  1  0.11014000  0.08675100  0.64639200  1
  F  F33  1  0.20803300  0.61141800  0.01953100  1
  F  F34  1  0.27532100  0.10192100  0.45513500  1
  F  F35  1  0.22467900  0.89807900  0.95513500  1
  F  F36  1  0.29196700  0.38858200  0.51953100  1
  F  F37  1  0.38986000  0.91324900  0.14639200  1
  F  F38  1  0.61014000  0.41324900  0.35360800  1
  F  F39  1  0.70803300  0.88858200  0.98046900  1
  F  F40  1  0.77532100  0.39807900  0.54486500  1
  F  F41  1  0.72467900  0.60192100  0.04486500  1
  F  F42  1  0.79196700  0.11141800  0.48046900  1
  F  F43  1  0.88986000  0.58675100  0.85360800  1
