# generated using pymatgen
data_LiBeH4NF4
_symmetry_space_group_name_H-M   'P 1'
_cell_length_a   5.08642800
_cell_length_b   9.07660200
_cell_length_c   9.57171000
_cell_angle_alpha   90.00000000
_cell_angle_beta   90.00000000
_cell_angle_gamma   90.00000000
_symmetry_Int_Tables_number   1
_chemical_formula_structural   LiBeH4NF4
_chemical_formula_sum   'Li4 Be4 H16 N4 F16'
_cell_volume   441.90175447
_cell_formula_units_Z   4
loop_
 _symmetry_equiv_pos_site_id
 _symmetry_equiv_pos_as_xyz
  1  'x, y, z'
loop_
 _atom_site_type_symbol
 _atom_site_label
 _atom_site_symmetry_multiplicity
 _atom_site_fract_x
 _atom_site_fract_y
 _atom_site_fract_z
 _atom_site_occupancy
  Li  Li0  1  0.04728700  0.32910800  0.89203200  1
  Li  Li1  1  0.95271300  0.82910800  0.10796800  1
  Li  Li2  1  0.04728700  0.82910800  0.60796800  1
  Li  Li3  1  0.95271300  0.32910800  0.39203200  1
  Be  Be4  1  0.05594700  0.19329200  0.59988500  1
  Be  Be5  1  0.94405300  0.69329200  0.40011500  1
  Be  Be6  1  0.05594700  0.69329200  0.90011500  1
  Be  Be7  1  0.94405300  0.19329200  0.09988500  1
  H  H8  1  0.63351700  0.52211100  0.80502200  1
  H  H9  1  0.36648300  0.02211100  0.19497800  1
  H  H10  1  0.63351700  0.02211100  0.69497800  1
  H  H11  1  0.36648300  0.52211100  0.30502200  1
  H  H12  1  0.33279000  0.49852200  0.73182600  1
  H  H13  1  0.66721000  0.99852200  0.26817400  1
  H  H14  1  0.33279000  0.99852200  0.76817400  1
  H  H15  1  0.66721000  0.49852200  0.23182600  1
  H  H16  1  0.60010000  0.41121400  0.66407400  1
  H  H17  1  0.39990000  0.91121400  0.33592600  1
  H  H18  1  0.60010000  0.91121400  0.83592600  1
  H  H19  1  0.39990000  0.41121400  0.16407400  1
  H  H20  1  0.57362400  0.59631600  0.64923900  1
  H  H21  1  0.42637600  0.09631600  0.35076100  1
  H  H22  1  0.57362400  0.09631600  0.85076100  1
  H  H23  1  0.42637600  0.59631600  0.14923900  1
  N  N24  1  0.53141400  0.50692200  0.71287100  1
  N  N25  1  0.46858600  0.00692200  0.28712900  1
  N  N26  1  0.53141400  0.00692200  0.78712900  1
  N  N27  1  0.46858600  0.50692200  0.21287100  1
  F  F28  1  0.98779100  0.02696700  0.62226400  1
  F  F29  1  0.01220900  0.52696700  0.37773600  1
  F  F30  1  0.98779100  0.52696700  0.87773600  1
  F  F31  1  0.01220900  0.02696700  0.12226400  1
  F  F32  1  0.76993900  0.21266900  0.96509400  1
  F  F33  1  0.23006100  0.71266900  0.03490600  1
  F  F34  1  0.76993900  0.71266900  0.53490600  1
  F  F35  1  0.23006100  0.21266900  0.46509400  1
  F  F36  1  0.79564500  0.28156900  0.56820900  1
  F  F37  1  0.20435500  0.78156900  0.43179100  1
  F  F38  1  0.79564500  0.78156900  0.93179100  1
  F  F39  1  0.20435500  0.28156900  0.06820900  1
  F  F40  1  0.19356200  0.25531000  0.73160100  1
  F  F41  1  0.80643800  0.75531000  0.26839900  1
  F  F42  1  0.19356200  0.75531000  0.76839900  1
  F  F43  1  0.80643800  0.25531000  0.23160100  1
