# generated using pymatgen
data_Li8NiO5F
_symmetry_space_group_name_H-M   'P 1'
_cell_length_a   5.33206397
_cell_length_b   9.43537389
_cell_length_c   5.91288448
_cell_angle_alpha   84.61023479
_cell_angle_beta   112.30340411
_cell_angle_gamma   77.32016630
_symmetry_Int_Tables_number   1
_chemical_formula_structural   Li8NiO5F
_chemical_formula_sum   'Li16 Ni2 O10 F2'
_cell_volume   263.28294871
_cell_formula_units_Z   2
loop_
 _symmetry_equiv_pos_site_id
 _symmetry_equiv_pos_as_xyz
  1  'x, y, z'
loop_
 _atom_site_type_symbol
 _atom_site_label
 _atom_site_symmetry_multiplicity
 _atom_site_fract_x
 _atom_site_fract_y
 _atom_site_fract_z
 _atom_site_occupancy
  Li  Li0  1  0.46898800  0.05769100  0.30108400  1
  Li  Li1  1  0.46899200  0.55776400  0.80096500  1
  Li  Li2  1  0.23109000  0.26594700  0.39582500  1
  Li  Li3  1  0.23113000  0.76589700  0.89593400  1
  Li  Li4  1  0.89279300  0.11910600  0.53152800  1
  Li  Li5  1  0.89275700  0.61913100  0.03153000  1
  Li  Li6  1  0.36778400  0.14614800  0.86781800  1
  Li  Li7  1  0.36775200  0.64621300  0.36781000  1
  Li  Li8  1  0.67514200  0.32933600  0.64638400  1
  Li  Li9  1  0.67497800  0.82934500  0.14634000  1
  Li  Li10  1  0.09275000  0.38475900  0.95855900  1
  Li  Li11  1  0.09281200  0.88465000  0.45869800  1
  Li  Li12  1  0.79402400  0.23363900  0.13032200  1
  Li  Li13  1  0.79418900  0.73349600  0.63037100  1
  Li  Li14  1  0.52299600  0.44798300  0.20855700  1
  Li  Li15  1  0.52302800  0.94790400  0.70848600  1
  Ni  Ni16  1  0.96174000  0.51211100  0.46182600  1
  Ni  Ni17  1  0.96136800  0.01239000  0.96194300  1
  O  O18  1  0.58459300  0.13185500  0.63001000  1
  O  O19  1  0.58453700  0.63194900  0.12980100  1
  O  O20  1  0.10648700  0.18183200  0.04982800  1
  O  O21  1  0.10646500  0.68184500  0.54986600  1
  O  O22  1  0.77376300  0.03358800  0.19456900  1
  O  O23  1  0.77368700  0.53352500  0.69443400  1
  O  O24  1  0.20476000  0.46823200  0.28514200  1
  O  O25  1  0.20467600  0.96821600  0.78538000  1
  O  O26  1  0.88563200  0.32143700  0.43314800  1
  O  O27  1  0.88559900  0.82154800  0.93322100  1
  F  F28  1  0.43765900  0.36643300  0.90537400  1
  F  F29  1  0.43783800  0.86602600  0.40524900  1
