# generated using pymatgen
data_LiMn(PO3)3
_symmetry_space_group_name_H-M   'P 1'
_cell_length_a   7.40549100
_cell_length_b   9.19779300
_cell_length_c   12.10407200
_cell_angle_alpha   90.00000000
_cell_angle_beta   90.00000000
_cell_angle_gamma   90.00000000
_symmetry_Int_Tables_number   1
_chemical_formula_structural   LiMn(PO3)3
_chemical_formula_sum   'Li4 Mn4 P12 O36'
_cell_volume   824.45885762
_cell_formula_units_Z   4
loop_
 _symmetry_equiv_pos_site_id
 _symmetry_equiv_pos_as_xyz
  1  'x, y, z'
loop_
 _atom_site_type_symbol
 _atom_site_label
 _atom_site_symmetry_multiplicity
 _atom_site_fract_x
 _atom_site_fract_y
 _atom_site_fract_z
 _atom_site_occupancy
  Li  Li0  1  0.75000000  0.97335000  0.03124200  1
  Li  Li1  1  0.75000000  0.47335000  0.46875800  1
  Li  Li2  1  0.25000000  0.52665000  0.53124200  1
  Li  Li3  1  0.25000000  0.02665000  0.96875800  1
  Mn  Mn4  1  0.75000000  0.52303200  0.71434700  1
  Mn  Mn5  1  0.75000000  0.02303200  0.78565300  1
  Mn  Mn6  1  0.25000000  0.97696800  0.21434700  1
  Mn  Mn7  1  0.25000000  0.47696800  0.28565300  1
  P  P8  1  0.95257800  0.74841800  0.34898000  1
  P  P9  1  0.95257800  0.24841800  0.15102000  1
  P  P10  1  0.75000000  0.30720200  0.95964600  1
  P  P11  1  0.75000000  0.80720200  0.54035400  1
  P  P12  1  0.54742200  0.24841800  0.15102000  1
  P  P13  1  0.54742200  0.74841800  0.34898000  1
  P  P14  1  0.45257800  0.25158200  0.65102000  1
  P  P15  1  0.45257800  0.75158200  0.84898000  1
  P  P16  1  0.25000000  0.69279800  0.04035400  1
  P  P17  1  0.25000000  0.19279800  0.45964600  1
  P  P18  1  0.04742200  0.25158200  0.65102000  1
  P  P19  1  0.04742200  0.75158200  0.84898000  1
  O  O20  1  0.98209600  0.65429300  0.75868600  1
  O  O21  1  0.98209600  0.15429300  0.74131400  1
  O  O22  1  0.94147800  0.88447700  0.88284900  1
  O  O23  1  0.94147800  0.38447700  0.61715100  1
  O  O24  1  0.91743200  0.34614800  0.04096600  1
  O  O25  1  0.91743200  0.84614800  0.45903400  1
  O  O26  1  0.75000000  0.68917000  0.31891000  1
  O  O27  1  0.75000000  0.90696000  0.63627400  1
  O  O28  1  0.75000000  0.40696000  0.86372600  1
  O  O29  1  0.75000000  0.14449400  0.94177300  1
  O  O30  1  0.75000000  0.18917000  0.18109000  1
  O  O31  1  0.75000000  0.64449400  0.55822700  1
  O  O32  1  0.58256800  0.34614800  0.04096600  1
  O  O33  1  0.58256800  0.84614800  0.45903400  1
  O  O34  1  0.55852200  0.88447700  0.88284900  1
  O  O35  1  0.55852200  0.38447700  0.61715100  1
  O  O36  1  0.51790400  0.65429300  0.75868600  1
  O  O37  1  0.51790400  0.15429300  0.74131400  1
  O  O38  1  0.48209600  0.84570700  0.25868600  1
  O  O39  1  0.48209600  0.34570700  0.24131400  1
  O  O40  1  0.44147800  0.11552300  0.11715100  1
  O  O41  1  0.44147800  0.61552300  0.38284900  1
  O  O42  1  0.41743200  0.15385200  0.54096600  1
  O  O43  1  0.41743200  0.65385200  0.95903400  1
  O  O44  1  0.25000000  0.85550600  0.05822700  1
  O  O45  1  0.25000000  0.59304000  0.13627400  1
  O  O46  1  0.25000000  0.35550600  0.44177300  1
  O  O47  1  0.25000000  0.09304000  0.36372600  1
  O  O48  1  0.25000000  0.31083000  0.68109000  1
  O  O49  1  0.25000000  0.81083000  0.81891000  1
  O  O50  1  0.08256800  0.15385200  0.54096600  1
  O  O51  1  0.08256800  0.65385200  0.95903400  1
  O  O52  1  0.05852200  0.61552300  0.38284900  1
  O  O53  1  0.05852200  0.11552300  0.11715100  1
  O  O54  1  0.01790400  0.34570700  0.24131400  1
  O  O55  1  0.01790400  0.84570700  0.25868600  1
