# generated using pymatgen
data_Li3MnV(PO4)3
_symmetry_space_group_name_H-M   'P 1'
_cell_length_a   9.03845014
_cell_length_b   9.03845014
_cell_length_c   9.03844985
_cell_angle_alpha   56.40658592
_cell_angle_beta   56.40658592
_cell_angle_gamma   56.40658119
_symmetry_Int_Tables_number   1
_chemical_formula_structural   Li3MnV(PO4)3
_chemical_formula_sum   'Li6 Mn2 V2 P6 O24'
_cell_volume   478.73157752
_cell_formula_units_Z   2
loop_
 _symmetry_equiv_pos_site_id
 _symmetry_equiv_pos_as_xyz
  1  'x, y, z'
loop_
 _atom_site_type_symbol
 _atom_site_label
 _atom_site_symmetry_multiplicity
 _atom_site_fract_x
 _atom_site_fract_y
 _atom_site_fract_z
 _atom_site_occupancy
  Li  Li0  1  0.91591500  0.66529500  0.27140200  1
  Li  Li1  1  0.66529500  0.27140200  0.91591500  1
  Li  Li2  1  0.27140200  0.91591500  0.66529500  1
  Li  Li3  1  0.72859800  0.08408500  0.33470500  1
  Li  Li4  1  0.33470500  0.72859800  0.08408500  1
  Li  Li5  1  0.08408500  0.33470500  0.72859800  1
  Mn  Mn6  1  0.65016400  0.65016400  0.65016400  1
  Mn  Mn7  1  0.34983600  0.34983600  0.34983600  1
  V  V8  1  0.14903400  0.14903400  0.14903400  1
  V  V9  1  0.85096600  0.85096600  0.85096600  1
  P  P10  1  0.24171300  0.54325200  0.96344300  1
  P  P11  1  0.96344300  0.24171300  0.54325200  1
  P  P12  1  0.54325200  0.96344300  0.24171300  1
  P  P13  1  0.45674800  0.03655700  0.75828700  1
  P  P14  1  0.03655700  0.75828700  0.45674800  1
  P  P15  1  0.75828700  0.45674800  0.03655700  1
  O  O16  1  0.19866500  0.55612500  0.14920700  1
  O  O17  1  0.45288400  0.49976300  0.83976800  1
  O  O18  1  0.83976800  0.45288400  0.49976300  1
  O  O19  1  0.14920700  0.19866500  0.55612500  1
  O  O20  1  0.55612500  0.14920700  0.19866500  1
  O  O21  1  0.17848800  0.38808400  0.01231600  1
  O  O22  1  0.85884400  0.11659700  0.74165400  1
  O  O23  1  0.01231600  0.17848800  0.38808400  1
  O  O24  1  0.49976300  0.83976800  0.45288400  1
  O  O25  1  0.74165400  0.85884400  0.11659700  1
  O  O26  1  0.38808400  0.01231600  0.17848800  1
  O  O27  1  0.11659700  0.74165400  0.85884400  1
  O  O28  1  0.88340300  0.25834600  0.14115600  1
  O  O29  1  0.61191600  0.98768400  0.82151200  1
  O  O30  1  0.25834600  0.14115600  0.88340300  1
  O  O31  1  0.50023700  0.16023200  0.54711600  1
  O  O32  1  0.98768400  0.82151200  0.61191600  1
  O  O33  1  0.14115600  0.88340300  0.25834600  1
  O  O34  1  0.82151200  0.61191600  0.98768400  1
  O  O35  1  0.44387500  0.85079300  0.80133500  1
  O  O36  1  0.85079300  0.80133500  0.44387500  1
  O  O37  1  0.16023200  0.54711600  0.50023700  1
  O  O38  1  0.54711600  0.50023700  0.16023200  1
  O  O39  1  0.80133500  0.44387500  0.85079300  1
