# generated using pymatgen
data_Li3V3P8O29
_symmetry_space_group_name_H-M   'P 1'
_cell_length_a   9.76514032
_cell_length_b   9.76514032
_cell_length_c   14.35830078
_cell_angle_alpha   89.44053795
_cell_angle_beta   89.44053795
_cell_angle_gamma   60.33746669
_symmetry_Int_Tables_number   1
_chemical_formula_structural   Li3V3P8O29
_chemical_formula_sum   'Li6 V6 P16 O58'
_cell_volume   1189.67892455
_cell_formula_units_Z   2
loop_
 _symmetry_equiv_pos_site_id
 _symmetry_equiv_pos_as_xyz
  1  'x, y, z'
loop_
 _atom_site_type_symbol
 _atom_site_label
 _atom_site_symmetry_multiplicity
 _atom_site_fract_x
 _atom_site_fract_y
 _atom_site_fract_z
 _atom_site_occupancy
  Li  Li0  1  0.91809200  0.29788500  0.19658800  1
  Li  Li1  1  0.30755200  0.91891000  0.68403300  1
  Li  Li2  1  0.30723000  0.77703700  0.20077200  1
  Li  Li3  1  0.70211500  0.08190800  0.80341200  1
  Li  Li4  1  0.22296300  0.69277000  0.79922800  1
  Li  Li5  1  0.08109000  0.69244800  0.31596700  1
  V  V6  1  0.57349900  0.42650100  0.50000000  1
  V  V7  1  0.43762700  0.56237300  0.00000000  1
  V  V8  1  0.56941600  0.99405300  0.00601600  1
  V  V9  1  0.43096700  0.00605600  0.49182300  1
  V  V10  1  0.99394400  0.56903300  0.50817700  1
  V  V11  1  0.00594700  0.43058400  0.99398400  1
  P  P12  1  0.91494400  0.77348100  0.91560600  1
  P  P13  1  0.77524500  0.91191300  0.41074200  1
  P  P14  1  0.91510200  0.31684800  0.40935800  1
  P  P15  1  0.65478400  0.67034900  0.61814600  1
  P  P16  1  0.66875800  0.65891800  0.11741100  1
  P  P17  1  0.77214600  0.31336300  0.90900700  1
  P  P18  1  0.68663700  0.22785400  0.09099300  1
  P  P19  1  0.32416000  0.90907900  0.90493000  1
  P  P20  1  0.68315200  0.08489800  0.59064200  1
  P  P21  1  0.32154200  0.76666400  0.41104700  1
  P  P22  1  0.23333600  0.67845800  0.58895300  1
  P  P23  1  0.32965100  0.34521600  0.38185400  1
  P  P24  1  0.34108200  0.33124200  0.88258900  1
  P  P25  1  0.09092100  0.67584000  0.09507000  1
  P  P26  1  0.22651900  0.08505600  0.08439400  1
  P  P27  1  0.08808700  0.22475500  0.58925800  1
  O  O28  1  0.01969200  0.73608200  0.18722600  1
  O  O29  1  0.91685400  0.73991800  0.41675900  1
  O  O30  1  0.74647700  0.00852800  0.68151400  1
  O  O31  1  0.74565500  0.91736700  0.91429300  1
  O  O32  1  0.90585900  0.61815800  0.92871100  1
  O  O33  1  0.80914500  0.66676500  0.57584500  1
  O  O34  1  0.90411400  0.47776800  0.43196200  1
  O  O35  1  0.00374600  0.22449300  0.67513800  1
  O  O36  1  0.91430100  0.34257500  0.91669400  1
  O  O37  1  0.66799800  0.81098600  0.07407200  1
  O  O38  1  0.61846400  0.90582800  0.42774200  1
  O  O39  1  0.81777400  0.51195600  0.07764500  1
  O  O40  1  0.65400700  0.66870800  0.72132200  1
  O  O41  1  0.65525000  0.66526000  0.22026300  1
  O  O42  1  0.65852300  0.52152100  0.57329200  1
  O  O43  1  0.48200800  0.90143900  0.93127000  1
  O  O44  1  0.50814400  0.81937400  0.57661500  1
  O  O45  1  0.74637600  0.33935500  0.41932100  1
  O  O46  1  0.79364600  0.20635400  0.00000000  1
  O  O47  1  0.76429700  0.23605100  0.17555900  1
  O  O48  1  0.76394900  0.23570300  0.82444100  1
  O  O49  1  0.61953200  0.47476000  0.92857900  1
  O  O50  1  0.51669500  0.66463100  0.07370200  1
  O  O51  1  0.66064500  0.25362400  0.58067900  1
  O  O52  1  0.47984900  0.61574000  0.42632000  1
  O  O53  1  0.34385000  0.91279500  0.41423800  1
  O  O54  1  0.79684700  0.98747700  0.50598800  1
  O  O55  1  0.77550700  0.99625400  0.32486200  1
  O  O56  1  0.23269400  0.98723700  0.16560500  1
  O  O57  1  0.65742500  0.08569900  0.08330600  1
  O  O58  1  0.52524000  0.38046800  0.07142100  1
  O  O59  1  0.34073500  0.74194600  0.91567000  1
  O  O60  1  0.47847900  0.34147700  0.42670800  1
  O  O61  1  0.38426000  0.52015100  0.57368000  1
  O  O62  1  0.23761600  0.75948500  0.67543100  1
  O  O63  1  0.24051500  0.76238400  0.32456900  1
  O  O64  1  0.21095200  0.78904800  0.50000000  1
  O  O65  1  0.25805400  0.65926500  0.08433000  1
  O  O66  1  0.48804400  0.18222600  0.92235500  1
  O  O67  1  0.52223200  0.09588600  0.56803800  1
  O  O68  1  0.33536900  0.48330500  0.92629800  1
  O  O69  1  0.33474000  0.34475000  0.77973700  1
  O  O70  1  0.33129200  0.34599300  0.27867800  1
  O  O71  1  0.18062600  0.49185600  0.42338400  1
  O  O72  1  0.38184200  0.09414100  0.07128900  1
  O  O73  1  0.33323500  0.19085500  0.42415500  1
  O  O74  1  0.08720500  0.65615000  0.58576200  1
  O  O75  1  0.98758200  0.79447700  0.01193000  1
  O  O76  1  0.01276300  0.76730600  0.83439500  1
  O  O77  1  0.09856100  0.51799200  0.06873000  1
  O  O78  1  0.18901400  0.33200200  0.92592800  1
  O  O79  1  0.09417200  0.38153600  0.57225800  1
  O  O80  1  0.26008200  0.08314600  0.58324100  1
  O  O81  1  0.26391800  0.98030800  0.81277400  1
  O  O82  1  0.20552300  0.01241800  0.98807000  1
  O  O83  1  0.08263300  0.25434500  0.08570700  1
  O  O84  1  0.99147200  0.25352300  0.31848600  1
  O  O85  1  0.01252300  0.20315300  0.49401200  1
