# generated using pymatgen
data_LiCrPO5
_symmetry_space_group_name_H-M   'P 1'
_cell_length_a   6.34294500
_cell_length_b   6.29237600
_cell_length_c   9.07672201
_cell_angle_alpha   89.99916453
_cell_angle_beta   90.00378433
_cell_angle_gamma   89.99994560
_symmetry_Int_Tables_number   1
_chemical_formula_structural   LiCrPO5
_chemical_formula_sum   'Li4 Cr4 P4 O20'
_cell_volume   362.27189699
_cell_formula_units_Z   4
loop_
 _symmetry_equiv_pos_site_id
 _symmetry_equiv_pos_as_xyz
  1  'x, y, z'
loop_
 _atom_site_type_symbol
 _atom_site_label
 _atom_site_symmetry_multiplicity
 _atom_site_fract_x
 _atom_site_fract_y
 _atom_site_fract_z
 _atom_site_occupancy
  Li  Li0  1  0.47984900  0.47993900  0.98649500  1
  Li  Li1  1  0.47986400  0.02004600  0.48649100  1
  Li  Li2  1  0.98009100  0.98019000  0.01349000  1
  Li  Li3  1  0.98006800  0.51983300  0.51349500  1
  Cr  Cr4  1  0.24864600  0.24711800  0.19950100  1
  Cr  Cr5  1  0.24864600  0.25290700  0.69944800  1
  Cr  Cr6  1  0.74865100  0.74710700  0.80049300  1
  Cr  Cr7  1  0.74860300  0.75290600  0.30047900  1
  P  P8  1  0.24787200  0.75172800  0.74982300  1
  P  P9  1  0.24786400  0.74827700  0.24983200  1
  P  P10  1  0.74787800  0.24828100  0.75019300  1
  P  P11  1  0.74787700  0.25172500  0.25019200  1
  O  O12  1  0.05217200  0.76165200  0.85139800  1
  O  O13  1  0.05215900  0.73835200  0.35137500  1
  O  O14  1  0.25792500  0.24036800  0.38527000  1
  O  O15  1  0.25791000  0.25961900  0.88520300  1
  O  O16  1  0.25972100  0.55023000  0.14893300  1
  O  O17  1  0.23482600  0.94495000  0.14709500  1
  O  O18  1  0.23483100  0.55505600  0.64710900  1
  O  O19  1  0.25971100  0.94976800  0.64894500  1
  O  O20  1  0.44491800  0.76341100  0.34950700  1
  O  O21  1  0.44491400  0.73657500  0.84952800  1
  O  O22  1  0.55215700  0.26164000  0.14863700  1
  O  O23  1  0.55217600  0.23836300  0.64863900  1
  O  O24  1  0.73481600  0.05503000  0.35291600  1
  O  O25  1  0.75973400  0.44979300  0.35107700  1
  O  O26  1  0.75788900  0.75960400  0.11473100  1
  O  O27  1  0.75791000  0.74037600  0.61462700  1
  O  O28  1  0.75973900  0.05021100  0.85110400  1
  O  O29  1  0.73480800  0.44495500  0.85293800  1
  O  O30  1  0.94487900  0.26339400  0.65051900  1
  O  O31  1  0.94489700  0.23659800  0.15051700  1
