# generated using pymatgen
data_LiMnF4
_symmetry_space_group_name_H-M   'P 1'
_cell_length_a   6.36313122
_cell_length_b   6.36313122
_cell_length_c   11.38294800
_cell_angle_alpha   90.00000000
_cell_angle_beta   90.00000000
_cell_angle_gamma   93.01058799
_symmetry_Int_Tables_number   1
_chemical_formula_structural   LiMnF4
_chemical_formula_sum   'Li6 Mn6 F24'
_cell_volume   460.25308054
_cell_formula_units_Z   6
loop_
 _symmetry_equiv_pos_site_id
 _symmetry_equiv_pos_as_xyz
  1  'x, y, z'
loop_
 _atom_site_type_symbol
 _atom_site_label
 _atom_site_symmetry_multiplicity
 _atom_site_fract_x
 _atom_site_fract_y
 _atom_site_fract_z
 _atom_site_occupancy
  Li  Li0  1  0.32946800  0.32946800  0.00000000  1
  Li  Li1  1  0.32946800  0.32946800  0.50000000  1
  Li  Li2  1  0.82640400  0.17359600  0.25000000  1
  Li  Li3  1  0.17359600  0.82640400  0.75000000  1
  Li  Li4  1  0.67053200  0.67053200  0.50000000  1
  Li  Li5  1  0.67053200  0.67053200  0.00000000  1
  Mn  Mn6  1  0.14743600  0.85256400  0.07167400  1
  Mn  Mn7  1  0.14743600  0.85256400  0.42832600  1
  Mn  Mn8  1  0.57335600  0.42664400  0.75000000  1
  Mn  Mn9  1  0.85256400  0.14743600  0.92832600  1
  Mn  Mn10  1  0.85256400  0.14743600  0.57167400  1
  Mn  Mn11  1  0.42664400  0.57335600  0.25000000  1
  F  F12  1  0.34877800  0.06612000  0.07336400  1
  F  F13  1  0.34877800  0.06612000  0.42663600  1
  F  F14  1  0.06612000  0.34877800  0.92663600  1
  F  F15  1  0.06612000  0.34877800  0.57336400  1
  F  F16  1  0.21227600  0.37126200  0.25000000  1
  F  F17  1  0.37126200  0.21227600  0.75000000  1
  F  F18  1  0.07679800  0.92320200  0.59816900  1
  F  F19  1  0.62967500  0.37032500  0.25000000  1
  F  F20  1  0.07679800  0.92320200  0.90183100  1
  F  F21  1  0.20350600  0.79649400  0.25000000  1
  F  F22  1  0.37032500  0.62967500  0.75000000  1
  F  F23  1  0.92320200  0.07679800  0.09816900  1
  F  F24  1  0.79649400  0.20350600  0.75000000  1
  F  F25  1  0.62655400  0.37344600  0.56025500  1
  F  F26  1  0.37344600  0.62655400  0.06025500  1
  F  F27  1  0.92320200  0.07679800  0.40183100  1
  F  F28  1  0.37344600  0.62655400  0.43974500  1
  F  F29  1  0.62655400  0.37344600  0.93974500  1
  F  F30  1  0.62873800  0.78772400  0.25000000  1
  F  F31  1  0.78772400  0.62873800  0.75000000  1
  F  F32  1  0.65122200  0.93388000  0.57336400  1
  F  F33  1  0.65122200  0.93388000  0.92663600  1
  F  F34  1  0.93388000  0.65122200  0.07336400  1
  F  F35  1  0.93388000  0.65122200  0.42663600  1
