# generated using pymatgen
data_Li4Ti2Mn3O10
_symmetry_space_group_name_H-M   'P 1'
_cell_length_a   5.26261566
_cell_length_b   7.97895216
_cell_length_c   10.39361709
_cell_angle_alpha   106.21796437
_cell_angle_beta   101.93129426
_cell_angle_gamma   72.26295025
_symmetry_Int_Tables_number   1
_chemical_formula_structural   Li4Ti2Mn3O10
_chemical_formula_sum   'Li8 Ti4 Mn6 O20'
_cell_volume   395.59527174
_cell_formula_units_Z   2
loop_
 _symmetry_equiv_pos_site_id
 _symmetry_equiv_pos_as_xyz
  1  'x, y, z'
loop_
 _atom_site_type_symbol
 _atom_site_label
 _atom_site_symmetry_multiplicity
 _atom_site_fract_x
 _atom_site_fract_y
 _atom_site_fract_z
 _atom_site_occupancy
  Li  Li0  1  0.48052800  0.39777400  0.12051700  1
  Li  Li1  1  0.48054900  0.39763100  0.62047000  1
  Li  Li2  1  0.51951100  0.60218700  0.37948800  1
  Li  Li3  1  0.51943500  0.60234500  0.87952700  1
  Li  Li4  1  0.57517000  0.75094500  0.19096400  1
  Li  Li5  1  0.57517700  0.75085700  0.69101400  1
  Li  Li6  1  0.42491600  0.24905100  0.30906200  1
  Li  Li7  1  0.42484000  0.24914200  0.80898600  1
  Ti  Ti8  1  0.05153300  0.67578000  0.04308400  1
  Ti  Ti9  1  0.05165800  0.67565600  0.54306900  1
  Ti  Ti10  1  0.94850000  0.32423300  0.45692700  1
  Ti  Ti11  1  0.94835400  0.32435800  0.95696100  1
  Mn  Mn12  1  0.50007700  0.99989900  0.49991500  1
  Mn  Mn13  1  0.98564400  0.11781700  0.16197400  1
  Mn  Mn14  1  0.01425500  0.88217700  0.83802800  1
  Mn  Mn15  1  0.49992400  0.00013400  0.00001200  1
  Mn  Mn16  1  0.98566300  0.11786100  0.66196700  1
  Mn  Mn17  1  0.01433700  0.88216500  0.33801000  1
  O  O18  1  0.24648100  0.82577600  0.99916500  1
  O  O19  1  0.24662200  0.82566000  0.49917100  1
  O  O20  1  0.75347600  0.17424400  0.50082700  1
  O  O21  1  0.75340400  0.17428800  0.00081300  1
  O  O22  1  0.78055000  0.55263900  0.05422900  1
  O  O23  1  0.78069000  0.55256000  0.55423900  1
  O  O24  1  0.21945000  0.44736800  0.44580400  1
  O  O25  1  0.21931500  0.44743400  0.94578400  1
  O  O26  1  0.80060000  0.92648800  0.16788800  1
  O  O27  1  0.80064300  0.92643000  0.66784800  1
  O  O28  1  0.19939300  0.07348500  0.33209600  1
  O  O29  1  0.19930300  0.07360200  0.83214300  1
  O  O30  1  0.22870600  0.22432000  0.11488700  1
  O  O31  1  0.22897400  0.22413600  0.61479300  1
  O  O32  1  0.77129200  0.77565600  0.38511200  1
  O  O33  1  0.77101100  0.77586400  0.88519100  1
  O  O34  1  0.27090100  0.66329000  0.20611100  1
  O  O35  1  0.27088400  0.66325700  0.70614000  1
  O  O36  1  0.72913700  0.33671600  0.29388800  1
  O  O37  1  0.72909400  0.33677800  0.79388700  1
