# generated using pymatgen
data_Li4Mn3V3(SnO8)2
_symmetry_space_group_name_H-M   'P 1'
_cell_length_a   6.08718791
_cell_length_b   5.91320113
_cell_length_c   9.84968411
_cell_angle_alpha   89.40280790
_cell_angle_beta   91.77643518
_cell_angle_gamma   119.90222926
_symmetry_Int_Tables_number   1
_chemical_formula_structural   Li4Mn3V3(SnO8)2
_chemical_formula_sum   'Li4 Mn3 V3 Sn2 O16'
_cell_volume   307.18727644
_cell_formula_units_Z   1
loop_
 _symmetry_equiv_pos_site_id
 _symmetry_equiv_pos_as_xyz
  1  'x, y, z'
loop_
 _atom_site_type_symbol
 _atom_site_label
 _atom_site_symmetry_multiplicity
 _atom_site_fract_x
 _atom_site_fract_y
 _atom_site_fract_z
 _atom_site_occupancy
  Li  Li0  1  0.31492700  0.65833100  0.89697100  1
  Li  Li1  1  0.99956800  0.99085900  0.99150400  1
  Li  Li2  1  0.01525400  0.01223300  0.49172300  1
  Li  Li3  1  0.66597800  0.33754400  0.39894200  1
  Mn  Mn4  1  0.66469600  0.83468800  0.21326000  1
  Mn  Mn5  1  0.83149900  0.66424200  0.71305600  1
  Mn  Mn6  1  0.82500800  0.16658800  0.71441400  1
  V  V7  1  0.16522500  0.82032200  0.21378000  1
  V  V8  1  0.17306500  0.33984300  0.21460600  1
  V  V9  1  0.33746700  0.17523700  0.71564100  1
  Sn  Sn10  1  0.35013200  0.68120200  0.48883100  1
  Sn  Sn11  1  0.65466700  0.31534200  0.99086300  1
  O  O12  1  0.19873000  0.86933000  0.60213700  1
  O  O13  1  0.03545400  0.52844200  0.33741700  1
  O  O14  1  0.33884100  0.67946100  0.10976500  1
  O  O15  1  0.99862600  0.99052800  0.30486400  1
  O  O16  1  0.99770800  0.00016800  0.80408800  1
  O  O17  1  0.18652700  0.33960000  0.59743800  1
  O  O18  1  0.46434400  0.97454500  0.34320200  1
  O  O19  1  0.48444000  0.52320700  0.33600200  1
  O  O20  1  0.31944100  0.14628200  0.10420800  1
  O  O21  1  0.69874700  0.85078500  0.59456500  1
  O  O22  1  0.48113400  0.45382800  0.84137700  1
  O  O23  1  0.49074600  0.02073900  0.84468100  1
  O  O24  1  0.66561800  0.33568600  0.61314800  1
  O  O25  1  0.85176900  0.66358600  0.09546400  1
  O  O26  1  0.94864700  0.47535600  0.83859500  1
  O  O27  1  0.84174400  0.15232800  0.09730100  1
