# generated using pymatgen
data_Li2MnV(PO4)3
_symmetry_space_group_name_H-M   'P 1'
_cell_length_a   9.00182275
_cell_length_b   8.55351932
_cell_length_c   8.33140226
_cell_angle_alpha   59.40956204
_cell_angle_beta   63.77084722
_cell_angle_gamma   92.56038725
_symmetry_Int_Tables_number   1
_chemical_formula_structural   Li2MnV(PO4)3
_chemical_formula_sum   'Li4 Mn2 V2 P6 O24'
_cell_volume   464.18811788
_cell_formula_units_Z   2
loop_
 _symmetry_equiv_pos_site_id
 _symmetry_equiv_pos_as_xyz
  1  'x, y, z'
loop_
 _atom_site_type_symbol
 _atom_site_label
 _atom_site_symmetry_multiplicity
 _atom_site_fract_x
 _atom_site_fract_y
 _atom_site_fract_z
 _atom_site_occupancy
  Li  Li0  1  0.37063915  0.20975600  0.37005771  1
  Li  Li1  1  0.86967857  0.69153122  0.04004350  1
  Li  Li2  1  0.86886152  0.92641902  0.40046297  1
  Li  Li3  1  0.86568939  0.25925332  0.81402634  1
  Mn  Mn4  1  0.05201310  0.35692717  0.29856996  1
  Mn  Mn5  1  0.95830306  0.64444758  0.69557074  1
  V  V6  1  0.55940245  0.84731175  0.29583212  1
  V  V7  1  0.43393195  0.14047813  0.71845500  1
  P  P8  1  0.25525295  0.03398508  0.21191271  1
  P  P9  1  0.24563968  0.45210722  0.50563220  1
  P  P10  1  0.25107273  0.74923929  0.78642842  1
  P  P11  1  0.75431677  0.24721340  0.21468491  1
  P  P12  1  0.75375615  0.54165159  0.49168028  1
  P  P13  1  0.74851025  0.96878679  0.78206420  1
  O  O14  1  0.08915357  0.84278350  0.38009400  1
  O  O15  1  0.27453724  0.11013328  0.98863763  1
  O  O16  1  0.22398716  0.17645557  0.27142219  1
  O  O17  1  0.21413325  0.48736092  0.32500487  1
  O  O18  1  0.09202797  0.44033846  0.69578113  1
  O  O19  1  0.09627320  0.77715509  0.74776097  1
  O  O20  1  0.42652532  0.99936580  0.19842808  1
  O  O21  1  0.29449302  0.26766579  0.58874930  1
  O  O22  1  0.41651346  0.62490344  0.38518715  1
  O  O23  1  0.20427868  0.54317861  0.97828659  1
  O  O24  1  0.28393456  0.90235825  0.82621746  1
  O  O25  1  0.42179365  0.80201038  0.57715986  1
  O  O26  1  0.57388836  0.19602713  0.41165147  1
  O  O27  1  0.73372717  0.11129766  0.14725689  1
  O  O28  1  0.80623256  0.46060710  0.02326545  1
  O  O29  1  0.57865314  0.37519650  0.61550898  1
  O  O30  1  0.72103461  0.73782872  0.40186348  1
  O  O31  1  0.57525677  0.00013520  0.80925831  1
  O  O32  1  0.89499613  0.20859060  0.27528977  1
  O  O33  1  0.89358409  0.54841831  0.29508057  1
  O  O34  1  0.80188948  0.49982389  0.66350263  1
  O  O35  1  0.79533982  0.83933912  0.70666186  1
  O  O36  1  0.73013758  0.87706187  0.01201670  1
  O  O37  1  0.89946245  0.17196226  0.62509658  1
