# generated using pymatgen
data_Li4Fe3Sn3(TeO8)2
_symmetry_space_group_name_H-M   'P 1'
_cell_length_a   6.27779357
_cell_length_b   6.27779357
_cell_length_c   10.14802100
_cell_angle_alpha   89.38862146
_cell_angle_beta   89.38862146
_cell_angle_gamma   59.57139573
_symmetry_Int_Tables_number   1
_chemical_formula_structural   Li4Fe3Sn3(TeO8)2
_chemical_formula_sum   'Li4 Fe3 Sn3 Te2 O16'
_cell_volume   344.82702982
_cell_formula_units_Z   1
loop_
 _symmetry_equiv_pos_site_id
 _symmetry_equiv_pos_as_xyz
  1  'x, y, z'
loop_
 _atom_site_type_symbol
 _atom_site_label
 _atom_site_symmetry_multiplicity
 _atom_site_fract_x
 _atom_site_fract_y
 _atom_site_fract_z
 _atom_site_occupancy
  Li  Li0  1  0.32651000  0.32651000  0.89833900  1
  Li  Li1  1  0.00295200  0.00295200  0.98989400  1
  Li  Li2  1  0.00123600  0.00123600  0.49609300  1
  Li  Li3  1  0.66483200  0.66483200  0.40667300  1
  Fe  Fe4  1  0.16535100  0.16535100  0.20998300  1
  Fe  Fe5  1  0.33458200  0.82759000  0.71146000  1
  Fe  Fe6  1  0.82759000  0.33458200  0.71146000  1
  Sn  Sn7  1  0.16866000  0.65996300  0.21487000  1
  Sn  Sn8  1  0.65996300  0.16866000  0.21487000  1
  Sn  Sn9  1  0.82977800  0.82977800  0.71476800  1
  Te  Te10  1  0.32057200  0.32057200  0.48897500  1
  Te  Te11  1  0.65010200  0.65010200  0.98195600  1
  O  O12  1  0.15822300  0.69018100  0.60540100  1
  O  O13  1  0.48596400  0.48596400  0.33313900  1
  O  O14  1  0.33576200  0.33576200  0.10523500  1
  O  O15  1  0.99677700  0.99677700  0.31590800  1
  O  O16  1  0.00176600  0.00176600  0.80937900  1
  O  O17  1  0.69018100  0.15822300  0.60540100  1
  O  O18  1  0.04072700  0.48163200  0.34867500  1
  O  O19  1  0.48163200  0.04072700  0.34867500  1
  O  O20  1  0.84665700  0.84665700  0.10416300  1
  O  O21  1  0.15577900  0.15577900  0.59427100  1
  O  O22  1  0.50743600  0.96061200  0.83160600  1
  O  O23  1  0.96061200  0.50743600  0.83160600  1
  O  O24  1  0.66169400  0.66169400  0.60977200  1
  O  O25  1  0.31720000  0.82502200  0.09157700  1
  O  O26  1  0.51623300  0.51623300  0.84334300  1
  O  O27  1  0.82502200  0.31720000  0.09157700  1
