# generated using pymatgen
data_Li4Bi2C4SO16
_symmetry_space_group_name_H-M   'P 1'
_cell_length_a   10.29571136
_cell_length_b   10.05380480
_cell_length_c   9.59276912
_cell_angle_alpha   63.15678721
_cell_angle_beta   60.60789405
_cell_angle_gamma   56.23531874
_symmetry_Int_Tables_number   1
_chemical_formula_structural   Li4Bi2C4SO16
_chemical_formula_sum   'Li8 Bi4 C8 S2 O32'
_cell_volume   696.96635817
_cell_formula_units_Z   2
loop_
 _symmetry_equiv_pos_site_id
 _symmetry_equiv_pos_as_xyz
  1  'x, y, z'
loop_
 _atom_site_type_symbol
 _atom_site_label
 _atom_site_symmetry_multiplicity
 _atom_site_fract_x
 _atom_site_fract_y
 _atom_site_fract_z
 _atom_site_occupancy
  Li  Li0  1  0.93993700  0.56006300  0.93993700  1
  Li  Li1  1  0.94785500  0.55214500  0.55214500  1
  Li  Li2  1  0.69785500  0.30214500  0.30214500  1
  Li  Li3  1  0.68993700  0.31006300  0.68993700  1
  Li  Li4  1  0.56006300  0.93993700  0.56006300  1
  Li  Li5  1  0.55214500  0.94785500  0.94785500  1
  Li  Li6  1  0.30214500  0.69785500  0.69785500  1
  Li  Li7  1  0.31006300  0.68993700  0.31006300  1
  Bi  Bi8  1  0.12500000  0.62500000  0.12500000  1
  Bi  Bi9  1  0.62500000  0.12500000  0.12500000  1
  Bi  Bi10  1  0.12500000  0.12500000  0.12500000  1
  Bi  Bi11  1  0.12500000  0.12500000  0.62500000  1
  C  C12  1  0.87468100  0.30587900  0.91698600  1
  C  C13  1  0.94412100  0.37531900  0.34754500  1
  C  C14  1  0.91698600  0.90245500  0.87468100  1
  C  C15  1  0.90245500  0.91698600  0.30587900  1
  C  C16  1  0.34754500  0.33301400  0.94412100  1
  C  C17  1  0.33301400  0.34754500  0.37531900  1
  C  C18  1  0.30587900  0.87468100  0.90245500  1
  C  C19  1  0.37531900  0.94412100  0.33301400  1
  S  S20  1  0.50000000  0.50000000  0.50000000  1
  S  S21  1  0.75000000  0.75000000  0.75000000  1
  O  O22  1  0.99864400  0.31254800  0.91452900  1
  O  O23  1  0.55706600  0.55038000  0.31534400  1
  O  O24  1  0.75633400  0.29332700  0.05332800  1
  O  O25  1  0.95667300  0.49366600  0.35299000  1
  O  O26  1  0.05332800  0.89701000  0.75633400  1
  O  O27  1  0.94280700  0.37548600  0.21215500  1
  O  O28  1  0.31534400  0.57720900  0.55706600  1
  O  O29  1  0.55038000  0.55706600  0.57720900  1
  O  O30  1  0.46955100  0.21215500  0.37548600  1
  O  O31  1  0.89701000  0.05332800  0.29332700  1
  O  O32  1  0.93745200  0.25135600  0.47572100  1
  O  O33  1  0.57720900  0.31534400  0.55038000  1
  O  O34  1  0.91452900  0.77427900  0.99864400  1
  O  O35  1  0.77427900  0.91452900  0.31254800  1
  O  O36  1  0.87451400  0.30719300  0.78044900  1
  O  O37  1  0.21215500  0.46955100  0.94280700  1
  O  O38  1  0.03784500  0.78044900  0.30719300  1
  O  O39  1  0.37548600  0.94280700  0.46955100  1
  O  O40  1  0.47572100  0.33547100  0.93745200  1
  O  O41  1  0.33547100  0.47572100  0.25135600  1
  O  O42  1  0.67279100  0.93465600  0.69962000  1
  O  O43  1  0.31254800  0.99864400  0.77427900  1
  O  O44  1  0.35299000  0.19667200  0.95667300  1
  O  O45  1  0.78044900  0.03784500  0.87451400  1
  O  O46  1  0.69962000  0.69293400  0.67279100  1
  O  O47  1  0.93465600  0.67279100  0.69293400  1
  O  O48  1  0.30719300  0.87451400  0.03784500  1
  O  O49  1  0.19667200  0.35299000  0.49366600  1
  O  O50  1  0.29332700  0.75633400  0.89701000  1
  O  O51  1  0.49366600  0.95667300  0.19667200  1
  O  O52  1  0.69293400  0.69962000  0.93465600  1
  O  O53  1  0.25135600  0.93745200  0.33547100  1
