# generated using pymatgen
data_Li2Bi2B2O7
_symmetry_space_group_name_H-M   'P 1'
_cell_length_a   8.60232383
_cell_length_b   8.60232383
_cell_length_c   7.77646231
_cell_angle_alpha   89.48537968
_cell_angle_beta   89.48537968
_cell_angle_gamma   61.63678083
_symmetry_Int_Tables_number   1
_chemical_formula_structural   Li2Bi2B2O7
_chemical_formula_sum   'Li6 Bi6 B6 O21'
_cell_volume   506.34872780
_cell_formula_units_Z   3
loop_
 _symmetry_equiv_pos_site_id
 _symmetry_equiv_pos_as_xyz
  1  'x, y, z'
loop_
 _atom_site_type_symbol
 _atom_site_label
 _atom_site_symmetry_multiplicity
 _atom_site_fract_x
 _atom_site_fract_y
 _atom_site_fract_z
 _atom_site_occupancy
  Li  Li0  1  0.33447300  0.32896800  0.27412000  1
  Li  Li1  1  0.01602700  0.98942400  0.25429700  1
  Li  Li2  1  0.01057600  0.98397300  0.74570300  1
  Li  Li3  1  0.31485900  0.34459900  0.80827900  1
  Li  Li4  1  0.67103200  0.66552700  0.72588000  1
  Li  Li5  1  0.65540100  0.68514100  0.19172100  1
  Bi  Bi6  1  0.62094600  0.06225600  0.99440000  1
  Bi  Bi7  1  0.74005700  0.98961100  0.49664600  1
  Bi  Bi8  1  0.93774400  0.37905400  0.00560000  1
  Bi  Bi9  1  0.01038900  0.25994300  0.50335400  1
  Bi  Bi10  1  0.30861300  0.69138700  0.50000000  1
  Bi  Bi11  1  0.40499100  0.59500900  0.00000000  1
  B  B12  1  0.33812300  0.00199600  0.74117600  1
  B  B13  1  0.64612400  0.34807600  0.69893700  1
  B  B14  1  0.00678100  0.66248200  0.76140200  1
  B  B15  1  0.99800400  0.66187700  0.25882400  1
  B  B16  1  0.65192400  0.35387600  0.30106300  1
  B  B17  1  0.33751800  0.99321900  0.23859800  1
  O  O18  1  0.73127700  0.17220000  0.75893700  1
  O  O19  1  0.43159500  0.08723900  0.80001300  1
  O  O20  1  0.57787400  0.25806400  0.37364400  1
  O  O21  1  0.15428700  0.10093200  0.74535400  1
  O  O22  1  0.23645800  0.16541100  0.29293000  1
  O  O23  1  0.46344200  0.45361400  0.71769300  1
  O  O24  1  0.42556200  0.33239700  0.04149900  1
  O  O25  1  0.98441500  0.01558500  0.50000000  1
  O  O26  1  0.06422500  0.48778100  0.81368300  1
  O  O27  1  0.16662400  0.57434200  0.32263900  1
  O  O28  1  0.82780000  0.26872300  0.24106300  1
  O  O29  1  0.91276100  0.56840500  0.19998700  1
  O  O30  1  0.74193600  0.42212600  0.62635600  1
  O  O31  1  0.12420100  0.73146500  0.76310600  1
  O  O32  1  0.89906800  0.84571300  0.25464600  1
  O  O33  1  0.83458900  0.76354200  0.70707000  1
  O  O34  1  0.54638600  0.53655800  0.28230700  1
  O  O35  1  0.66760300  0.57443800  0.95850100  1
  O  O36  1  0.51221900  0.93577500  0.18631700  1
  O  O37  1  0.42565800  0.83337600  0.67736100  1
  O  O38  1  0.26853500  0.87579900  0.23689400  1
