# generated using pymatgen
data_Li2Mn(SiO3)2
_symmetry_space_group_name_H-M   'P 1'
_cell_length_a   7.20112400
_cell_length_b   10.14167900
_cell_length_c   10.27872600
_cell_angle_alpha   90.00000000
_cell_angle_beta   90.00000000
_cell_angle_gamma   90.00000000
_symmetry_Int_Tables_number   1
_chemical_formula_structural   Li2Mn(SiO3)2
_chemical_formula_sum   'Li12 Mn6 Si12 O36'
_cell_volume   750.67065501
_cell_formula_units_Z   6
loop_
 _symmetry_equiv_pos_site_id
 _symmetry_equiv_pos_as_xyz
  1  'x, y, z'
loop_
 _atom_site_type_symbol
 _atom_site_label
 _atom_site_symmetry_multiplicity
 _atom_site_fract_x
 _atom_site_fract_y
 _atom_site_fract_z
 _atom_site_occupancy
  Li  Li0  1  0.50207600  0.50447000  0.00000000  1
  Li  Li1  1  0.27450500  0.26001500  0.00000000  1
  Li  Li2  1  0.70704000  0.54901000  0.78969100  1
  Li  Li3  1  0.25051700  0.49178100  0.77296100  1
  Li  Li4  1  0.74948300  0.99178100  0.72703900  1
  Li  Li5  1  0.29296000  0.04901000  0.71030900  1
  Li  Li6  1  0.72549500  0.76001500  0.50000000  1
  Li  Li7  1  0.49792400  0.00447000  0.50000000  1
  Li  Li8  1  0.29296000  0.04901000  0.28969100  1
  Li  Li9  1  0.74948300  0.99178100  0.27296100  1
  Li  Li10  1  0.25051700  0.49178100  0.22703900  1
  Li  Li11  1  0.70704000  0.54901000  0.21030900  1
  Mn  Mn12  1  0.01731000  0.99510600  0.00000000  1
  Mn  Mn13  1  0.75031100  0.75808700  0.00000000  1
  Mn  Mn14  1  0.26444900  0.74436900  0.00000000  1
  Mn  Mn15  1  0.98269000  0.49510600  0.50000000  1
  Mn  Mn16  1  0.73555100  0.24436900  0.50000000  1
  Mn  Mn17  1  0.24968900  0.25808700  0.50000000  1
  Si  Si18  1  0.00693100  0.46562500  0.00000000  1
  Si  Si19  1  0.49151100  0.04002600  0.00000000  1
  Si  Si20  1  0.97834200  0.24576100  0.77338800  1
  Si  Si21  1  0.53106200  0.25499200  0.77689400  1
  Si  Si22  1  0.46893800  0.75499200  0.72310600  1
  Si  Si23  1  0.02165800  0.74576100  0.72661200  1
  Si  Si24  1  0.50848900  0.54002600  0.50000000  1
  Si  Si25  1  0.99306900  0.96562500  0.50000000  1
  Si  Si26  1  0.02165800  0.74576100  0.27338800  1
  Si  Si27  1  0.46893800  0.75499200  0.27689400  1
  Si  Si28  1  0.53106200  0.25499200  0.22310600  1
  Si  Si29  1  0.97834200  0.24576100  0.22661200  1
  O  O30  1  0.69999300  0.98137700  0.00000000  1
  O  O31  1  0.80485000  0.53321600  0.00000000  1
  O  O32  1  0.31749300  0.93829800  0.00000000  1
  O  O33  1  0.19747200  0.55230800  0.00000000  1
  O  O34  1  0.44290000  0.14397900  0.87867000  1
  O  O35  1  0.04481000  0.36636400  0.87334000  1
  O  O36  1  0.97894500  0.80120700  0.87132600  1
  O  O37  1  0.53814000  0.70408000  0.86513200  1
  O  O38  1  0.48033900  0.40207500  0.82477500  1
  O  O39  1  0.06990600  0.10817600  0.82096600  1
  O  O40  1  0.75356000  0.22012900  0.78209200  1
  O  O41  1  0.24644000  0.72012900  0.71790800  1
  O  O42  1  0.93009400  0.60817600  0.67903400  1
  O  O43  1  0.51966100  0.90207500  0.67522500  1
  O  O44  1  0.46186000  0.20408000  0.63486800  1
  O  O45  1  0.02105500  0.30120700  0.62867400  1
  O  O46  1  0.95519000  0.86636400  0.62666000  1
  O  O47  1  0.55710000  0.64397900  0.62133000  1
  O  O48  1  0.30000700  0.48137700  0.50000000  1
  O  O49  1  0.68250700  0.43829800  0.50000000  1
  O  O50  1  0.19515000  0.03321600  0.50000000  1
  O  O51  1  0.80252800  0.05230800  0.50000000  1
  O  O52  1  0.55710000  0.64397900  0.37867000  1
  O  O53  1  0.95519000  0.86636400  0.37334000  1
  O  O54  1  0.02105500  0.30120700  0.37132600  1
  O  O55  1  0.46186000  0.20408000  0.36513200  1
  O  O56  1  0.51966100  0.90207500  0.32477500  1
  O  O57  1  0.93009400  0.60817600  0.32096600  1
  O  O58  1  0.24644000  0.72012900  0.28209200  1
  O  O59  1  0.75356000  0.22012900  0.21790800  1
  O  O60  1  0.06990600  0.10817600  0.17903400  1
  O  O61  1  0.48033900  0.40207500  0.17522500  1
  O  O62  1  0.53814000  0.70408000  0.13486800  1
  O  O63  1  0.97894500  0.80120700  0.12867400  1
  O  O64  1  0.04481000  0.36636400  0.12666000  1
  O  O65  1  0.44290000  0.14397900  0.12133000  1
