# generated using pymatgen
data_LiNi6O7
_symmetry_space_group_name_H-M   'P 1'
_cell_length_a   5.11708100
_cell_length_b   5.91005776
_cell_length_c   8.86480571
_cell_angle_alpha   89.96496609
_cell_angle_beta   95.49226684
_cell_angle_gamma   106.82411743
_symmetry_Int_Tables_number   1
_chemical_formula_structural   LiNi6O7
_chemical_formula_sum   'Li2 Ni12 O14'
_cell_volume   255.33532929
_cell_formula_units_Z   2
loop_
 _symmetry_equiv_pos_site_id
 _symmetry_equiv_pos_as_xyz
  1  'x, y, z'
loop_
 _atom_site_type_symbol
 _atom_site_label
 _atom_site_symmetry_multiplicity
 _atom_site_fract_x
 _atom_site_fract_y
 _atom_site_fract_z
 _atom_site_occupancy
  Li  Li0  1  0.64246000  0.28547100  0.78585900  1
  Li  Li1  1  0.35754000  0.71452900  0.21414100  1
  Ni  Ni2  1  0.78527700  0.57122900  0.07121200  1
  Ni  Ni3  1  0.78169500  0.07042700  0.07054700  1
  Ni  Ni4  1  0.64354300  0.78620700  0.78595700  1
  Ni  Ni5  1  0.35645700  0.21379300  0.21404300  1
  Ni  Ni6  1  0.50000000  0.50000000  0.50000000  1
  Ni  Ni7  1  0.50000000  0.00000000  0.50000000  1
  Ni  Ni8  1  0.21472300  0.42877100  0.92878800  1
  Ni  Ni9  1  0.21830500  0.92957300  0.92945300  1
  Ni  Ni10  1  0.06872500  0.63991100  0.64426400  1
  Ni  Ni11  1  0.07339800  0.14554900  0.64528700  1
  Ni  Ni12  1  0.93127500  0.36008900  0.35573600  1
  Ni  Ni13  1  0.92660200  0.85445100  0.35471300  1
  O  O14  1  0.93797800  0.10395700  0.85803600  1
  O  O15  1  0.64757400  0.53254100  0.28709300  1
  O  O16  1  0.64799800  0.04189800  0.28910700  1
  O  O17  1  0.78521100  0.82229500  0.57114300  1
  O  O18  1  0.78705500  0.32044700  0.56658800  1
  O  O19  1  0.50339700  0.74970900  0.99468900  1
  O  O20  1  0.49660300  0.25029100  0.00531100  1
  O  O21  1  0.35242600  0.46745900  0.71290700  1
  O  O22  1  0.35200200  0.95810200  0.71089300  1
  O  O23  1  0.06372500  0.38537300  0.13922600  1
  O  O24  1  0.06202200  0.89604300  0.14196400  1
  O  O25  1  0.21294500  0.67955300  0.43341200  1
  O  O26  1  0.21478900  0.17770500  0.42885700  1
  O  O27  1  0.93627500  0.61462700  0.86077400  1
