# generated using pymatgen
data_Li9V5(SiO8)2
_symmetry_space_group_name_H-M   'P 1'
_cell_length_a   5.10471800
_cell_length_b   5.11518572
_cell_length_c   11.31757540
_cell_angle_alpha   80.90081106
_cell_angle_beta   85.31680956
_cell_angle_gamma   80.34115030
_symmetry_Int_Tables_number   1
_chemical_formula_structural   Li9V5(SiO8)2
_chemical_formula_sum   'Li9 V5 Si2 O16'
_cell_volume   287.20304094
_cell_formula_units_Z   1
loop_
 _symmetry_equiv_pos_site_id
 _symmetry_equiv_pos_as_xyz
  1  'x, y, z'
loop_
 _atom_site_type_symbol
 _atom_site_label
 _atom_site_symmetry_multiplicity
 _atom_site_fract_x
 _atom_site_fract_y
 _atom_site_fract_z
 _atom_site_occupancy
  Li  Li0  1  0.74714600  0.92724600  0.55951100  1
  Li  Li1  1  0.24120200  0.81619100  0.67645100  1
  Li  Li2  1  0.74736900  0.68432000  0.80762000  1
  Li  Li3  1  0.25290700  0.56434700  0.94076700  1
  Li  Li4  1  0.74709300  0.43565300  0.05923300  1
  Li  Li5  1  0.25263100  0.31568000  0.19238000  1
  Li  Li6  1  0.75879800  0.18380900  0.32354900  1
  Li  Li7  1  0.25285400  0.07275400  0.44048900  1
  Li  Li8  1  0.50000000  0.50000000  0.50000000  1
  V  V9  1  0.49737700  0.26171000  0.73738700  1
  V  V10  1  0.00148800  0.13056400  0.86772900  1
  V  V11  1  0.50000000  0.00000000  0.00000000  1
  V  V12  1  0.99851200  0.86943600  0.13227100  1
  V  V13  1  0.50262300  0.73829000  0.26261300  1
  Si  Si14  1  0.99634500  0.38023800  0.61598800  1
  Si  Si15  1  0.00365500  0.61976200  0.38401200  1
  O  O16  1  0.66485500  0.56241900  0.65162300  1
  O  O17  1  0.32999500  0.18352100  0.59864500  1
  O  O18  1  0.37339100  0.92603200  0.84395400  1
  O  O19  1  0.88325500  0.08003000  0.70029800  1
  O  O20  1  0.10849900  0.45934200  0.75863500  1
  O  O21  1  0.87269700  0.80121200  0.96719900  1
  O  O22  1  0.62989000  0.33154200  0.89681900  1
  O  O23  1  0.12730300  0.19878800  0.03280100  1
  O  O24  1  0.37011000  0.66845800  0.10318100  1
  O  O25  1  0.89150100  0.54065800  0.24136500  1
  O  O26  1  0.62660900  0.07396800  0.15604600  1
  O  O27  1  0.33514500  0.43758100  0.34837700  1
  O  O28  1  0.67000500  0.81647900  0.40135500  1
  O  O29  1  0.11674500  0.91997000  0.29970200  1
  O  O30  1  0.09895500  0.67868800  0.52728600  1
  O  O31  1  0.90104500  0.32131200  0.47271400  1
