# generated using pymatgen
data_LiZnAsH2O5
_symmetry_space_group_name_H-M   'P 1'
_cell_length_a   5.21551300
_cell_length_b   8.46595700
_cell_length_c   11.08621200
_cell_angle_alpha   90.00000000
_cell_angle_beta   90.00000000
_cell_angle_gamma   90.00000000
_symmetry_Int_Tables_number   1
_chemical_formula_structural   LiZnAsH2O5
_chemical_formula_sum   'Li4 Zn4 As4 H8 O20'
_cell_volume   489.50402797
_cell_formula_units_Z   4
loop_
 _symmetry_equiv_pos_site_id
 _symmetry_equiv_pos_as_xyz
  1  'x, y, z'
loop_
 _atom_site_type_symbol
 _atom_site_label
 _atom_site_symmetry_multiplicity
 _atom_site_fract_x
 _atom_site_fract_y
 _atom_site_fract_z
 _atom_site_occupancy
  Li  Li0  1  0.26413100  0.67531400  0.18021900  1
  Li  Li1  1  0.76413100  0.17531400  0.31978100  1
  Li  Li2  1  0.26413100  0.82468600  0.68021900  1
  Li  Li3  1  0.76413100  0.32468600  0.81978100  1
  Zn  Zn4  1  0.76284600  0.86885200  0.12373800  1
  Zn  Zn5  1  0.26284600  0.36885200  0.37626200  1
  Zn  Zn6  1  0.76284600  0.63114800  0.62373800  1
  Zn  Zn7  1  0.26284600  0.13114800  0.87626200  1
  As  As8  1  0.25770900  0.07900600  0.17085300  1
  As  As9  1  0.75770900  0.57900600  0.32914700  1
  As  As10  1  0.25770900  0.42099400  0.67085300  1
  As  As11  1  0.75770900  0.92099400  0.82914700  1
  H  H12  1  0.59257400  0.45116500  0.01644600  1
  H  H13  1  0.82195800  0.33136900  0.04115100  1
  H  H14  1  0.32195800  0.83136900  0.45884900  1
  H  H15  1  0.09257400  0.95116500  0.48355400  1
  H  H16  1  0.59257400  0.04883500  0.51644600  1
  H  H17  1  0.82195800  0.16863100  0.54115100  1
  H  H18  1  0.32195800  0.66863100  0.95884900  1
  H  H19  1  0.09257400  0.54883500  0.98355400  1
  O  O20  1  0.25623400  0.58837000  0.01488100  1
  O  O21  1  0.17079000  0.18086600  0.04341500  1
  O  O22  1  0.12699000  0.89122100  0.16831600  1
  O  O23  1  0.58491600  0.05977300  0.18962200  1
  O  O24  1  0.63228600  0.67757700  0.20727000  1
  O  O25  1  0.13228600  0.17757700  0.29273000  1
  O  O26  1  0.08491600  0.55977300  0.31037800  1
  O  O27  1  0.62699000  0.39122100  0.33168400  1
  O  O28  1  0.67079000  0.68086600  0.45658500  1
  O  O29  1  0.75623400  0.08837000  0.48511900  1
  O  O30  1  0.25623400  0.91163000  0.51488100  1
  O  O31  1  0.17079000  0.31913400  0.54341500  1
  O  O32  1  0.12699000  0.60877900  0.66831600  1
  O  O33  1  0.58491600  0.44022700  0.68962200  1
  O  O34  1  0.63228600  0.82242300  0.70727000  1
  O  O35  1  0.13228600  0.32242300  0.79273000  1
  O  O36  1  0.08491600  0.94022700  0.81037800  1
  O  O37  1  0.62699000  0.10877900  0.83168400  1
  O  O38  1  0.67079000  0.81913400  0.95658500  1
  O  O39  1  0.75623400  0.41163000  0.98511900  1
