# generated using pymatgen
data_LiCoPO4
_symmetry_space_group_name_H-M   'P 1'
_cell_length_a   5.32417900
_cell_length_b   8.04472536
_cell_length_c   8.40958757
_cell_angle_alpha   105.02757649
_cell_angle_beta   90.00379645
_cell_angle_gamma   90.00186054
_symmetry_Int_Tables_number   1
_chemical_formula_structural   LiCoPO4
_chemical_formula_sum   'Li4 Co4 P4 O16'
_cell_volume   347.87745333
_cell_formula_units_Z   4
loop_
 _symmetry_equiv_pos_site_id
 _symmetry_equiv_pos_as_xyz
  1  'x, y, z'
loop_
 _atom_site_type_symbol
 _atom_site_label
 _atom_site_symmetry_multiplicity
 _atom_site_fract_x
 _atom_site_fract_y
 _atom_site_fract_z
 _atom_site_occupancy
  Li  Li0  1  0.34013700  0.86736600  0.20648600  1
  Li  Li1  1  0.65978600  0.86735500  0.70626800  1
  Li  Li2  1  0.83125600  0.36877900  0.39005900  1
  Li  Li3  1  0.16881800  0.36891200  0.89012100  1
  Co  Co4  1  0.15258800  0.97249000  0.57639000  1
  Co  Co5  1  0.33318500  0.49054700  0.27177800  1
  Co  Co6  1  0.84717200  0.97230100  0.07623500  1
  Co  Co7  1  0.66684500  0.49067000  0.77191900  1
  P  P8  1  0.66701800  0.25090600  0.01196800  1
  P  P9  1  0.33306400  0.25094500  0.51204300  1
  P  P10  1  0.82935200  0.73755700  0.32707000  1
  P  P11  1  0.17060900  0.73773300  0.82723600  1
  O  O12  1  0.17433300  0.87409000  0.99751900  1
  O  O13  1  0.82574900  0.87397300  0.49738200  1
  O  O14  1  0.39608700  0.32162500  0.05501000  1
  O  O15  1  0.60396600  0.32173100  0.55513500  1
  O  O16  1  0.70225900  0.81387000  0.19455700  1
  O  O17  1  0.29756700  0.81406800  0.69467800  1
  O  O18  1  0.11004000  0.69257700  0.27953500  1
  O  O19  1  0.88989600  0.69278000  0.77975700  1
  O  O20  1  0.80290600  0.22713300  0.16966600  1
  O  O21  1  0.19706800  0.22729200  0.66974200  1
  O  O22  1  0.67910400  0.57821100  0.34232500  1
  O  O23  1  0.32092500  0.57836100  0.84239300  1
  O  O24  1  0.18848800  0.37827800  0.43433000  1
  O  O25  1  0.81164300  0.37834600  0.93442700  1
  O  O26  1  0.32705400  0.06485400  0.39688900  1
  O  O27  1  0.67308500  0.06485400  0.89667900  1
