# generated using pymatgen
data_Li2MnBO4
_symmetry_space_group_name_H-M   'P 1'
_cell_length_a   4.96999000
_cell_length_b   6.02104200
_cell_length_c   10.23356400
_cell_angle_alpha   90.00000000
_cell_angle_beta   90.00000000
_cell_angle_gamma   90.00000000
_symmetry_Int_Tables_number   1
_chemical_formula_structural   Li2MnBO4
_chemical_formula_sum   'Li8 Mn4 B4 O16'
_cell_volume   306.23447554
_cell_formula_units_Z   4
loop_
 _symmetry_equiv_pos_site_id
 _symmetry_equiv_pos_as_xyz
  1  'x, y, z'
loop_
 _atom_site_type_symbol
 _atom_site_label
 _atom_site_symmetry_multiplicity
 _atom_site_fract_x
 _atom_site_fract_y
 _atom_site_fract_z
 _atom_site_occupancy
  Li  Li0  1  0.23794600  0.99281200  0.67555500  1
  Li  Li1  1  0.26205400  0.99281200  0.17555500  1
  Li  Li2  1  0.23794600  0.50718800  0.67555500  1
  Li  Li3  1  0.26205400  0.50718800  0.17555500  1
  Li  Li4  1  0.73794600  0.49281200  0.82444500  1
  Li  Li5  1  0.76205400  0.49281200  0.32444500  1
  Li  Li6  1  0.76205400  0.00718800  0.32444500  1
  Li  Li7  1  0.73794600  0.00718800  0.82444500  1
  Mn  Mn8  1  0.83033100  0.25000000  0.56680200  1
  Mn  Mn9  1  0.66966900  0.25000000  0.06680200  1
  Mn  Mn10  1  0.33033100  0.75000000  0.93319800  1
  Mn  Mn11  1  0.16966900  0.75000000  0.43319800  1
  B  B12  1  0.20313700  0.25000000  0.92801700  1
  B  B13  1  0.29686300  0.25000000  0.42801700  1
  B  B14  1  0.70313700  0.75000000  0.57198300  1
  B  B15  1  0.79686300  0.75000000  0.07198300  1
  O  O16  1  0.32080900  0.04795300  0.86173400  1
  O  O17  1  0.17919100  0.04795300  0.36173400  1
  O  O18  1  0.90928800  0.25000000  0.91794400  1
  O  O19  1  0.22039900  0.25000000  0.56932600  1
  O  O20  1  0.27960100  0.25000000  0.06932600  1
  O  O21  1  0.59071200  0.25000000  0.41794400  1
  O  O22  1  0.32080900  0.45204700  0.86173400  1
  O  O23  1  0.17919100  0.45204700  0.36173400  1
  O  O24  1  0.67919100  0.54795300  0.13826600  1
  O  O25  1  0.82080900  0.54795300  0.63826600  1
  O  O26  1  0.72039900  0.75000000  0.93067400  1
  O  O27  1  0.40928800  0.75000000  0.58205600  1
  O  O28  1  0.77960100  0.75000000  0.43067400  1
  O  O29  1  0.09071200  0.75000000  0.08205600  1
  O  O30  1  0.82080900  0.95204700  0.63826600  1
  O  O31  1  0.67919100  0.95204700  0.13826600  1
