# generated using pymatgen
data_Li4Y3VO8
_symmetry_space_group_name_H-M   'P 1'
_cell_length_a   5.89191501
_cell_length_b   5.89321197
_cell_length_c   24.84025511
_cell_angle_alpha   89.80201902
_cell_angle_beta   90.18899775
_cell_angle_gamma   63.47224913
_symmetry_Int_Tables_number   1
_chemical_formula_structural   Li4Y3VO8
_chemical_formula_sum   'Li16 Y12 V4 O32'
_cell_volume   771.68823626
_cell_formula_units_Z   4
loop_
 _symmetry_equiv_pos_site_id
 _symmetry_equiv_pos_as_xyz
  1  'x, y, z'
loop_
 _atom_site_type_symbol
 _atom_site_label
 _atom_site_symmetry_multiplicity
 _atom_site_fract_x
 _atom_site_fract_y
 _atom_site_fract_z
 _atom_site_occupancy
  Li  Li0  1  0.99846800  0.00441600  0.12531200  1
  Li  Li1  1  0.00097900  0.00200100  0.37508400  1
  Li  Li2  1  0.00436000  0.99909500  0.62567600  1
  Li  Li3  1  0.00147100  0.00235400  0.87579500  1
  Li  Li4  1  0.50333100  0.49880800  0.25006700  1
  Li  Li5  1  0.49897000  0.50328800  0.50010300  1
  Li  Li6  1  0.50064700  0.50305900  0.74998100  1
  Li  Li7  1  0.49974900  0.50300600  0.00001500  1
  Li  Li8  1  0.49851100  0.00047900  0.18674000  1
  Li  Li9  1  0.49867700  0.99837500  0.43698000  1
  Li  Li10  1  0.49530800  0.99512000  0.68643700  1
  Li  Li11  1  0.49526200  0.99740900  0.93627600  1
  Li  Li12  1  0.99655100  0.49667000  0.06326200  1
  Li  Li13  1  0.99851900  0.49909400  0.31357100  1
  Li  Li14  1  0.00110400  0.49871200  0.56335200  1
  Li  Li15  1  0.99703300  0.49563500  0.81305000  1
  Y  Y16  1  0.49696500  0.50226200  0.12494200  1
  Y  Y17  1  0.49984300  0.50036800  0.37503000  1
  Y  Y18  1  0.50348800  0.49599200  0.62498200  1
  Y  Y19  1  0.50079500  0.49938100  0.87493900  1
  Y  Y20  1  0.99908200  0.50011800  0.18942700  1
  Y  Y21  1  0.00089800  0.50181300  0.43944700  1
  Y  Y22  1  0.00319100  0.50130300  0.68946700  1
  Y  Y23  1  0.00181500  0.50304200  0.93948600  1
  Y  Y24  1  0.49929900  0.00308000  0.06071400  1
  Y  Y25  1  0.50181900  0.00138100  0.31065200  1
  Y  Y26  1  0.50024900  0.99864300  0.56060600  1
  Y  Y27  1  0.50073400  0.00180100  0.81071300  1
  V  V28  1  0.99897400  0.00104400  0.50003100  1
  V  V29  1  0.99901000  0.99954300  0.75025400  1
  V  V30  1  0.99734200  0.00085700  0.00021500  1
  V  V31  1  0.00080200  0.99859000  0.24999000  1
  O  O32  1  0.72318500  0.72688000  0.12509300  1
  O  O33  1  0.72576600  0.72514700  0.37487200  1
  O  O34  1  0.72766000  0.72242800  0.62478700  1
  O  O35  1  0.72492200  0.72579000  0.87515800  1
  O  O36  1  0.27149700  0.27575100  0.12493600  1
  O  O37  1  0.27379800  0.27446800  0.37495200  1
  O  O38  1  0.27625300  0.27103600  0.62523500  1
  O  O39  1  0.27434300  0.27332900  0.87529000  1
  O  O40  1  0.20589900  0.21132500  0.00042700  1
  O  O41  1  0.21032000  0.20684800  0.24967600  1
  O  O42  1  0.20866100  0.20995100  0.50006200  1
  O  O43  1  0.20720700  0.21063800  0.75058700  1
  O  O44  1  0.78884300  0.79277600  0.00007600  1
  O  O45  1  0.79158900  0.78958100  0.25012700  1
  O  O46  1  0.78852500  0.79136300  0.49972100  1
  O  O47  1  0.78994700  0.79078600  0.75004000  1
  O  O48  1  0.76984400  0.26083100  0.19062200  1
  O  O49  1  0.77606200  0.25655100  0.44006600  1
  O  O50  1  0.77959400  0.25368400  0.69042100  1
  O  O51  1  0.77706600  0.25557200  0.94026900  1
  O  O52  1  0.22427100  0.74376100  0.18986600  1
  O  O53  1  0.23046600  0.73994200  0.44074300  1
  O  O54  1  0.23327000  0.73743600  0.68989900  1
  O  O55  1  0.23102700  0.73895600  0.93989500  1
  O  O56  1  0.25749700  0.77469400  0.05848400  1
  O  O57  1  0.25640800  0.77587400  0.30980000  1
  O  O58  1  0.26191700  0.76870800  0.55914100  1
  O  O59  1  0.25969700  0.77314000  0.80861100  1
  O  O60  1  0.73727600  0.23181400  0.05981900  1
  O  O61  1  0.73924400  0.23049300  0.30939800  1
  O  O62  1  0.74513000  0.22324200  0.55979800  1
  O  O63  1  0.73957400  0.23045800  0.80953400  1
