# generated using pymatgen
data_Li2Fe2P2O9
_symmetry_space_group_name_H-M   'P 1'
_cell_length_a   5.69516700
_cell_length_b   8.28923800
_cell_length_c   14.71886200
_cell_angle_alpha   90.00000000
_cell_angle_beta   90.00000000
_cell_angle_gamma   90.00000000
_symmetry_Int_Tables_number   1
_chemical_formula_structural   Li2Fe2P2O9
_chemical_formula_sum   'Li8 Fe8 P8 O36'
_cell_volume   694.85679079
_cell_formula_units_Z   4
loop_
 _symmetry_equiv_pos_site_id
 _symmetry_equiv_pos_as_xyz
  1  'x, y, z'
loop_
 _atom_site_type_symbol
 _atom_site_label
 _atom_site_symmetry_multiplicity
 _atom_site_fract_x
 _atom_site_fract_y
 _atom_site_fract_z
 _atom_site_occupancy
  Li  Li0  1  0.25000000  0.51821400  0.23214600  1
  Li  Li1  1  0.25000000  0.56793000  0.61992300  1
  Li  Li2  1  0.75000000  0.93207000  0.11992300  1
  Li  Li3  1  0.75000000  0.98178600  0.73214600  1
  Li  Li4  1  0.25000000  0.01821400  0.26785400  1
  Li  Li5  1  0.25000000  0.06793000  0.88007700  1
  Li  Li6  1  0.75000000  0.43207000  0.38007700  1
  Li  Li7  1  0.75000000  0.48178600  0.76785400  1
  Fe  Fe8  1  0.00000000  0.50000000  0.00000000  1
  Fe  Fe9  1  0.50000000  0.50000000  0.00000000  1
  Fe  Fe10  1  0.25000000  0.70385000  0.42435500  1
  Fe  Fe11  1  0.75000000  0.79615000  0.92435500  1
  Fe  Fe12  1  0.00000000  0.00000000  0.50000000  1
  Fe  Fe13  1  0.50000000  0.00000000  0.50000000  1
  Fe  Fe14  1  0.25000000  0.20385000  0.07564500  1
  Fe  Fe15  1  0.75000000  0.29615000  0.57564500  1
  P  P16  1  0.75000000  0.67154800  0.57350000  1
  P  P17  1  0.25000000  0.70596900  0.83123400  1
  P  P18  1  0.75000000  0.79403100  0.33123400  1
  P  P19  1  0.25000000  0.82845200  0.07350000  1
  P  P20  1  0.75000000  0.17154800  0.92650000  1
  P  P21  1  0.25000000  0.20596900  0.66876600  1
  P  P22  1  0.75000000  0.29403100  0.16876600  1
  P  P23  1  0.25000000  0.32845200  0.42650000  1
  O  O24  1  0.25000000  0.49183500  0.47955800  1
  O  O25  1  0.25000000  0.56849800  0.90820600  1
  O  O26  1  0.75000000  0.56048000  0.91529200  1
  O  O27  1  0.25000000  0.62228000  0.74161800  1
  O  O28  1  0.75000000  0.64974200  0.67555000  1
  O  O29  1  0.52980800  0.68235900  0.34685700  1
  O  O30  1  0.97019200  0.68235900  0.34685700  1
  O  O31  1  0.01805900  0.73737800  0.04256800  1
  O  O32  1  0.48194100  0.73737800  0.04256800  1
  O  O33  1  0.51805900  0.76262200  0.54256800  1
  O  O34  1  0.98194100  0.76262200  0.54256800  1
  O  O35  1  0.02980800  0.81764100  0.84685700  1
  O  O36  1  0.47019200  0.81764100  0.84685700  1
  O  O37  1  0.25000000  0.85025800  0.17555000  1
  O  O38  1  0.75000000  0.87772000  0.24161800  1
  O  O39  1  0.25000000  0.93952000  0.41529200  1
  O  O40  1  0.75000000  0.93150200  0.40820600  1
  O  O41  1  0.75000000  0.00816500  0.97955800  1
  O  O42  1  0.25000000  0.99183500  0.02044200  1
  O  O43  1  0.25000000  0.06849800  0.59179400  1
  O  O44  1  0.75000000  0.06048000  0.58470800  1
  O  O45  1  0.25000000  0.12228000  0.75838200  1
  O  O46  1  0.75000000  0.14974200  0.82445000  1
  O  O47  1  0.52980800  0.18235900  0.15314300  1
  O  O48  1  0.97019200  0.18235900  0.15314300  1
  O  O49  1  0.01805900  0.23737800  0.45743200  1
  O  O50  1  0.48194100  0.23737800  0.45743200  1
  O  O51  1  0.51805900  0.26262200  0.95743200  1
  O  O52  1  0.98194100  0.26262200  0.95743200  1
  O  O53  1  0.02980800  0.31764100  0.65314300  1
  O  O54  1  0.47019200  0.31764100  0.65314300  1
  O  O55  1  0.25000000  0.35025800  0.32445000  1
  O  O56  1  0.75000000  0.37772000  0.25838200  1
  O  O57  1  0.25000000  0.43952000  0.08470800  1
  O  O58  1  0.75000000  0.43150200  0.09179400  1
  O  O59  1  0.75000000  0.50816500  0.52044200  1
