# generated using pymatgen
data_Li3Nb3P8O29
_symmetry_space_group_name_H-M   'P 1'
_cell_length_a   10.03788608
_cell_length_b   10.03788608
_cell_length_c   14.08451811
_cell_angle_alpha   89.79939054
_cell_angle_beta   89.79939054
_cell_angle_gamma   60.00398047
_symmetry_Int_Tables_number   1
_chemical_formula_structural   Li3Nb3P8O29
_chemical_formula_sum   'Li6 Nb6 P16 O58'
_cell_volume   1229.05415100
_cell_formula_units_Z   2
loop_
 _symmetry_equiv_pos_site_id
 _symmetry_equiv_pos_as_xyz
  1  'x, y, z'
loop_
 _atom_site_type_symbol
 _atom_site_label
 _atom_site_symmetry_multiplicity
 _atom_site_fract_x
 _atom_site_fract_y
 _atom_site_fract_z
 _atom_site_occupancy
  Li  Li0  1  0.00000000  0.00000000  0.50000000  1
  Li  Li1  1  0.00000000  0.00000000  0.00000000  1
  Li  Li2  1  0.67410100  0.09494400  0.05557200  1
  Li  Li3  1  0.09494400  0.67410100  0.55557200  1
  Li  Li4  1  0.90505600  0.32589900  0.44442800  1
  Li  Li5  1  0.32589900  0.90505600  0.94442800  1
  Nb  Nb6  1  0.43279600  0.00181200  0.74122800  1
  Nb  Nb7  1  0.56720400  0.99818800  0.25877200  1
  Nb  Nb8  1  0.00181200  0.43279600  0.24122800  1
  Nb  Nb9  1  0.99818800  0.56720400  0.75877200  1
  Nb  Nb10  1  0.56706900  0.43293100  0.75000000  1
  Nb  Nb11  1  0.43293100  0.56706900  0.25000000  1
  P  P12  1  0.21793400  0.08319400  0.34400200  1
  P  P13  1  0.08319400  0.21793400  0.84400200  1
  P  P14  1  0.68974700  0.08047500  0.84368800  1
  P  P15  1  0.34099300  0.32840300  0.12391700  1
  P  P16  1  0.32840300  0.34099300  0.62391700  1
  P  P17  1  0.69652800  0.22640700  0.34552600  1
  P  P18  1  0.77359300  0.30347200  0.15447400  1
  P  P19  1  0.08047500  0.68974700  0.34368800  1
  P  P20  1  0.91952500  0.31025300  0.65631200  1
  P  P21  1  0.22640700  0.69652800  0.84552600  1
  P  P22  1  0.30347200  0.77359300  0.65447400  1
  P  P23  1  0.65900700  0.67159700  0.87608300  1
  P  P24  1  0.67159700  0.65900700  0.37608300  1
  P  P25  1  0.31025300  0.91952500  0.15631200  1
  P  P26  1  0.91680600  0.78206600  0.15599800  1
  P  P27  1  0.78206600  0.91680600  0.65599800  1
  O  O28  1  0.20082000  0.01162800  0.24428700  1
  O  O29  1  0.23181600  0.98961200  0.06521700  1
  O  O30  1  0.25496900  0.08505500  0.83729000  1
  O  O31  1  0.01162800  0.20082000  0.74428700  1
  O  O32  1  0.98961200  0.23181600  0.56521700  1
  O  O33  1  0.08505500  0.25496900  0.33729000  1
  O  O34  1  0.37360800  0.08368600  0.33295700  1
  O  O35  1  0.33192300  0.19355800  0.66970400  1
  O  O36  1  0.53622700  0.08244800  0.82710000  1
  O  O37  1  0.79737000  0.99920600  0.57373800  1
  O  O38  1  0.79918000  0.98837200  0.75571300  1
  O  O39  1  0.65885700  0.09353400  0.33928000  1
  O  O40  1  0.19355800  0.33192300  0.16970400  1
  O  O41  1  0.08368600  0.37360800  0.83295700  1
  O  O42  1  0.48412700  0.18287500  0.16944800  1
  O  O43  1  0.34510700  0.32496200  0.01915300  1
  O  O44  1  0.32496200  0.34510700  0.51915300  1
  O  O45  1  0.46963500  0.34066800  0.67229600  1
  O  O46  1  0.08244800  0.53622700  0.32710000  1
  O  O47  1  0.18287500  0.48412700  0.66944800  1
  O  O48  1  0.65634200  0.24867500  0.83186600  1
  O  O49  1  0.79403500  0.20596500  0.25000000  1
  O  O50  1  0.78469600  0.20489400  0.07304900  1
  O  O51  1  0.79510600  0.21530400  0.42695100  1
  O  O52  1  0.54257800  0.37906200  0.33403200  1
  O  O53  1  0.34066800  0.46963500  0.17229600  1
  O  O54  1  0.75132500  0.34365800  0.66813400  1
  O  O55  1  0.37906200  0.54257800  0.83403200  1
  O  O56  1  0.09353400  0.65885700  0.83928000  1
  O  O57  1  0.00079400  0.20263000  0.92626200  1
  O  O58  1  0.99920600  0.79737000  0.07373800  1
  O  O59  1  0.98837200  0.79918000  0.25571300  1
  O  O60  1  0.90646600  0.34114300  0.16072000  1
  O  O61  1  0.62093800  0.45742200  0.16596800  1
  O  O62  1  0.24867500  0.65634200  0.33186600  1
  O  O63  1  0.65933200  0.53036500  0.82770400  1
  O  O64  1  0.45742200  0.62093800  0.66596800  1
  O  O65  1  0.20489400  0.78469600  0.57304900  1
  O  O66  1  0.21530400  0.79510600  0.92695100  1
  O  O67  1  0.20596500  0.79403500  0.75000000  1
  O  O68  1  0.34365800  0.75132500  0.16813400  1
  O  O69  1  0.81712500  0.51587300  0.33055200  1
  O  O70  1  0.91755200  0.46377300  0.67290000  1
  O  O71  1  0.53036500  0.65933200  0.32770400  1
  O  O72  1  0.65489300  0.67503800  0.98084700  1
  O  O73  1  0.67503800  0.65489300  0.48084700  1
  O  O74  1  0.51587300  0.81712500  0.83055200  1
  O  O75  1  0.91631400  0.62639200  0.16704300  1
  O  O76  1  0.80644200  0.66807700  0.83029600  1
  O  O77  1  0.34114300  0.90646600  0.66072000  1
  O  O78  1  0.20263000  0.00079400  0.42626200  1
  O  O79  1  0.46377300  0.91755200  0.17290000  1
  O  O80  1  0.66807700  0.80644200  0.33029600  1
  O  O81  1  0.62639200  0.91631400  0.66704300  1
  O  O82  1  0.91494500  0.74503100  0.66271000  1
  O  O83  1  0.01038800  0.76818400  0.43478300  1
  O  O84  1  0.74503100  0.91494500  0.16271000  1
  O  O85  1  0.76818400  0.01038800  0.93478300  1
