# generated using pymatgen
data_Li14Mn2S9
_symmetry_space_group_name_H-M   'P 1'
_cell_length_a   7.07327626
_cell_length_b   7.07327626
_cell_length_c   9.91299700
_cell_angle_alpha   90.00000000
_cell_angle_beta   90.00000000
_cell_angle_gamma   120.00000240
_symmetry_Int_Tables_number   1
_chemical_formula_structural   Li14Mn2S9
_chemical_formula_sum   'Li14 Mn2 S9'
_cell_volume   429.51351784
_cell_formula_units_Z   1
loop_
 _symmetry_equiv_pos_site_id
 _symmetry_equiv_pos_as_xyz
  1  'x, y, z'
loop_
 _atom_site_type_symbol
 _atom_site_label
 _atom_site_symmetry_multiplicity
 _atom_site_fract_x
 _atom_site_fract_y
 _atom_site_fract_z
 _atom_site_occupancy
  Li  Li0  1  0.02461200  0.67751600  0.41020700  1
  Li  Li1  1  0.32323900  0.95857200  0.08930600  1
  Li  Li2  1  0.04142800  0.36466700  0.08930600  1
  Li  Li3  1  0.00000000  0.00000000  0.75197500  1
  Li  Li4  1  0.00000000  0.00000000  0.24802500  1
  Li  Li5  1  0.32248400  0.34709600  0.41020700  1
  Li  Li6  1  0.65290400  0.97538800  0.41020700  1
  Li  Li7  1  0.36466700  0.32323900  0.91069400  1
  Li  Li8  1  0.63533300  0.67676100  0.08930600  1
  Li  Li9  1  0.34709600  0.02461200  0.58979300  1
  Li  Li10  1  0.67751600  0.65290400  0.58979300  1
  Li  Li11  1  0.95857200  0.63533300  0.91069400  1
  Li  Li12  1  0.67676100  0.04142800  0.91069400  1
  Li  Li13  1  0.97538800  0.32248400  0.58979300  1
  Mn  Mn14  1  0.33333300  0.66666700  0.75552700  1
  Mn  Mn15  1  0.66666700  0.33333300  0.24447300  1
  S  S16  1  0.31039700  0.97155400  0.83849500  1
  S  S17  1  0.02844600  0.33884200  0.83849500  1
  S  S18  1  0.33333300  0.66666700  0.51505500  1
  S  S19  1  0.00000000  0.00000000  0.50000000  1
  S  S20  1  0.33884200  0.31039700  0.16150500  1
  S  S21  1  0.66115800  0.68960300  0.83849500  1
  S  S22  1  0.66666700  0.33333300  0.48494500  1
  S  S23  1  0.97155400  0.66115800  0.16150500  1
  S  S24  1  0.68960300  0.02844600  0.16150500  1
