# generated using pymatgen
data_Li2Ti7Nb6O30
_symmetry_space_group_name_H-M   'P 1'
_cell_length_a   5.19335084
_cell_length_b   5.19335084
_cell_length_c   23.75020900
_cell_angle_alpha   90.00000000
_cell_angle_beta   90.00000000
_cell_angle_gamma   120.00001069
_symmetry_Int_Tables_number   1
_chemical_formula_structural   Li2Ti7Nb6O30
_chemical_formula_sum   'Li2 Ti7 Nb6 O30'
_cell_volume   554.74493512
_cell_formula_units_Z   1
loop_
 _symmetry_equiv_pos_site_id
 _symmetry_equiv_pos_as_xyz
  1  'x, y, z'
loop_
 _atom_site_type_symbol
 _atom_site_label
 _atom_site_symmetry_multiplicity
 _atom_site_fract_x
 _atom_site_fract_y
 _atom_site_fract_z
 _atom_site_occupancy
  Li  Li0  1  0.00000000  0.00000000  0.07561300  1
  Li  Li1  1  0.66666700  0.33333300  0.46901800  1
  Ti  Ti2  1  0.33333300  0.66666700  0.01682700  1
  Ti  Ti3  1  0.33333300  0.66666700  0.69319100  1
  Ti  Ti4  1  0.33333300  0.66666700  0.28394300  1
  Ti  Ti5  1  0.66666700  0.33333300  0.30669800  1
  Ti  Ti6  1  0.66666700  0.33333300  0.71687400  1
  Ti  Ti7  1  0.66666700  0.33333300  0.98773400  1
  Ti  Ti8  1  0.66666700  0.33333300  0.11339100  1
  Nb  Nb9  1  0.00000000  0.00000000  0.80043900  1
  Nb  Nb10  1  0.00000000  0.00000000  0.19994300  1
  Nb  Nb11  1  0.00000000  0.00000000  0.50093500  1
  Nb  Nb12  1  0.33333300  0.66666700  0.89061900  1
  Nb  Nb13  1  0.33333300  0.66666700  0.40816300  1
  Nb  Nb14  1  0.66666700  0.33333300  0.59333600  1
  O  O15  1  0.03021800  0.69935100  0.44985400  1
  O  O16  1  0.05043500  0.72143300  0.84668400  1
  O  O17  1  0.01477600  0.42310700  0.34592900  1
  O  O18  1  0.02102500  0.41368000  0.95262400  1
  O  O19  1  0.32811800  0.99875200  0.74714400  1
  O  O20  1  0.00124800  0.32936600  0.74714400  1
  O  O21  1  0.40833100  0.98522400  0.34592900  1
  O  O22  1  0.39265500  0.97897500  0.95262400  1
  O  O23  1  0.27856700  0.32900200  0.84668400  1
  O  O24  1  0.30064900  0.33086700  0.44985400  1
  O  O25  1  0.33024400  0.32924300  0.25305700  1
  O  O26  1  0.66913300  0.96978200  0.44985400  1
  O  O27  1  0.41984800  0.40485800  0.65479700  1
  O  O28  1  0.39226000  0.37055300  0.04999800  1
  O  O29  1  0.67099800  0.94956500  0.84668400  1
  O  O30  1  0.32649600  0.06253100  0.15146900  1
  O  O31  1  0.58632000  0.60734500  0.95262400  1
  O  O32  1  0.57689300  0.59166900  0.34592900  1
  O  O33  1  0.33730300  0.05542800  0.54738000  1
  O  O34  1  0.67063400  0.67188200  0.74714400  1
  O  O35  1  0.71812500  0.66269700  0.54738000  1
  O  O36  1  0.73603600  0.67350400  0.15146900  1
  O  O37  1  0.62944700  0.02170700  0.04999800  1
  O  O38  1  0.59514200  0.01499000  0.65479700  1
  O  O39  1  0.99900000  0.66975600  0.25305700  1
  O  O40  1  0.67075700  0.00100000  0.25305700  1
  O  O41  1  0.97829300  0.60774000  0.04999800  1
  O  O42  1  0.98501000  0.58015200  0.65479700  1
  O  O43  1  0.93746900  0.26396400  0.15146900  1
  O  O44  1  0.94457200  0.28187500  0.54738000  1
