# generated using pymatgen
data_Li4Mn3Ni3(PO4)6
_symmetry_space_group_name_H-M   'P 1'
_cell_length_a   8.33421600
_cell_length_b   8.42504029
_cell_length_c   8.43495083
_cell_angle_alpha   63.15748519
_cell_angle_beta   64.10239826
_cell_angle_gamma   64.73170338
_symmetry_Int_Tables_number   1
_chemical_formula_structural   Li4Mn3Ni3(PO4)6
_chemical_formula_sum   'Li4 Mn3 Ni3 P6 O24'
_cell_volume   455.51184053
_cell_formula_units_Z   1
loop_
 _symmetry_equiv_pos_site_id
 _symmetry_equiv_pos_as_xyz
  1  'x, y, z'
loop_
 _atom_site_type_symbol
 _atom_site_label
 _atom_site_symmetry_multiplicity
 _atom_site_fract_x
 _atom_site_fract_y
 _atom_site_fract_z
 _atom_site_occupancy
  Li  Li0  1  0.75246900  0.13878200  0.35531800  1
  Li  Li1  1  0.23793400  0.84721200  0.65938600  1
  Li  Li2  1  0.65199400  0.24380200  0.84878400  1
  Li  Li3  1  0.85516900  0.64863400  0.24067500  1
  Mn  Mn4  1  0.35655900  0.35627700  0.35481200  1
  Mn  Mn5  1  0.14603200  0.14262600  0.14725400  1
  Mn  Mn6  1  0.65263400  0.65967600  0.65123600  1
  Ni  Ni7  1  0.00336300  0.00262700  0.99591900  1
  Ni  Ni8  1  0.84920000  0.85152700  0.85290200  1
  Ni  Ni9  1  0.49390400  0.50756800  0.50047900  1
  P  P10  1  0.06470200  0.75051400  0.44456000  1
  P  P11  1  0.43348100  0.06066400  0.75230200  1
  P  P12  1  0.74688600  0.44215500  0.05598900  1
  P  P13  1  0.24755500  0.54309400  0.95854200  1
  P  P14  1  0.56303800  0.94964800  0.24924000  1
  P  P15  1  0.94779700  0.24745700  0.54433300  1
  O  O16  1  0.45322500  0.90658000  0.69028400  1
  O  O17  1  0.67553400  0.47047000  0.90462700  1
  O  O18  1  0.91204600  0.68211000  0.46287500  1
  O  O19  1  0.06614900  0.91846600  0.25148700  1
  O  O20  1  0.02223400  0.81534200  0.60515500  1
  O  O21  1  0.25944400  0.60933600  0.42253300  1
  O  O22  1  0.24172600  0.08057500  0.90608000  1
  O  O23  1  0.42648100  0.25458500  0.58782100  1
  O  O24  1  0.16946800  0.38736000  0.00595400  1
  O  O25  1  0.59727300  0.41952800  0.25881300  1
  O  O26  1  0.09769200  0.73827900  0.94226200  1
  O  O27  1  0.39798900  0.00773500  0.18372800  1
  O  O28  1  0.59873500  0.03095000  0.80852600  1
  O  O29  1  0.89020400  0.24389900  0.08103100  1
  O  O30  1  0.39318400  0.56384600  0.75952900  1
  O  O31  1  0.81323500  0.59970700  0.02469100  1
  O  O32  1  0.57639400  0.74902700  0.39721900  1
  O  O33  1  0.75642800  0.92783400  0.09044000  1
  O  O34  1  0.75304300  0.39611900  0.57136400  1
  O  O35  1  0.96536200  0.18100800  0.39395500  1
  O  O36  1  0.94032700  0.09296100  0.74131100  1
  O  O37  1  0.11393200  0.31519100  0.48857500  1
  O  O38  1  0.32434900  0.50134900  0.11255900  1
  O  O39  1  0.55283100  0.09248300  0.32045100  1
