# generated using pymatgen
data_Li2VH2OF5
_symmetry_space_group_name_H-M   'P 1'
_cell_length_a   5.73862763
_cell_length_b   10.05290191
_cell_length_c   9.42276202
_cell_angle_alpha   72.13386706
_cell_angle_beta   79.55944328
_cell_angle_gamma   105.99931348
_symmetry_Int_Tables_number   1
_chemical_formula_structural   Li2VH2OF5
_chemical_formula_sum   'Li8 V4 H8 O4 F20'
_cell_volume   475.89545704
_cell_formula_units_Z   4
loop_
 _symmetry_equiv_pos_site_id
 _symmetry_equiv_pos_as_xyz
  1  'x, y, z'
loop_
 _atom_site_type_symbol
 _atom_site_label
 _atom_site_symmetry_multiplicity
 _atom_site_fract_x
 _atom_site_fract_y
 _atom_site_fract_z
 _atom_site_occupancy
  Li  Li0  1  0.28013500  0.86909600  0.12874100  1
  Li  Li1  1  0.28015400  0.36909600  0.62867800  1
  Li  Li2  1  0.25936900  0.60873900  0.88901800  1
  Li  Li3  1  0.25972800  0.10878000  0.38877900  1
  Li  Li4  1  0.74025500  0.39121100  0.11126500  1
  Li  Li5  1  0.74047500  0.89117000  0.61109500  1
  Li  Li6  1  0.71987300  0.13095100  0.87130800  1
  Li  Li7  1  0.71988100  0.63088900  0.37128100  1
  V  V8  1  0.77120100  0.26060900  0.48934200  1
  V  V9  1  0.22874500  0.23935700  0.01066600  1
  V  V10  1  0.77112700  0.76073300  0.98928000  1
  V  V11  1  0.22883800  0.73936900  0.51064800  1
  H  H12  1  0.14095600  0.52579300  0.31476300  1
  H  H13  1  0.14091500  0.02589700  0.81451900  1
  H  H14  1  0.78875000  0.59971900  0.74074200  1
  H  H15  1  0.78889800  0.09973900  0.24078300  1
  H  H16  1  0.21108400  0.40014900  0.25923600  1
  H  H17  1  0.21127100  0.90013600  0.75934300  1
  H  H18  1  0.85940000  0.47412200  0.68540200  1
  H  H19  1  0.85920100  0.97415300  0.18519300  1
  O  O20  1  0.08626600  0.41816700  0.33179900  1
  O  O21  1  0.08643000  0.91823500  0.83174200  1
  O  O22  1  0.91392000  0.58173100  0.66844900  1
  O  O23  1  0.91390100  0.08175200  0.16831500  1
  F  F24  1  0.47463600  0.61275400  0.13743800  1
  F  F25  1  0.47499700  0.11253600  0.63738900  1
  F  F26  1  0.52477700  0.38743000  0.86244600  1
  F  F27  1  0.52496600  0.88747400  0.36221400  1
  F  F28  1  0.59596300  0.90922100  0.96221200  1
  F  F29  1  0.59586000  0.40902400  0.46215800  1
  F  F30  1  0.05305800  0.38759600  0.98381200  1
  F  F31  1  0.05312100  0.88760300  0.48385700  1
  F  F32  1  0.94674800  0.61239600  0.01621000  1
  F  F33  1  0.94688900  0.11236500  0.51628400  1
  F  F34  1  0.40414600  0.09098300  0.03787400  1
  F  F35  1  0.40419700  0.59091900  0.53775100  1
  F  F36  1  0.65700900  0.70797500  0.81815900  1
  F  F37  1  0.65702300  0.20771600  0.31829400  1
  F  F38  1  0.11046200  0.18454800  0.84160200  1
  F  F39  1  0.10999300  0.68449100  0.34167500  1
  F  F40  1  0.88967800  0.81542600  0.15845600  1
  F  F41  1  0.88944500  0.31541400  0.65842300  1
  F  F42  1  0.34307600  0.29232400  0.18165700  1
  F  F43  1  0.34318100  0.79221400  0.68170000  1
