# generated using pymatgen
data_Li3P3(WO6)2
_symmetry_space_group_name_H-M   'P 1'
_cell_length_a   9.26827599
_cell_length_b   9.26827599
_cell_length_c   9.26827570
_cell_angle_alpha   55.93929557
_cell_angle_beta   55.93929557
_cell_angle_gamma   55.93929169
_symmetry_Int_Tables_number   1
_chemical_formula_structural   Li3P3(WO6)2
_chemical_formula_sum   'Li6 P6 W4 O24'
_cell_volume   509.99034202
_cell_formula_units_Z   2
loop_
 _symmetry_equiv_pos_site_id
 _symmetry_equiv_pos_as_xyz
  1  'x, y, z'
loop_
 _atom_site_type_symbol
 _atom_site_label
 _atom_site_symmetry_multiplicity
 _atom_site_fract_x
 _atom_site_fract_y
 _atom_site_fract_z
 _atom_site_occupancy
  Li  Li0  1  0.07573100  0.73590300  0.33905100  1
  Li  Li1  1  0.33905100  0.07573100  0.73590300  1
  Li  Li2  1  0.73590300  0.33905100  0.07573100  1
  Li  Li3  1  0.26409700  0.66094900  0.92426900  1
  Li  Li4  1  0.66094900  0.92426900  0.26409700  1
  Li  Li5  1  0.92426900  0.26409700  0.66094900  1
  P  P6  1  0.04241900  0.45567100  0.74971900  1
  P  P7  1  0.45567100  0.74971900  0.04241900  1
  P  P8  1  0.74971900  0.04241900  0.45567100  1
  P  P9  1  0.25028100  0.95758100  0.54432900  1
  P  P10  1  0.54432900  0.25028100  0.95758100  1
  P  P11  1  0.95758100  0.54432900  0.25028100  1
  W  W12  1  0.34667800  0.34667800  0.34667800  1
  W  W13  1  0.65332200  0.65332200  0.65332200  1
  W  W14  1  0.14426700  0.14426700  0.14426700  1
  W  W15  1  0.85573300  0.85573300  0.85573300  1
  O  O16  1  0.14747800  0.55110700  0.20391000  1
  O  O17  1  0.20391000  0.14747800  0.55110700  1
  O  O18  1  0.55110700  0.20391000  0.14747800  1
  O  O19  1  0.15592000  0.49824700  0.53664400  1
  O  O20  1  0.14575300  0.25471100  0.86236600  1
  O  O21  1  0.00578000  0.60002200  0.80707200  1
  O  O22  1  0.25471100  0.86236600  0.14575300  1
  O  O23  1  0.49824700  0.53664400  0.15592000  1
  O  O24  1  0.53664400  0.15592000  0.49824700  1
  O  O25  1  0.19292800  0.99422000  0.39997800  1
  O  O26  1  0.13763400  0.85424700  0.74528900  1
  O  O27  1  0.39997800  0.19292800  0.99422000  1
  O  O28  1  0.60002200  0.80707200  0.00578000  1
  O  O29  1  0.86236600  0.14575300  0.25471100  1
  O  O30  1  0.80707200  0.00578000  0.60002200  1
  O  O31  1  0.46335600  0.84408000  0.50175300  1
  O  O32  1  0.50175300  0.46335600  0.84408000  1
  O  O33  1  0.74528900  0.13763400  0.85424700  1
  O  O34  1  0.99422000  0.39997800  0.19292800  1
  O  O35  1  0.85424700  0.74528900  0.13763400  1
  O  O36  1  0.84408000  0.50175300  0.46335600  1
  O  O37  1  0.44889300  0.79609000  0.85252200  1
  O  O38  1  0.79609000  0.85252200  0.44889300  1
  O  O39  1  0.85252200  0.44889300  0.79609000  1
