# generated using pymatgen
data_Li32Mn3Cr13O48
_symmetry_space_group_name_H-M   'P 1'
_cell_length_a   5.01830900
_cell_length_b   8.74955660
_cell_length_c   19.50341578
_cell_angle_alpha   82.12576657
_cell_angle_beta   85.42048871
_cell_angle_gamma   89.28797842
_symmetry_Int_Tables_number   1
_chemical_formula_structural   Li32Mn3Cr13O48
_chemical_formula_sum   'Li32 Mn3 Cr13 O48'
_cell_volume   845.57203186
_cell_formula_units_Z   1
loop_
 _symmetry_equiv_pos_site_id
 _symmetry_equiv_pos_as_xyz
  1  'x, y, z'
loop_
 _atom_site_type_symbol
 _atom_site_label
 _atom_site_symmetry_multiplicity
 _atom_site_fract_x
 _atom_site_fract_y
 _atom_site_fract_z
 _atom_site_occupancy
  Li  Li0  1  0.00615600  0.82986300  0.25004600  1
  Li  Li1  1  0.12274200  0.62399800  0.37494700  1
  Li  Li2  1  0.24880600  0.74956400  0.00010600  1
  Li  Li3  1  0.25844400  0.07995400  0.00012600  1
  Li  Li4  1  0.00936700  0.83194100  0.74961600  1
  Li  Li5  1  0.23823000  0.41905200  0.50004200  1
  Li  Li6  1  0.12521800  0.62502200  0.87499200  1
  Li  Li7  1  0.25078500  0.75054100  0.50028200  1
  Li  Li8  1  0.25955700  0.08073700  0.49977300  1
  Li  Li9  1  0.37565400  0.87524700  0.12495900  1
  Li  Li10  1  0.24060800  0.42133400  0.99957400  1
  Li  Li11  1  0.49285200  0.66894200  0.25030800  1
  Li  Li12  1  0.37505800  0.87483600  0.62492800  1
  Li  Li13  1  0.50093400  0.00010500  0.25009200  1
  Li  Li14  1  0.51086700  0.33109200  0.24977300  1
  Li  Li15  1  0.49229300  0.67065800  0.75004700  1
  Li  Li16  1  0.62515600  0.12479300  0.37510200  1
  Li  Li17  1  0.50021400  0.00040500  0.74993400  1
  Li  Li18  1  0.75228600  0.24950000  0.99990900  1
  Li  Li19  1  0.50655700  0.32869300  0.75008200  1
  Li  Li20  1  0.75929900  0.58025400  0.00016300  1
  Li  Li21  1  0.62431100  0.12395600  0.87502700  1
  Li  Li22  1  0.74239600  0.91921100  0.49972700  1
  Li  Li23  1  0.75017200  0.25064100  0.49968900  1
  Li  Li24  1  0.87602700  0.37561100  0.12484600  1
  Li  Li25  1  0.75821200  0.58036700  0.50037000  1
  Li  Li26  1  0.99019200  0.16991800  0.25016800  1
  Li  Li27  1  0.73873000  0.91985400  0.00017000  1
  Li  Li28  1  0.87490100  0.37455000  0.62523700  1
  Li  Li29  1  0.00116100  0.49970500  0.24991800  1
  Li  Li30  1  0.99119900  0.16819500  0.75016100  1
  Li  Li31  1  0.00137300  0.50030700  0.74999100  1
  Mn  Mn32  1  0.12456100  0.29200600  0.87522600  1
  Mn  Mn33  1  0.62563700  0.79171500  0.37487800  1
  Mn  Mn34  1  0.87646900  0.70871600  0.62421300  1
  Cr  Cr35  1  0.13103200  0.28804500  0.37475000  1
  Cr  Cr36  1  0.11763400  0.95554700  0.37563500  1
  Cr  Cr37  1  0.12388100  0.96286400  0.87470100  1
  Cr  Cr38  1  0.36873700  0.21070600  0.12497500  1
  Cr  Cr39  1  0.38173200  0.53963100  0.12519200  1
  Cr  Cr40  1  0.36601600  0.21036200  0.62573100  1
  Cr  Cr41  1  0.38533100  0.54216200  0.62434000  1
  Cr  Cr42  1  0.62095200  0.46226300  0.37462900  1
  Cr  Cr43  1  0.61721600  0.45552900  0.87569600  1
  Cr  Cr44  1  0.63169000  0.78855300  0.87450500  1
  Cr  Cr45  1  0.88175000  0.03980800  0.12514700  1
  Cr  Cr46  1  0.86870200  0.71056700  0.12496400  1
  Cr  Cr47  1  0.87437000  0.03697500  0.62543800  1
  O  O48  1  0.03383400  0.89803400  0.06841800  1
  O  O49  1  0.07879900  0.21653600  0.06883000  1
  O  O50  1  0.07263900  0.57275300  0.06819500  1
  O  O51  1  0.03689000  0.89067500  0.56905000  1
  O  O52  1  0.17123600  0.03341000  0.18168000  1
  O  O53  1  0.17738300  0.67682900  0.18197000  1
  O  O54  1  0.07706100  0.21352800  0.56902500  1
  O  O55  1  0.07014500  0.57210400  0.56770300  1
  O  O56  1  0.21477600  0.35194300  0.18163800  1
  O  O57  1  0.28216900  0.14406300  0.31887900  1
  O  O58  1  0.16937700  0.03464200  0.68147000  1
  O  O59  1  0.17682900  0.67597700  0.68170200  1
  O  O60  1  0.33098100  0.46480200  0.31835900  1
  O  O61  1  0.32350200  0.82407200  0.31804100  1
  O  O62  1  0.21678100  0.35425300  0.68137600  1
  O  O63  1  0.28784800  0.14519700  0.81920400  1
  O  O64  1  0.53467200  0.39813400  0.06850300  1
  O  O65  1  0.41990400  0.28584800  0.43134100  1
  O  O66  1  0.43171200  0.92747600  0.43218900  1
  O  O67  1  0.31743300  0.46316600  0.81898200  1
  O  O68  1  0.32631600  0.82305100  0.81751200  1
  O  O69  1  0.57233500  0.07325500  0.06796700  1
  O  O70  1  0.57885100  0.71667700  0.06870100  1
  O  O71  1  0.46595700  0.60800400  0.43032100  1
  O  O72  1  0.53033700  0.39834500  0.56833100  1
  O  O73  1  0.42762400  0.28468100  0.93104400  1
  O  O74  1  0.42235800  0.92582600  0.93234300  1
  O  O75  1  0.67696700  0.17693800  0.18200600  1
  O  O76  1  0.67170700  0.53315700  0.18136800  1
  O  O77  1  0.57699700  0.07538400  0.56801900  1
  O  O78  1  0.57493000  0.71748200  0.56859100  1
  O  O79  1  0.46833500  0.60253100  0.93142900  1
  O  O80  1  0.71527500  0.85277000  0.18136000  1
  O  O81  1  0.78956200  0.64651600  0.31841400  1
  O  O82  1  0.67473800  0.17824700  0.68254500  1
  O  O83  1  0.67940700  0.53723800  0.68056800  1
  O  O84  1  0.82485600  0.32369900  0.31776800  1
  O  O85  1  0.81744000  0.96366200  0.31907200  1
  O  O86  1  0.71332500  0.85484200  0.68087900  1
  O  O87  1  0.78207000  0.64353900  0.81911900  1
  O  O88  1  0.92447100  0.42671700  0.43210100  1
  O  O89  1  0.92744500  0.78444400  0.43076800  1
  O  O90  1  0.82312500  0.32434400  0.81820400  1
  O  O91  1  0.83040400  0.96445800  0.81873500  1
  O  O92  1  0.96830500  0.10216000  0.43143600  1
  O  O93  1  0.93223500  0.42750400  0.93254500  1
  O  O94  1  0.92124800  0.78704300  0.93129400  1
  O  O95  1  0.96394700  0.10974500  0.93088300  1
