# generated using pymatgen
data_Li3V2(PO4)3
_symmetry_space_group_name_H-M   'P 1'
_cell_length_a   8.75954000
_cell_length_b   8.82300000
_cell_length_c   12.22920500
_cell_angle_alpha   90.00000000
_cell_angle_beta   90.00000000
_cell_angle_gamma   90.00000000
_symmetry_Int_Tables_number   1
_chemical_formula_structural   Li3V2(PO4)3
_chemical_formula_sum   'Li12 V8 P12 O48'
_cell_volume   945.13926206
_cell_formula_units_Z   4
loop_
 _symmetry_equiv_pos_site_id
 _symmetry_equiv_pos_as_xyz
  1  'x, y, z'
loop_
 _atom_site_type_symbol
 _atom_site_label
 _atom_site_symmetry_multiplicity
 _atom_site_fract_x
 _atom_site_fract_y
 _atom_site_fract_z
 _atom_site_occupancy
  Li  Li0  1  0.53064600  0.97996100  0.82007600  1
  Li  Li1  1  0.53064600  0.02003900  0.17992400  1
  Li  Li2  1  0.46935400  0.52003900  0.32007600  1
  Li  Li3  1  0.46935400  0.47996100  0.67992400  1
  Li  Li4  1  0.19708100  0.32457100  0.78736500  1
  Li  Li5  1  0.19708100  0.67542900  0.21263500  1
  Li  Li6  1  0.05279400  0.98413400  0.68326800  1
  Li  Li7  1  0.05279400  0.01586600  0.31673200  1
  Li  Li8  1  0.94720600  0.48413400  0.81673200  1
  Li  Li9  1  0.94720600  0.51586600  0.18326800  1
  Li  Li10  1  0.80291900  0.82457100  0.71263500  1
  Li  Li11  1  0.80291900  0.17542900  0.28736500  1
  V  V12  1  0.49656900  0.79169700  0.61412300  1
  V  V13  1  0.49656900  0.20830300  0.38587700  1
  V  V14  1  0.50343100  0.29169700  0.88587700  1
  V  V15  1  0.50343100  0.70830300  0.11412300  1
  V  V16  1  0.00822100  0.79291000  0.88868700  1
  V  V17  1  0.00822100  0.20709000  0.11131300  1
  V  V18  1  0.99177900  0.29291000  0.61131300  1
  V  V19  1  0.99177900  0.70709000  0.38868700  1
  P  P20  1  0.70511100  0.50000000  0.50000000  1
  P  P21  1  0.64484500  0.64773000  0.85368600  1
  P  P22  1  0.64484500  0.35227000  0.14631400  1
  P  P23  1  0.35515500  0.14773000  0.64631400  1
  P  P24  1  0.35515500  0.85227000  0.35368600  1
  P  P25  1  0.29488900  0.00000000  0.00000000  1
  P  P26  1  0.20471800  0.50000000  0.00000000  1
  P  P27  1  0.14365800  0.64563400  0.64745100  1
  P  P28  1  0.14365800  0.35436600  0.35254900  1
  P  P29  1  0.85634200  0.85436600  0.14745100  1
  P  P30  1  0.85634200  0.14563400  0.85254900  1
  P  P31  1  0.79528200  0.00000000  0.50000000  1
  O  O32  1  0.69979300  0.10606100  0.42565200  1
  O  O33  1  0.69979300  0.89393900  0.57434800  1
  O  O34  1  0.68058700  0.15359800  0.83769100  1
  O  O35  1  0.68058700  0.84640200  0.16230900  1
  O  O36  1  0.59806800  0.68550100  0.96941700  1
  O  O37  1  0.59806800  0.31449900  0.03058300  1
  O  O38  1  0.58965700  0.48917800  0.81872800  1
  O  O39  1  0.58965700  0.51082200  0.18127200  1
  O  O40  1  0.60013100  0.59186100  0.57760400  1
  O  O41  1  0.60013100  0.40813900  0.42239600  1
  O  O42  1  0.58345900  0.77322700  0.77297100  1
  O  O43  1  0.58345900  0.22677300  0.22702900  1
  O  O44  1  0.41654100  0.27322700  0.72702900  1
  O  O45  1  0.41654100  0.72677300  0.27297100  1
  O  O46  1  0.39986900  0.09186100  0.92239600  1
  O  O47  1  0.39986900  0.90813900  0.07760400  1
  O  O48  1  0.41034300  0.01082200  0.31872800  1
  O  O49  1  0.41034300  0.98917800  0.68127200  1
  O  O50  1  0.40193200  0.18550100  0.53058300  1
  O  O51  1  0.40193200  0.81449900  0.46941700  1
  O  O52  1  0.31941300  0.34640200  0.33769100  1
  O  O53  1  0.31941300  0.65359800  0.66230900  1
  O  O54  1  0.30020700  0.39393900  0.92565200  1
  O  O55  1  0.30020700  0.60606100  0.07434800  1
  O  O56  1  0.19700000  0.10325700  0.07295900  1
  O  O57  1  0.19700000  0.89674300  0.92704100  1
  O  O58  1  0.17876200  0.15816000  0.66245700  1
  O  O59  1  0.17876200  0.84184000  0.33754300  1
  O  O60  1  0.09492500  0.67493400  0.52981200  1
  O  O61  1  0.09492500  0.32506600  0.47018800  1
  O  O62  1  0.09325600  0.48378900  0.68646800  1
  O  O63  1  0.09325600  0.51621100  0.31353200  1
  O  O64  1  0.09822600  0.58746500  0.92080400  1
  O  O65  1  0.09822600  0.41253500  0.07919600  1
  O  O66  1  0.06318400  0.76742900  0.72102000  1
  O  O67  1  0.06318400  0.23257100  0.27898000  1
  O  O68  1  0.93681600  0.26742900  0.77898000  1
  O  O69  1  0.93681600  0.73257100  0.22102000  1
  O  O70  1  0.90177400  0.08746500  0.57919600  1
  O  O71  1  0.90177400  0.91253500  0.42080400  1
  O  O72  1  0.90674400  0.98378900  0.81353200  1
  O  O73  1  0.90674400  0.01621100  0.18646800  1
  O  O74  1  0.90507500  0.17493400  0.97018800  1
  O  O75  1  0.90507500  0.82506600  0.02981200  1
  O  O76  1  0.82123800  0.34184000  0.16245700  1
  O  O77  1  0.82123800  0.65816000  0.83754300  1
  O  O78  1  0.80300000  0.39674300  0.57295900  1
  O  O79  1  0.80300000  0.60325700  0.42704100  1
