# generated using pymatgen
data_LiV2F5
_symmetry_space_group_name_H-M   'P 1'
_cell_length_a   5.52449204
_cell_length_b   5.52449204
_cell_length_c   10.40709500
_cell_angle_alpha   90.00000000
_cell_angle_beta   90.00000000
_cell_angle_gamma   135.43162124
_symmetry_Int_Tables_number   1
_chemical_formula_structural   LiV2F5
_chemical_formula_sum   'Li2 V4 F10'
_cell_volume   222.89628118
_cell_formula_units_Z   2
loop_
 _symmetry_equiv_pos_site_id
 _symmetry_equiv_pos_as_xyz
  1  'x, y, z'
loop_
 _atom_site_type_symbol
 _atom_site_label
 _atom_site_symmetry_multiplicity
 _atom_site_fract_x
 _atom_site_fract_y
 _atom_site_fract_z
 _atom_site_occupancy
  Li  Li0  1  0.81938400  0.18061600  0.25000000  1
  Li  Li1  1  0.18061600  0.81938400  0.75000000  1
  V  V2  1  0.85669100  0.14330900  0.56399300  1
  V  V3  1  0.85669100  0.14330900  0.93600700  1
  V  V4  1  0.14330900  0.85669100  0.06399300  1
  V  V5  1  0.14330900  0.85669100  0.43600700  1
  F  F6  1  0.67845400  0.32154600  0.05595000  1
  F  F7  1  0.67845400  0.32154600  0.44405000  1
  F  F8  1  0.94570700  0.05429300  0.11781800  1
  F  F9  1  0.94570700  0.05429300  0.38218200  1
  F  F10  1  0.76610900  0.23389100  0.75000000  1
  F  F11  1  0.23389100  0.76610900  0.25000000  1
  F  F12  1  0.05429300  0.94570700  0.88218200  1
  F  F13  1  0.05429300  0.94570700  0.61781800  1
  F  F14  1  0.32154600  0.67845400  0.94405000  1
  F  F15  1  0.32154600  0.67845400  0.55595000  1
