# generated using pymatgen
data_Li4Y3FeO8
_symmetry_space_group_name_H-M   'P 1'
_cell_length_a   6.19738300
_cell_length_b   10.12174692
_cell_length_c   12.37170466
_cell_angle_alpha   90.00041208
_cell_angle_beta   89.99976280
_cell_angle_gamma   89.99955312
_symmetry_Int_Tables_number   1
_chemical_formula_structural   Li4Y3FeO8
_chemical_formula_sum   'Li16 Y12 Fe4 O32'
_cell_volume   776.05652473
_cell_formula_units_Z   4
loop_
 _symmetry_equiv_pos_site_id
 _symmetry_equiv_pos_as_xyz
  1  'x, y, z'
loop_
 _atom_site_type_symbol
 _atom_site_label
 _atom_site_symmetry_multiplicity
 _atom_site_fract_x
 _atom_site_fract_y
 _atom_site_fract_z
 _atom_site_occupancy
  Li  Li0  1  0.50000000  0.99999900  0.49999600  1
  Li  Li1  1  0.50000000  0.49999900  0.74999600  1
  Li  Li2  1  0.50000000  0.99999900  0.99999600  1
  Li  Li3  1  0.50000000  0.49999900  0.24999600  1
  Li  Li4  1  0.00000100  0.50000000  0.50002000  1
  Li  Li5  1  0.00000100  0.00000000  0.75002000  1
  Li  Li6  1  0.00000100  0.50000000  0.00002000  1
  Li  Li7  1  0.00000100  0.00000000  0.25002000  1
  Li  Li8  1  0.74861800  0.74997300  0.62500500  1
  Li  Li9  1  0.74861800  0.24997300  0.87500500  1
  Li  Li10  1  0.74861800  0.74997300  0.12500500  1
  Li  Li11  1  0.74861800  0.24997300  0.37500500  1
  Li  Li12  1  0.25138500  0.25002400  0.62500800  1
  Li  Li13  1  0.25138500  0.75002400  0.87500800  1
  Li  Li14  1  0.25138500  0.25002400  0.12500800  1
  Li  Li15  1  0.25138500  0.75002400  0.37500800  1
  Y  Y16  1  0.49999900  0.00000500  0.74998000  1
  Y  Y17  1  0.49999900  0.50000500  0.99998000  1
  Y  Y18  1  0.49999900  0.00000500  0.24998000  1
  Y  Y19  1  0.49999900  0.50000500  0.49998000  1
  Y  Y20  1  0.75744800  0.75001200  0.37500600  1
  Y  Y21  1  0.75744800  0.25001200  0.62500600  1
  Y  Y22  1  0.75744800  0.75001200  0.87500600  1
  Y  Y23  1  0.75744800  0.25001200  0.12500600  1
  Y  Y24  1  0.24255500  0.24998500  0.37499000  1
  Y  Y25  1  0.24255500  0.74998500  0.62499000  1
  Y  Y26  1  0.24255500  0.24998500  0.87499000  1
  Y  Y27  1  0.24255500  0.74998500  0.12499000  1
  Fe  Fe28  1  0.00000800  0.50000200  0.25001900  1
  Fe  Fe29  1  0.00000800  0.00000200  0.50001900  1
  Fe  Fe30  1  0.00000800  0.50000200  0.75001900  1
  Fe  Fe31  1  0.00000800  0.00000200  0.00001900  1
  O  O32  1  0.50002900  0.72344200  0.50000700  1
  O  O33  1  0.50002900  0.22344200  0.75000700  1
  O  O34  1  0.50002900  0.72344200  0.00000700  1
  O  O35  1  0.50002900  0.22344200  0.25000700  1
  O  O36  1  0.49998100  0.27655400  0.50001200  1
  O  O37  1  0.49998100  0.77655400  0.75001200  1
  O  O38  1  0.49998100  0.27655400  0.00001200  1
  O  O39  1  0.49998100  0.77655400  0.25001200  1
  O  O40  1  0.99998900  0.20857600  0.50002400  1
  O  O41  1  0.99998900  0.70857600  0.75002400  1
  O  O42  1  0.99998900  0.20857600  0.00002400  1
  O  O43  1  0.99998900  0.70857600  0.25002400  1
  O  O44  1  0.99999100  0.79142400  0.50001500  1
  O  O45  1  0.99999100  0.29142400  0.75001500  1
  O  O46  1  0.99999100  0.79142400  0.00001500  1
  O  O47  1  0.99999100  0.29142400  0.25001500  1
  O  O48  1  0.76211800  0.51756000  0.37106000  1
  O  O49  1  0.76211800  0.01756000  0.62106000  1
  O  O50  1  0.76211800  0.51756000  0.87106000  1
  O  O51  1  0.76211800  0.01756000  0.12106000  1
  O  O52  1  0.76213900  0.98244600  0.37889900  1
  O  O53  1  0.76213900  0.48244600  0.62889900  1
  O  O54  1  0.76213900  0.98244600  0.87889900  1
  O  O55  1  0.76213900  0.48244600  0.12889900  1
  O  O56  1  0.23786200  0.01755400  0.37890000  1
  O  O57  1  0.23786200  0.51755400  0.62890000  1
  O  O58  1  0.23786200  0.01755400  0.87890000  1
  O  O59  1  0.23786200  0.51755400  0.12890000  1
  O  O60  1  0.23787600  0.48244400  0.37106100  1
  O  O61  1  0.23787600  0.98244400  0.62106100  1
  O  O62  1  0.23787600  0.48244400  0.87106100  1
  O  O63  1  0.23787600  0.98244400  0.12106100  1
