# generated using pymatgen
data_Li32Ti3Cr13O48
_symmetry_space_group_name_H-M   'P 1'
_cell_length_a   5.05917100
_cell_length_b   8.72229305
_cell_length_c   19.52519587
_cell_angle_alpha   98.10298407
_cell_angle_beta   95.08605748
_cell_angle_gamma   89.73535164
_symmetry_Int_Tables_number   1
_chemical_formula_structural   Li32Ti3Cr13O48
_chemical_formula_sum   'Li32 Ti3 Cr13 O48'
_cell_volume   849.61191182
_cell_formula_units_Z   1
loop_
 _symmetry_equiv_pos_site_id
 _symmetry_equiv_pos_as_xyz
  1  'x, y, z'
loop_
 _atom_site_type_symbol
 _atom_site_label
 _atom_site_symmetry_multiplicity
 _atom_site_fract_x
 _atom_site_fract_y
 _atom_site_fract_z
 _atom_site_occupancy
  Li  Li0  1  0.99372500  0.16935400  0.24952800  1
  Li  Li1  1  0.87700200  0.37507200  0.37439300  1
  Li  Li2  1  0.74844400  0.25112400  0.00075600  1
  Li  Li3  1  0.74336500  0.92058600  0.00027500  1
  Li  Li4  1  0.99350000  0.17022200  0.74997900  1
  Li  Li5  1  0.75735100  0.57894100  0.50057200  1
  Li  Li6  1  0.87654200  0.37492600  0.87461300  1
  Li  Li7  1  0.74351400  0.25024600  0.50074800  1
  Li  Li8  1  0.74492500  0.92139400  0.50062300  1
  Li  Li9  1  0.62460000  0.12652700  0.12500400  1
  Li  Li10  1  0.75556900  0.58008300  0.00039900  1
  Li  Li11  1  0.50633100  0.33098100  0.25029100  1
  Li  Li12  1  0.62444400  0.12555600  0.62501900  1
  Li  Li13  1  0.49511700  0.00147600  0.25034300  1
  Li  Li14  1  0.49499100  0.66961600  0.24944800  1
  Li  Li15  1  0.51022700  0.33370700  0.75088600  1
  Li  Li16  1  0.37575700  0.87575700  0.37506300  1
  Li  Li17  1  0.49984600  0.00008400  0.75008200  1
  Li  Li18  1  0.25604900  0.74828100  0.99961900  1
  Li  Li19  1  0.48965400  0.66631800  0.74939700  1
  Li  Li20  1  0.24216500  0.42110100  0.00027000  1
  Li  Li21  1  0.37566600  0.87440400  0.87510700  1
  Li  Li22  1  0.26221000  0.08082300  0.49954300  1
  Li  Li23  1  0.24836600  0.75069800  0.49929100  1
  Li  Li24  1  0.12470200  0.62347100  0.12489700  1
  Li  Li25  1  0.24213700  0.41790900  0.49951900  1
  Li  Li26  1  0.00749800  0.83022700  0.25014900  1
  Li  Li27  1  0.25469700  0.07971600  0.99995400  1
  Li  Li28  1  0.12360000  0.62515200  0.62536600  1
  Li  Li29  1  0.00159300  0.49844000  0.24957200  1
  Li  Li30  1  0.00675500  0.82988200  0.75018600  1
  Li  Li31  1  0.00037500  0.49998700  0.75012100  1
  Ti  Ti32  1  0.87784300  0.03937700  0.37647500  1
  Ti  Ti33  1  0.87406600  0.71226900  0.87659900  1
  Ti  Ti34  1  0.12608400  0.28781500  0.62356700  1
  Cr  Cr35  1  0.87145100  0.70278000  0.37440900  1
  Cr  Cr36  1  0.87368000  0.04720000  0.87518000  1
  Cr  Cr37  1  0.62884400  0.79739900  0.12581900  1
  Cr  Cr38  1  0.62005000  0.46103700  0.12487200  1
  Cr  Cr39  1  0.62940600  0.79736400  0.62611600  1
  Cr  Cr40  1  0.62030800  0.46110600  0.62504300  1
  Cr  Cr41  1  0.37187700  0.54728600  0.37399000  1
  Cr  Cr42  1  0.37791300  0.21150500  0.37485800  1
  Cr  Cr43  1  0.37977800  0.53886900  0.87512800  1
  Cr  Cr44  1  0.37057900  0.20264700  0.87410000  1
  Cr  Cr45  1  0.12543300  0.95239500  0.12487900  1
  Cr  Cr46  1  0.12618700  0.28823700  0.12449500  1
  Cr  Cr47  1  0.12619000  0.95279500  0.62492400  1
  O  O48  1  0.96516500  0.10470700  0.06936800  1
  O  O49  1  0.93505100  0.78907800  0.06884400  1
  O  O50  1  0.92175700  0.42769200  0.06759900  1
  O  O51  1  0.96394800  0.10313200  0.56835600  1
  O  O52  1  0.81597200  0.96221200  0.18149700  1
  O  O53  1  0.82809600  0.32387700  0.18178600  1
  O  O54  1  0.93588500  0.78777700  0.56900600  1
  O  O55  1  0.92372900  0.42926300  0.56755100  1
  O  O56  1  0.78573500  0.64636600  0.18086800  1
  O  O57  1  0.71459600  0.85382100  0.31859700  1
  O  O58  1  0.81624500  0.96216600  0.68127300  1
  O  O59  1  0.82082400  0.32452100  0.68233000  1
  O  O60  1  0.68485600  0.53792400  0.31879200  1
  O  O61  1  0.66910300  0.17869000  0.31721300  1
  O  O62  1  0.78697300  0.64757100  0.68141000  1
  O  O63  1  0.71439500  0.85967100  0.81870500  1
  O  O64  1  0.46702100  0.60707600  0.06967400  1
  O  O65  1  0.56587300  0.70926500  0.43140500  1
  O  O66  1  0.57581400  0.07092700  0.43343300  1
  O  O67  1  0.67093900  0.53335600  0.81886000  1
  O  O68  1  0.68317200  0.17509200  0.81766700  1
  O  O69  1  0.43353900  0.92358300  0.06776700  1
  O  O70  1  0.41855600  0.28568400  0.06860500  1
  O  O71  1  0.53261300  0.39142700  0.42958200  1
  O  O72  1  0.46714500  0.60562300  0.56976100  1
  O  O73  1  0.57470600  0.71678200  0.93264200  1
  O  O74  1  0.56679100  0.07772600  0.93265200  1
  O  O75  1  0.31771400  0.82552500  0.18267700  1
  O  O76  1  0.33075700  0.46383900  0.18084900  1
  O  O77  1  0.43324800  0.92226500  0.56758900  1
  O  O78  1  0.42585100  0.28342400  0.56765300  1
  O  O79  1  0.53230500  0.39422400  0.93015900  1
  O  O80  1  0.28288900  0.14159000  0.18033800  1
  O  O81  1  0.21287600  0.36179200  0.31858200  1
  O  O82  1  0.31644300  0.82490600  0.68237900  1
  O  O83  1  0.32915000  0.46669300  0.68122800  1
  O  O84  1  0.18216000  0.67506200  0.31719000  1
  O  O85  1  0.18059900  0.03705900  0.31855100  1
  O  O86  1  0.28569400  0.14016400  0.68135500  1
  O  O87  1  0.21302200  0.35250000  0.81857800  1
  O  O88  1  0.06582900  0.57506900  0.43220700  1
  O  O89  1  0.07537400  0.21647400  0.43085100  1
  O  O90  1  0.17952400  0.67553100  0.81777600  1
  O  O91  1  0.18362700  0.03775500  0.81873700  1
  O  O92  1  0.03752300  0.88961500  0.43152500  1
  O  O93  1  0.07607700  0.57061300  0.93244000  1
  O  O94  1  0.06362400  0.21195000  0.93092900  1
  O  O95  1  0.03680800  0.89680400  0.93170300  1
