# generated using pymatgen
data_Li3Ag2F5
_symmetry_space_group_name_H-M   'P 1'
_cell_length_a   5.75753400
_cell_length_b   8.16435494
_cell_length_c   11.94921889
_cell_angle_alpha   90.15139475
_cell_angle_beta   97.84943056
_cell_angle_gamma   98.98155164
_symmetry_Int_Tables_number   1
_chemical_formula_structural   Li3Ag2F5
_chemical_formula_sum   'Li12 Ag8 F20'
_cell_volume   549.44133126
_cell_formula_units_Z   4
loop_
 _symmetry_equiv_pos_site_id
 _symmetry_equiv_pos_as_xyz
  1  'x, y, z'
loop_
 _atom_site_type_symbol
 _atom_site_label
 _atom_site_symmetry_multiplicity
 _atom_site_fract_x
 _atom_site_fract_y
 _atom_site_fract_z
 _atom_site_occupancy
  Li  Li0  1  0.02118000  0.71338000  0.40300900  1
  Li  Li1  1  0.00724300  0.41806800  0.56241800  1
  Li  Li2  1  0.36449900  0.63484300  0.75795300  1
  Li  Li3  1  0.15945200  0.50658500  0.00907300  1
  Li  Li4  1  0.56889800  0.98584600  0.77010000  1
  Li  Li5  1  0.50672800  0.68592900  0.24288000  1
  Li  Li6  1  0.57056100  0.37328600  0.71100800  1
  Li  Li7  1  0.49417900  0.07306300  0.21307600  1
  Li  Li8  1  0.63396500  0.39848200  0.20769400  1
  Li  Li9  1  0.99776200  0.83758800  0.60467800  1
  Li  Li10  1  0.91312600  0.12308100  0.41103700  1
  Li  Li11  1  0.92305500  0.15236300  0.03652600  1
  Ag  Ag12  1  0.06749400  0.16746100  0.76638600  1
  Ag  Ag13  1  0.37334600  0.97046300  0.98947600  1
  Ag  Ag14  1  0.10218500  0.40967400  0.25922700  1
  Ag  Ag15  1  0.56746900  0.40159200  0.95384100  1
  Ag  Ag16  1  0.51915400  0.49664700  0.47178500  1
  Ag  Ag17  1  0.44720700  0.06322300  0.51850600  1
  Ag  Ag18  1  0.96987700  0.79638800  0.86335500  1
  Ag  Ag19  1  0.96883800  0.81695000  0.12192800  1
  F  F20  1  0.05176200  0.94106400  0.46002100  1
  F  F21  1  0.10622700  0.29258300  0.94673000  1
  F  F22  1  0.28110800  0.65807500  0.90681500  1
  F  F23  1  0.28780100  0.84644900  0.70496700  1
  F  F24  1  0.12735400  0.31449200  0.44091500  1
  F  F25  1  0.26639300  0.43444000  0.67150300  1
  F  F26  1  0.31041500  0.68698300  0.35574800  1
  F  F27  1  0.16409900  0.07704900  0.14940600  1
  F  F28  1  0.38255800  0.49710600  0.14119600  1
  F  F29  1  0.49072000  0.19162900  0.80355900  1
  F  F30  1  0.75018500  0.97754500  0.92616700  1
  F  F31  1  0.57833000  0.87657200  0.16667700  1
  F  F32  1  0.67732700  0.57455500  0.79494600  1
  F  F33  1  0.79454500  0.95341700  0.67461500  1
  F  F34  1  0.62312400  0.17754100  0.34864200  1
  F  F35  1  0.72172700  0.29124300  0.59793100  1
  F  F36  1  0.77370000  0.58307400  0.30289500  1
  F  F37  1  0.68606500  0.22085900  0.11813800  1
  F  F38  1  0.91661000  0.62554400  0.53774700  1
  F  F39  1  0.90274500  0.55108600  0.07870300  1
