# generated using pymatgen
data_Li2CrPHO5
_symmetry_space_group_name_H-M   'P 1'
_cell_length_a   5.62224114
_cell_length_b   5.54707509
_cell_length_c   13.43066435
_cell_angle_alpha   85.68391512
_cell_angle_beta   82.01205159
_cell_angle_gamma   89.03629146
_symmetry_Int_Tables_number   1
_chemical_formula_structural   Li2CrPHO5
_chemical_formula_sum   'Li8 Cr4 P4 H4 O20'
_cell_volume   413.61303222
_cell_formula_units_Z   4
loop_
 _symmetry_equiv_pos_site_id
 _symmetry_equiv_pos_as_xyz
  1  'x, y, z'
loop_
 _atom_site_type_symbol
 _atom_site_label
 _atom_site_symmetry_multiplicity
 _atom_site_fract_x
 _atom_site_fract_y
 _atom_site_fract_z
 _atom_site_occupancy
  Li  Li0  1  0.06390200  0.69881400  0.40363400  1
  Li  Li1  1  0.56431600  0.19868500  0.90361200  1
  Li  Li2  1  0.43572700  0.80129500  0.09639200  1
  Li  Li3  1  0.93617100  0.30102900  0.59638200  1
  Li  Li4  1  0.37917600  0.02678100  0.40832200  1
  Li  Li5  1  0.87896300  0.52686300  0.90848900  1
  Li  Li6  1  0.12108700  0.47318000  0.09161200  1
  Li  Li7  1  0.62067500  0.97310400  0.59158200  1
  Cr  Cr8  1  0.99965100  0.99999100  0.00006900  1
  Cr  Cr9  1  0.75026200  0.74974000  0.24977400  1
  Cr  Cr10  1  0.25025100  0.25044200  0.75035200  1
  Cr  Cr11  1  0.49968100  0.49973600  0.49995300  1
  P  P12  1  0.56532600  0.26514600  0.11760600  1
  P  P13  1  0.06537000  0.76522500  0.61755900  1
  P  P14  1  0.93462200  0.23469600  0.38237900  1
  P  P15  1  0.43457200  0.73477300  0.88245300  1
  H  H16  1  0.11015600  0.92592000  0.18329300  1
  H  H17  1  0.60979600  0.42583100  0.68297700  1
  H  H18  1  0.39032100  0.57436300  0.31683200  1
  H  H19  1  0.89005100  0.07409000  0.81681100  1
  O  O20  1  0.44707800  0.68192800  0.36360700  1
  O  O21  1  0.94616700  0.18180900  0.86374100  1
  O  O22  1  0.05388500  0.81828400  0.13634500  1
  O  O23  1  0.55289400  0.31797000  0.63628800  1
  O  O24  1  0.55585700  0.02790000  0.18736400  1
  O  O25  1  0.05607200  0.52774800  0.68726800  1
  O  O26  1  0.94411400  0.47216800  0.31263700  1
  O  O27  1  0.44423800  0.97204400  0.81263900  1
  O  O28  1  0.01440700  0.00932300  0.32601700  1
  O  O29  1  0.51416700  0.50931500  0.82611400  1
  O  O30  1  0.48551500  0.49070600  0.17395700  1
  O  O31  1  0.98583600  0.99072200  0.67398300  1
  O  O32  1  0.38961500  0.23132600  0.03948000  1
  O  O33  1  0.88942800  0.73141700  0.53955100  1
  O  O34  1  0.11044500  0.26868600  0.46044900  1
  O  O35  1  0.61043900  0.76858100  0.96051600  1
  O  O36  1  0.82987300  0.30142300  0.06128200  1
  O  O37  1  0.32978400  0.80143700  0.56110100  1
  O  O38  1  0.67008500  0.19856300  0.43873900  1
  O  O39  1  0.17001500  0.69879800  0.93884400  1
