# generated using pymatgen
data_LiVSiO4
_symmetry_space_group_name_H-M   'P 1'
_cell_length_a   5.49890700
_cell_length_b   8.28365800
_cell_length_c   18.79596400
_cell_angle_alpha   90.00000000
_cell_angle_beta   90.00000000
_cell_angle_gamma   90.00000000
_symmetry_Int_Tables_number   1
_chemical_formula_structural   LiVSiO4
_chemical_formula_sum   'Li12 V12 Si12 O48'
_cell_volume   856.17617718
_cell_formula_units_Z   12
loop_
 _symmetry_equiv_pos_site_id
 _symmetry_equiv_pos_as_xyz
  1  'x, y, z'
loop_
 _atom_site_type_symbol
 _atom_site_label
 _atom_site_symmetry_multiplicity
 _atom_site_fract_x
 _atom_site_fract_y
 _atom_site_fract_z
 _atom_site_occupancy
  Li  Li0  1  0.47424100  0.17511000  0.91693000  1
  Li  Li1  1  0.02575900  0.67511000  0.91693000  1
  Li  Li2  1  0.50000000  0.83010700  0.75000000  1
  Li  Li3  1  0.00000000  0.33010700  0.75000000  1
  Li  Li4  1  0.52575900  0.17511000  0.58307000  1
  Li  Li5  1  0.97424100  0.67511000  0.58307000  1
  Li  Li6  1  0.47424100  0.82489000  0.41693000  1
  Li  Li7  1  0.02575900  0.32489000  0.41693000  1
  Li  Li8  1  0.50000000  0.16989300  0.25000000  1
  Li  Li9  1  0.00000000  0.66989300  0.25000000  1
  Li  Li10  1  0.52575900  0.82489000  0.08307000  1
  Li  Li11  1  0.97424100  0.32489000  0.08307000  1
  V  V12  1  0.50000000  0.50000000  0.00000000  1
  V  V13  1  0.00000000  0.00000000  0.00000000  1
  V  V14  1  0.99914100  0.00087200  0.83315800  1
  V  V15  1  0.50085900  0.50087200  0.83315800  1
  V  V16  1  0.00085900  0.00087200  0.66684200  1
  V  V17  1  0.49914100  0.50087200  0.66684200  1
  V  V18  1  0.50000000  0.50000000  0.50000000  1
  V  V19  1  0.00000000  0.00000000  0.50000000  1
  V  V20  1  0.99914100  0.99912800  0.33315800  1
  V  V21  1  0.50085900  0.49912800  0.33315800  1
  V  V22  1  0.00085900  0.99912800  0.16684200  1
  V  V23  1  0.49914100  0.49912800  0.16684200  1
  Si  Si24  1  0.50326500  0.84913700  0.91657600  1
  Si  Si25  1  0.99673500  0.34913700  0.91657600  1
  Si  Si26  1  0.50000000  0.15222700  0.75000000  1
  Si  Si27  1  0.00000000  0.65222700  0.75000000  1
  Si  Si28  1  0.49673500  0.84913700  0.58342400  1
  Si  Si29  1  0.00326500  0.34913700  0.58342400  1
  Si  Si30  1  0.50326500  0.15086300  0.41657600  1
  Si  Si31  1  0.99673500  0.65086300  0.41657600  1
  Si  Si32  1  0.50000000  0.84777300  0.25000000  1
  Si  Si33  1  0.00000000  0.34777300  0.25000000  1
  Si  Si34  1  0.49673500  0.15086300  0.08342400  1
  Si  Si35  1  0.00326500  0.65086300  0.08342400  1
  O  O36  1  0.00232700  0.76272700  0.01215800  1
  O  O37  1  0.50232700  0.73727300  0.98784200  1
  O  O38  1  0.99767300  0.23727300  0.98784200  1
  O  O39  1  0.75671100  0.47334300  0.91658600  1
  O  O40  1  0.23881000  0.47196600  0.91667600  1
  O  O41  1  0.26119000  0.97196600  0.91667600  1
  O  O42  1  0.74328900  0.97334300  0.91658600  1
  O  O43  1  0.49792800  0.73753700  0.84521000  1
  O  O44  1  0.00207200  0.23753700  0.84521000  1
  O  O45  1  0.49771200  0.26345000  0.82142600  1
  O  O46  1  0.00228800  0.76345000  0.82142600  1
  O  O47  1  0.23884600  0.52753400  0.74997700  1
  O  O48  1  0.76115400  0.52753400  0.75002300  1
  O  O49  1  0.73884600  0.02753400  0.75002300  1
  O  O50  1  0.26115400  0.02753400  0.74997700  1
  O  O51  1  0.50228800  0.26345000  0.67857400  1
  O  O52  1  0.99771200  0.76345000  0.67857400  1
  O  O53  1  0.50207200  0.73753700  0.65479000  1
  O  O54  1  0.99792800  0.23753700  0.65479000  1
  O  O55  1  0.24328900  0.47334300  0.58341400  1
  O  O56  1  0.76119000  0.47196600  0.58332400  1
  O  O57  1  0.73881000  0.97196600  0.58332400  1
  O  O58  1  0.25671100  0.97334300  0.58341400  1
  O  O59  1  0.49767300  0.73727300  0.51215800  1
  O  O60  1  0.00232700  0.23727300  0.51215800  1
  O  O61  1  0.50232700  0.26272700  0.48784200  1
  O  O62  1  0.99767300  0.76272700  0.48784200  1
  O  O63  1  0.75671100  0.52665700  0.41658600  1
  O  O64  1  0.23881000  0.52803400  0.41667600  1
  O  O65  1  0.26119000  0.02803400  0.41667600  1
  O  O66  1  0.74328900  0.02665700  0.41658600  1
  O  O67  1  0.49792800  0.26246300  0.34521000  1
  O  O68  1  0.00207200  0.76246300  0.34521000  1
  O  O69  1  0.49771200  0.73655000  0.32142600  1
  O  O70  1  0.00228800  0.23655000  0.32142600  1
  O  O71  1  0.76115400  0.47246600  0.25002300  1
  O  O72  1  0.23884600  0.47246600  0.24997700  1
  O  O73  1  0.26115400  0.97246600  0.24997700  1
  O  O74  1  0.73884600  0.97246600  0.25002300  1
  O  O75  1  0.50228800  0.73655000  0.17857400  1
  O  O76  1  0.99771200  0.23655000  0.17857400  1
  O  O77  1  0.50207200  0.26246300  0.15479000  1
  O  O78  1  0.99792800  0.76246300  0.15479000  1
  O  O79  1  0.24328900  0.52665700  0.08341400  1
  O  O80  1  0.76119000  0.52803400  0.08332400  1
  O  O81  1  0.73881000  0.02803400  0.08332400  1
  O  O82  1  0.25671100  0.02665700  0.08341400  1
  O  O83  1  0.49767300  0.26272700  0.01215800  1
