# generated using pymatgen
data_LiCrPO5
_symmetry_space_group_name_H-M   'P 1'
_cell_length_a   6.21980900
_cell_length_b   10.45583700
_cell_length_c   12.58169000
_cell_angle_alpha   90.00000000
_cell_angle_beta   90.00000000
_cell_angle_gamma   90.00000000
_symmetry_Int_Tables_number   1
_chemical_formula_structural   LiCrPO5
_chemical_formula_sum   'Li8 Cr8 P8 O40'
_cell_volume   818.22893446
_cell_formula_units_Z   8
loop_
 _symmetry_equiv_pos_site_id
 _symmetry_equiv_pos_as_xyz
  1  'x, y, z'
loop_
 _atom_site_type_symbol
 _atom_site_label
 _atom_site_symmetry_multiplicity
 _atom_site_fract_x
 _atom_site_fract_y
 _atom_site_fract_z
 _atom_site_occupancy
  Li  Li0  1  0.85822700  0.07262100  0.09830200  1
  Li  Li1  1  0.28198300  0.83110400  0.16286800  1
  Li  Li2  1  0.78198300  0.33110400  0.33713200  1
  Li  Li3  1  0.35822700  0.57262100  0.40169800  1
  Li  Li4  1  0.64177300  0.07262100  0.59830200  1
  Li  Li5  1  0.21801700  0.83110400  0.66286800  1
  Li  Li6  1  0.71801700  0.33110400  0.83713200  1
  Li  Li7  1  0.14177300  0.57262100  0.90169800  1
  Cr  Cr8  1  0.99896300  0.50852000  0.12984400  1
  Cr  Cr9  1  0.24910800  0.25814300  0.24706700  1
  Cr  Cr10  1  0.74910800  0.75814300  0.25293300  1
  Cr  Cr11  1  0.49896300  0.00852000  0.37015600  1
  Cr  Cr12  1  0.50103700  0.50852000  0.62984400  1
  Cr  Cr13  1  0.25089200  0.25814300  0.74706700  1
  Cr  Cr14  1  0.75089200  0.75814300  0.75293300  1
  Cr  Cr15  1  0.00103700  0.00852000  0.87015600  1
  P  P16  1  0.82923100  0.76735500  0.00365900  1
  P  P17  1  0.50203700  0.50725200  0.18770300  1
  P  P18  1  0.00203700  0.00725200  0.31229700  1
  P  P19  1  0.32923100  0.26735500  0.49634100  1
  P  P20  1  0.67076900  0.76735500  0.50365900  1
  P  P21  1  0.99796300  0.50725200  0.68770300  1
  P  P22  1  0.49796300  0.00725200  0.81229700  1
  P  P23  1  0.17076900  0.26735500  0.99634100  1
  O  O24  1  0.03190600  0.39224900  0.00133700  1
  O  O25  1  0.99089500  0.65381400  0.01598800  1
  O  O26  1  0.31214100  0.24804100  0.09475500  1
  O  O27  1  0.67495800  0.77616800  0.10009300  1
  O  O28  1  0.69238200  0.48705300  0.11270100  1
  O  O29  1  0.30731800  0.53243600  0.11656200  1
  O  O30  1  0.96009300  0.63491300  0.22585500  1
  O  O31  1  0.02002800  0.37809500  0.22645000  1
  O  O32  1  0.02490900  0.12160900  0.23266200  1
  O  O33  1  0.97748700  0.89078800  0.23554300  1
  O  O34  1  0.47748700  0.39078800  0.26445700  1
  O  O35  1  0.52490900  0.62160900  0.26733800  1
  O  O36  1  0.52002800  0.87809500  0.27355000  1
  O  O37  1  0.46009300  0.13491300  0.27414500  1
  O  O38  1  0.80731800  0.03243600  0.38343800  1
  O  O39  1  0.19238200  0.98705300  0.38729900  1
  O  O40  1  0.17495800  0.27616800  0.39990700  1
  O  O41  1  0.81214100  0.74804100  0.40524500  1
  O  O42  1  0.49089500  0.15381400  0.48401200  1
  O  O43  1  0.53190600  0.89224900  0.49866300  1
  O  O44  1  0.46809400  0.39224900  0.50133700  1
  O  O45  1  0.50910500  0.65381400  0.51598800  1
  O  O46  1  0.18785900  0.24804100  0.59475500  1
  O  O47  1  0.82504200  0.77616800  0.60009300  1
  O  O48  1  0.80761800  0.48705300  0.61270100  1
  O  O49  1  0.19268200  0.53243600  0.61656200  1
  O  O50  1  0.53990700  0.63491300  0.72585500  1
  O  O51  1  0.47997200  0.37809500  0.72645000  1
  O  O52  1  0.47509100  0.12160900  0.73266200  1
  O  O53  1  0.52251300  0.89078800  0.73554300  1
  O  O54  1  0.02251300  0.39078800  0.76445700  1
  O  O55  1  0.97509100  0.62160900  0.76733800  1
  O  O56  1  0.97997200  0.87809500  0.77355000  1
  O  O57  1  0.03990700  0.13491300  0.77414500  1
  O  O58  1  0.69268200  0.03243600  0.88343800  1
  O  O59  1  0.30761800  0.98705300  0.88729900  1
  O  O60  1  0.32504200  0.27616800  0.89990700  1
  O  O61  1  0.68785900  0.74804100  0.90524500  1
  O  O62  1  0.00910500  0.15381400  0.98401200  1
  O  O63  1  0.96809400  0.89224900  0.99866300  1
