# generated using pymatgen
data_Na2LiP3H8O13
_symmetry_space_group_name_H-M   'P 1'
_cell_length_a   6.97850500
_cell_length_b   9.46257988
_cell_length_c   9.99527984
_cell_angle_alpha   94.91305848
_cell_angle_beta   104.25882989
_cell_angle_gamma   107.92012380
_symmetry_Int_Tables_number   1
_chemical_formula_structural   Na2LiP3H8O13
_chemical_formula_sum   'Na4 Li2 P6 H16 O26'
_cell_volume   599.26859196
_cell_formula_units_Z   2
loop_
 _symmetry_equiv_pos_site_id
 _symmetry_equiv_pos_as_xyz
  1  'x, y, z'
loop_
 _atom_site_type_symbol
 _atom_site_label
 _atom_site_symmetry_multiplicity
 _atom_site_fract_x
 _atom_site_fract_y
 _atom_site_fract_z
 _atom_site_occupancy
  Na  Na0  1  0.56881200  0.94670300  0.84994700  1
  Na  Na1  1  0.43118800  0.05329700  0.15005300  1
  Na  Na2  1  0.18997800  0.65968500  0.96493900  1
  Na  Na3  1  0.81002200  0.34031500  0.03506100  1
  Li  Li4  1  0.63628600  0.74830300  0.61072000  1
  Li  Li5  1  0.36371400  0.25169700  0.38928000  1
  P  P6  1  0.26708900  0.29613900  0.96464600  1
  P  P7  1  0.73291100  0.70386100  0.03535400  1
  P  P8  1  0.17716200  0.22073900  0.66075800  1
  P  P9  1  0.82283800  0.77926100  0.33924200  1
  P  P10  1  0.07723800  0.98080100  0.82117000  1
  P  P11  1  0.92276200  0.01919900  0.17883000  1
  H  H12  1  0.27197600  0.79725900  0.54541700  1
  H  H13  1  0.72802400  0.20274100  0.45458300  1
  H  H14  1  0.28093800  0.69356400  0.65657700  1
  H  H15  1  0.71906200  0.30643600  0.34342300  1
  H  H16  1  0.57029900  0.21170900  0.71516000  1
  H  H17  1  0.42970100  0.78829100  0.28484000  1
  H  H18  1  0.79558500  0.20669800  0.74423300  1
  H  H19  1  0.20441500  0.79330200  0.25576700  1
  H  H20  1  0.51519000  0.45881700  0.63339300  1
  H  H21  1  0.48481000  0.54118300  0.36660700  1
  H  H22  1  0.65695600  0.56609900  0.77489900  1
  H  H23  1  0.34304400  0.43390100  0.22510100  1
  H  H24  1  0.92258600  0.57699600  0.68037700  1
  H  H25  1  0.07741400  0.42300400  0.31962300  1
  H  H26  1  0.02687500  0.45482300  0.67729600  1
  H  H27  1  0.97312500  0.54517700  0.32270400  1
  O  O28  1  0.30383000  0.32794300  0.81272900  1
  O  O29  1  0.69617000  0.67205700  0.18727100  1
  O  O30  1  0.07986500  0.13108100  0.91585800  1
  O  O31  1  0.92013500  0.86891900  0.08414200  1
  O  O32  1  0.82614000  0.59494100  0.98245500  1
  O  O33  1  0.17386000  0.40505900  0.01754500  1
  O  O34  1  0.53643300  0.71776300  0.94524700  1
  O  O35  1  0.46356700  0.28223700  0.05475300  1
  O  O36  1  0.16144400  0.05345600  0.69388800  1
  O  O37  1  0.83855600  0.94654400  0.30611200  1
  O  O38  1  0.32842300  0.25899800  0.57417800  1
  O  O39  1  0.67157700  0.74100200  0.42582200  1
  O  O40  1  0.96303200  0.23582600  0.61343600  1
  O  O41  1  0.03696800  0.76417400  0.38656400  1
  O  O42  1  0.85071000  0.88457300  0.76469000  1
  O  O43  1  0.14929000  0.11542700  0.23531000  1
  O  O44  1  0.23723500  0.91899200  0.89868900  1
  O  O45  1  0.76276500  0.08100800  0.10131100  1
  O  O46  1  0.37263000  0.77628900  0.62263600  1
  O  O47  1  0.62737000  0.22371100  0.37736400  1
  O  O48  1  0.67991000  0.19370200  0.78706800  1
  O  O49  1  0.32009000  0.80629800  0.21293200  1
  O  O50  1  0.63282800  0.55475900  0.67266000  1
  O  O51  1  0.36717200  0.44524100  0.32734000  1
  O  O52  1  0.06053900  0.56321800  0.70890400  1
  O  O53  1  0.93946100  0.43678200  0.29109600  1
