# generated using pymatgen
data_Li8Mn7Fe(BO3)8
_symmetry_space_group_name_H-M   'P 1'
_cell_length_a   5.18579500
_cell_length_b   6.04356604
_cell_length_c   17.87925060
_cell_angle_alpha   84.17320764
_cell_angle_beta   82.84853979
_cell_angle_gamma   66.84564382
_symmetry_Int_Tables_number   1
_chemical_formula_structural   Li8Mn7Fe(BO3)8
_chemical_formula_sum   'Li8 Mn7 Fe1 B8 O24'
_cell_volume   510.35395897
_cell_formula_units_Z   1
loop_
 _symmetry_equiv_pos_site_id
 _symmetry_equiv_pos_as_xyz
  1  'x, y, z'
loop_
 _atom_site_type_symbol
 _atom_site_label
 _atom_site_symmetry_multiplicity
 _atom_site_fract_x
 _atom_site_fract_y
 _atom_site_fract_z
 _atom_site_occupancy
  Li  Li0  1  0.75206800  0.16922300  0.15781100  1
  Li  Li1  1  0.74785100  0.07898000  0.59197500  1
  Li  Li2  1  0.24788700  0.32919500  0.34108200  1
  Li  Li3  1  0.25212100  0.42089400  0.90818400  1
  Li  Li4  1  0.74720800  0.57944500  0.09201500  1
  Li  Li5  1  0.75211400  0.67102100  0.65803300  1
  Li  Li6  1  0.25237500  0.92111800  0.40787200  1
  Li  Li7  1  0.24754000  0.82876500  0.84233800  1
  Mn  Mn8  1  0.28669700  0.17193000  0.06371600  1
  Mn  Mn9  1  0.21338800  0.07854100  0.68658600  1
  Mn  Mn10  1  0.71354000  0.32798600  0.43680100  1
  Mn  Mn11  1  0.78661100  0.42141200  0.81344200  1
  Mn  Mn12  1  0.28658100  0.67150700  0.56337300  1
  Mn  Mn13  1  0.78895400  0.91949800  0.31264000  1
  Mn  Mn14  1  0.71286100  0.82870800  0.93669500  1
  Fe  Fe15  1  0.22204400  0.57497900  0.18649500  1
  B  B16  1  0.27087000  0.03120300  0.23175200  1
  B  B17  1  0.22888700  0.21931400  0.51799500  1
  B  B18  1  0.72743100  0.47033000  0.26781300  1
  B  B19  1  0.22833200  0.71894800  0.01933900  1
  B  B20  1  0.77101700  0.28098900  0.98195900  1
  B  B21  1  0.27100300  0.53089300  0.73191200  1
  B  B22  1  0.77106200  0.78084800  0.48178500  1
  B  B23  1  0.72889300  0.96915400  0.76809000  1
  O  O24  1  0.11694400  0.09909200  0.57513000  1
  O  O25  1  0.38197100  0.15256000  0.17473000  1
  O  O26  1  0.64160900  0.00673200  0.69626400  1
  O  O27  1  0.14168700  0.25708200  0.44610200  1
  O  O28  1  0.85836800  0.24408200  0.05379700  1
  O  O29  1  0.94145800  0.04306300  0.78318800  1
  O  O30  1  0.44133000  0.29322300  0.53317000  1
  O  O31  1  0.61826100  0.35044600  0.32543900  1
  O  O32  1  0.11695200  0.60027100  0.07741400  1
  O  O33  1  0.55861000  0.20676900  0.96695800  1
  O  O34  1  0.05866700  0.45667900  0.71684300  1
  O  O35  1  0.63125500  0.50982500  0.19666800  1
  O  O36  1  0.35821600  0.49345100  0.80378900  1
  O  O37  1  0.94299300  0.54315900  0.28012400  1
  O  O38  1  0.44185600  0.79313800  0.03322800  1
  O  O39  1  0.88311800  0.40077100  0.92477100  1
  O  O40  1  0.38287500  0.65112400  0.67479500  1
  O  O41  1  0.55861700  0.70665600  0.46681600  1
  O  O42  1  0.06001000  0.95561500  0.21663800  1
  O  O43  1  0.14048000  0.75459800  0.94749800  1
  O  O44  1  0.85834500  0.74353200  0.55364000  1
  O  O45  1  0.35927800  0.99348600  0.30354500  1
  O  O46  1  0.61684400  0.84904100  0.82526000  1
  O  O47  1  0.88292100  0.90072500  0.42448800  1
