# generated using pymatgen
data_Li3Ti2(PO4)3
_symmetry_space_group_name_H-M   'P 1'
_cell_length_a   8.62448348
_cell_length_b   8.62448348
_cell_length_c   6.45213488
_cell_angle_alpha   73.99268508
_cell_angle_beta   73.99268508
_cell_angle_gamma   93.14095357
_symmetry_Int_Tables_number   1
_chemical_formula_structural   Li3Ti2(PO4)3
_chemical_formula_sum   'Li6 Ti4 P6 O24'
_cell_volume   438.95769206
_cell_formula_units_Z   2
loop_
 _symmetry_equiv_pos_site_id
 _symmetry_equiv_pos_as_xyz
  1  'x, y, z'
loop_
 _atom_site_type_symbol
 _atom_site_label
 _atom_site_symmetry_multiplicity
 _atom_site_fract_x
 _atom_site_fract_y
 _atom_site_fract_z
 _atom_site_occupancy
  Li  Li0  1  0.99701200  0.00298800  0.75000000  1
  Li  Li1  1  0.28855400  0.71144600  0.75000000  1
  Li  Li2  1  0.50000000  0.50000000  0.50000000  1
  Li  Li3  1  0.71144600  0.28855400  0.25000000  1
  Li  Li4  1  0.00298800  0.99701200  0.25000000  1
  Li  Li5  1  0.50000000  0.50000000  0.00000000  1
  Ti  Ti6  1  0.94800400  0.61200700  0.62262900  1
  Ti  Ti7  1  0.61200700  0.94800400  0.12262900  1
  Ti  Ti8  1  0.38799300  0.05199600  0.87737100  1
  Ti  Ti9  1  0.05199600  0.38799300  0.37737100  1
  P  P10  1  0.66212400  0.85944700  0.61659000  1
  P  P11  1  0.85944700  0.66212400  0.11659000  1
  P  P12  1  0.71123600  0.28876400  0.75000000  1
  P  P13  1  0.28876400  0.71123600  0.25000000  1
  P  P14  1  0.14055300  0.33787600  0.88341000  1
  P  P15  1  0.33787600  0.14055300  0.38341000  1
  O  O16  1  0.98539000  0.65881200  0.89388900  1
  O  O17  1  0.84603800  0.83529100  0.58243200  1
  O  O18  1  0.60845700  0.94699300  0.80669500  1
  O  O19  1  0.65881200  0.98539000  0.39388900  1
  O  O20  1  0.83529100  0.84603800  0.08243200  1
  O  O21  1  0.94699300  0.60845700  0.30669500  1
  O  O22  1  0.54401200  0.70341000  0.68902600  1
  O  O23  1  0.73690600  0.46564700  0.75990600  1
  O  O24  1  0.70341000  0.54401200  0.18902600  1
  O  O25  1  0.82539600  0.26182800  0.53424000  1
  O  O26  1  0.73817200  0.17460400  0.96576000  1
  O  O27  1  0.46564700  0.73690600  0.25990600  1
  O  O28  1  0.53435300  0.26309400  0.74009400  1
  O  O29  1  0.26182800  0.82539600  0.03424000  1
  O  O30  1  0.17460400  0.73817200  0.46576000  1
  O  O31  1  0.29659000  0.45598800  0.81097400  1
  O  O32  1  0.26309400  0.53435300  0.24009400  1
  O  O33  1  0.45598800  0.29659000  0.31097400  1
  O  O34  1  0.05300700  0.39154300  0.69330500  1
  O  O35  1  0.16470900  0.15396200  0.91756800  1
  O  O36  1  0.34118800  0.01461000  0.60611100  1
  O  O37  1  0.39154300  0.05300700  0.19330500  1
  O  O38  1  0.15396200  0.16470900  0.41756800  1
  O  O39  1  0.01461000  0.34118800  0.10611100  1
