# generated using pymatgen
data_Li2VF5
_symmetry_space_group_name_H-M   'P 1'
_cell_length_a   5.51035900
_cell_length_b   7.42054500
_cell_length_c   19.25321100
_cell_angle_alpha   90.00000000
_cell_angle_beta   90.00000000
_cell_angle_gamma   90.00000000
_symmetry_Int_Tables_number   1
_chemical_formula_structural   Li2VF5
_chemical_formula_sum   'Li16 V8 F40'
_cell_volume   787.26123568
_cell_formula_units_Z   8
loop_
 _symmetry_equiv_pos_site_id
 _symmetry_equiv_pos_as_xyz
  1  'x, y, z'
loop_
 _atom_site_type_symbol
 _atom_site_label
 _atom_site_symmetry_multiplicity
 _atom_site_fract_x
 _atom_site_fract_y
 _atom_site_fract_z
 _atom_site_occupancy
  Li  Li0  1  0.50000000  0.10104100  0.65632700  1
  Li  Li1  1  0.00000000  0.23071800  0.08482400  1
  Li  Li2  1  0.00000000  0.27251000  0.73479600  1
  Li  Li3  1  0.50000000  0.18265400  0.51848200  1
  Li  Li4  1  0.50000000  0.31734600  0.01848200  1
  Li  Li5  1  0.00000000  0.22749000  0.23479600  1
  Li  Li6  1  0.00000000  0.26928200  0.58482400  1
  Li  Li7  1  0.50000000  0.39895900  0.15632700  1
  Li  Li8  1  0.50000000  0.60104100  0.84367300  1
  Li  Li9  1  0.00000000  0.73071800  0.41517600  1
  Li  Li10  1  0.00000000  0.77251000  0.76520400  1
  Li  Li11  1  0.50000000  0.68265400  0.98151800  1
  Li  Li12  1  0.50000000  0.81734600  0.48151800  1
  Li  Li13  1  0.00000000  0.72749000  0.26520400  1
  Li  Li14  1  0.00000000  0.76928200  0.91517600  1
  Li  Li15  1  0.50000000  0.89895900  0.34367300  1
  V  V16  1  0.50000000  0.99922300  0.84614700  1
  V  V17  1  0.00000000  0.14124000  0.39700200  1
  V  V18  1  0.00000000  0.35876000  0.89700200  1
  V  V19  1  0.50000000  0.50077700  0.34614700  1
  V  V20  1  0.50000000  0.49922300  0.65385300  1
  V  V21  1  0.00000000  0.64124000  0.10299800  1
  V  V22  1  0.00000000  0.85876000  0.60299800  1
  V  V23  1  0.50000000  0.00077700  0.15385300  1
  F  F24  1  0.00000000  0.03282000  0.30372700  1
  F  F25  1  0.26101000  0.03256800  0.57477800  1
  F  F26  1  0.73899000  0.03256800  0.57477800  1
  F  F27  1  0.50000000  0.09066800  0.05949600  1
  F  F28  1  0.75667300  0.18939000  0.16553300  1
  F  F29  1  0.24332700  0.18939000  0.16553300  1
  F  F30  1  0.50000000  0.03870800  0.74833500  1
  F  F31  1  0.25078900  0.18855000  0.86157500  1
  F  F32  1  0.74921100  0.18855000  0.86157500  1
  F  F33  1  0.00000000  0.23502400  0.98497100  1
  F  F34  1  0.00000000  0.26497600  0.48497100  1
  F  F35  1  0.25078900  0.31145000  0.36157500  1
  F  F36  1  0.74921100  0.31145000  0.36157500  1
  F  F37  1  0.50000000  0.46129200  0.24833500  1
  F  F38  1  0.24332700  0.31061000  0.66553300  1
  F  F39  1  0.75667300  0.31061000  0.66553300  1
  F  F40  1  0.50000000  0.40933200  0.55949600  1
  F  F41  1  0.26101000  0.46743200  0.07477800  1
  F  F42  1  0.73899000  0.46743200  0.07477800  1
  F  F43  1  0.00000000  0.46718000  0.80372700  1
  F  F44  1  0.00000000  0.53282000  0.19627300  1
  F  F45  1  0.26101000  0.53256800  0.92522200  1
  F  F46  1  0.73899000  0.53256800  0.92522200  1
  F  F47  1  0.50000000  0.59066800  0.44050400  1
  F  F48  1  0.24332700  0.68939000  0.33446700  1
  F  F49  1  0.75667300  0.68939000  0.33446700  1
  F  F50  1  0.50000000  0.53870800  0.75166500  1
  F  F51  1  0.25078900  0.68855000  0.63842500  1
  F  F52  1  0.74921100  0.68855000  0.63842500  1
  F  F53  1  0.00000000  0.73502400  0.51502900  1
  F  F54  1  0.00000000  0.76497600  0.01502900  1
  F  F55  1  0.25078900  0.81145000  0.13842500  1
  F  F56  1  0.74921100  0.81145000  0.13842500  1
  F  F57  1  0.50000000  0.96129200  0.25166500  1
  F  F58  1  0.24332700  0.81061000  0.83446700  1
  F  F59  1  0.75667300  0.81061000  0.83446700  1
  F  F60  1  0.50000000  0.90933200  0.94050400  1
  F  F61  1  0.26101000  0.96743200  0.42522200  1
  F  F62  1  0.73899000  0.96743200  0.42522200  1
  F  F63  1  0.00000000  0.96718000  0.69627300  1
