# generated using pymatgen
data_LiNiPO4
_symmetry_space_group_name_H-M   'P 1'
_cell_length_a   4.88639400
_cell_length_b   9.02897700
_cell_length_c   6.30512000
_cell_angle_alpha   90.00033389
_cell_angle_beta   89.99927947
_cell_angle_gamma   89.99960933
_symmetry_Int_Tables_number   1
_chemical_formula_structural   LiNiPO4
_chemical_formula_sum   'Li4 Ni4 P4 O16'
_cell_volume   278.17646592
_cell_formula_units_Z   4
loop_
 _symmetry_equiv_pos_site_id
 _symmetry_equiv_pos_as_xyz
  1  'x, y, z'
loop_
 _atom_site_type_symbol
 _atom_site_label
 _atom_site_symmetry_multiplicity
 _atom_site_fract_x
 _atom_site_fract_y
 _atom_site_fract_z
 _atom_site_occupancy
  Li  Li0  1  0.47933700  0.16344100  0.74999300  1
  Li  Li1  1  0.97930600  0.33656600  0.25001900  1
  Li  Li2  1  0.02070400  0.66345100  0.75001400  1
  Li  Li3  1  0.52070000  0.83655000  0.25000600  1
  Ni  Ni4  1  0.99995400  0.99993600  0.49968800  1
  Ni  Ni5  1  0.49960200  0.49978400  0.50021900  1
  Ni  Ni6  1  0.00013000  0.00018000  0.99994400  1
  Ni  Ni7  1  0.49995300  0.50008400  0.00010100  1
  P  P8  1  0.47599900  0.17862300  0.25000200  1
  P  P9  1  0.97594800  0.32136200  0.75001400  1
  P  P10  1  0.02402300  0.67863000  0.25000700  1
  P  P11  1  0.52407100  0.82136100  0.75001300  1
  O  O12  1  0.78716000  0.13516900  0.25000000  1
  O  O13  1  0.28713500  0.36483300  0.74999700  1
  O  O14  1  0.71284700  0.63515800  0.25001400  1
  O  O15  1  0.21286100  0.86484800  0.74998900  1
  O  O16  1  0.92442600  0.14761000  0.74994800  1
  O  O17  1  0.42439600  0.35236700  0.25002900  1
  O  O18  1  0.57562600  0.64757800  0.75003500  1
  O  O19  1  0.07565800  0.85240200  0.24994500  1
  O  O20  1  0.34021100  0.11945900  0.04734800  1
  O  O21  1  0.34016200  0.11943100  0.45262500  1
  O  O22  1  0.84015000  0.38056200  0.95267600  1
  O  O23  1  0.84014500  0.38057400  0.54736400  1
  O  O24  1  0.15985200  0.61943000  0.04736100  1
  O  O25  1  0.15987400  0.61943700  0.45263900  1
  O  O26  1  0.65987600  0.88057700  0.54734500  1
  O  O27  1  0.65989500  0.88059700  0.95266700  1
