# generated using pymatgen
data_Li24Mn7Cr5O36
_symmetry_space_group_name_H-M   'P 1'
_cell_length_a   5.01502400
_cell_length_b   9.74686043
_cell_length_c   13.27839346
_cell_angle_alpha   97.20789452
_cell_angle_beta   100.76349028
_cell_angle_gamma   94.77816045
_symmetry_Int_Tables_number   1
_chemical_formula_structural   Li24Mn7Cr5O36
_chemical_formula_sum   'Li24 Mn7 Cr5 O36'
_cell_volume   628.79503648
_cell_formula_units_Z   1
loop_
 _symmetry_equiv_pos_site_id
 _symmetry_equiv_pos_as_xyz
  1  'x, y, z'
loop_
 _atom_site_type_symbol
 _atom_site_label
 _atom_site_symmetry_multiplicity
 _atom_site_fract_x
 _atom_site_fract_y
 _atom_site_fract_z
 _atom_site_occupancy
  Li  Li0  1  0.16512900  0.99976000  0.83464700  1
  Li  Li1  1  0.04748200  0.00075100  0.61360700  1
  Li  Li2  1  0.00123800  0.75018600  0.25020000  1
  Li  Li3  1  0.32945200  0.75066400  0.91745600  1
  Li  Li4  1  0.04938900  0.49882900  0.11190900  1
  Li  Li5  1  0.37853300  0.49961900  0.77705000  1
  Li  Li6  1  0.16505500  0.49944600  0.33285400  1
  Li  Li7  1  0.50204600  0.50002400  0.00099300  1
  Li  Li8  1  0.27902900  0.50022600  0.55518900  1
  Li  Li9  1  0.32950000  0.25061500  0.41571500  1
  Li  Li10  1  0.50583200  0.99902200  0.49888200  1
  Li  Li11  1  0.28180600  0.00002300  0.05332400  1
  Li  Li12  1  0.61939400  0.99998500  0.71987700  1
  Li  Li13  1  0.37973500  0.99890700  0.27863200  1
  Li  Li14  1  0.71884300  0.00081300  0.94733100  1
  Li  Li15  1  0.66905700  0.74878000  0.58382300  1
  Li  Li16  1  0.71933300  0.50069200  0.44639000  1
  Li  Li17  1  0.83607300  0.50066300  0.66687900  1
  Li  Li18  1  0.61932100  0.50216900  0.22123000  1
  Li  Li19  1  0.95312600  0.49928700  0.88752400  1
  Li  Li20  1  0.66470000  0.24907100  0.08327200  1
  Li  Li21  1  0.83237900  0.00023200  0.16688200  1
  Li  Li22  1  0.99804700  0.25006800  0.74955600  1
  Li  Li23  1  0.95256200  0.99827700  0.38629600  1
  Mn  Mn24  1  0.10947300  0.24907600  0.97308800  1
  Mn  Mn25  1  0.21806600  0.74722600  0.69400600  1
  Mn  Mn26  1  0.22005400  0.24840400  0.19339400  1
  Mn  Mn27  1  0.44481200  0.74977700  0.13882100  1
  Mn  Mn28  1  0.55714900  0.75149400  0.35998800  1
  Mn  Mn29  1  0.89384100  0.25179700  0.52829700  1
  Mn  Mn30  1  0.89248200  0.75139100  0.02873400  1
  Cr  Cr31  1  0.11732100  0.75024400  0.47361100  1
  Cr  Cr32  1  0.44671800  0.25140700  0.63663300  1
  Cr  Cr33  1  0.55072100  0.24927800  0.86094800  1
  Cr  Cr34  1  0.76967100  0.75049900  0.80716900  1
  Cr  Cr35  1  0.77036200  0.25026100  0.30599200  1
  O  O36  1  0.00319700  0.86364300  0.93178400  1
  O  O37  1  0.07063400  0.63643000  0.78567000  1
  O  O38  1  0.00562600  0.36411800  0.43111400  1
  O  O39  1  0.13769200  0.36284800  0.64320000  1
  O  O40  1  0.26446500  0.36422600  0.88345200  1
  O  O41  1  0.32802200  0.86155000  0.59500900  1
  O  O42  1  0.07074700  0.13588000  0.28473100  1
  O  O43  1  0.19252800  0.13828900  0.52511100  1
  O  O44  1  0.40074500  0.13522200  0.95270900  1
  O  O45  1  0.14428000  0.86135600  0.14348900  1
  O  O46  1  0.26813500  0.86603200  0.38018600  1
  O  O47  1  0.47860200  0.86138500  0.80876200  1
  O  O48  1  0.34132800  0.13780200  0.73880800  1
  O  O49  1  0.19139200  0.63831300  0.02365800  1
  O  O50  1  0.39856600  0.63690700  0.44988200  1
  O  O51  1  0.51611000  0.63704400  0.68802700  1
  O  O52  1  0.33323100  0.63846100  0.23763700  1
  O  O53  1  0.67222900  0.63835100  0.90404500  1
  O  O54  1  0.33407800  0.36149500  0.09567900  1
  O  O55  1  0.66203500  0.36305600  0.76017000  1
  O  O56  1  0.47771500  0.36189400  0.30861200  1
  O  O57  1  0.59715500  0.36344800  0.54785000  1
  O  O58  1  0.81114300  0.36243300  0.97547200  1
  O  O59  1  0.66879300  0.86196500  0.26133500  1
  O  O60  1  0.51687700  0.13663900  0.18880400  1
  O  O61  1  0.74236800  0.13445800  0.61707100  1
  O  O62  1  0.85955000  0.13738700  0.85792900  1
  O  O63  1  0.59723600  0.86302100  0.04799800  1
  O  O64  1  0.80982700  0.86195100  0.47529500  1
  O  O65  1  0.93052600  0.86373300  0.71604300  1
  O  O66  1  0.67272300  0.13860400  0.40364000  1
  O  O67  1  0.73695100  0.63598500  0.11845000  1
  O  O68  1  0.85491200  0.63805400  0.35739200  1
  O  O69  1  0.99549100  0.63711100  0.57312500  1
  O  O70  1  0.93169700  0.36376000  0.21620900  1
  O  O71  1  0.99566100  0.13818700  0.07145500  1
