# generated using pymatgen
data_Li5V3P8O29
_symmetry_space_group_name_H-M   'P 1'
_cell_length_a   9.76095700
_cell_length_b   9.78640849
_cell_length_c   14.12276637
_cell_angle_alpha   90.18456781
_cell_angle_beta   89.94128332
_cell_angle_gamma   119.77010143
_symmetry_Int_Tables_number   1
_chemical_formula_structural   Li5V3P8O29
_chemical_formula_sum   'Li10 V6 P16 O58'
_cell_volume   1171.02248382
_cell_formula_units_Z   2
loop_
 _symmetry_equiv_pos_site_id
 _symmetry_equiv_pos_as_xyz
  1  'x, y, z'
loop_
 _atom_site_type_symbol
 _atom_site_label
 _atom_site_symmetry_multiplicity
 _atom_site_fract_x
 _atom_site_fract_y
 _atom_site_fract_z
 _atom_site_occupancy
  Li  Li0  1  0.76641600  0.09489400  0.44362300  1
  Li  Li1  1  0.89273700  0.64578100  0.44059700  1
  Li  Li2  1  0.76396100  0.67093700  0.94016400  1
  Li  Li3  1  0.32990900  0.09463000  0.93644700  1
  Li  Li4  1  0.32281400  0.22818200  0.43732300  1
  Li  Li5  1  0.68973100  0.91935700  0.06088700  1
  Li  Li6  1  0.33086300  0.66081000  0.89538900  1
  Li  Li7  1  0.09946800  0.33148700  0.55957200  1
  Li  Li8  1  0.04263700  0.06320500  0.00253700  1
  Li  Li9  1  0.99187800  0.95063700  0.49853200  1
  V  V10  1  0.56181700  0.56308300  0.74785400  1
  V  V11  1  0.43525600  0.43484100  0.25493500  1
  V  V12  1  0.56257800  0.00096300  0.25120200  1
  V  V13  1  0.43365600  0.99478500  0.74645900  1
  V  V14  1  0.99323200  0.43168100  0.75430600  1
  V  V15  1  0.00081200  0.56709300  0.24109800  1
  P  P16  1  0.91813200  0.22035400  0.16041600  1
  P  P17  1  0.77671600  0.08529300  0.66039900  1
  P  P18  1  0.91356800  0.68663000  0.65461300  1
  P  P19  1  0.66026500  0.33060100  0.87084300  1
  P  P20  1  0.67559100  0.33819800  0.36944900  1
  P  P21  1  0.76993200  0.68399000  0.15533400  1
  P  P22  1  0.69649900  0.77953700  0.33887800  1
  P  P23  1  0.31293000  0.08947500  0.15642200  1
  P  P24  1  0.68651400  0.90951900  0.84448900  1
  P  P25  1  0.31322600  0.22631500  0.65442500  1
  P  P26  1  0.21791700  0.30991700  0.83669000  1
  P  P27  1  0.32746200  0.65902200  0.63378900  1
  P  P28  1  0.33678400  0.66584000  0.13368000  1
  P  P29  1  0.08625000  0.31991000  0.34467500  1
  P  P30  1  0.21347200  0.91131000  0.33632300  1
  P  P31  1  0.08555000  0.77952300  0.83773500  1
  O  O32  1  0.99982300  0.24132200  0.43485900  1
  O  O33  1  0.92125000  0.25764500  0.66714000  1
  O  O34  1  0.76959700  0.99446200  0.93273800  1
  O  O35  1  0.74449300  0.08391800  0.16351400  1
  O  O36  1  0.92252600  0.38194600  0.16937400  1
  O  O37  1  0.81068500  0.33671000  0.82215500  1
  O  O38  1  0.91880400  0.53207400  0.67443800  1
  O  O39  1  0.98464200  0.77870500  0.91681400  1
  O  O40  1  0.91750700  0.66190700  0.16176500  1
  O  O41  1  0.67775500  0.18793600  0.33393100  1
  O  O42  1  0.62231900  0.09057500  0.67033800  1
  O  O43  1  0.81207900  0.48404300  0.31400100  1
  O  O44  1  0.66751700  0.33434400  0.97570700  1
  O  O45  1  0.71160600  0.36800400  0.47316000  1
  O  O46  1  0.65852900  0.47893100  0.83052500  1
  O  O47  1  0.46998300  0.08841100  0.17321900  1
  O  O48  1  0.51423600  0.17851400  0.83057000  1
  O  O49  1  0.74730500  0.65865900  0.66842400  1
  O  O50  1  0.79062200  0.80306900  0.24037600  1
  O  O51  1  0.80420500  0.79252400  0.41819000  1
  O  O52  1  0.77144300  0.76669900  0.06527500  1
  O  O53  1  0.62072700  0.52722700  0.17248700  1
  O  O54  1  0.51471700  0.32526700  0.34063100  1
  O  O55  1  0.66271700  0.74113600  0.84205600  1
  O  O56  1  0.47081200  0.38017000  0.66824600  1
  O  O57  1  0.33477400  0.08355100  0.66532500  1
  O  O58  1  0.79355500  0.99776800  0.75223100  1
  O  O59  1  0.79268100  0.01330800  0.57026300  1
  O  O60  1  0.19062700  0.00137500  0.41537300  1
  O  O61  1  0.65928700  0.91676600  0.34031200  1
  O  O62  1  0.54203600  0.62030700  0.33118600  1
  O  O63  1  0.34290700  0.25735500  0.17687800  1
  O  O64  1  0.47801100  0.66570000  0.67897900  1
  O  O65  1  0.36971000  0.47310300  0.83318100  1
  O  O66  1  0.20995900  0.20382400  0.91487200  1
  O  O67  1  0.22949400  0.22404400  0.56371500  1
  O  O68  1  0.19624900  0.21861200  0.73840500  1
  O  O69  1  0.25448500  0.34259100  0.34595300  1
  O  O70  1  0.48931700  0.81623000  0.16988000  1
  O  O71  1  0.52082600  0.89379500  0.82999400  1
  O  O72  1  0.32958200  0.52050500  0.18005700  1
  O  O73  1  0.33385600  0.66571900  0.02759000  1
  O  O74  1  0.31599800  0.64161600  0.52943900  1
  O  O75  1  0.18265500  0.51047000  0.68052700  1
  O  O76  1  0.37412800  0.91943400  0.33178900  1
  O  O77  1  0.32927800  0.80948800  0.67557000  1
  O  O78  1  0.07620300  0.34134500  0.83892100  1
  O  O79  1  0.99465200  0.20277500  0.25829700  1
  O  O80  1  0.00391600  0.20473300  0.07840600  1
  O  O81  1  0.08855700  0.47566900  0.32417100  1
  O  O82  1  0.18847900  0.67255600  0.17537000  1
  O  O83  1  0.09502800  0.62350700  0.82891000  1
  O  O84  1  0.25638400  0.91694800  0.84328700  1
  O  O85  1  0.23932400  0.03071000  0.06162200  1
  O  O86  1  0.19188700  0.98067100  0.23647200  1
  O  O87  1  0.07498800  0.73770600  0.33540300  1
  O  O88  1  0.98316800  0.75911700  0.56105200  1
  O  O89  1  0.02108400  0.80339700  0.73770000  1
