# generated using pymatgen
data_LiCoSiO4
_symmetry_space_group_name_H-M   'P 1'
_cell_length_a   4.77092600
_cell_length_b   5.79618300
_cell_length_c   10.15644300
_cell_angle_alpha   90.00000000
_cell_angle_beta   90.00000000
_cell_angle_gamma   90.00000000
_symmetry_Int_Tables_number   1
_chemical_formula_structural   LiCoSiO4
_chemical_formula_sum   'Li4 Co4 Si4 O16'
_cell_volume   280.85774509
_cell_formula_units_Z   4
loop_
 _symmetry_equiv_pos_site_id
 _symmetry_equiv_pos_as_xyz
  1  'x, y, z'
loop_
 _atom_site_type_symbol
 _atom_site_label
 _atom_site_symmetry_multiplicity
 _atom_site_fract_x
 _atom_site_fract_y
 _atom_site_fract_z
 _atom_site_occupancy
  Li  Li0  1  0.50000000  0.00000000  0.00000000  1
  Li  Li1  1  0.00000000  0.00000000  0.50000000  1
  Li  Li2  1  0.00000000  0.50000000  0.50000000  1
  Li  Li3  1  0.50000000  0.50000000  0.00000000  1
  Co  Co4  1  0.51725600  0.75000000  0.27576200  1
  Co  Co5  1  0.98274400  0.75000000  0.77576200  1
  Co  Co6  1  0.01725600  0.25000000  0.22423800  1
  Co  Co7  1  0.48274400  0.25000000  0.72423800  1
  Si  Si8  1  0.55614400  0.25000000  0.40662700  1
  Si  Si9  1  0.94385600  0.25000000  0.90662700  1
  Si  Si10  1  0.05614400  0.75000000  0.09337300  1
  Si  Si11  1  0.44385600  0.75000000  0.59337300  1
  O  O12  1  0.68886000  0.25000000  0.55499800  1
  O  O13  1  0.71202600  0.03174700  0.32772700  1
  O  O14  1  0.71202600  0.46825300  0.32772700  1
  O  O15  1  0.71585800  0.75000000  0.10098100  1
  O  O16  1  0.78414200  0.75000000  0.60098100  1
  O  O17  1  0.78797400  0.46825300  0.82772700  1
  O  O18  1  0.78797400  0.03174700  0.82772700  1
  O  O19  1  0.81114000  0.25000000  0.05499800  1
  O  O20  1  0.18886000  0.75000000  0.94500200  1
  O  O21  1  0.21202600  0.53174700  0.17227300  1
  O  O22  1  0.21202600  0.96825300  0.17227300  1
  O  O23  1  0.21585800  0.25000000  0.39901900  1
  O  O24  1  0.28414200  0.25000000  0.89901900  1
  O  O25  1  0.28797400  0.96825300  0.67227300  1
  O  O26  1  0.28797400  0.53174700  0.67227300  1
  O  O27  1  0.31114000  0.75000000  0.44500200  1
