# generated using pymatgen
data_LiAg5F12
_symmetry_space_group_name_H-M   'P 1'
_cell_length_a   4.96815440
_cell_length_b   4.96815440
_cell_length_c   10.58080900
_cell_angle_alpha   90.00000000
_cell_angle_beta   90.00000000
_cell_angle_gamma   90.36337786
_symmetry_Int_Tables_number   1
_chemical_formula_structural   LiAg5F12
_chemical_formula_sum   'Li1 Ag5 F12'
_cell_volume   261.15618054
_cell_formula_units_Z   1
loop_
 _symmetry_equiv_pos_site_id
 _symmetry_equiv_pos_as_xyz
  1  'x, y, z'
loop_
 _atom_site_type_symbol
 _atom_site_label
 _atom_site_symmetry_multiplicity
 _atom_site_fract_x
 _atom_site_fract_y
 _atom_site_fract_z
 _atom_site_occupancy
  Li  Li0  1  0.00000000  0.00000000  0.00000000  1
  Ag  Ag1  1  0.00000000  0.00000000  0.32530800  1
  Ag  Ag2  1  0.00000000  0.00000000  0.67469200  1
  Ag  Ag3  1  0.50000000  0.50000000  0.15744600  1
  Ag  Ag4  1  0.50000000  0.50000000  0.50000000  1
  Ag  Ag5  1  0.50000000  0.50000000  0.84255400  1
  F  F6  1  0.19470600  0.19470600  0.50000000  1
  F  F7  1  0.20510500  0.20510500  0.16563400  1
  F  F8  1  0.20510500  0.20510500  0.83436600  1
  F  F9  1  0.71123200  0.28876800  0.00000000  1
  F  F10  1  0.69707900  0.30292100  0.33258900  1
  F  F11  1  0.69707900  0.30292100  0.66741100  1
  F  F12  1  0.30292100  0.69707900  0.33258900  1
  F  F13  1  0.30292100  0.69707900  0.66741100  1
  F  F14  1  0.28876800  0.71123200  0.00000000  1
  F  F15  1  0.79489500  0.79489500  0.16563400  1
  F  F16  1  0.79489500  0.79489500  0.83436600  1
  F  F17  1  0.80529400  0.80529400  0.50000000  1
