# generated using pymatgen
data_Li6V2O5F2
_symmetry_space_group_name_H-M   'P 1'
_cell_length_a   5.87825300
_cell_length_b   5.87935945
_cell_length_c   9.87122489
_cell_angle_alpha   90.32969774
_cell_angle_beta   99.12573705
_cell_angle_gamma   119.34122849
_symmetry_Int_Tables_number   1
_chemical_formula_structural   Li6V2O5F2
_chemical_formula_sum   'Li12 V4 O10 F4'
_cell_volume   292.24067688
_cell_formula_units_Z   2
loop_
 _symmetry_equiv_pos_site_id
 _symmetry_equiv_pos_as_xyz
  1  'x, y, z'
loop_
 _atom_site_type_symbol
 _atom_site_label
 _atom_site_symmetry_multiplicity
 _atom_site_fract_x
 _atom_site_fract_y
 _atom_site_fract_z
 _atom_site_occupancy
  Li  Li0  1  0.13826800  0.48236600  0.61057900  1
  Li  Li1  1  0.12160800  0.90282300  0.59281800  1
  Li  Li2  1  0.13772000  0.66577800  0.10382000  1
  Li  Li3  1  0.13924000  0.21690600  0.09959300  1
  Li  Li4  1  0.39180900  0.32972300  0.87942800  1
  Li  Li5  1  0.42127000  0.08036400  0.39298500  1
  Li  Li6  1  0.58454500  0.92133700  0.61129200  1
  Li  Li7  1  0.57938500  0.65634700  0.10727700  1
  Li  Li8  1  0.88296300  0.81783700  0.90328400  1
  Li  Li9  1  0.86718100  0.31233400  0.89000900  1
  Li  Li10  1  0.85649400  0.07412300  0.41003000  1
  Li  Li11  1  0.86110700  0.52472800  0.39067400  1
  V  V12  1  0.39498800  0.82483900  0.87480100  1
  V  V13  1  0.36267600  0.55131900  0.36880700  1
  V  V14  1  0.62601800  0.43758800  0.63465400  1
  V  V15  1  0.63239400  0.19085200  0.13143900  1
  O  O16  1  0.24407000  0.50824400  0.97474700  1
  O  O17  1  0.24456100  0.74229100  0.47303900  1
  O  O18  1  0.49873300  0.13757300  0.75540100  1
  O  O19  1  0.50438100  0.63414300  0.74697900  1
  O  O20  1  0.27321200  0.00389700  0.00476100  1
  O  O21  1  0.74819500  0.00430500  0.00670400  1
  O  O22  1  0.49935700  0.36529000  0.24971100  1
  O  O23  1  0.71991500  0.72035600  0.49791100  1
  O  O24  1  0.75864100  0.26017000  0.52822600  1
  O  O25  1  0.99573500  0.35384100  0.24884500  1
  F  F26  1  0.23970800  0.23855400  0.50156400  1
  F  F27  1  0.50644000  0.86588600  0.24777500  1
  F  F28  1  0.00646800  0.66315100  0.74912500  1
  F  F29  1  0.76292100  0.51303800  0.01372200  1
