# generated using pymatgen
data_Li3Mn4(PO4)6
_symmetry_space_group_name_H-M   'P 1'
_cell_length_a   8.35477165
_cell_length_b   8.51681909
_cell_length_c   8.46393342
_cell_angle_alpha   119.23872589
_cell_angle_beta   61.11882382
_cell_angle_gamma   89.17662214
_symmetry_Int_Tables_number   1
_chemical_formula_structural   Li3Mn4(PO4)6
_chemical_formula_sum   'Li3 Mn4 P6 O24'
_cell_volume   434.77448739
_cell_formula_units_Z   1
loop_
 _symmetry_equiv_pos_site_id
 _symmetry_equiv_pos_as_xyz
  1  'x, y, z'
loop_
 _atom_site_type_symbol
 _atom_site_label
 _atom_site_symmetry_multiplicity
 _atom_site_fract_x
 _atom_site_fract_y
 _atom_site_fract_z
 _atom_site_occupancy
  Li  Li0  1  0.01261117  0.49275642  0.97972313  1
  Li  Li1  1  0.75303396  0.64024904  0.48944365  1
  Li  Li2  1  0.48657340  0.01581322  0.01517610  1
  Mn  Mn3  1  0.35928851  0.85645180  0.71717591  1
  Mn  Mn4  1  0.14095609  0.64918169  0.28500964  1
  Mn  Mn5  1  0.86302282  0.35344759  0.71812028  1
  Mn  Mn6  1  0.63528955  0.14553856  0.28356975  1
  P  P7  1  0.74743823  0.97129233  0.51269310  1
  P  P8  1  0.45540690  0.52850881  0.78503725  1
  P  P9  1  0.03805342  0.25113224  0.21846792  1
  P  P10  1  0.95512324  0.75149014  0.79108860  1
  P  P11  1  0.55396993  0.46249507  0.20984635  1
  P  P12  1  0.25369255  0.03444384  0.48777540  1
  O  O13  1  0.12738785  0.79571398  0.79997962  1
  O  O14  1  0.32050365  0.97824642  0.59575562  1
  O  O15  1  0.18832977  0.88481850  0.35691394  1
  O  O16  1  0.25818688  0.55203605  0.97342862  1
  O  O17  1  0.58904290  0.93714410  0.67847441  1
  O  O18  1  0.45842283  0.71951260  0.80400230  1
  O  O19  1  0.03183364  0.43456403  0.21389841  1
  O  O20  1  0.76197038  0.91901289  0.97960920  1
  O  O21  1  0.00437649  0.29744188  0.43334133  1
  O  O22  1  0.09082632  0.23095556  0.67568415  1
  O  O23  1  0.37719842  0.52687351  0.21635602  1
  O  O24  1  0.55357876  0.60369590  0.40940493  1
  O  O25  1  0.47245484  0.37648586  0.57391697  1
  O  O26  1  0.62205409  0.47711258  0.79803626  1
  O  O27  1  0.90936800  0.76961831  0.32870429  1
  O  O28  1  0.97219498  0.70777917  0.58109555  1
  O  O29  1  0.23324909  0.09685829  0.03620831  1
  O  O30  1  0.94229622  0.57981658  0.81186560  1
  O  O31  1  0.55353017  0.26548252  0.17802437  1
  O  O32  1  0.41802672  0.05460216  0.31154671  1
  O  O33  1  0.74778306  0.43827819  0.01840189  1
  O  O34  1  0.80852340  0.12078985  0.64586189  1
  O  O35  1  0.68704686  0.01813072  0.39395304  1
  O  O36  1  0.87052194  0.20113358  0.19479549  1
