# generated using pymatgen
data_Li13Mn3Nb2O16
_symmetry_space_group_name_H-M   'P 1'
_cell_length_a   6.02467037
_cell_length_b   6.02467037
_cell_length_c   9.99811452
_cell_angle_alpha   88.95306161
_cell_angle_beta   88.95306161
_cell_angle_gamma   60.70745475
_symmetry_Int_Tables_number   1
_chemical_formula_structural   Li13Mn3Nb2O16
_chemical_formula_sum   'Li13 Mn3 Nb2 O16'
_cell_volume   316.42442467
_cell_formula_units_Z   1
loop_
 _symmetry_equiv_pos_site_id
 _symmetry_equiv_pos_as_xyz
  1  'x, y, z'
loop_
 _atom_site_type_symbol
 _atom_site_label
 _atom_site_symmetry_multiplicity
 _atom_site_fract_x
 _atom_site_fract_y
 _atom_site_fract_z
 _atom_site_occupancy
  Li  Li0  1  0.00311800  0.00311800  0.01747500  1
  Li  Li1  1  0.12342500  0.12342500  0.50208300  1
  Li  Li2  1  0.74007200  0.34600300  0.22570200  1
  Li  Li3  1  0.16321700  0.16321700  0.25613200  1
  Li  Li4  1  0.17279900  0.17279900  0.74328200  1
  Li  Li5  1  0.82466300  0.41629400  0.97525800  1
  Li  Li6  1  0.34600300  0.74007200  0.22570200  1
  Li  Li7  1  0.41629400  0.82466300  0.97525800  1
  Li  Li8  1  0.66919800  0.66919800  0.75063900  1
  Li  Li9  1  0.32481500  0.32481500  0.40221100  1
  Li  Li10  1  0.71433400  0.11993100  0.45710700  1
  Li  Li11  1  0.11993100  0.71433400  0.45710700  1
  Li  Li12  1  0.81847700  0.81847700  0.94323700  1
  Mn  Mn13  1  0.66191200  0.16758500  0.72036100  1
  Mn  Mn14  1  0.16758500  0.66191200  0.72036100  1
  Mn  Mn15  1  0.82025600  0.82025600  0.21956300  1
  Nb  Nb16  1  0.64984300  0.64984300  0.48067600  1
  Nb  Nb17  1  0.34456000  0.34456000  0.99055700  1
  O  O18  1  0.80726000  0.33471900  0.59911900  1
  O  O19  1  0.17190200  0.17190200  0.06582800  1
  O  O20  1  0.49691700  0.49691700  0.36846500  1
  O  O21  1  0.50390500  0.03173200  0.84908700  1
  O  O22  1  0.33471900  0.80726000  0.59911900  1
  O  O23  1  0.66396300  0.15782100  0.08819700  1
  O  O24  1  0.97303000  0.48982700  0.36092700  1
  O  O25  1  0.67276700  0.67276700  0.11292500  1
  O  O26  1  0.34066400  0.34066400  0.62106700  1
  O  O27  1  0.03173200  0.50390500  0.84908700  1
  O  O28  1  0.48982700  0.97303000  0.36092700  1
  O  O29  1  0.15782100  0.66396300  0.08819700  1
  O  O30  1  0.50486800  0.50486800  0.86615800  1
  O  O31  1  0.81512000  0.81512000  0.58750500  1
  O  O32  1  0.98165400  0.98165400  0.31911200  1
  O  O33  1  0.98399600  0.98399600  0.82004400  1
