# generated using pymatgen
data_Li2Mn2F7
_symmetry_space_group_name_H-M   'P 1'
_cell_length_a   7.35583100
_cell_length_b   7.26798000
_cell_length_c   10.54773624
_cell_angle_alpha   89.03073568
_cell_angle_beta   90.00000000
_cell_angle_gamma   90.00000000
_symmetry_Int_Tables_number   1
_chemical_formula_structural   Li2Mn2F7
_chemical_formula_sum   'Li8 Mn8 F28'
_cell_volume   563.82273159
_cell_formula_units_Z   4
loop_
 _symmetry_equiv_pos_site_id
 _symmetry_equiv_pos_as_xyz
  1  'x, y, z'
loop_
 _atom_site_type_symbol
 _atom_site_label
 _atom_site_symmetry_multiplicity
 _atom_site_fract_x
 _atom_site_fract_y
 _atom_site_fract_z
 _atom_site_occupancy
  Li  Li0  1  0.86785100  0.58840500  0.61710200  1
  Li  Li1  1  0.36785100  0.41159500  0.88289800  1
  Li  Li2  1  0.65304900  0.77142600  0.36314300  1
  Li  Li3  1  0.15304900  0.22857400  0.13685700  1
  Li  Li4  1  0.84695100  0.77142600  0.86314300  1
  Li  Li5  1  0.34695100  0.22857400  0.63685700  1
  Li  Li6  1  0.63214900  0.58840500  0.11710200  1
  Li  Li7  1  0.13214900  0.41159500  0.38289800  1
  Mn  Mn8  1  0.87435600  0.34425700  0.92196100  1
  Mn  Mn9  1  0.37435600  0.65574300  0.57803900  1
  Mn  Mn10  1  0.12751200  0.91530100  0.39295800  1
  Mn  Mn11  1  0.62751200  0.08469900  0.10704200  1
  Mn  Mn12  1  0.37248800  0.91530100  0.89295800  1
  Mn  Mn13  1  0.87248800  0.08469900  0.60704200  1
  Mn  Mn14  1  0.62564400  0.34425700  0.42196100  1
  Mn  Mn15  1  0.12564400  0.65574300  0.07803900  1
  F  F16  1  0.66174300  0.97274800  0.94188600  1
  F  F17  1  0.93139400  0.17624600  0.76793200  1
  F  F18  1  0.29635600  0.47310500  0.71525100  1
  F  F19  1  0.14871600  0.39619700  0.97554200  1
  F  F20  1  0.64584700  0.85021900  0.18254500  1
  F  F21  1  0.64871600  0.60380300  0.52445800  1
  F  F22  1  0.08541800  0.67618700  0.47920300  1
  F  F23  1  0.79635600  0.52689500  0.78474900  1
  F  F24  1  0.39845500  0.82486900  0.41341500  1
  F  F25  1  0.43139400  0.82375400  0.73206800  1
  F  F26  1  0.16174300  0.02725200  0.55811400  1
  F  F27  1  0.85415300  0.85021900  0.68254500  1
  F  F28  1  0.89845500  0.17513100  0.08658500  1
  F  F29  1  0.41458200  0.67618700  0.97920300  1
  F  F30  1  0.58541800  0.32381300  0.02079700  1
  F  F31  1  0.10154500  0.82486900  0.91341500  1
  F  F32  1  0.14584700  0.14978100  0.31745500  1
  F  F33  1  0.83825700  0.97274800  0.44188600  1
  F  F34  1  0.56860600  0.17624600  0.26793200  1
  F  F35  1  0.60154500  0.17513100  0.58658500  1
  F  F36  1  0.20364400  0.47310500  0.21525100  1
  F  F37  1  0.91458200  0.32381300  0.52079700  1
  F  F38  1  0.35128400  0.39619700  0.47554200  1
  F  F39  1  0.35415300  0.14978100  0.81745500  1
  F  F40  1  0.85128400  0.60380300  0.02445800  1
  F  F41  1  0.70364400  0.52689500  0.28474900  1
  F  F42  1  0.06860600  0.82375400  0.23206800  1
  F  F43  1  0.33825700  0.02725200  0.05811400  1
