# generated using pymatgen
data_LiFeSiO4
_symmetry_space_group_name_H-M   'P 1'
_cell_length_a   12.14822200
_cell_length_b   10.76564600
_cell_length_c   10.85720259
_cell_angle_alpha   60.42762309
_cell_angle_beta   90.00000000
_cell_angle_gamma   90.00000000
_symmetry_Int_Tables_number   1
_chemical_formula_structural   LiFeSiO4
_chemical_formula_sum   'Li12 Fe12 Si12 O48'
_cell_volume   1234.97079574
_cell_formula_units_Z   12
loop_
 _symmetry_equiv_pos_site_id
 _symmetry_equiv_pos_as_xyz
  1  'x, y, z'
loop_
 _atom_site_type_symbol
 _atom_site_label
 _atom_site_symmetry_multiplicity
 _atom_site_fract_x
 _atom_site_fract_y
 _atom_site_fract_z
 _atom_site_occupancy
  Li  Li0  1  0.66395300  0.50000000  0.50000000  1
  Li  Li1  1  0.16452600  0.50000000  0.50000000  1
  Li  Li2  1  0.00013900  0.00000000  0.00000000  1
  Li  Li3  1  0.66636500  0.00000000  0.00000000  1
  Li  Li4  1  0.33314700  0.00000000  0.00000000  1
  Li  Li5  1  0.83259700  0.00000000  0.50000000  1
  Li  Li6  1  0.33765500  0.00000000  0.50000000  1
  Li  Li7  1  0.55743300  0.50000000  0.00000000  1
  Li  Li8  1  0.98396600  0.50000000  0.00000000  1
  Li  Li9  1  0.78820200  0.50000000  0.00000000  1
  Li  Li10  1  0.35205100  0.50000000  0.00000000  1
  Li  Li11  1  0.16832700  0.50000000  0.00000000  1
  Fe  Fe12  1  0.16546300  0.75046500  0.24782600  1
  Fe  Fe13  1  0.83438300  0.50321000  0.25507400  1
  Fe  Fe14  1  0.16546300  0.24953500  0.75217400  1
  Fe  Fe15  1  0.49917900  0.24931100  0.50121100  1
  Fe  Fe16  1  0.83492900  0.00117900  0.75009900  1
  Fe  Fe17  1  0.16472900  0.24429100  0.25059700  1
  Fe  Fe18  1  0.50054100  0.75383100  0.99783700  1
  Fe  Fe19  1  0.16472900  0.75570900  0.74940300  1
  Fe  Fe20  1  0.83492900  0.99882100  0.24990100  1
  Fe  Fe21  1  0.49917900  0.75068900  0.49878900  1
  Fe  Fe22  1  0.83438300  0.49679000  0.74492600  1
  Fe  Fe23  1  0.50054100  0.24616900  0.00216300  1
  Si  Si24  1  0.66492500  0.75292600  0.24909200  1
  Si  Si25  1  0.66492500  0.24707400  0.75090800  1
  Si  Si26  1  0.33048000  0.49454300  0.24499200  1
  Si  Si27  1  0.00088700  0.25285200  0.49590400  1
  Si  Si28  1  0.67050800  0.25322000  0.25312000  1
  Si  Si29  1  0.33408000  0.00165200  0.75164700  1
  Si  Si30  1  0.99733300  0.74519000  0.00036700  1
  Si  Si31  1  0.33408000  0.99834800  0.24835300  1
  Si  Si32  1  0.67050800  0.74678000  0.74688000  1
  Si  Si33  1  0.00088700  0.74714800  0.50409600  1
  Si  Si34  1  0.33048000  0.50545700  0.75500800  1
  Si  Si35  1  0.99733300  0.25481000  0.99963300  1
  O  O36  1  0.06228000  0.79186900  0.10317300  1
  O  O37  1  0.59613000  0.80169100  0.10127500  1
  O  O38  1  0.74401300  0.61230800  0.30289400  1
  O  O39  1  0.24675400  0.58459200  0.29086800  1
  O  O40  1  0.90950100  0.60929300  0.07427300  1
  O  O41  1  0.41644300  0.58332000  0.10663500  1
  O  O42  1  0.58545000  0.30287900  0.61229300  1
  O  O43  1  0.92848900  0.39608100  0.39875600  1
  O  O44  1  0.39815600  0.38660800  0.38403500  1
  O  O45  1  0.08639200  0.29826500  0.58615300  1
  O  O46  1  0.26385200  0.09747200  0.80493100  1
  O  O47  1  0.74374000  0.40224300  0.19062000  1
  O  O48  1  0.25524200  0.41579300  0.17272900  1
  O  O49  1  0.73538600  0.09821100  0.80479000  1
  O  O50  1  0.91589900  0.11733700  0.58515500  1
  O  O51  1  0.59999800  0.21850000  0.39170100  1
  O  O52  1  0.07500600  0.20926200  0.39755500  1
  O  O53  1  0.41269500  0.08505800  0.61281500  1
  O  O54  1  0.58847900  0.29731600  0.11401900  1
  O  O55  1  0.93720800  0.89724100  0.89565900  1
  O  O56  1  0.08106100  0.32151800  0.07416800  1
  O  O57  1  0.40188100  0.90248700  0.90021700  1
  O  O58  1  0.75494600  0.11782400  0.29866600  1
  O  O59  1  0.25588100  0.91197200  0.69979700  1
  O  O60  1  0.25588100  0.08802800  0.30020300  1
  O  O61  1  0.75494600  0.88217600  0.70133400  1
  O  O62  1  0.40188100  0.09751300  0.09978300  1
  O  O63  1  0.08106100  0.67848200  0.92583200  1
  O  O64  1  0.93720800  0.10275900  0.10434100  1
  O  O65  1  0.58847900  0.70268400  0.88598100  1
  O  O66  1  0.41269500  0.91494200  0.38718500  1
  O  O67  1  0.07500600  0.79073800  0.60244500  1
  O  O68  1  0.59999800  0.78150000  0.60829900  1
  O  O69  1  0.91589900  0.88266300  0.41484500  1
  O  O70  1  0.73538600  0.90178900  0.19521000  1
  O  O71  1  0.25524200  0.58420700  0.82727100  1
  O  O72  1  0.74374000  0.59775700  0.80938000  1
  O  O73  1  0.26385200  0.90252800  0.19506900  1
  O  O74  1  0.08639200  0.70173500  0.41384700  1
  O  O75  1  0.39815600  0.61339200  0.61596500  1
  O  O76  1  0.92848900  0.60391900  0.60124400  1
  O  O77  1  0.58545000  0.69712100  0.38770700  1
  O  O78  1  0.41644300  0.41668000  0.89336500  1
  O  O79  1  0.90950100  0.39070700  0.92572700  1
  O  O80  1  0.24675400  0.41540800  0.70913200  1
  O  O81  1  0.74401300  0.38769200  0.69710600  1
  O  O82  1  0.59613000  0.19830900  0.89872500  1
  O  O83  1  0.06228000  0.20813100  0.89682700  1
