# generated using pymatgen
data_LiNiPO4
_symmetry_space_group_name_H-M   'P 1'
_cell_length_a   8.37773223
_cell_length_b   8.37773223
_cell_length_c   7.48371100
_cell_angle_alpha   90.00000000
_cell_angle_beta   90.00000000
_cell_angle_gamma   120.00000179
_symmetry_Int_Tables_number   1
_chemical_formula_structural   LiNiPO4
_chemical_formula_sum   'Li6 Ni6 P6 O24'
_cell_volume   454.88391693
_cell_formula_units_Z   6
loop_
 _symmetry_equiv_pos_site_id
 _symmetry_equiv_pos_as_xyz
  1  'x, y, z'
loop_
 _atom_site_type_symbol
 _atom_site_label
 _atom_site_symmetry_multiplicity
 _atom_site_fract_x
 _atom_site_fract_y
 _atom_site_fract_z
 _atom_site_occupancy
  Li  Li0  1  0.01414900  0.68238700  0.40187800  1
  Li  Li1  1  0.31761300  0.33176200  0.40187800  1
  Li  Li2  1  0.66823800  0.98585100  0.40187800  1
  Li  Li3  1  0.33176200  0.01414900  0.90187800  1
  Li  Li4  1  0.68238700  0.66823800  0.90187800  1
  Li  Li5  1  0.98585100  0.31761300  0.90187800  1
  Ni  Ni6  1  0.33333300  0.66666700  0.30115700  1
  Ni  Ni7  1  0.33333300  0.66666700  0.69834700  1
  Ni  Ni8  1  0.00000000  0.00000000  0.13303800  1
  Ni  Ni9  1  0.00000000  0.00000000  0.63303800  1
  Ni  Ni10  1  0.66666700  0.33333300  0.80115700  1
  Ni  Ni11  1  0.66666700  0.33333300  0.19834700  1
  P  P12  1  0.03825600  0.67471300  0.00517800  1
  P  P13  1  0.32528700  0.36354300  0.00517800  1
  P  P14  1  0.63645700  0.96174400  0.00517800  1
  P  P15  1  0.36354300  0.03825600  0.50517800  1
  P  P16  1  0.67471300  0.63645700  0.50517800  1
  P  P17  1  0.96174400  0.32528700  0.50517800  1
  O  O18  1  0.14828400  0.92867100  0.50146200  1
  O  O19  1  0.14711600  0.72207700  0.18157900  1
  O  O20  1  0.17330500  0.74069900  0.84673500  1
  O  O21  1  0.11179600  0.53336600  0.49736100  1
  O  O22  1  0.42157000  0.88820400  0.49736100  1
  O  O23  1  0.07132900  0.21961300  0.50146200  1
  O  O24  1  0.25930100  0.43260600  0.84673500  1
  O  O25  1  0.27792300  0.42503900  0.18157900  1
  O  O26  1  0.21961300  0.14828400  0.00146200  1
  O  O27  1  0.57496100  0.85288400  0.18157900  1
  O  O28  1  0.56739400  0.82669500  0.84673500  1
  O  O29  1  0.46663400  0.57843000  0.49736100  1
  O  O30  1  0.53336600  0.42157000  0.99736100  1
  O  O31  1  0.43260600  0.17330500  0.34673500  1
  O  O32  1  0.42503900  0.14711600  0.68157900  1
  O  O33  1  0.78038700  0.85171600  0.50146200  1
  O  O34  1  0.72207700  0.57496100  0.68157900  1
  O  O35  1  0.74069900  0.56739400  0.34673500  1
  O  O36  1  0.92867100  0.78038700  0.00146200  1
  O  O37  1  0.57843000  0.11179600  0.99736100  1
  O  O38  1  0.88820400  0.46663400  0.99736100  1
  O  O39  1  0.82669500  0.25930100  0.34673500  1
  O  O40  1  0.85288400  0.27792300  0.68157900  1
  O  O41  1  0.85171600  0.07132900  0.00146200  1
