# generated using pymatgen
data_Li4V3P8O29
_symmetry_space_group_name_H-M   'P 1'
_cell_length_a   9.75412500
_cell_length_b   9.78641037
_cell_length_c   14.20973372
_cell_angle_alpha   90.13884868
_cell_angle_beta   89.96311792
_cell_angle_gamma   119.86339856
_symmetry_Int_Tables_number   1
_chemical_formula_structural   Li4V3P8O29
_chemical_formula_sum   'Li8 V6 P16 O58'
_cell_volume   1176.31355198
_cell_formula_units_Z   2
loop_
 _symmetry_equiv_pos_site_id
 _symmetry_equiv_pos_as_xyz
  1  'x, y, z'
loop_
 _atom_site_type_symbol
 _atom_site_label
 _atom_site_symmetry_multiplicity
 _atom_site_fract_x
 _atom_site_fract_y
 _atom_site_fract_z
 _atom_site_occupancy
  Li  Li0  1  0.30904000  0.22623200  0.44029400  1
  Li  Li1  1  0.77726500  0.08098300  0.44506800  1
  Li  Li2  1  0.91007400  0.23757600  0.93840900  1
  Li  Li3  1  0.76913800  0.66354700  0.94194500  1
  Li  Li4  1  0.90486000  0.67760800  0.44387500  1
  Li  Li5  1  0.22572900  0.90896400  0.56364000  1
  Li  Li6  1  0.67469300  0.90596900  0.05679000  1
  Li  Li7  1  0.08390600  0.01972100  0.98739400  1
  V  V8  1  0.99816500  0.43265500  0.74873500  1
  V  V9  1  0.00175100  0.56639300  0.24574300  1
  V  V10  1  0.43130200  0.43542300  0.24699500  1
  V  V11  1  0.56461300  0.56412800  0.75022400  1
  V  V12  1  0.43239700  0.00415700  0.75517600  1
  V  V13  1  0.56512400  0.00002200  0.25134900  1
  P  P14  1  0.30883500  0.08474500  0.16148600  1
  P  P15  1  0.31720900  0.23131000  0.65625800  1
  P  P16  1  0.76842000  0.08673800  0.66034400  1
  P  P17  1  0.66956900  0.33739400  0.87023600  1
  P  P18  1  0.66760400  0.33663000  0.36774100  1
  P  P19  1  0.91254600  0.22800100  0.15499300  1
  P  P20  1  0.08514100  0.31377800  0.33760200  1
  P  P21  1  0.77091600  0.68550700  0.15836300  1
  P  P22  1  0.22259300  0.30754400  0.83921900  1
  P  P23  1  0.90904000  0.68083200  0.65839800  1
  P  P24  1  0.08316400  0.77495900  0.83984000  1
  P  P25  1  0.33180600  0.66792300  0.63276100  1
  P  P26  1  0.33483700  0.66661100  0.13025300  1
  P  P27  1  0.22902100  0.90958500  0.34245800  1
  P  P28  1  0.68396200  0.77045400  0.34079700  1
  P  P29  1  0.68541600  0.91154800  0.84086900  1
  O  O30  1  0.24097800  0.99427900  0.43313900  1
  O  O31  1  0.33421800  0.08261200  0.66283100  1
  O  O32  1  0.20328000  0.20545900  0.92057200  1
  O  O33  1  0.34486200  0.25876800  0.17171500  1
  O  O34  1  0.46330900  0.07992600  0.16969500  1
  O  O35  1  0.51953300  0.19606000  0.82883500  1
  O  O36  1  0.61608600  0.09354900  0.68102900  1
  O  O37  1  0.77564900  0.99719500  0.92818100  1
  O  O38  1  0.74388700  0.08331100  0.16423400  1
  O  O39  1  0.51669400  0.33508100  0.32672500  1
  O  O40  1  0.47973400  0.38053700  0.68134800  1
  O  O41  1  0.66845200  0.18663200  0.32865300  1
  O  O42  1  0.68535100  0.35271100  0.97444800  1
  O  O43  1  0.67226000  0.34479200  0.47242800  1
  O  O44  1  0.81592600  0.32719300  0.82846200  1
  O  O45  1  0.61574100  0.52659900  0.17332900  1
  O  O46  1  0.67954500  0.49345600  0.82803400  1
  O  O47  1  0.91317000  0.25684000  0.67081900  1
  O  O48  1  0.01099000  0.21418100  0.24112800  1
  O  O49  1  0.99039000  0.22511600  0.42030100  1
  O  O50  1  0.98479700  0.22779400  0.06303800  1
  O  O51  1  0.90743800  0.38304000  0.17413500  1
  O  O52  1  0.81732700  0.48541100  0.32387400  1
  O  O53  1  0.08435100  0.34514300  0.83726600  1
  O  O54  1  0.90030200  0.52052500  0.67804500  1
  O  O55  1  0.74116900  0.65810600  0.66528100  1
  O  O56  1  0.20139700  0.21437800  0.74138500  1
  O  O57  1  0.25460200  0.24743000  0.56479300  1
  O  O58  1  0.77186600  0.76099900  0.42315500  1
  O  O59  1  0.25554600  0.33895600  0.33894100  1
  O  O60  1  0.09207200  0.47433600  0.32071800  1
  O  O61  1  0.91408800  0.65905800  0.16593100  1
  O  O62  1  0.18094700  0.52408900  0.68115700  1
  O  O63  1  0.07618400  0.61476200  0.83083800  1
  O  O64  1  0.99570100  0.79349200  0.92054600  1
  O  O65  1  0.99443400  0.75253000  0.56812600  1
  O  O66  1  0.00761700  0.79685100  0.74254800  1
  O  O67  1  0.08039000  0.74247000  0.33919500  1
  O  O68  1  0.32925500  0.51626200  0.17793200  1
  O  O69  1  0.38439600  0.46192500  0.83069300  1
  O  O70  1  0.18654300  0.66847900  0.17625400  1
  O  O71  1  0.32792300  0.65441600  0.02631900  1
  O  O72  1  0.32907400  0.65263300  0.52922200  1
  O  O73  1  0.33125600  0.81821400  0.66777300  1
  O  O74  1  0.52400000  0.61862600  0.32187400  1
  O  O75  1  0.47379900  0.65983600  0.68285300  1
  O  O76  1  0.25621200  0.91087500  0.83519300  1
  O  O77  1  0.20826300  0.00412400  0.25720300  1
  O  O78  1  0.20818900  0.00600900  0.07951400  1
  O  O79  1  0.37828000  0.89744900  0.32214400  1
  O  O80  1  0.48855500  0.81163200  0.16792700  1
  O  O81  1  0.52772400  0.90687200  0.82972900  1
  O  O82  1  0.66180000  0.74159900  0.83914300  1
  O  O83  1  0.76797000  0.76312100  0.06764700  1
  O  O84  1  0.78720800  0.79726600  0.24459400  1
  O  O85  1  0.66092900  0.91596400  0.34180500  1
  O  O86  1  0.76619400  0.01213000  0.56989100  1
  O  O87  1  0.79128900  0.99476600  0.74847700  1
