# generated using pymatgen
data_LiVP2H5O9
_symmetry_space_group_name_H-M   'P 1'
_cell_length_a   6.45918300
_cell_length_b   7.86913800
_cell_length_c   15.13981100
_cell_angle_alpha   90.00000000
_cell_angle_beta   90.00000000
_cell_angle_gamma   90.00000000
_symmetry_Int_Tables_number   1
_chemical_formula_structural   LiVP2H5O9
_chemical_formula_sum   'Li4 V4 P8 H20 O36'
_cell_volume   769.52937772
_cell_formula_units_Z   4
loop_
 _symmetry_equiv_pos_site_id
 _symmetry_equiv_pos_as_xyz
  1  'x, y, z'
loop_
 _atom_site_type_symbol
 _atom_site_label
 _atom_site_symmetry_multiplicity
 _atom_site_fract_x
 _atom_site_fract_y
 _atom_site_fract_z
 _atom_site_occupancy
  Li  Li0  1  0.22786100  0.76146100  0.03019500  1
  Li  Li1  1  0.72786100  0.26146100  0.46980500  1
  Li  Li2  1  0.27213900  0.76146100  0.53019500  1
  Li  Li3  1  0.77213900  0.26146100  0.96980500  1
  V  V4  1  0.93840400  0.24939300  0.19094600  1
  V  V5  1  0.43840400  0.74939300  0.30905400  1
  V  V6  1  0.56159600  0.24939300  0.69094600  1
  V  V7  1  0.06159600  0.74939300  0.80905400  1
  P  P8  1  0.63308000  0.93740500  0.13178600  1
  P  P9  1  0.64243400  0.56553800  0.13273800  1
  P  P10  1  0.13308000  0.43740500  0.36821400  1
  P  P11  1  0.14243400  0.06553800  0.36726200  1
  P  P12  1  0.86692000  0.93740500  0.63178600  1
  P  P13  1  0.85756600  0.56553800  0.63273800  1
  P  P14  1  0.36692000  0.43740500  0.86821400  1
  P  P15  1  0.35756600  0.06553800  0.86726200  1
  H  H16  1  0.49348500  0.50488400  0.00705200  1
  H  H17  1  0.28482900  0.34893100  0.09653900  1
  H  H18  1  0.28393100  0.14540500  0.09493100  1
  H  H19  1  0.10433200  0.85215300  0.22508400  1
  H  H20  1  0.10583600  0.64468600  0.22553000  1
  H  H21  1  0.60433200  0.35215300  0.27491600  1
  H  H22  1  0.60583600  0.14468600  0.27447000  1
  H  H23  1  0.78482900  0.84893100  0.40346100  1
  H  H24  1  0.78393100  0.64540500  0.40506900  1
  H  H25  1  0.99348500  0.00488400  0.49294800  1
  H  H26  1  0.00651500  0.50488400  0.50705200  1
  H  H27  1  0.21517100  0.34893100  0.59653900  1
  H  H28  1  0.21606900  0.14540500  0.59493100  1
  H  H29  1  0.39566800  0.85215300  0.72508400  1
  H  H30  1  0.39416400  0.64468600  0.72553000  1
  H  H31  1  0.89566800  0.35215300  0.77491600  1
  H  H32  1  0.89416400  0.14468600  0.77447000  1
  H  H33  1  0.71517100  0.84893100  0.90346100  1
  H  H34  1  0.71606900  0.64540500  0.90506900  1
  H  H35  1  0.50651500  0.00488400  0.99294800  1
  O  O36  1  0.43751200  0.94464500  0.07132000  1
  O  O37  1  0.44160300  0.55308800  0.07156600  1
  O  O38  1  0.19596800  0.24747000  0.09899700  1
  O  O39  1  0.73950500  0.75130800  0.11243900  1
  O  O40  1  0.79989300  0.43627300  0.10139200  1
  O  O41  1  0.79228500  0.06731200  0.10193100  1
  O  O42  1  0.18412700  0.74868700  0.20893500  1
  O  O43  1  0.57807400  0.94418900  0.22949400  1
  O  O44  1  0.57976700  0.55577300  0.22882800  1
  O  O45  1  0.07807400  0.44418900  0.27050600  1
  O  O46  1  0.07976700  0.05577300  0.27117200  1
  O  O47  1  0.68412700  0.24868700  0.29106500  1
  O  O48  1  0.29989200  0.93627300  0.39860800  1
  O  O49  1  0.29228500  0.56731200  0.39806900  1
  O  O50  1  0.23950500  0.25130800  0.38756100  1
  O  O51  1  0.69596800  0.74747000  0.40100300  1
  O  O52  1  0.93751200  0.44464500  0.42868000  1
  O  O53  1  0.94160300  0.05308800  0.42843400  1
  O  O54  1  0.06248800  0.94464500  0.57132000  1
  O  O55  1  0.05839700  0.55308800  0.57156600  1
  O  O56  1  0.30403200  0.24747000  0.59899700  1
  O  O57  1  0.76049500  0.75130800  0.61243900  1
  O  O58  1  0.70010700  0.43627300  0.60139200  1
  O  O59  1  0.70771500  0.06731200  0.60193100  1
  O  O60  1  0.31587300  0.74868700  0.70893500  1
  O  O61  1  0.92192600  0.94418900  0.72949400  1
  O  O62  1  0.92023300  0.55577300  0.72882800  1
  O  O63  1  0.42192600  0.44418900  0.77050600  1
  O  O64  1  0.42023300  0.05577300  0.77117200  1
  O  O65  1  0.81587300  0.24868700  0.79106500  1
  O  O66  1  0.20010700  0.93627300  0.89860800  1
  O  O67  1  0.20771500  0.56731200  0.89806900  1
  O  O68  1  0.26049500  0.25130800  0.88756100  1
  O  O69  1  0.80403200  0.74747000  0.90100300  1
  O  O70  1  0.56248800  0.44464500  0.92868000  1
  O  O71  1  0.55839700  0.05308800  0.92843400  1
