# generated using pymatgen
data_Li5Mn2Cu3O10
_symmetry_space_group_name_H-M   'P 1'
_cell_length_a   5.05362226
_cell_length_b   10.68873974
_cell_length_c   7.57464964
_cell_angle_alpha   69.36734892
_cell_angle_beta   103.11922893
_cell_angle_gamma   86.87907354
_symmetry_Int_Tables_number   1
_chemical_formula_structural   Li5Mn2Cu3O10
_chemical_formula_sum   'Li10 Mn4 Cu6 O20'
_cell_volume   368.84241055
_cell_formula_units_Z   2
loop_
 _symmetry_equiv_pos_site_id
 _symmetry_equiv_pos_as_xyz
  1  'x, y, z'
loop_
 _atom_site_type_symbol
 _atom_site_label
 _atom_site_symmetry_multiplicity
 _atom_site_fract_x
 _atom_site_fract_y
 _atom_site_fract_z
 _atom_site_occupancy
  Li  Li0  1  0.25010900  0.24988500  0.25009300  1
  Li  Li1  1  0.75012100  0.74988400  0.75008300  1
  Li  Li2  1  0.76196600  0.44826000  0.94563700  1
  Li  Li3  1  0.26196600  0.94826400  0.44567400  1
  Li  Li4  1  0.73814600  0.05162900  0.55490600  1
  Li  Li5  1  0.23815500  0.55161200  0.05489100  1
  Li  Li6  1  0.25930200  0.14248200  0.64649600  1
  Li  Li7  1  0.75926800  0.64249400  0.14649100  1
  Li  Li8  1  0.24122300  0.35719600  0.85372500  1
  Li  Li9  1  0.74124500  0.85718700  0.35372400  1
  Mn  Mn10  1  0.26477900  0.83835000  0.85477200  1
  Mn  Mn11  1  0.23555000  0.66081400  0.64473500  1
  Mn  Mn12  1  0.76468900  0.33835000  0.35473700  1
  Mn  Mn13  1  0.73549600  0.16082600  0.14475500  1
  Cu  Cu14  1  0.25061000  0.74987000  0.25016200  1
  Cu  Cu15  1  0.75526800  0.94380300  0.95534900  1
  Cu  Cu16  1  0.74619000  0.55546900  0.54512400  1
  Cu  Cu17  1  0.75053500  0.24986500  0.75012800  1
  Cu  Cu18  1  0.25528600  0.44378400  0.45535100  1
  Cu  Cu19  1  0.24616000  0.05549400  0.04516400  1
  O  O20  1  0.04866100  0.01048300  0.82599400  1
  O  O21  1  0.54862800  0.51047100  0.32599500  1
  O  O22  1  0.44939200  0.48994500  0.67525400  1
  O  O23  1  0.94942100  0.98996300  0.17524600  1
  O  O24  1  0.00814700  0.33375800  0.59543400  1
  O  O25  1  0.50813700  0.83370600  0.09547800  1
  O  O26  1  0.49083700  0.16895000  0.90224400  1
  O  O27  1  0.99096600  0.66901000  0.40216800  1
  O  O28  1  0.96390500  0.16693800  0.37908500  1
  O  O29  1  0.46393100  0.66693400  0.87908600  1
  O  O30  1  0.53610200  0.33278700  0.12115800  1
  O  O31  1  0.03613400  0.83277600  0.62116400  1
  O  O32  1  0.95246100  0.26360500  0.98178300  1
  O  O33  1  0.45252600  0.76359100  0.48177500  1
  O  O34  1  0.54925600  0.23554200  0.51887300  1
  O  O35  1  0.04931400  0.73555400  0.01891200  1
  O  O36  1  0.00905800  0.43993100  0.22295800  1
  O  O37  1  0.50907100  0.93993200  0.72293400  1
  O  O38  1  0.48896300  0.06031300  0.27623000  1
  O  O39  1  0.98902700  0.56029500  0.77623500  1
