# generated using pymatgen
data_Li3VF6
_symmetry_space_group_name_H-M   'P 1'
_cell_length_a   5.15419492
_cell_length_b   5.15419492
_cell_length_c   9.70422700
_cell_angle_alpha   90.00000000
_cell_angle_beta   90.00000000
_cell_angle_gamma   120.00001178
_symmetry_Int_Tables_number   1
_chemical_formula_structural   Li3VF6
_chemical_formula_sum   'Li6 V2 F12'
_cell_volume   223.26117386
_cell_formula_units_Z   2
loop_
 _symmetry_equiv_pos_site_id
 _symmetry_equiv_pos_as_xyz
  1  'x, y, z'
loop_
 _atom_site_type_symbol
 _atom_site_label
 _atom_site_symmetry_multiplicity
 _atom_site_fract_x
 _atom_site_fract_y
 _atom_site_fract_z
 _atom_site_occupancy
  Li  Li0  1  0.33333300  0.66666700  0.94704600  1
  Li  Li1  1  0.00000000  0.00000000  0.25000000  1
  Li  Li2  1  0.00000000  0.00000000  0.75000000  1
  Li  Li3  1  0.33333300  0.66666700  0.55295400  1
  Li  Li4  1  0.66666700  0.33333300  0.05295400  1
  Li  Li5  1  0.66666700  0.33333300  0.44704600  1
  V  V6  1  0.33333300  0.66666700  0.25000000  1
  V  V7  1  0.66666700  0.33333300  0.75000000  1
  F  F8  1  0.02778600  0.67249400  0.36910600  1
  F  F9  1  0.32750600  0.97221400  0.13089400  1
  F  F10  1  0.02778600  0.35529300  0.13089400  1
  F  F11  1  0.32750600  0.35529300  0.36910600  1
  F  F12  1  0.64470700  0.97221400  0.36910600  1
  F  F13  1  0.35529300  0.32750600  0.86910600  1
  F  F14  1  0.64470700  0.67249400  0.13089400  1
  F  F15  1  0.35529300  0.02778600  0.63089400  1
  F  F16  1  0.67249400  0.64470700  0.63089400  1
  F  F17  1  0.97221400  0.64470700  0.86910600  1
  F  F18  1  0.67249400  0.02778600  0.86910600  1
  F  F19  1  0.97221400  0.32750600  0.63089400  1
