# generated using pymatgen
data_LiVBO4
_symmetry_space_group_name_H-M   'P 1'
_cell_length_a   8.17705611
_cell_length_b   4.85220000
_cell_length_c   8.32344726
_cell_angle_alpha   89.99732809
_cell_angle_beta   106.19372838
_cell_angle_gamma   90.00008442
_symmetry_Int_Tables_number   1
_chemical_formula_structural   LiVBO4
_chemical_formula_sum   'Li4 V4 B4 O16'
_cell_volume   317.14420800
_cell_formula_units_Z   4
loop_
 _symmetry_equiv_pos_site_id
 _symmetry_equiv_pos_as_xyz
  1  'x, y, z'
loop_
 _atom_site_type_symbol
 _atom_site_label
 _atom_site_symmetry_multiplicity
 _atom_site_fract_x
 _atom_site_fract_y
 _atom_site_fract_z
 _atom_site_occupancy
  Li  Li0  1  0.12488900  0.82776200  0.98927000  1
  Li  Li1  1  0.23399300  0.31113900  0.49243800  1
  Li  Li2  1  0.62485900  0.17225700  0.98930400  1
  Li  Li3  1  0.73400500  0.68882100  0.49244500  1
  V  V4  1  0.97577500  0.67999200  0.24256400  1
  V  V5  1  0.36458700  0.81529800  0.74200200  1
  V  V6  1  0.47578800  0.32002300  0.24253000  1
  V  V7  1  0.86449800  0.18461700  0.74211700  1
  B  B8  1  0.24660700  0.30962800  0.86804200  1
  B  B9  1  0.34493600  0.80545000  0.36537900  1
  B  B10  1  0.74659500  0.69034600  0.86805800  1
  B  B11  1  0.84491300  0.19455500  0.36545000  1
  O  O12  1  0.08107000  0.19649500  0.87688300  1
  O  O13  1  0.99590500  0.34352800  0.34594300  1
  O  O14  1  0.23555500  0.61050300  0.84691100  1
  O  O15  1  0.29988300  0.18083300  0.72741800  1
  O  O16  1  0.19517400  0.72293600  0.22665900  1
  O  O17  1  0.30543200  0.71722300  0.52317100  1
  O  O18  1  0.58111000  0.80381000  0.87691300  1
  O  O19  1  0.37260200  0.10536300  0.36699000  1
  O  O20  1  0.37746200  0.23067500  0.02498500  1
  O  O21  1  0.49591600  0.65646200  0.34592700  1
  O  O22  1  0.73545500  0.38953700  0.84688400  1
  O  O23  1  0.79988100  0.81907600  0.72742500  1
  O  O24  1  0.69518600  0.27707100  0.22668500  1
  O  O25  1  0.80543700  0.28280100  0.52324600  1
  O  O26  1  0.87261500  0.89456600  0.36697600  1
  O  O27  1  0.87746900  0.76923300  0.02498300  1
