# generated using pymatgen
data_Li2VCrO4
_symmetry_space_group_name_H-M   'P 1'
_cell_length_a   6.00266500
_cell_length_b   5.14486300
_cell_length_c   5.14759700
_cell_angle_alpha   71.00415139
_cell_angle_beta   90.00000000
_cell_angle_gamma   90.00000000
_symmetry_Int_Tables_number   1
_chemical_formula_structural   Li2VCrO4
_chemical_formula_sum   'Li4 V2 Cr2 O8'
_cell_volume   150.31535943
_cell_formula_units_Z   2
loop_
 _symmetry_equiv_pos_site_id
 _symmetry_equiv_pos_as_xyz
  1  'x, y, z'
loop_
 _atom_site_type_symbol
 _atom_site_label
 _atom_site_symmetry_multiplicity
 _atom_site_fract_x
 _atom_site_fract_y
 _atom_site_fract_z
 _atom_site_occupancy
  Li  Li0  1  0.12989000  0.00000000  0.75000000  1
  Li  Li1  1  0.62209200  0.00000000  0.75000000  1
  Li  Li2  1  0.37790800  0.00000000  0.25000000  1
  Li  Li3  1  0.87011000  0.00000000  0.25000000  1
  V  V4  1  0.87575900  0.50000000  0.75000000  1
  V  V5  1  0.12424100  0.50000000  0.25000000  1
  Cr  Cr6  1  0.37695000  0.50000000  0.75000000  1
  Cr  Cr7  1  0.62305000  0.50000000  0.25000000  1
  O  O8  1  0.13102300  0.72813000  0.50689200  1
  O  O9  1  0.62476000  0.72353600  0.51021200  1
  O  O10  1  0.37524000  0.27646400  0.48978800  1
  O  O11  1  0.37524000  0.72353600  0.01021200  1
  O  O12  1  0.86897700  0.27187000  0.49310800  1
  O  O13  1  0.13102300  0.27187000  0.99310800  1
  O  O14  1  0.86897700  0.72813000  0.00689200  1
  O  O15  1  0.62476000  0.27646400  0.98978800  1
