# generated using pymatgen
data_Li24Mn7Cr5O36
_symmetry_space_group_name_H-M   'P 1'
_cell_length_a   5.00756300
_cell_length_b   9.73717660
_cell_length_c   13.27385717
_cell_angle_alpha   97.13252441
_cell_angle_beta   100.50879171
_cell_angle_gamma   94.72001082
_symmetry_Int_Tables_number   1
_chemical_formula_structural   Li24Mn7Cr5O36
_chemical_formula_sum   'Li24 Mn7 Cr5 O36'
_cell_volume   627.78357958
_cell_formula_units_Z   1
loop_
 _symmetry_equiv_pos_site_id
 _symmetry_equiv_pos_as_xyz
  1  'x, y, z'
loop_
 _atom_site_type_symbol
 _atom_site_label
 _atom_site_symmetry_multiplicity
 _atom_site_fract_x
 _atom_site_fract_y
 _atom_site_fract_z
 _atom_site_occupancy
  Li  Li0  1  0.16599900  0.00035200  0.83388500  1
  Li  Li1  1  0.05332500  0.00042400  0.61514000  1
  Li  Li2  1  0.99962700  0.74936400  0.25043800  1
  Li  Li3  1  0.33153900  0.75028300  0.91781900  1
  Li  Li4  1  0.04868800  0.49877300  0.11114600  1
  Li  Li5  1  0.37859700  0.49953900  0.77628500  1
  Li  Li6  1  0.16689900  0.50065900  0.33341000  1
  Li  Li7  1  0.50305600  0.49989200  0.00072000  1
  Li  Li8  1  0.28908600  0.50041600  0.55631800  1
  Li  Li9  1  0.33480300  0.24957900  0.41574300  1
  Li  Li10  1  0.50094600  0.00020900  0.49977800  1
  Li  Li11  1  0.28033800  0.99962800  0.05255900  1
  Li  Li12  1  0.61487600  0.99894300  0.71763100  1
  Li  Li13  1  0.38265400  0.99967000  0.28081600  1
  Li  Li14  1  0.71695200  0.00099300  0.94793400  1
  Li  Li15  1  0.66369500  0.75014800  0.58438600  1
  Li  Li16  1  0.71025300  0.50021900  0.44434800  1
  Li  Li17  1  0.83191900  0.49974600  0.66673400  1
  Li  Li18  1  0.61766000  0.50228600  0.22251400  1
  Li  Li19  1  0.95358500  0.49915800  0.88890300  1
  Li  Li20  1  0.66497400  0.25000100  0.08133400  1
  Li  Li21  1  0.83601000  0.99904600  0.16680800  1
  Li  Li22  1  0.00091200  0.25021700  0.74921500  1
  Li  Li23  1  0.95126500  0.99969800  0.38518700  1
  Mn  Mn24  1  0.11160800  0.25045700  0.97342900  1
  Mn  Mn25  1  0.22352600  0.75041800  0.69425400  1
  Mn  Mn26  1  0.22064800  0.24933500  0.19408500  1
  Mn  Mn27  1  0.44467900  0.25069600  0.63911200  1
  Mn  Mn28  1  0.44434600  0.75001500  0.13894900  1
  Mn  Mn29  1  0.55377100  0.74871000  0.35958700  1
  Mn  Mn30  1  0.89205900  0.75107300  0.02899400  1
  Cr  Cr31  1  0.10428100  0.75028900  0.47316700  1
  Cr  Cr32  1  0.55871900  0.25011200  0.85944000  1
  Cr  Cr33  1  0.77333500  0.74986300  0.80765300  1
  Cr  Cr34  1  0.77020100  0.24820300  0.30233300  1
  Cr  Cr35  1  0.89525100  0.25084900  0.52666500  1
  O  O36  1  0.00289100  0.86314800  0.93157300  1
  O  O37  1  0.06926600  0.63665100  0.78451700  1
  O  O38  1  0.99299600  0.36163400  0.42975100  1
  O  O39  1  0.14849200  0.36347400  0.64506200  1
  O  O40  1  0.26702500  0.36386500  0.88349800  1
  O  O41  1  0.33713400  0.86329800  0.59762700  1
  O  O42  1  0.07476800  0.13418800  0.28392600  1
  O  O43  1  0.18979600  0.13833300  0.52464300  1
  O  O44  1  0.40077800  0.13501900  0.95209900  1
  O  O45  1  0.14343400  0.86167100  0.14345000  1
  O  O46  1  0.26543600  0.86406500  0.38236500  1
  O  O47  1  0.48026000  0.86161900  0.80898400  1
  O  O48  1  0.33243500  0.13777400  0.73659600  1
  O  O49  1  0.19131300  0.63844300  0.02374000  1
  O  O50  1  0.40269600  0.63627900  0.45068100  1
  O  O51  1  0.51886100  0.63701600  0.68873300  1
  O  O52  1  0.33075200  0.63857200  0.23728900  1
  O  O53  1  0.67083700  0.63836500  0.90472400  1
  O  O54  1  0.33491000  0.36142700  0.09555300  1
  O  O55  1  0.66726600  0.36220500  0.76207300  1
  O  O56  1  0.46943800  0.36252400  0.30844600  1
  O  O57  1  0.59517600  0.36429000  0.54844400  1
  O  O58  1  0.81520700  0.36361800  0.97813200  1
  O  O59  1  0.66666500  0.86160500  0.26146700  1
  O  O60  1  0.52225700  0.13773500  0.19010500  1
  O  O61  1  0.73573000  0.13604700  0.61789100  1
  O  O62  1  0.85390000  0.13817700  0.85890300  1
  O  O63  1  0.59697900  0.86354000  0.04827700  1
  O  O64  1  0.81217800  0.86162000  0.47446200  1
  O  O65  1  0.93201200  0.86423400  0.71546800  1
  O  O66  1  0.67091600  0.13684600  0.40218300  1
  O  O67  1  0.73648600  0.63632500  0.11865800  1
  O  O68  1  0.85033500  0.63633400  0.35515800  1
  O  O69  1  0.00315000  0.63872600  0.57057500  1
  O  O70  1  0.93142200  0.36376900  0.21680200  1
  O  O71  1  0.99671800  0.13830300  0.07142600  1
