# generated using pymatgen
data_Li3V2P4(HO8)2
_symmetry_space_group_name_H-M   'P 1'
_cell_length_a   8.07843500
_cell_length_b   7.88389600
_cell_length_c   9.74999693
_cell_angle_alpha   67.94106422
_cell_angle_beta   90.00000000
_cell_angle_gamma   90.00000000
_symmetry_Int_Tables_number   1
_chemical_formula_structural   Li3V2P4(HO8)2
_chemical_formula_sum   'Li6 V4 P8 H4 O32'
_cell_volume   575.51640163
_cell_formula_units_Z   2
loop_
 _symmetry_equiv_pos_site_id
 _symmetry_equiv_pos_as_xyz
  1  'x, y, z'
loop_
 _atom_site_type_symbol
 _atom_site_label
 _atom_site_symmetry_multiplicity
 _atom_site_fract_x
 _atom_site_fract_y
 _atom_site_fract_z
 _atom_site_occupancy
  Li  Li0  1  0.86685200  0.09294400  0.77755700  1
  Li  Li1  1  0.63160000  0.60098500  0.77308400  1
  Li  Li2  1  0.13210100  0.40628200  0.73059600  1
  Li  Li3  1  0.36685200  0.90705600  0.22244300  1
  Li  Li4  1  0.63210100  0.59371800  0.26940400  1
  Li  Li5  1  0.13160000  0.39901500  0.22691600  1
  V  V6  1  0.49626400  0.23762100  0.75108300  1
  V  V7  1  0.00381700  0.75429400  0.74724200  1
  V  V8  1  0.50381700  0.24570600  0.25275800  1
  V  V9  1  0.99626400  0.76237900  0.24891700  1
  P  P10  1  0.15181500  0.02056000  0.93269100  1
  P  P11  1  0.34838900  0.50992800  0.93212400  1
  P  P12  1  0.64897000  0.98190000  0.56892900  1
  P  P13  1  0.14897000  0.01810000  0.43107100  1
  P  P14  1  0.84247800  0.48545600  0.56527500  1
  P  P15  1  0.34247800  0.51454400  0.43472500  1
  P  P16  1  0.65181500  0.97944000  0.06730900  1
  P  P17  1  0.84838900  0.49007200  0.06787600  1
  H  H18  1  0.48992000  0.73287000  0.98586500  1
  H  H19  1  0.48894000  0.74423600  0.49441400  1
  H  H20  1  0.98894000  0.25576400  0.50558600  1
  H  H21  1  0.98992000  0.26713000  0.01413500  1
  O  O22  1  0.05455500  0.19813000  0.90463800  1
  O  O23  1  0.67118400  0.10159700  0.89880400  1
  O  O24  1  0.32744700  0.06795100  0.86612800  1
  O  O25  1  0.05059600  0.91197400  0.85903300  1
  O  O26  1  0.45238900  0.68705500  0.90280700  1
  O  O27  1  0.82814700  0.60317400  0.90094200  1
  O  O28  1  0.18200100  0.55810600  0.85273100  1
  O  O29  1  0.45457800  0.40088400  0.85775500  1
  O  O30  1  0.54638800  0.10034800  0.64299900  1
  O  O31  1  0.81537000  0.94226300  0.65175500  1
  O  O32  1  0.16662400  0.89303200  0.59437300  1
  O  O33  1  0.56004300  0.80214500  0.59268800  1
  O  O34  1  0.95160900  0.58689600  0.63933800  1
  O  O35  1  0.67473200  0.43493400  0.64628100  1
  O  O36  1  0.06004300  0.19785500  0.40731200  1
  O  O37  1  0.66662400  0.10696800  0.40562700  1
  O  O38  1  0.32170600  0.39723800  0.60194400  1
  O  O39  1  0.93680300  0.30175500  0.59138800  1
  O  O40  1  0.31537000  0.05773700  0.34824500  1
  O  O41  1  0.04638800  0.89965200  0.35700100  1
  O  O42  1  0.43680300  0.69824500  0.40861200  1
  O  O43  1  0.82170600  0.60276200  0.39805600  1
  O  O44  1  0.17473200  0.56506600  0.35371900  1
  O  O45  1  0.45160900  0.41310400  0.36066200  1
  O  O46  1  0.55059600  0.08802600  0.14096700  1
  O  O47  1  0.82744700  0.93204900  0.13387200  1
  O  O48  1  0.17118400  0.89840300  0.10119600  1
  O  O49  1  0.55455500  0.80187000  0.09536200  1
  O  O50  1  0.95457800  0.59911600  0.14224500  1
  O  O51  1  0.68200100  0.44189400  0.14726900  1
  O  O52  1  0.32814700  0.39682600  0.09905800  1
  O  O53  1  0.95238900  0.31294500  0.09719300  1
