# generated using pymatgen
data_Li4Y3CrO8
_symmetry_space_group_name_H-M   'P 1'
_cell_length_a   5.87990064
_cell_length_b   5.87989001
_cell_length_c   24.74103200
_cell_angle_alpha   89.99954457
_cell_angle_beta   89.99960566
_cell_angle_gamma   63.31440844
_symmetry_Int_Tables_number   1
_chemical_formula_structural   Li4Y3CrO8
_chemical_formula_sum   'Li16 Y12 Cr4 O32'
_cell_volume   764.26496520
_cell_formula_units_Z   4
loop_
 _symmetry_equiv_pos_site_id
 _symmetry_equiv_pos_as_xyz
  1  'x, y, z'
loop_
 _atom_site_type_symbol
 _atom_site_label
 _atom_site_symmetry_multiplicity
 _atom_site_fract_x
 _atom_site_fract_y
 _atom_site_fract_z
 _atom_site_occupancy
  Li  Li0  1  0.00003600  0.99996200  0.12500000  1
  Li  Li1  1  0.00003600  0.99996200  0.37500000  1
  Li  Li2  1  0.00003700  0.99996100  0.62499900  1
  Li  Li3  1  0.00003600  0.99996200  0.87499900  1
  Li  Li4  1  0.50002700  0.49997300  0.00000000  1
  Li  Li5  1  0.50002700  0.49997400  0.25000600  1
  Li  Li6  1  0.50002700  0.49997500  0.49999600  1
  Li  Li7  1  0.50002700  0.49997400  0.75000200  1
  Li  Li8  1  0.49999900  0.99996800  0.18673800  1
  Li  Li9  1  0.49999800  0.99996800  0.43672500  1
  Li  Li10  1  0.49999900  0.99996900  0.68672500  1
  Li  Li11  1  0.49999800  0.99996900  0.93672500  1
  Li  Li12  1  0.00003700  0.50000600  0.06327700  1
  Li  Li13  1  0.00003700  0.50000600  0.31327700  1
  Li  Li14  1  0.00003600  0.50000700  0.56326300  1
  Li  Li15  1  0.00003600  0.50000600  0.81327700  1
  Y  Y16  1  0.50000800  0.49999500  0.12500100  1
  Y  Y17  1  0.50000400  0.49999700  0.37500000  1
  Y  Y18  1  0.50000700  0.49999700  0.62499800  1
  Y  Y19  1  0.50000800  0.49999400  0.87500000  1
  Y  Y20  1  0.00000100  0.49999400  0.18955900  1
  Y  Y21  1  0.00000000  0.49999300  0.43955200  1
  Y  Y22  1  0.99999700  0.49999500  0.68955700  1
  Y  Y23  1  0.99999900  0.49999000  0.93955200  1
  Y  Y24  1  0.50000400  0.00000300  0.06044200  1
  Y  Y25  1  0.50000200  0.00000300  0.31044700  1
  Y  Y26  1  0.50000500  0.00000300  0.56044100  1
  Y  Y27  1  0.50000300  0.00000300  0.81044800  1
  Cr  Cr28  1  0.00001700  0.99998500  0.75000000  1
  Cr  Cr29  1  0.00000900  0.99997600  0.99999600  1
  Cr  Cr30  1  0.00001000  0.99998700  0.25000600  1
  Cr  Cr31  1  0.00000500  0.99999200  0.50000000  1
  O  O32  1  0.72506400  0.72520400  0.12502000  1
  O  O33  1  0.72501500  0.72518400  0.37502000  1
  O  O34  1  0.72503000  0.72523700  0.62501900  1
  O  O35  1  0.72504300  0.72522000  0.87502000  1
  O  O36  1  0.27476500  0.27497700  0.12498000  1
  O  O37  1  0.27481100  0.27499700  0.37498000  1
  O  O38  1  0.27479600  0.27494300  0.62498000  1
  O  O39  1  0.27478100  0.27496000  0.87498000  1
  O  O40  1  0.20672100  0.20660300  0.24999900  1
  O  O41  1  0.20667400  0.20665400  0.49998400  1
  O  O42  1  0.20670800  0.20664500  0.74999800  1
  O  O43  1  0.20671300  0.20663800  0.99998400  1
  O  O44  1  0.79334900  0.79329600  0.99999900  1
  O  O45  1  0.79334100  0.79333000  0.25001500  1
  O  O46  1  0.79338800  0.79328000  0.50000000  1
  O  O47  1  0.79335200  0.79329300  0.75001400  1
  O  O48  1  0.77224400  0.25672700  0.19085600  1
  O  O49  1  0.77218600  0.25684100  0.44084200  1
  O  O50  1  0.77219500  0.25675700  0.69084400  1
  O  O51  1  0.77219800  0.25677100  0.94083900  1
  O  O52  1  0.22775200  0.74326700  0.19085400  1
  O  O53  1  0.22780700  0.74315100  0.44084100  1
  O  O54  1  0.22779600  0.74323700  0.69084300  1
  O  O55  1  0.22779600  0.74321900  0.94083700  1
  O  O56  1  0.25675800  0.77220400  0.05915700  1
  O  O57  1  0.25684000  0.77219000  0.30916100  1
  O  O58  1  0.25673100  0.77224800  0.55914700  1
  O  O59  1  0.25677500  0.77220400  0.80916300  1
  O  O60  1  0.74324400  0.22779900  0.05915400  1
  O  O61  1  0.74316200  0.22781200  0.30915800  1
  O  O62  1  0.74327100  0.22775800  0.55914400  1
  O  O63  1  0.74322600  0.22780100  0.80916100  1
