# generated using pymatgen
data_Li3Cr(BO3)2
_symmetry_space_group_name_H-M   'P 1'
_cell_length_a   5.81941264
_cell_length_b   9.02199000
_cell_length_c   9.24589763
_cell_angle_alpha   70.26021274
_cell_angle_beta   80.15504662
_cell_angle_gamma   82.68348479
_symmetry_Int_Tables_number   1
_chemical_formula_structural   Li3Cr(BO3)2
_chemical_formula_sum   'Li12 Cr4 B8 O24'
_cell_volume   448.91038686
_cell_formula_units_Z   4
loop_
 _symmetry_equiv_pos_site_id
 _symmetry_equiv_pos_as_xyz
  1  'x, y, z'
loop_
 _atom_site_type_symbol
 _atom_site_label
 _atom_site_symmetry_multiplicity
 _atom_site_fract_x
 _atom_site_fract_y
 _atom_site_fract_z
 _atom_site_occupancy
  Li  Li0  1  0.83857300  0.33144900  0.53471300  1
  Li  Li1  1  0.83849000  0.83147100  0.03468700  1
  Li  Li2  1  0.16146400  0.66854000  0.46529600  1
  Li  Li3  1  0.16149000  0.16854900  0.96527700  1
  Li  Li4  1  0.01669800  0.95848700  0.27533700  1
  Li  Li5  1  0.01660300  0.45843100  0.77533900  1
  Li  Li6  1  0.98333700  0.04156100  0.72464500  1
  Li  Li7  1  0.98344300  0.54157900  0.22464400  1
  Li  Li8  1  0.75801600  0.08011200  0.46711300  1
  Li  Li9  1  0.75799900  0.58013300  0.96711000  1
  Li  Li10  1  0.24199700  0.91991500  0.53287000  1
  Li  Li11  1  0.24199100  0.41986300  0.03288800  1
  Cr  Cr12  1  0.53655900  0.54982700  0.65266600  1
  Cr  Cr13  1  0.46361300  0.45027300  0.34732400  1
  Cr  Cr14  1  0.53664300  0.04960300  0.15272400  1
  Cr  Cr15  1  0.46332300  0.95034800  0.84728700  1
  B  B16  1  0.18962900  0.20063900  0.36575000  1
  B  B17  1  0.18962600  0.70067100  0.86575100  1
  B  B18  1  0.81037500  0.79936000  0.63424600  1
  B  B19  1  0.81036000  0.29932500  0.13425200  1
  B  B20  1  0.36746700  0.27561300  0.62056700  1
  B  B21  1  0.36745800  0.77556600  0.12062000  1
  B  B22  1  0.63247600  0.72437100  0.37942900  1
  B  B23  1  0.63253500  0.22442700  0.87941100  1
  O  O24  1  0.77598500  0.14060400  0.22127300  1
  O  O25  1  0.77600300  0.64065700  0.72122300  1
  O  O26  1  0.22400500  0.85936800  0.77875600  1
  O  O27  1  0.22402400  0.35935800  0.27879300  1
  O  O28  1  0.53844100  0.24757100  0.50697600  1
  O  O29  1  0.53836500  0.74758000  0.00698700  1
  O  O30  1  0.46157900  0.75241900  0.49303000  1
  O  O31  1  0.46158000  0.25238500  0.99303000  1
  O  O32  1  0.28125400  0.43876700  0.58124600  1
  O  O33  1  0.28125200  0.93875200  0.08125900  1
  O  O34  1  0.71876000  0.56122700  0.41875100  1
  O  O35  1  0.71874600  0.06122700  0.91875600  1
  O  O36  1  0.28809500  0.07539000  0.31359800  1
  O  O37  1  0.28806800  0.57542100  0.81360400  1
  O  O38  1  0.71180400  0.92458700  0.68637900  1
  O  O39  1  0.71185500  0.42458200  0.18635600  1
  O  O40  1  0.04500400  0.16195900  0.50409300  1
  O  O41  1  0.04495800  0.66199900  0.00408800  1
  O  O42  1  0.95506400  0.83805900  0.49592900  1
  O  O43  1  0.95496900  0.33801000  0.99589300  1
  O  O44  1  0.70853500  0.83547400  0.24323300  1
  O  O45  1  0.70877900  0.33563400  0.74324500  1
  O  O46  1  0.29137200  0.16445700  0.75674100  1
  O  O47  1  0.29133700  0.66439600  0.25681600  1
