# generated using pymatgen
data_Li2Cr3O10
_symmetry_space_group_name_H-M   'P 1'
_cell_length_a   16.91814700
_cell_length_b   6.79695400
_cell_length_c   8.85849544
_cell_angle_alpha   55.21373204
_cell_angle_beta   90.00000000
_cell_angle_gamma   90.00000000
_symmetry_Int_Tables_number   1
_chemical_formula_structural   Li2Cr3O10
_chemical_formula_sum   'Li8 Cr12 O40'
_cell_volume   836.60699896
_cell_formula_units_Z   4
loop_
 _symmetry_equiv_pos_site_id
 _symmetry_equiv_pos_as_xyz
  1  'x, y, z'
loop_
 _atom_site_type_symbol
 _atom_site_label
 _atom_site_symmetry_multiplicity
 _atom_site_fract_x
 _atom_site_fract_y
 _atom_site_fract_z
 _atom_site_occupancy
  Li  Li0  1  0.67233800  0.07645500  0.97347600  1
  Li  Li1  1  0.39468300  0.47773100  0.86627500  1
  Li  Li2  1  0.89468300  0.52226900  0.63372500  1
  Li  Li3  1  0.17233800  0.92354500  0.52652400  1
  Li  Li4  1  0.82766200  0.07645500  0.47347600  1
  Li  Li5  1  0.10531700  0.47773100  0.36627500  1
  Li  Li6  1  0.60531700  0.52226900  0.13372500  1
  Li  Li7  1  0.32766200  0.92354500  0.02652400  1
  Cr  Cr8  1  0.08941000  0.26153600  0.89557600  1
  Cr  Cr9  1  0.77332400  0.57628500  0.94820100  1
  Cr  Cr10  1  0.99803100  0.90186900  0.73378000  1
  Cr  Cr11  1  0.49803100  0.09813100  0.76622000  1
  Cr  Cr12  1  0.58941000  0.73846400  0.60442400  1
  Cr  Cr13  1  0.72667600  0.57628500  0.44820100  1
  Cr  Cr14  1  0.27332400  0.42371500  0.55179900  1
  Cr  Cr15  1  0.41059000  0.26153600  0.39557600  1
  Cr  Cr16  1  0.50196900  0.90186900  0.23378000  1
  Cr  Cr17  1  0.00196900  0.09813100  0.26622000  1
  Cr  Cr18  1  0.22667600  0.42371500  0.05179900  1
  Cr  Cr19  1  0.91059000  0.73846400  0.10442400  1
  O  O20  1  0.99617200  0.80407000  0.97188200  1
  O  O21  1  0.14924000  0.47764600  0.88906600  1
  O  O22  1  0.85749300  0.97598300  0.01408300  1
  O  O23  1  0.29520400  0.62970400  0.94321800  1
  O  O24  1  0.47005000  0.32573500  0.76794700  1
  O  O25  1  0.73762500  0.83890100  0.87086200  1
  O  O26  1  0.43283900  0.88546300  0.87770100  1
  O  O27  1  0.81076000  0.57582400  0.77790400  1
  O  O28  1  0.56501500  0.64272900  0.81094700  1
  O  O29  1  0.06501500  0.35727100  0.68905300  1
  O  O30  1  0.58622000  0.00904900  0.85851300  1
  O  O31  1  0.31076000  0.42417600  0.72209600  1
  O  O32  1  0.97005000  0.67426500  0.73205300  1
  O  O33  1  0.64924000  0.52235400  0.61093400  1
  O  O34  1  0.08622000  0.99095100  0.64148700  1
  O  O35  1  0.93283900  0.11453700  0.62229900  1
  O  O36  1  0.23762500  0.16109900  0.62913800  1
  O  O37  1  0.50382800  0.80407000  0.47188200  1
  O  O38  1  0.79520400  0.37029600  0.55678200  1
  O  O39  1  0.35749300  0.02401700  0.48591700  1
  O  O40  1  0.64250700  0.97598300  0.51408300  1
  O  O41  1  0.20479600  0.62970400  0.44321800  1
  O  O42  1  0.49617200  0.19593000  0.52811800  1
  O  O43  1  0.76237500  0.83890100  0.37086200  1
  O  O44  1  0.06716100  0.88546300  0.37770100  1
  O  O45  1  0.91378000  0.00904900  0.35851300  1
  O  O46  1  0.35076000  0.47764600  0.38906600  1
  O  O47  1  0.02995000  0.32573500  0.26794700  1
  O  O48  1  0.68924000  0.57582400  0.27790400  1
  O  O49  1  0.41378000  0.99095100  0.14148700  1
  O  O50  1  0.93498500  0.64272900  0.31094700  1
  O  O51  1  0.43498500  0.35727100  0.18905300  1
  O  O52  1  0.18924000  0.42417600  0.22209600  1
  O  O53  1  0.56716100  0.11453700  0.12229900  1
  O  O54  1  0.26237500  0.16109900  0.12913800  1
  O  O55  1  0.52995000  0.67426500  0.23205300  1
  O  O56  1  0.70479600  0.37029600  0.05678200  1
  O  O57  1  0.14250700  0.02401700  0.98591700  1
  O  O58  1  0.85076000  0.52235400  0.11093400  1
  O  O59  1  0.00382800  0.19593000  0.02811800  1
