# generated using pymatgen
data_Li3V3P8O29
_symmetry_space_group_name_H-M   'P 1'
_cell_length_a   9.74566100
_cell_length_b   9.74858867
_cell_length_c   14.32842917
_cell_angle_alpha   90.83137532
_cell_angle_beta   89.79323628
_cell_angle_gamma   119.64621112
_symmetry_Int_Tables_number   1
_chemical_formula_structural   Li3V3P8O29
_chemical_formula_sum   'Li6 V6 P16 O58'
_cell_volume   1182.96018667
_cell_formula_units_Z   2
loop_
 _symmetry_equiv_pos_site_id
 _symmetry_equiv_pos_as_xyz
  1  'x, y, z'
loop_
 _atom_site_type_symbol
 _atom_site_label
 _atom_site_symmetry_multiplicity
 _atom_site_fract_x
 _atom_site_fract_y
 _atom_site_fract_z
 _atom_site_occupancy
  Li  Li0  1  0.77843600  0.07882400  0.44612100  1
  Li  Li1  1  0.76943900  0.67281500  0.93925500  1
  Li  Li2  1  0.09073200  0.31554800  0.55977800  1
  Li  Li3  1  0.91931000  0.69781900  0.44240400  1
  Li  Li4  1  0.68275300  0.91400000  0.05292900  1
  Li  Li5  1  0.07834000  0.06112300  0.00311400  1
  V  V6  1  0.99291600  0.43222800  0.75942200  1
  V  V7  1  0.00335900  0.56687000  0.24128000  1
  V  V8  1  0.43035700  0.43228100  0.25229300  1
  V  V9  1  0.56190900  0.56270800  0.74582300  1
  V  V10  1  0.43188100  0.00175700  0.75059500  1
  V  V11  1  0.55754500  0.99851500  0.24978300  1
  P  P12  1  0.30197700  0.08300300  0.16096300  1
  P  P13  1  0.31138600  0.22307400  0.65875100  1
  P  P14  1  0.77245500  0.08871200  0.66120100  1
  P  P15  1  0.66269500  0.33423800  0.87021000  1
  P  P16  1  0.67232900  0.33854500  0.36496800  1
  P  P17  1  0.91230100  0.21579000  0.15915700  1
  P  P18  1  0.08609400  0.31909300  0.34048800  1
  P  P19  1  0.76655300  0.68289200  0.15776500  1
  P  P20  1  0.22777700  0.31051900  0.84059800  1
  P  P21  1  0.90994500  0.67706800  0.65743200  1
  P  P22  1  0.08500700  0.78280300  0.83689600  1
  P  P23  1  0.32571500  0.66271200  0.63339400  1
  P  P24  1  0.33838100  0.66574600  0.13262900  1
  P  P25  1  0.22284700  0.91271000  0.34260200  1
  P  P26  1  0.68472700  0.77408800  0.33921400  1
  P  P27  1  0.68486900  0.91103800  0.83972600  1
  O  O28  1  0.23117300  0.99442000  0.43100800  1
  O  O29  1  0.34240700  0.08248300  0.66501200  1
  O  O30  1  0.20966400  0.21953000  0.92524000  1
  O  O31  1  0.34314400  0.25791400  0.17275300  1
  O  O32  1  0.46017600  0.07895600  0.17321700  1
  O  O33  1  0.51620800  0.18779900  0.82500500  1
  O  O34  1  0.61940500  0.09605200  0.68062600  1
  O  O35  1  0.76656000  0.98494800  0.92950600  1
  O  O36  1  0.73631600  0.08055800  0.16383600  1
  O  O37  1  0.52588200  0.34240300  0.32278100  1
  O  O38  1  0.47411700  0.37696600  0.67713400  1
  O  O39  1  0.66525100  0.18365200  0.32186400  1
  O  O40  1  0.67213200  0.33822200  0.97363200  1
  O  O41  1  0.68063100  0.34024000  0.46825000  1
  O  O42  1  0.81205900  0.32830000  0.82601900  1
  O  O43  1  0.61306800  0.52593900  0.17384800  1
  O  O44  1  0.67284900  0.48773300  0.83006600  1
  O  O45  1  0.91970400  0.25718000  0.66747300  1
  O  O46  1  0.98681000  0.19940200  0.25691200  1
  O  O47  1  0.00375400  0.24975200  0.43044300  1
  O  O48  1  0.99318400  0.19248000  0.07823200  1
  O  O49  1  0.91919400  0.37983200  0.16866500  1
  O  O50  1  0.82070200  0.48176100  0.31992700  1
  O  O51  1  0.09334000  0.35284700  0.82991800  1
  O  O52  1  0.90189700  0.51908800  0.68246000  1
  O  O53  1  0.74067800  0.65303500  0.67093600  1
  O  O54  1  0.20555900  0.20271300  0.74975200  1
  O  O55  1  0.22857800  0.23208700  0.57482200  1
  O  O56  1  0.77652800  0.77135500  0.42048700  1
  O  O57  1  0.25453800  0.34205900  0.33404600  1
  O  O58  1  0.09532400  0.47852300  0.31807700  1
  O  O59  1  0.91058200  0.65561200  0.16575000  1
  O  O60  1  0.17583900  0.51751700  0.67258500  1
  O  O61  1  0.08155100  0.62049500  0.83062300  1
  O  O62  1  0.99343900  0.79688300  0.91626200  1
  O  O63  1  0.97964600  0.73924800  0.56538900  1
  O  O64  1  0.01272300  0.79960600  0.73897500  1
  O  O65  1  0.08003800  0.74079100  0.33333100  1
  O  O66  1  0.33136900  0.51787000  0.17858000  1
  O  O67  1  0.38746400  0.46387600  0.82917800  1
  O  O68  1  0.18949800  0.67115800  0.17413700  1
  O  O69  1  0.34873700  0.67199400  0.02952100  1
  O  O70  1  0.33564700  0.66272300  0.53018000  1
  O  O71  1  0.33791600  0.81606200  0.67893100  1
  O  O72  1  0.52467100  0.62040300  0.32391600  1
  O  O73  1  0.47086700  0.65435100  0.68090600  1
  O  O74  1  0.25831400  0.91763200  0.83413800  1
  O  O75  1  0.20090200  0.99752200  0.25212900  1
  O  O76  1  0.21025800  0.00848900  0.07530600  1
  O  O77  1  0.37788000  0.90469900  0.31922300  1
  O  O78  1  0.49089400  0.81437200  0.17566200  1
  O  O79  1  0.52849700  0.91316800  0.82542500  1
  O  O80  1  0.65555700  0.73864700  0.83423900  1
  O  O81  1  0.76684000  0.76156400  0.06840300  1
  O  O82  1  0.78519600  0.79841300  0.24355300  1
  O  O83  1  0.65902200  0.91974300  0.33956200  1
  O  O84  1  0.76890600  0.01211500  0.57018900  1
  O  O85  1  0.79194100  0.99670700  0.74927800  1
