# generated using pymatgen
data_Li16V3Ga13O32
_symmetry_space_group_name_H-M   'P 1'
_cell_length_a   5.51326900
_cell_length_b   6.48001405
_cell_length_c   20.39473109
_cell_angle_alpha   89.98269080
_cell_angle_beta   89.99289517
_cell_angle_gamma   89.99317404
_symmetry_Int_Tables_number   1
_chemical_formula_structural   Li16V3Ga13O32
_chemical_formula_sum   'Li16 V3 Ga13 O32'
_cell_volume   728.62335390
_cell_formula_units_Z   1
loop_
 _symmetry_equiv_pos_site_id
 _symmetry_equiv_pos_as_xyz
  1  'x, y, z'
loop_
 _atom_site_type_symbol
 _atom_site_label
 _atom_site_symmetry_multiplicity
 _atom_site_fract_x
 _atom_site_fract_y
 _atom_site_fract_z
 _atom_site_occupancy
  Li  Li0  1  0.08380100  0.62583600  0.12591400  1
  Li  Li1  1  0.08211700  0.62443300  0.37554700  1
  Li  Li2  1  0.08054100  0.62413100  0.62593800  1
  Li  Li3  1  0.08152300  0.62508100  0.87569900  1
  Li  Li4  1  0.41928700  0.12439100  0.00074900  1
  Li  Li5  1  0.41836400  0.12507200  0.50080900  1
  Li  Li6  1  0.41649300  0.12317200  0.25095600  1
  Li  Li7  1  0.41753700  0.12436000  0.75054400  1
  Li  Li8  1  0.58139100  0.87488400  0.12587800  1
  Li  Li9  1  0.58359200  0.87413300  0.87572800  1
  Li  Li10  1  0.58294900  0.87551700  0.37548200  1
  Li  Li11  1  0.58336800  0.87672200  0.62599700  1
  Li  Li12  1  0.91954800  0.37568300  0.25091400  1
  Li  Li13  1  0.91738600  0.37541500  0.75049200  1
  Li  Li14  1  0.91668200  0.37685600  0.00084800  1
  Li  Li15  1  0.91642100  0.37402200  0.50084400  1
  V  V16  1  0.08372100  0.12782600  0.87563900  1
  V  V17  1  0.41630700  0.62782700  0.50058400  1
  V  V18  1  0.58351400  0.37239700  0.12585200  1
  Ga  Ga19  1  0.08253500  0.12310800  0.12465500  1
  Ga  Ga20  1  0.08192700  0.12629000  0.37470200  1
  Ga  Ga21  1  0.08211800  0.12620500  0.62499000  1
  Ga  Ga22  1  0.41734500  0.62713100  0.99927300  1
  Ga  Ga23  1  0.41682200  0.62853200  0.25025700  1
  Ga  Ga24  1  0.41797900  0.62637300  0.74952000  1
  Ga  Ga25  1  0.58233700  0.37285500  0.37387600  1
  Ga  Ga26  1  0.58242500  0.37715300  0.87503700  1
  Ga  Ga27  1  0.58324600  0.37136600  0.62503000  1
  Ga  Ga28  1  0.91788400  0.87377500  0.24976800  1
  Ga  Ga29  1  0.91777100  0.87299800  0.74911800  1
  Ga  Ga30  1  0.91647500  0.87117600  0.00003300  1
  Ga  Ga31  1  0.91750700  0.87701100  0.50000100  1
  O  O32  1  0.06871500  0.11170100  0.28266100  1
  O  O33  1  0.06802400  0.11123200  0.03205600  1
  O  O34  1  0.07210800  0.11286500  0.53267400  1
  O  O35  1  0.06810100  0.11096400  0.78054600  1
  O  O36  1  0.09352100  0.63815000  0.02721900  1
  O  O37  1  0.09196100  0.63883800  0.27693900  1
  O  O38  1  0.08124000  0.63832500  0.52731600  1
  O  O39  1  0.09320500  0.63840900  0.77658000  1
  O  O40  1  0.40366600  0.13099400  0.15236400  1
  O  O41  1  0.41883600  0.13830500  0.90228900  1
  O  O42  1  0.40697900  0.13857300  0.40157300  1
  O  O43  1  0.40665200  0.13794600  0.65204000  1
  O  O44  1  0.42723100  0.61873300  0.15834300  1
  O  O45  1  0.43189000  0.61083200  0.40535500  1
  O  O46  1  0.43146800  0.61142000  0.65701800  1
  O  O47  1  0.42733900  0.61371900  0.90712400  1
  O  O48  1  0.56803700  0.38914100  0.03069200  1
  O  O49  1  0.57272400  0.38143200  0.53316100  1
  O  O50  1  0.56818800  0.38844300  0.78265000  1
  O  O51  1  0.56917300  0.38755700  0.28140800  1
  O  O52  1  0.59212000  0.86132000  0.02716100  1
  O  O53  1  0.59368000  0.86221900  0.27700900  1
  O  O54  1  0.59585600  0.86887200  0.52742300  1
  O  O55  1  0.59313900  0.86100200  0.77655200  1
  O  O56  1  0.91903800  0.36136100  0.15225000  1
  O  O57  1  0.90419400  0.36900200  0.90239100  1
  O  O58  1  0.90663200  0.36117300  0.40155500  1
  O  O59  1  0.90763400  0.36124200  0.65196500  1
  O  O60  1  0.92716000  0.88132700  0.90822000  1
  O  O61  1  0.92803500  0.88739900  0.15753800  1
  O  O62  1  0.93177400  0.88836500  0.40775200  1
  O  O63  1  0.93077400  0.88740900  0.65709800  1
