# generated using pymatgen
data_LiMn3(PO4)3
_symmetry_space_group_name_H-M   'P 1'
_cell_length_a   8.60240300
_cell_length_b   8.64522713
_cell_length_c   13.39995386
_cell_angle_alpha   108.25464086
_cell_angle_beta   108.54511778
_cell_angle_gamma   90.73541490
_symmetry_Int_Tables_number   1
_chemical_formula_structural   LiMn3(PO4)3
_chemical_formula_sum   'Li4 Mn12 P12 O48'
_cell_volume   890.22816786
_cell_formula_units_Z   4
loop_
 _symmetry_equiv_pos_site_id
 _symmetry_equiv_pos_as_xyz
  1  'x, y, z'
loop_
 _atom_site_type_symbol
 _atom_site_label
 _atom_site_symmetry_multiplicity
 _atom_site_fract_x
 _atom_site_fract_y
 _atom_site_fract_z
 _atom_site_occupancy
  Li  Li0  1  0.49276000  0.01081200  0.51071300  1
  Li  Li1  1  0.50553000  0.48955100  0.98990800  1
  Li  Li2  1  0.50228000  0.75204000  0.25222300  1
  Li  Li3  1  0.01103200  0.88795400  0.87497400  1
  Mn  Mn4  1  0.38647400  0.00925000  0.07583600  1
  Mn  Mn5  1  0.93336800  0.56228500  0.17510600  1
  Mn  Mn6  1  0.73757600  0.11532100  0.37508200  1
  Mn  Mn7  1  0.26385200  0.38833600  0.12702900  1
  Mn  Mn8  1  0.38641900  0.50658500  0.57304200  1
  Mn  Mn9  1  0.06825800  0.94131400  0.32702100  1
  Mn  Mn10  1  0.93309400  0.06144500  0.67304300  1
  Mn  Mn11  1  0.61653300  0.49263200  0.42639500  1
  Mn  Mn12  1  0.26678100  0.89170100  0.62703700  1
  Mn  Mn13  1  0.72389600  0.59475200  0.86878300  1
  Mn  Mn14  1  0.06537400  0.43783600  0.82204700  1
  Mn  Mn15  1  0.61579500  0.99438300  0.92822300  1
  P  P16  1  0.65091300  0.31975600  0.18405600  1
  P  P17  1  0.28983400  0.66334400  0.37487300  1
  P  P18  1  0.71135100  0.83708600  0.12530500  1
  P  P19  1  0.34949700  0.18128300  0.31626800  1
  P  P20  1  0.13484600  0.21355400  0.56168600  1
  P  P21  1  0.13020900  0.71717100  0.06275400  1
  P  P22  1  0.86895900  0.28426200  0.93769000  1
  P  P23  1  0.86518500  0.78323300  0.43406800  1
  P  P24  1  0.65583200  0.81542300  0.68589400  1
  P  P25  1  0.29087200  0.16433500  0.87655500  1
  P  P26  1  0.70814000  0.33525900  0.62296100  1
  P  P27  1  0.34652800  0.68671100  0.81755800  1
  O  O28  1  0.00618900  0.37736500  0.05075000  1
  O  O29  1  0.59124700  0.13955800  0.09511100  1
  O  O30  1  0.17733100  0.12397200  0.31342400  1
  O  O31  1  0.82271700  0.37674900  0.18612400  1
  O  O32  1  0.16670100  0.53585900  0.26739000  1
  O  O33  1  0.73107400  0.85104400  0.01684300  1
  O  O34  1  0.40923100  0.36084200  0.40478100  1
  O  O35  1  0.04387400  0.75026300  0.15435500  1
  O  O36  1  0.72623900  0.65385700  0.11802800  1
  O  O37  1  0.52273700  0.43256700  0.15074700  1
  O  O38  1  0.99588200  0.12294500  0.44838200  1
  O  O39  1  0.33049200  0.19639200  0.20051300  1
  O  O40  1  0.66749100  0.30251800  0.29842500  1
  O  O41  1  0.47640900  0.06677600  0.34774800  1
  O  O42  1  0.27349000  0.10727300  0.58125300  1
  O  O43  1  0.27853700  0.62615600  0.09555900  1
  O  O44  1  0.53231900  0.36030700  0.62836700  1
  O  O45  1  0.27578400  0.84563800  0.38109100  1
  O  O46  1  0.53460300  0.85918700  0.13320000  1
  O  O47  1  0.95743400  0.75449000  0.34525700  1
  O  O48  1  0.83330200  0.96491300  0.23209700  1
  O  O49  1  0.27025800  0.64958300  0.48330200  1
  O  O50  1  0.18995200  0.38443900  0.56247700  1
  O  O51  1  0.17938000  0.88280500  0.04950400  1
  O  O52  1  0.81942300  0.10944900  0.93588500  1
  O  O53  1  0.81220300  0.61414800  0.43682400  1
  O  O54  1  0.16690700  0.03430100  0.76957600  1
  O  O55  1  0.73520300  0.35232300  0.51713700  1
  O  O56  1  0.04938800  0.24401700  0.65513400  1
  O  O57  1  0.46808400  0.14236700  0.87427800  1
  O  O58  1  0.72491400  0.15220800  0.61392600  1
  O  O59  1  0.46563800  0.63855300  0.36604400  1
  O  O60  1  0.72546600  0.38468600  0.91875200  1
  O  O61  1  0.53019000  0.92736400  0.65112300  1
  O  O62  1  0.71817100  0.87685900  0.40116800  1
  O  O63  1  0.33371600  0.70186000  0.70316900  1
  O  O64  1  0.67550900  0.79659100  0.80113400  1
  O  O65  1  0.99575200  0.88065400  0.54962600  1
  O  O66  1  0.46927200  0.57193500  0.85259700  1
  O  O67  1  0.27219500  0.34701900  0.88533000  1
  O  O68  1  0.95146300  0.25509800  0.84316800  1
  O  O69  1  0.59965600  0.63791500  0.59530300  1
  O  O70  1  0.25871100  0.14294600  0.98064900  1
  O  O71  1  0.83107500  0.46220400  0.73209400  1
  O  O72  1  0.17085700  0.63560800  0.81501900  1
  O  O73  1  0.83546500  0.88100700  0.70086600  1
  O  O74  1  0.40647000  0.86588000  0.90727600  1
  O  O75  1  0.99587700  0.62236000  0.94806300  1
