# generated using pymatgen
data_LiTi(PO3)4
_symmetry_space_group_name_H-M   'P 1'
_cell_length_a   8.59914406
_cell_length_b   8.59914406
_cell_length_c   9.51905118
_cell_angle_alpha   60.04856244
_cell_angle_beta   60.04856244
_cell_angle_gamma   50.19719015
_symmetry_Int_Tables_number   1
_chemical_formula_structural   LiTi(PO3)4
_chemical_formula_sum   'Li2 Ti2 P8 O24'
_cell_volume   451.15546622
_cell_formula_units_Z   2
loop_
 _symmetry_equiv_pos_site_id
 _symmetry_equiv_pos_as_xyz
  1  'x, y, z'
loop_
 _atom_site_type_symbol
 _atom_site_label
 _atom_site_symmetry_multiplicity
 _atom_site_fract_x
 _atom_site_fract_y
 _atom_site_fract_z
 _atom_site_occupancy
  Li  Li0  1  0.69488400  0.30511600  0.75000000  1
  Li  Li1  1  0.30511600  0.69488400  0.25000000  1
  Ti  Ti2  1  0.15245200  0.84754800  0.75000000  1
  Ti  Ti3  1  0.84754800  0.15245200  0.25000000  1
  P  P4  1  0.01708300  0.70238200  0.17445000  1
  P  P5  1  0.43040300  0.30591300  0.13021100  1
  P  P6  1  0.69408700  0.56959700  0.36978900  1
  P  P7  1  0.29761800  0.98291700  0.32555000  1
  P  P8  1  0.70238200  0.01708300  0.67445000  1
  P  P9  1  0.30591300  0.43040300  0.63021100  1
  P  P10  1  0.56959700  0.69408700  0.86978900  1
  P  P11  1  0.98291700  0.29761800  0.82555000  1
  O  O12  1  0.60035500  0.19031700  0.21413900  1
  O  O13  1  0.22381600  0.48492600  0.22487400  1
  O  O14  1  0.01595200  0.74535800  0.00117100  1
  O  O15  1  0.83664800  0.66204100  0.31836200  1
  O  O16  1  0.98805100  0.14032500  0.79182900  1
  O  O17  1  0.33795900  0.16335200  0.18163800  1
  O  O18  1  0.25464200  0.98404800  0.49882900  1
  O  O19  1  0.61160200  0.52666500  0.55604400  1
  O  O20  1  0.47333500  0.38839800  0.94395600  1
  O  O21  1  0.51507400  0.77618400  0.27512600  1
  O  O22  1  0.80968300  0.39964500  0.28586100  1
  O  O23  1  0.85967500  0.01194900  0.70817100  1
  O  O24  1  0.14032500  0.98805100  0.29182900  1
  O  O25  1  0.19031700  0.60035500  0.71413900  1
  O  O26  1  0.48492600  0.22381600  0.72487400  1
  O  O27  1  0.52666500  0.61160200  0.05604400  1
  O  O28  1  0.38839800  0.47333500  0.44395600  1
  O  O29  1  0.74535800  0.01595200  0.50117100  1
  O  O30  1  0.66204100  0.83664800  0.81836200  1
  O  O31  1  0.01194900  0.85967500  0.20817100  1
  O  O32  1  0.16335200  0.33795900  0.68163800  1
  O  O33  1  0.98404800  0.25464200  0.99882900  1
  O  O34  1  0.77618400  0.51507400  0.77512600  1
  O  O35  1  0.39964500  0.80968300  0.78586100  1
