# generated using pymatgen
data_Li3VO3F
_symmetry_space_group_name_H-M   'P 1'
_cell_length_a   5.86081026
_cell_length_b   5.86081026
_cell_length_c   9.44597265
_cell_angle_alpha   71.05569485
_cell_angle_beta   71.05569485
_cell_angle_gamma   87.22891177
_symmetry_Int_Tables_number   1
_chemical_formula_structural   Li3VO3F
_chemical_formula_sum   'Li12 V4 O12 F4'
_cell_volume   289.67263844
_cell_formula_units_Z   4
loop_
 _symmetry_equiv_pos_site_id
 _symmetry_equiv_pos_as_xyz
  1  'x, y, z'
loop_
 _atom_site_type_symbol
 _atom_site_label
 _atom_site_symmetry_multiplicity
 _atom_site_fract_x
 _atom_site_fract_y
 _atom_site_fract_z
 _atom_site_occupancy
  Li  Li0  1  0.55271600  0.30600800  0.13840900  1
  Li  Li1  1  0.30600800  0.55271600  0.63840900  1
  Li  Li2  1  0.18791700  0.93622900  0.37543000  1
  Li  Li3  1  0.56210600  0.82574200  0.12194600  1
  Li  Li4  1  0.17425800  0.43789400  0.37805400  1
  Li  Li5  1  0.06377100  0.81208300  0.12457000  1
  Li  Li6  1  0.93622900  0.18791700  0.87543000  1
  Li  Li7  1  0.82574200  0.56210600  0.62194600  1
  Li  Li8  1  0.43789400  0.17425800  0.87805400  1
  Li  Li9  1  0.81208300  0.06377100  0.62457000  1
  Li  Li10  1  0.69399200  0.44728400  0.36159100  1
  Li  Li11  1  0.44728400  0.69399200  0.86159100  1
  V  V12  1  0.06009500  0.29360000  0.12192400  1
  V  V13  1  0.29360000  0.06009500  0.62192400  1
  V  V14  1  0.70640000  0.93990500  0.37807600  1
  V  V15  1  0.93990500  0.70640000  0.87807600  1
  O  O16  1  0.81436700  0.07032400  0.13991000  1
  O  O17  1  0.07032400  0.81436700  0.63991000  1
  O  O18  1  0.30031600  0.08922300  0.11840500  1
  O  O19  1  0.84061400  0.55810700  0.11401700  1
  O  O20  1  0.08922300  0.30031600  0.61840500  1
  O  O21  1  0.55810700  0.84061400  0.61401700  1
  O  O22  1  0.44189300  0.15938600  0.38598300  1
  O  O23  1  0.91077700  0.69968400  0.38159500  1
  O  O24  1  0.15938600  0.44189300  0.88598300  1
  O  O25  1  0.69968400  0.91077700  0.88159500  1
  O  O26  1  0.92967600  0.18563300  0.36009000  1
  O  O27  1  0.18563300  0.92967600  0.86009000  1
  F  F28  1  0.44499300  0.69376800  0.36738400  1
  F  F29  1  0.69376800  0.44499300  0.86738400  1
  F  F30  1  0.30623200  0.55500700  0.13261600  1
  F  F31  1  0.55500700  0.30623200  0.63261600  1
