# generated using pymatgen
data_Li6VCoP2(CO7)2
_symmetry_space_group_name_H-M   'P 1'
_cell_length_a   8.23381911
_cell_length_b   8.23449526
_cell_length_c   8.49624777
_cell_angle_alpha   93.83200105
_cell_angle_beta   86.15918276
_cell_angle_gamma   74.80005375
_symmetry_Int_Tables_number   1
_chemical_formula_structural   Li6VCoP2(CO7)2
_chemical_formula_sum   'Li12 V2 Co2 P4 C4 O28'
_cell_volume   552.52141898
_cell_formula_units_Z   2
loop_
 _symmetry_equiv_pos_site_id
 _symmetry_equiv_pos_as_xyz
  1  'x, y, z'
loop_
 _atom_site_type_symbol
 _atom_site_label
 _atom_site_symmetry_multiplicity
 _atom_site_fract_x
 _atom_site_fract_y
 _atom_site_fract_z
 _atom_site_occupancy
  Li  Li0  1  0.52170200  0.72839600  0.10589600  1
  Li  Li1  1  0.02158100  0.22832600  0.10586100  1
  Li  Li2  1  0.47744900  0.27259000  0.89615400  1
  Li  Li3  1  0.97740300  0.77261600  0.89615000  1
  Li  Li4  1  0.14506000  0.87732000  0.27783200  1
  Li  Li5  1  0.64505100  0.37735300  0.27788500  1
  Li  Li6  1  0.37266700  0.10497400  0.27790300  1
  Li  Li7  1  0.87263100  0.60495200  0.27791100  1
  Li  Li8  1  0.62629900  0.89221300  0.72370200  1
  Li  Li9  1  0.12638900  0.39231100  0.72357800  1
  Li  Li10  1  0.85781000  0.12351600  0.72363100  1
  Li  Li11  1  0.35781500  0.62328200  0.72343200  1
  V  V12  1  0.77067800  0.97931700  0.32718100  1
  V  V13  1  0.27068900  0.47937700  0.32716200  1
  Co  Co14  1  0.73078100  0.51919500  0.67036600  1
  Co  Co15  1  0.23078600  0.01918500  0.67039800  1
  P  P16  1  0.49212900  0.75785300  0.41251900  1
  P  P17  1  0.99211100  0.25790000  0.41248600  1
  P  P18  1  0.50968800  0.24026300  0.59031500  1
  P  P19  1  0.00972300  0.74031500  0.59031500  1
  C  C20  1  0.71083600  0.03916700  0.03612000  1
  C  C21  1  0.21086800  0.53919600  0.03608300  1
  C  C22  1  0.28591900  0.96417700  0.96031600  1
  C  C23  1  0.78584700  0.46412700  0.96032200  1
  O  O24  1  0.83517500  0.91480600  0.06664500  1
  O  O25  1  0.33518500  0.41481800  0.06661000  1
  O  O26  1  0.32135400  0.92872200  0.10276200  1
  O  O27  1  0.82129200  0.42868300  0.10277600  1
  O  O28  1  0.61838100  0.13161200  0.15772800  1
  O  O29  1  0.11843200  0.63166900  0.15769500  1
  O  O30  1  0.46002300  0.28997500  0.42513000  1
  O  O31  1  0.96007500  0.79000500  0.42512700  1
  O  O32  1  0.33457400  0.91534800  0.43617400  1
  O  O33  1  0.83459100  0.41541000  0.43623800  1
  O  O34  1  0.66677500  0.08307600  0.56943200  1
  O  O35  1  0.16691300  0.58320300  0.56942000  1
  O  O36  1  0.54407300  0.70576900  0.57653000  1
  O  O37  1  0.04415400  0.20578500  0.57648200  1
  O  O38  1  0.37696000  0.87354800  0.83676300  1
  O  O39  1  0.87671400  0.37331000  0.83677900  1
  O  O40  1  0.67850300  0.07152300  0.89294100  1
  O  O41  1  0.17852200  0.57156500  0.89291000  1
  O  O42  1  0.16110400  0.08856600  0.93279900  1
  O  O43  1  0.66121700  0.58870800  0.93281800  1
  O  O44  1  0.45322900  0.61363500  0.30648000  1
  O  O45  1  0.95311900  0.11369500  0.30650500  1
  O  O46  1  0.63640800  0.79680200  0.30656600  1
  O  O47  1  0.13635100  0.29690400  0.30650600  1
  O  O48  1  0.54936800  0.38677800  0.69415400  1
  O  O49  1  0.04933700  0.88684300  0.69419700  1
  O  O50  1  0.36308000  0.20070600  0.69417500  1
  O  O51  1  0.86318700  0.70061200  0.69412900  1
