# generated using pymatgen
data_Li6Sn3P8O29
_symmetry_space_group_name_H-M   'P 1'
_cell_length_a   9.88732500
_cell_length_b   9.88784158
_cell_length_c   14.05507890
_cell_angle_alpha   89.40832200
_cell_angle_beta   89.56631551
_cell_angle_gamma   60.37391875
_symmetry_Int_Tables_number   1
_chemical_formula_structural   Li6Sn3P8O29
_chemical_formula_sum   'Li12 Sn6 P16 O58'
_cell_volume   1194.38236904
_cell_formula_units_Z   2
loop_
 _symmetry_equiv_pos_site_id
 _symmetry_equiv_pos_as_xyz
  1  'x, y, z'
loop_
 _atom_site_type_symbol
 _atom_site_label
 _atom_site_symmetry_multiplicity
 _atom_site_fract_x
 _atom_site_fract_y
 _atom_site_fract_z
 _atom_site_occupancy
  Li  Li0  1  0.01610900  0.03808700  0.50562800  1
  Li  Li1  1  0.00322600  0.00303100  0.00429500  1
  Li  Li2  1  0.08931400  0.68109700  0.05824200  1
  Li  Li3  1  0.32881000  0.32611700  0.88798200  1
  Li  Li4  1  0.23220900  0.66611000  0.55690400  1
  Li  Li5  1  0.66214400  0.10510600  0.55726100  1
  Li  Li6  1  0.33966800  0.76805500  0.94605500  1
  Li  Li7  1  0.67637500  0.23031800  0.05848900  1
  Li  Li8  1  0.33081300  0.90406400  0.44053400  1
  Li  Li9  1  0.77011500  0.33454900  0.44398300  1
  Li  Li10  1  0.89628800  0.33575600  0.94242600  1
  Li  Li11  1  0.89804200  0.77185400  0.44405600  1
  Sn  Sn12  1  0.00031800  0.43251100  0.74579800  1
  Sn  Sn13  1  0.99795000  0.56190200  0.24959300  1
  Sn  Sn14  1  0.43446200  0.00168400  0.24487300  1
  Sn  Sn15  1  0.56699900  0.99430600  0.75187700  1
  Sn  Sn16  1  0.43760100  0.56601600  0.74871600  1
  Sn  Sn17  1  0.56489700  0.43602300  0.25172300  1
  P  P18  1  0.08222700  0.21615800  0.33923100  1
  P  P19  1  0.21703100  0.08320600  0.84097200  1
  P  P20  1  0.08942700  0.68705600  0.84733600  1
  P  P21  1  0.33183900  0.33770500  0.12431000  1
  P  P22  1  0.33718800  0.33251600  0.62444300  1
  P  P23  1  0.22297800  0.68911400  0.34394700  1
  P  P24  1  0.30819400  0.77768100  0.15642500  1
  P  P25  1  0.69029500  0.08227300  0.34676400  1
  P  P26  1  0.30575700  0.92005900  0.65051100  1
  P  P27  1  0.68496200  0.22174000  0.84426800  1
  P  P28  1  0.77624100  0.30835000  0.65568300  1
  P  P29  1  0.67072700  0.66144100  0.87690800  1
  P  P30  1  0.66457400  0.66932800  0.37819400  1
  P  P31  1  0.91593000  0.30641900  0.15084600  1
  P  P32  1  0.78250800  0.91906900  0.15760400  1
  P  P33  1  0.91828600  0.77593200  0.65825700  1
  O  O34  1  0.01300100  0.19866000  0.23917800  1
  O  O35  1  0.98779600  0.22107000  0.06027500  1
  O  O36  1  0.07519100  0.25003600  0.84494800  1
  O  O37  1  0.20078200  0.01716700  0.73965100  1
  O  O38  1  0.21815500  0.99460800  0.56082800  1
  O  O39  1  0.25005500  0.07622600  0.34225900  1
  O  O40  1  0.08265000  0.37143900  0.33785000  1
  O  O41  1  0.20544700  0.31268400  0.67353500  1
  O  O42  1  0.10893400  0.52126900  0.83601300  1
  O  O43  1  0.00685900  0.78034600  0.57115500  1
  O  O44  1  0.00293800  0.78728300  0.75310500  1
  O  O45  1  0.07704700  0.66867200  0.34632800  1
  O  O46  1  0.31222900  0.20466500  0.16890900  1
  O  O47  1  0.36654100  0.09954800  0.83804900  1
  O  O48  1  0.19189900  0.49624400  0.16136000  1
  O  O49  1  0.33446500  0.34062600  0.01730200  1
  O  O50  1  0.33978600  0.33659700  0.51885200  1
  O  O51  1  0.31884500  0.49176300  0.66393700  1
  O  O52  1  0.53161200  0.09276900  0.33488100  1
  O  O53  1  0.49612400  0.19305700  0.66513600  1
  O  O54  1  0.25494800  0.66880900  0.84521300  1
  O  O55  1  0.20419800  0.79084800  0.24960700  1
  O  O56  1  0.21748800  0.78061800  0.06904600  1
  O  O57  1  0.22222200  0.77927700  0.43046700  1
  O  O58  1  0.37054800  0.52973200  0.33575400  1
  O  O59  1  0.48954000  0.32149500  0.16143100  1
  O  O60  1  0.32428000  0.75439600  0.65761300  1
  O  O61  1  0.51933400  0.36686200  0.83479900  1
  O  O62  1  0.66754000  0.07627700  0.84679000  1
  O  O63  1  0.20853500  0.98451100  0.91922900  1
  O  O64  1  0.80092300  0.01135500  0.07840800  1
  O  O65  1  0.79979700  0.99051900  0.25812600  1
  O  O66  1  0.32748000  0.92203100  0.15613100  1
  O  O67  1  0.46623000  0.62815000  0.16494900  1
  O  O68  1  0.67168000  0.24795400  0.34654400  1
  O  O69  1  0.51229700  0.67822600  0.83707200  1
  O  O70  1  0.62718200  0.46749500  0.66105800  1
  O  O71  1  0.78109300  0.21614600  0.56872300  1
  O  O72  1  0.77176900  0.22897100  0.93021500  1
  O  O73  1  0.78481200  0.20976500  0.75034700  1
  O  O74  1  0.74941300  0.32684400  0.15909200  1
  O  O75  1  0.50873200  0.80609000  0.33564100  1
  O  O76  1  0.46545000  0.90983100  0.65986200  1
  O  O77  1  0.68435400  0.50986100  0.33962200  1
  O  O78  1  0.66781400  0.65687200  0.98248200  1
  O  O79  1  0.66390500  0.67084500  0.48441400  1
  O  O80  1  0.80960400  0.50363100  0.83635400  1
  O  O81  1  0.62981200  0.91404000  0.16083000  1
  O  O82  1  0.68766600  0.79535600  0.82873300  1
  O  O83  1  0.92219800  0.32474300  0.65620000  1
  O  O84  1  0.98723400  0.20028200  0.41796700  1
  O  O85  1  0.90449600  0.46674200  0.16075400  1
  O  O86  1  0.80450300  0.68680700  0.33649500  1
  O  O87  1  0.90485100  0.62790800  0.66365500  1
  O  O88  1  0.75479900  0.92271600  0.65780900  1
  O  O89  1  0.77459500  0.99829100  0.43682600  1
  O  O90  1  0.92326100  0.75086000  0.15713900  1
  O  O91  1  0.00612400  0.77328300  0.93464600  1
