# generated using pymatgen
data_Li3MnFe2(BO3)3
_symmetry_space_group_name_H-M   'P 1'
_cell_length_a   3.14898000
_cell_length_b   8.26020800
_cell_length_c   14.30411954
_cell_angle_alpha   89.88756030
_cell_angle_beta   90.00000000
_cell_angle_gamma   90.00000000
_symmetry_Int_Tables_number   1
_chemical_formula_structural   Li3MnFe2(BO3)3
_chemical_formula_sum   'Li6 Mn2 Fe4 B6 O18'
_cell_volume   372.06702392
_cell_formula_units_Z   2
loop_
 _symmetry_equiv_pos_site_id
 _symmetry_equiv_pos_as_xyz
  1  'x, y, z'
loop_
 _atom_site_type_symbol
 _atom_site_label
 _atom_site_symmetry_multiplicity
 _atom_site_fract_x
 _atom_site_fract_y
 _atom_site_fract_z
 _atom_site_occupancy
  Li  Li0  1  0.50000000  0.70729200  0.99266200  1
  Li  Li1  1  0.50000000  0.66059200  0.35794400  1
  Li  Li2  1  0.50000000  0.63497500  0.64983800  1
  Li  Li3  1  0.50000000  0.20691400  0.49014800  1
  Li  Li4  1  0.50000000  0.15677000  0.85683100  1
  Li  Li5  1  0.50000000  0.13202600  0.15166400  1
  Mn  Mn6  1  0.00000000  0.36646600  0.00596600  1
  Mn  Mn7  1  0.00000000  0.30794800  0.67987900  1
  Fe  Fe8  1  0.00000000  0.86334600  0.50375500  1
  Fe  Fe9  1  0.00000000  0.82401400  0.81659400  1
  Fe  Fe10  1  0.00000000  0.81217100  0.18016200  1
  Fe  Fe11  1  0.00000000  0.32464900  0.31651100  1
  B  B12  1  0.50000000  0.99717500  0.66591900  1
  B  B13  1  0.00000000  0.99877300  0.99929200  1
  B  B14  1  0.50000000  0.00017800  0.33333400  1
  B  B15  1  0.50000000  0.50069600  0.16856600  1
  B  B16  1  0.00000000  0.50206900  0.49981200  1
  B  B17  1  0.50000000  0.50255400  0.83318500  1
  O  O18  1  0.50000000  0.98771200  0.43037800  1
  O  O19  1  0.50000000  0.98120000  0.76266000  1
  O  O20  1  0.50000000  0.86148000  0.60835100  1
  O  O21  1  0.50000000  0.86111700  0.27843800  1
  O  O22  1  0.00000000  0.84571000  0.95823100  1
  O  O23  1  0.50000000  0.65410000  0.12799900  1
  O  O24  1  0.50000000  0.65260000  0.78936300  1
  O  O25  1  0.00000000  0.64049700  0.44370200  1
  O  O26  1  0.00000000  0.51639600  0.59619400  1
  O  O27  1  0.50000000  0.49258200  0.93038500  1
  O  O28  1  0.50000000  0.48311700  0.26538900  1
  O  O29  1  0.50000000  0.36252600  0.11204900  1
  O  O30  1  0.50000000  0.36084000  0.78044000  1
  O  O31  1  0.00000000  0.34894900  0.45780900  1
  O  O32  1  0.50000000  0.15156900  0.62513500  1
  O  O33  1  0.50000000  0.15246000  0.29103700  1
  O  O34  1  0.00000000  0.13643700  0.94355100  1
  O  O35  1  0.00000000  0.01210100  0.09682700  1
