# generated using pymatgen
data_Li4Si3NiO9
_symmetry_space_group_name_H-M   'P 1'
_cell_length_a   6.25140570
_cell_length_b   6.25140570
_cell_length_c   9.98509392
_cell_angle_alpha   89.10858801
_cell_angle_beta   89.10858801
_cell_angle_gamma   108.05679457
_symmetry_Int_Tables_number   1
_chemical_formula_structural   Li4Si3NiO9
_chemical_formula_sum   'Li8 Si6 Ni2 O18'
_cell_volume   370.86969968
_cell_formula_units_Z   2
loop_
 _symmetry_equiv_pos_site_id
 _symmetry_equiv_pos_as_xyz
  1  'x, y, z'
loop_
 _atom_site_type_symbol
 _atom_site_label
 _atom_site_symmetry_multiplicity
 _atom_site_fract_x
 _atom_site_fract_y
 _atom_site_fract_z
 _atom_site_occupancy
  Li  Li0  1  0.80881500  0.62186400  0.21045600  1
  Li  Li1  1  0.46108200  0.81378400  0.78742200  1
  Li  Li2  1  0.55967500  0.44032500  0.50000000  1
  Li  Li3  1  0.99060200  0.00939800  0.50000000  1
  Li  Li4  1  0.62586000  0.37414000  0.00000000  1
  Li  Li5  1  0.00117700  0.99882300  0.00000000  1
  Li  Li6  1  0.18621600  0.53891800  0.21257800  1
  Li  Li7  1  0.37813600  0.19118500  0.78954400  1
  Si  Si8  1  0.88211500  0.66253800  0.74731300  1
  Si  Si9  1  0.48531300  0.92787100  0.49392900  1
  Si  Si10  1  0.50981300  0.87194500  0.05252200  1
  Si  Si11  1  0.12805500  0.49018700  0.94747800  1
  Si  Si12  1  0.07212900  0.51468700  0.50607100  1
  Si  Si13  1  0.33746200  0.11788500  0.25268700  1
  Ni  Ni14  1  0.83040800  0.18473300  0.24911200  1
  Ni  Ni15  1  0.81526700  0.16959200  0.75088800  1
  O  O16  1  0.79134000  0.86048400  0.79307800  1
  O  O17  1  0.95496200  0.69023500  0.58437100  1
  O  O18  1  0.74789800  0.89463500  0.12004700  1
  O  O19  1  0.71409400  0.96985200  0.40812400  1
  O  O20  1  0.94807100  0.49368900  0.06391500  1
  O  O21  1  0.96937400  0.49667200  0.35783000  1
  O  O22  1  0.32431700  0.87960700  0.17474100  1
  O  O23  1  0.68982700  0.42495100  0.77517500  1
  O  O24  1  0.35494200  0.64505800  0.50000000  1
  O  O25  1  0.39483800  0.60516200  0.00000000  1
  O  O26  1  0.57504900  0.31017300  0.22482500  1
  O  O27  1  0.12039300  0.67568300  0.82525900  1
  O  O28  1  0.50332800  0.03062600  0.64217000  1
  O  O29  1  0.50631100  0.05192900  0.93608500  1
  O  O30  1  0.03014800  0.28590600  0.59187600  1
  O  O31  1  0.10536500  0.25210200  0.87995300  1
  O  O32  1  0.30976500  0.04503800  0.41562900  1
  O  O33  1  0.13951600  0.20866000  0.20692200  1
