# generated using pymatgen
data_LiZnFe7O12
_symmetry_space_group_name_H-M   'P 1'
_cell_length_a   6.03899125
_cell_length_b   6.03899125
_cell_length_c   14.77539413
_cell_angle_alpha   89.77637177
_cell_angle_beta   89.77637177
_cell_angle_gamma   60.04957657
_symmetry_Int_Tables_number   1
_chemical_formula_structural   LiZnFe7O12
_chemical_formula_sum   'Li2 Zn2 Fe14 O24'
_cell_volume   466.88598363
_cell_formula_units_Z   2
loop_
 _symmetry_equiv_pos_site_id
 _symmetry_equiv_pos_as_xyz
  1  'x, y, z'
loop_
 _atom_site_type_symbol
 _atom_site_label
 _atom_site_symmetry_multiplicity
 _atom_site_fract_x
 _atom_site_fract_y
 _atom_site_fract_z
 _atom_site_occupancy
  Li  Li0  1  0.00046600  0.00046600  0.75105300  1
  Li  Li1  1  0.33304100  0.33304100  0.41505300  1
  Zn  Zn2  1  0.33476900  0.33476900  0.04191500  1
  Zn  Zn3  1  0.16939500  0.16939500  0.21018300  1
  Fe  Fe4  1  0.99936000  0.99936000  0.99839600  1
  Fe  Fe5  1  0.17162100  0.66105000  0.20857300  1
  Fe  Fe6  1  0.67319900  0.67319900  0.08515600  1
  Fe  Fe7  1  0.99631400  0.99631400  0.37902400  1
  Fe  Fe8  1  0.83833000  0.83833000  0.54164400  1
  Fe  Fe9  1  0.65991800  0.65991800  0.33497100  1
  Fe  Fe10  1  0.66105000  0.17162100  0.20857300  1
  Fe  Fe11  1  0.32247600  0.83902600  0.54017300  1
  Fe  Fe12  1  0.83902600  0.32247600  0.54017300  1
  Fe  Fe13  1  0.50102500  0.99610700  0.87311200  1
  Fe  Fe14  1  0.66664700  0.66664700  0.71222000  1
  Fe  Fe15  1  0.50147700  0.50147700  0.87279900  1
  Fe  Fe16  1  0.33409200  0.33409200  0.66472100  1
  Fe  Fe17  1  0.99610700  0.50102500  0.87311200  1
  O  O18  1  0.83642500  0.31069300  0.29281200  1
  O  O19  1  0.01499400  0.50294900  0.12623100  1
  O  O20  1  0.49815400  0.49815400  0.12926400  1
  O  O21  1  0.33996400  0.33996400  0.27732600  1
  O  O22  1  0.66473700  0.66473700  0.46697000  1
  O  O23  1  0.83947400  0.83947400  0.28956200  1
  O  O24  1  0.99744200  0.99744200  0.13048000  1
  O  O25  1  0.31069300  0.83642500  0.29281200  1
  O  O26  1  0.50956200  0.98243100  0.62330700  1
  O  O27  1  0.69347300  0.15036700  0.46325800  1
  O  O28  1  0.50294900  0.01499400  0.12623100  1
  O  O29  1  0.15036700  0.69347300  0.46325800  1
  O  O30  1  0.36570300  0.81613000  0.79668500  1
  O  O31  1  0.15056400  0.15056400  0.46138100  1
  O  O32  1  0.81723400  0.81723400  0.79720500  1
  O  O33  1  0.00152200  0.00152200  0.61445800  1
  O  O34  1  0.17349500  0.17349500  0.95246000  1
  O  O35  1  0.33208300  0.33208300  0.79729800  1
  O  O36  1  0.50908700  0.50908700  0.62295200  1
  O  O37  1  0.65243500  0.17508500  0.95136600  1
  O  O38  1  0.98243100  0.50956200  0.62330700  1
  O  O39  1  0.17508500  0.65243500  0.95136600  1
  O  O40  1  0.81613000  0.36570300  0.79668500  1
  O  O41  1  0.66766200  0.66766200  0.95248100  1
