# generated using pymatgen
data_Li2Mn5(FeO6)2
_symmetry_space_group_name_H-M   'P 1'
_cell_length_a   9.00640700
_cell_length_b   5.17032600
_cell_length_c   9.91459562
_cell_angle_alpha   77.08447630
_cell_angle_beta   90.00000000
_cell_angle_gamma   90.00000000
_symmetry_Int_Tables_number   1
_chemical_formula_structural   Li2Mn5(FeO6)2
_chemical_formula_sum   'Li4 Mn10 Fe4 O24'
_cell_volume   450.00337038
_cell_formula_units_Z   2
loop_
 _symmetry_equiv_pos_site_id
 _symmetry_equiv_pos_as_xyz
  1  'x, y, z'
loop_
 _atom_site_type_symbol
 _atom_site_label
 _atom_site_symmetry_multiplicity
 _atom_site_fract_x
 _atom_site_fract_y
 _atom_site_fract_z
 _atom_site_occupancy
  Li  Li0  1  0.91877300  0.50247400  0.26301800  1
  Li  Li1  1  0.57346500  0.74288500  0.48908300  1
  Li  Li2  1  0.41877300  0.49752600  0.73698200  1
  Li  Li3  1  0.07346500  0.25711500  0.51091700  1
  Mn  Mn4  1  0.93333900  0.24055300  0.00121400  1
  Mn  Mn5  1  0.91882400  0.75543700  0.49730000  1
  Mn  Mn6  1  0.73364900  0.00370300  0.25939900  1
  Mn  Mn7  1  0.58728300  0.25693000  0.99875700  1
  Mn  Mn8  1  0.74971000  0.50720000  0.74212000  1
  Mn  Mn9  1  0.41882400  0.24456300  0.50270000  1
  Mn  Mn10  1  0.43333900  0.75944700  0.99878600  1
  Mn  Mn11  1  0.23364900  0.99629700  0.74060100  1
  Mn  Mn12  1  0.24971000  0.49280000  0.25788000  1
  Mn  Mn13  1  0.08728300  0.74307000  0.00124300  1
  Fe  Fe14  1  0.73488100  0.22846900  0.51345100  1
  Fe  Fe15  1  0.75703300  0.76642300  0.98358600  1
  Fe  Fe16  1  0.25703300  0.23357700  0.01641400  1
  Fe  Fe17  1  0.23488100  0.77153100  0.48654900  1
  O  O18  1  0.88482600  0.11427400  0.38080500  1
  O  O19  1  0.93011300  0.87776800  0.10337900  1
  O  O20  1  0.74681200  0.16672600  0.88258200  1
  O  O21  1  0.76278900  0.85139400  0.61584700  1
  O  O22  1  0.93274300  0.59657800  0.89966900  1
  O  O23  1  0.89051700  0.40531400  0.61284600  1
  O  O24  1  0.57813300  0.12683900  0.40037300  1
  O  O25  1  0.76447000  0.65517300  0.37738100  1
  O  O26  1  0.59851000  0.90658000  0.11142800  1
  O  O27  1  0.75404000  0.34017500  0.11439800  1
  O  O28  1  0.59350200  0.59764600  0.87208000  1
  O  O29  1  0.43011300  0.12223200  0.89662100  1
  O  O30  1  0.57361300  0.37470300  0.60905900  1
  O  O31  1  0.38482600  0.88572600  0.61919500  1
  O  O32  1  0.26278900  0.14860600  0.38415300  1
  O  O33  1  0.39051700  0.59468600  0.38715400  1
  O  O34  1  0.24681200  0.83327400  0.11741800  1
  O  O35  1  0.43274300  0.40342200  0.10033100  1
  O  O36  1  0.09851000  0.09342000  0.88857200  1
  O  O37  1  0.25404000  0.65982500  0.88560200  1
  O  O38  1  0.26447000  0.34482700  0.62261900  1
  O  O39  1  0.07813300  0.87316100  0.59962700  1
  O  O40  1  0.07361300  0.62529700  0.39094100  1
  O  O41  1  0.09350200  0.40235400  0.12792000  1
