# generated using pymatgen
data_Li3Mn2(PO4)3
_symmetry_space_group_name_H-M   'P 1'
_cell_length_a   9.82764404
_cell_length_b   9.82764404
_cell_length_c   9.75425312
_cell_angle_alpha   86.56673467
_cell_angle_beta   86.56673467
_cell_angle_gamma   84.78111923
_symmetry_Int_Tables_number   1
_chemical_formula_structural   Li3Mn2(PO4)3
_chemical_formula_sum   'Li12 Mn8 P12 O48'
_cell_volume   935.09635415
_cell_formula_units_Z   4
loop_
 _symmetry_equiv_pos_site_id
 _symmetry_equiv_pos_as_xyz
  1  'x, y, z'
loop_
 _atom_site_type_symbol
 _atom_site_label
 _atom_site_symmetry_multiplicity
 _atom_site_fract_x
 _atom_site_fract_y
 _atom_site_fract_z
 _atom_site_occupancy
  Li  Li0  1  0.98634700  0.50587900  0.23022600  1
  Li  Li1  1  0.61955100  0.75037500  0.79757100  1
  Li  Li2  1  0.78635900  0.56216800  0.46348300  1
  Li  Li3  1  0.76510500  0.73115100  0.17887300  1
  Li  Li4  1  0.29884200  0.92643000  0.98430500  1
  Li  Li5  1  0.00919100  0.25676100  0.38072100  1
  Li  Li6  1  0.74323900  0.99080900  0.61927900  1
  Li  Li7  1  0.07357000  0.70115800  0.01569500  1
  Li  Li8  1  0.26884900  0.23489500  0.82112700  1
  Li  Li9  1  0.43783200  0.21364100  0.53651700  1
  Li  Li10  1  0.24962500  0.38044900  0.20242900  1
  Li  Li11  1  0.49412100  0.01365300  0.76977400  1
  Mn  Mn12  1  0.97250000  0.26907000  0.77891500  1
  Mn  Mn13  1  0.23452300  0.96838700  0.28317500  1
  Mn  Mn14  1  0.47282000  0.52718000  0.50000000  1
  Mn  Mn15  1  0.25667600  0.74332400  0.50000000  1
  Mn  Mn16  1  0.75526700  0.24473300  0.00000000  1
  Mn  Mn17  1  0.53100200  0.46899800  0.00000000  1
  Mn  Mn18  1  0.03161300  0.76547700  0.71682500  1
  Mn  Mn19  1  0.73093000  0.02750000  0.22108500  1
  P  P20  1  0.82126900  0.94456900  0.91341400  1
  P  P21  1  0.94709300  0.82711500  0.39844200  1
  P  P22  1  0.85034400  0.56123000  0.91435000  1
  P  P23  1  0.55404400  0.82771900  0.44133200  1
  P  P24  1  0.34465200  0.67642900  0.80757500  1
  P  P25  1  0.65810100  0.31344800  0.70394000  1
  P  P26  1  0.68655200  0.34189900  0.29606000  1
  P  P27  1  0.32357100  0.65534800  0.19242500  1
  P  P28  1  0.17228100  0.44595600  0.55866800  1
  P  P29  1  0.43877000  0.14965600  0.08565000  1
  P  P30  1  0.17288500  0.05290700  0.60155800  1
  P  P31  1  0.05543100  0.17873100  0.08658600  1
  O  O32  1  0.96569300  0.87509000  0.88196300  1
  O  O33  1  0.88018700  0.96383300  0.33665500  1
  O  O34  1  0.91616800  0.82960600  0.55700600  1
  O  O35  1  0.78790800  0.90612300  0.06906000  1
  O  O36  1  0.71357400  0.90809900  0.81830600  1
  O  O37  1  0.90003000  0.69900000  0.33910400  1
  O  O38  1  0.91595800  0.62495900  0.77893300  1
  O  O39  1  0.59644700  0.89497100  0.56561300  1
  O  O40  1  0.61997600  0.87130000  0.30089200  1
  O  O41  1  0.90768100  0.60476100  0.04682200  1
  O  O42  1  0.88363300  0.40079000  0.90695800  1
  O  O43  1  0.69380500  0.59559400  0.91431200  1
  O  O44  1  0.41478900  0.79832100  0.85192900  1
  O  O45  1  0.59475500  0.66707900  0.45300000  1
  O  O46  1  0.39245900  0.86117700  0.43283700  1
  O  O47  1  0.81265500  0.40640900  0.33947800  1
  O  O48  1  0.81489900  0.30232200  0.66988500  1
  O  O49  1  0.30744000  0.81252400  0.15956700  1
  O  O50  1  0.60523500  0.45124700  0.63739700  1
  O  O51  1  0.37832200  0.66400200  0.64813200  1
  O  O52  1  0.16727300  0.89195700  0.63412500  1
  O  O53  1  0.82715000  0.10424900  0.88407600  1
  O  O54  1  0.46458800  0.60121500  0.12709900  1
  O  O55  1  0.62307200  0.32482600  0.86735400  1
  O  O56  1  0.67517400  0.37692800  0.13264600  1
  O  O57  1  0.39878500  0.53541200  0.87290100  1
  O  O58  1  0.89575100  0.17285000  0.11592400  1
  O  O59  1  0.10804300  0.83272700  0.36587500  1
  O  O60  1  0.33599800  0.62167800  0.35186800  1
  O  O61  1  0.54875300  0.39476500  0.36260300  1
  O  O62  1  0.18747600  0.69256000  0.84043300  1
  O  O63  1  0.69767800  0.18510100  0.33011500  1
  O  O64  1  0.59359100  0.18734500  0.66052200  1
  O  O65  1  0.13882300  0.60754100  0.56716300  1
  O  O66  1  0.33292100  0.40524500  0.54700000  1
  O  O67  1  0.20167900  0.58521100  0.14807100  1
  O  O68  1  0.40440600  0.30619500  0.08568800  1
  O  O69  1  0.59921000  0.11636700  0.09304200  1
  O  O70  1  0.39523900  0.09231900  0.95317800  1
  O  O71  1  0.12870000  0.38002400  0.69910800  1
  O  O72  1  0.10502900  0.40355300  0.43438700  1
  O  O73  1  0.37504100  0.08404200  0.22106700  1
  O  O74  1  0.30100000  0.09997000  0.66089600  1
  O  O75  1  0.09190100  0.28642600  0.18169400  1
  O  O76  1  0.09387700  0.21209200  0.93094000  1
  O  O77  1  0.17039400  0.08383200  0.44299400  1
  O  O78  1  0.03616700  0.11981300  0.66334500  1
  O  O79  1  0.12491000  0.03430700  0.11803700  1
