# generated using pymatgen
data_LiCoPO4
_symmetry_space_group_name_H-M   'P 1'
_cell_length_a   9.89762192
_cell_length_b   9.89762192
_cell_length_c   23.91032300
_cell_angle_alpha   90.00000000
_cell_angle_beta   90.00000000
_cell_angle_gamma   119.99999948
_symmetry_Int_Tables_number   1
_chemical_formula_structural   LiCoPO4
_chemical_formula_sum   'Li24 Co24 P24 O96'
_cell_volume   2028.51301012
_cell_formula_units_Z   24
loop_
 _symmetry_equiv_pos_site_id
 _symmetry_equiv_pos_as_xyz
  1  'x, y, z'
loop_
 _atom_site_type_symbol
 _atom_site_label
 _atom_site_symmetry_multiplicity
 _atom_site_fract_x
 _atom_site_fract_y
 _atom_site_fract_z
 _atom_site_occupancy
  Li  Li0  1  0.02311100  0.97606700  0.69531700  1
  Li  Li1  1  0.03412700  0.58775400  0.03373900  1
  Li  Li2  1  0.05191800  0.45951500  0.19339700  1
  Li  Li3  1  0.03956900  0.47764400  0.84966300  1
  Li  Li4  1  0.40759800  0.94808200  0.86006400  1
  Li  Li5  1  0.43807500  0.96043100  0.51632900  1
  Li  Li6  1  0.02393300  0.04704400  0.02865100  1
  Li  Li7  1  0.04704400  0.02311100  0.86198400  1
  Li  Li8  1  0.55362700  0.96587300  0.70040500  1
  Li  Li9  1  0.41224600  0.44637300  0.36707200  1
  Li  Li10  1  0.52235600  0.56192500  0.18299600  1
  Li  Li11  1  0.54048500  0.59240200  0.52673100  1
  Li  Li12  1  0.45951500  0.40759800  0.02673100  1
  Li  Li13  1  0.47764400  0.43807500  0.68299600  1
  Li  Li14  1  0.58775400  0.55362700  0.86707200  1
  Li  Li15  1  0.44637300  0.03412700  0.20040500  1
  Li  Li16  1  0.95295600  0.97688900  0.36198400  1
  Li  Li17  1  0.97606700  0.95295600  0.52865100  1
  Li  Li18  1  0.56192500  0.03956900  0.01632900  1
  Li  Li19  1  0.59240200  0.05191800  0.36006400  1
  Li  Li20  1  0.96043100  0.52235600  0.34966300  1
  Li  Li21  1  0.94808200  0.54048500  0.69339700  1
  Li  Li22  1  0.96587300  0.41224600  0.53373900  1
  Li  Li23  1  0.97688900  0.02393300  0.19531700  1
  Co  Co24  1  0.10124100  0.81996700  0.26989200  1
  Co  Co25  1  0.08565900  0.76486300  0.91982400  1
  Co  Co26  1  0.12470400  0.75463100  0.59346700  1
  Co  Co27  1  0.31059000  0.66767700  0.75665300  1
  Co  Co28  1  0.33232300  0.64291200  0.08998600  1
  Co  Co29  1  0.35708800  0.68941000  0.42331900  1
  Co  Co30  1  0.18003300  0.28127400  0.60322600  1
  Co  Co31  1  0.24536900  0.37007300  0.92680100  1
  Co  Co32  1  0.23513700  0.32079500  0.25315700  1
  Co  Co33  1  0.62992700  0.87529600  0.26013400  1
  Co  Co34  1  0.67920500  0.91434100  0.58649100  1
  Co  Co35  1  0.28127400  0.10124100  0.43655900  1
  Co  Co36  1  0.71872600  0.89875900  0.93655900  1
  Co  Co37  1  0.32079500  0.08565900  0.08649100  1
  Co  Co38  1  0.37007300  0.12470400  0.76013400  1
  Co  Co39  1  0.76486300  0.67920500  0.75315700  1
  Co  Co40  1  0.75463100  0.62992700  0.42680100  1
  Co  Co41  1  0.81996700  0.71872600  0.10322600  1
  Co  Co42  1  0.64291200  0.31059000  0.92331900  1
  Co  Co43  1  0.66767700  0.35708800  0.58998600  1
  Co  Co44  1  0.68941000  0.33232300  0.25665300  1
  Co  Co45  1  0.87529600  0.24536900  0.09346700  1
  Co  Co46  1  0.91434100  0.23513700  0.41982400  1
  Co  Co47  1  0.89875900  0.18003300  0.76989200  1
  P  P48  1  0.09271500  0.78996000  0.79054300  1
  P  P49  1  0.08212000  0.75545400  0.46653300  1
  P  P50  1  0.13215100  0.77182300  0.13976300  1
  P  P51  1  0.28577700  0.64731500  0.29579700  1
  P  P52  1  0.36153800  0.71422300  0.96246300  1
  P  P53  1  0.35268500  0.63846200  0.62913000  1
  P  P54  1  0.22817700  0.36032700  0.47309700  1
  P  P55  1  0.21004000  0.30275500  0.12387600  1
  P  P56  1  0.24454600  0.32666600  0.79986600  1
  P  P57  1  0.63967300  0.86784900  0.80643000  1
  P  P58  1  0.67333400  0.91788000  0.13320000  1
  P  P59  1  0.69724500  0.90728500  0.45721000  1
  P  P60  1  0.30275500  0.09271500  0.95721000  1
  P  P61  1  0.32666600  0.08212000  0.63320000  1
  P  P62  1  0.36032700  0.13215100  0.30643000  1
  P  P63  1  0.75545400  0.67333400  0.29986600  1
  P  P64  1  0.78996000  0.69724500  0.62387600  1
  P  P65  1  0.77182300  0.63967300  0.97309700  1
  P  P66  1  0.64731500  0.36153800  0.12913000  1
  P  P67  1  0.63846200  0.28577700  0.46246300  1
  P  P68  1  0.71422300  0.35268500  0.79579700  1
  P  P69  1  0.86784900  0.22817700  0.63976300  1
  P  P70  1  0.91788000  0.24454600  0.96653300  1
  P  P71  1  0.90728500  0.21004000  0.29054300  1
  O  O72  1  0.03745300  0.76599200  0.08685900  1
  O  O73  1  0.09212000  0.91801600  0.47132300  1
  O  O74  1  0.01565400  0.68805300  0.84300200  1
  O  O75  1  0.13956400  0.98449500  0.93000500  1
  O  O76  1  0.03461600  0.76259900  0.19135600  1
  O  O77  1  0.01545000  0.66460000  0.52187500  1
  O  O78  1  0.24187600  0.94182800  0.80956500  1
  O  O79  1  0.13785200  0.66127900  0.30511000  1
  O  O80  1  0.12264400  0.69052600  0.74775200  1
  O  O81  1  0.30977600  0.96983500  0.58452000  1
  O  O82  1  0.29555700  0.92404600  0.13917800  1
  O  O83  1  0.16171100  0.63146000  0.13803900  1
  O  O84  1  0.25179200  0.78976200  0.45718800  1
  O  O85  1  0.18700200  0.60492000  0.61358700  1
  O  O86  1  0.07595400  0.37151100  0.47251100  1
  O  O87  1  0.27264600  0.74234600  0.91420200  1
  O  O88  1  0.03016500  0.33994100  0.91785300  1
  O  O89  1  0.05817200  0.30004800  0.14289800  1
  O  O90  1  0.01550500  0.15507000  0.26333800  1
  O  O91  1  0.08198400  0.17410400  0.80465600  1
  O  O92  1  0.26306100  0.67703000  0.01680100  1
  O  O93  1  0.25765400  0.53030000  0.24753500  1
  O  O94  1  0.32297000  0.58603100  0.35013500  1
  O  O95  1  0.21023800  0.46203000  0.79052100  1
  O  O96  1  0.41396900  0.73693900  0.68346800  1
  O  O97  1  0.41791900  0.81299800  0.28025400  1
  O  O98  1  0.46974900  0.83828900  0.80470500  1
  O  O99  1  0.30947400  0.43211800  0.08108500  1
  O  O100  1  0.33872100  0.47657300  0.63844300  1
  O  O101  1  0.36854000  0.53025100  0.47137200  1
  O  O102  1  0.23740100  0.27201700  0.52468900  1
  O  O103  1  0.39508000  0.58208100  0.94692100  1
  O  O104  1  0.46970000  0.72735400  0.58086900  1
  O  O105  1  0.52342700  0.86214800  0.97177600  1
  O  O106  1  0.56788200  0.87735600  0.41441800  1
  O  O107  1  0.15507000  0.13956400  0.09667200  1
  O  O108  1  0.23400800  0.27146200  0.42019300  1
  O  O109  1  0.31194700  0.32760100  0.17633500  1
  O  O110  1  0.17410400  0.09212000  0.63798900  1
  O  O111  1  0.33540000  0.35084900  0.85520800  1
  O  O112  1  0.53797000  0.74820800  0.12385400  1
  O  O113  1  0.30004800  0.24187600  0.97623100  1
  O  O114  1  0.64915100  0.98455000  0.18854100  1
  O  O115  1  0.33994100  0.30977600  0.75118600  1
  O  O116  1  0.37151100  0.29555700  0.30584500  1
  O  O117  1  0.67239900  0.98434600  0.50966800  1
  O  O118  1  0.72798300  0.96538400  0.85802200  1
  O  O119  1  0.27146200  0.03745300  0.25352600  1
  O  O120  1  0.72853800  0.96254700  0.75352600  1
  O  O121  1  0.27201700  0.03461600  0.35802200  1
  O  O122  1  0.32760100  0.01565400  0.00966800  1
  O  O123  1  0.62848900  0.70444300  0.80584500  1
  O  O124  1  0.66005900  0.69022400  0.25118600  1
  O  O125  1  0.35084900  0.01545000  0.68854100  1
  O  O126  1  0.69995200  0.75812400  0.47623100  1
  O  O127  1  0.46203000  0.25179200  0.62385400  1
  O  O128  1  0.66460000  0.64915100  0.35520800  1
  O  O129  1  0.82589600  0.90788000  0.13798900  1
  O  O130  1  0.68805300  0.67239900  0.67633500  1
  O  O131  1  0.76599200  0.72853800  0.92019300  1
  O  O132  1  0.84493000  0.86043600  0.59667200  1
  O  O133  1  0.43211800  0.12264400  0.91441800  1
  O  O134  1  0.47657300  0.13785200  0.47177600  1
  O  O135  1  0.53030000  0.27264600  0.08086900  1
  O  O136  1  0.60492000  0.41791900  0.44692100  1
  O  O137  1  0.76259900  0.72798300  0.02468900  1
  O  O138  1  0.63146000  0.46974900  0.97137200  1
  O  O139  1  0.66127900  0.52342700  0.13844300  1
  O  O140  1  0.69052600  0.56788200  0.58108500  1
  O  O141  1  0.53025100  0.16171100  0.30470500  1
  O  O142  1  0.58208100  0.18700200  0.78025400  1
  O  O143  1  0.58603100  0.26306100  0.18346800  1
  O  O144  1  0.78976200  0.53797000  0.29052100  1
  O  O145  1  0.67703000  0.41396900  0.85013500  1
  O  O146  1  0.74234600  0.46970000  0.74753500  1
  O  O147  1  0.73693900  0.32297000  0.51680100  1
  O  O148  1  0.91801600  0.82589600  0.30465600  1
  O  O149  1  0.98449500  0.84493000  0.76333800  1
  O  O150  1  0.94182800  0.69995200  0.64289800  1
  O  O151  1  0.96983500  0.66005900  0.41785300  1
  O  O152  1  0.72735400  0.25765400  0.41420200  1
  O  O153  1  0.92404600  0.62848900  0.97251100  1
  O  O154  1  0.81299800  0.39508000  0.11358700  1
  O  O155  1  0.74820800  0.21023800  0.95718800  1
  O  O156  1  0.83828900  0.36854000  0.63803900  1
  O  O157  1  0.70444300  0.07595400  0.63917800  1
  O  O158  1  0.69022400  0.03016500  0.08452000  1
  O  O159  1  0.87735600  0.30947400  0.24775200  1
  O  O160  1  0.86214800  0.33872100  0.80511000  1
  O  O161  1  0.75812400  0.05817200  0.30956500  1
  O  O162  1  0.98455000  0.33540000  0.02187500  1
  O  O163  1  0.96538400  0.23740100  0.69135600  1
  O  O164  1  0.86043600  0.01550500  0.43000500  1
  O  O165  1  0.98434600  0.31194700  0.34300200  1
  O  O166  1  0.90788000  0.08198400  0.97132300  1
  O  O167  1  0.96254700  0.23400800  0.58685900  1
