# generated using pymatgen
data_Li4Fe7O12
_symmetry_space_group_name_H-M   'P 1'
_cell_length_a   9.01641300
_cell_length_b   5.18540800
_cell_length_c   9.83936393
_cell_angle_alpha   79.23901606
_cell_angle_beta   90.00000000
_cell_angle_gamma   90.00000000
_symmetry_Int_Tables_number   1
_chemical_formula_structural   Li4Fe7O12
_chemical_formula_sum   'Li8 Fe14 O24'
_cell_volume   451.93770098
_cell_formula_units_Z   2
loop_
 _symmetry_equiv_pos_site_id
 _symmetry_equiv_pos_as_xyz
  1  'x, y, z'
loop_
 _atom_site_type_symbol
 _atom_site_label
 _atom_site_symmetry_multiplicity
 _atom_site_fract_x
 _atom_site_fract_y
 _atom_site_fract_z
 _atom_site_occupancy
  Li  Li0  1  0.91625800  0.00428200  0.74442800  1
  Li  Li1  1  0.92018200  0.49180200  0.25828300  1
  Li  Li2  1  0.58236900  0.75731500  0.50315800  1
  Li  Li3  1  0.58337500  0.49672400  0.25556600  1
  Li  Li4  1  0.41625800  0.99571800  0.25557200  1
  Li  Li5  1  0.42018200  0.50819800  0.74171700  1
  Li  Li6  1  0.08236900  0.24268500  0.49684200  1
  Li  Li7  1  0.08337500  0.50327600  0.74443400  1
  Fe  Fe8  1  0.92052700  0.25280800  0.00406700  1
  Fe  Fe9  1  0.74773300  0.23854200  0.50732500  1
  Fe  Fe10  1  0.92365600  0.74893000  0.49564800  1
  Fe  Fe11  1  0.75145900  0.98908900  0.25714600  1
  Fe  Fe12  1  0.74700700  0.75500200  0.99239200  1
  Fe  Fe13  1  0.57829900  0.24215500  0.99674600  1
  Fe  Fe14  1  0.74179400  0.51331400  0.74150200  1
  Fe  Fe15  1  0.42365600  0.25107000  0.50435200  1
  Fe  Fe16  1  0.24700700  0.24499800  0.00760800  1
  Fe  Fe17  1  0.42052700  0.74719200  0.99593300  1
  Fe  Fe18  1  0.25145900  0.01091100  0.74285400  1
  Fe  Fe19  1  0.24773300  0.76145800  0.49267500  1
  Fe  Fe20  1  0.24179400  0.48668600  0.25849800  1
  Fe  Fe21  1  0.07829900  0.75784500  0.00325400  1
  O  O22  1  0.89770000  0.11454200  0.38165800  1
  O  O23  1  0.91063200  0.88840000  0.11550500  1
  O  O24  1  0.76673100  0.86485400  0.62106300  1
  O  O25  1  0.75629300  0.15595300  0.88177100  1
  O  O26  1  0.90173400  0.38790000  0.62323000  1
  O  O27  1  0.91976700  0.61221600  0.87950300  1
  O  O28  1  0.59095500  0.12860300  0.38205000  1
  O  O29  1  0.76021100  0.63353800  0.37276300  1
  O  O30  1  0.58137900  0.88319900  0.12198100  1
  O  O31  1  0.74878800  0.35066200  0.12197200  1
  O  O32  1  0.58051600  0.60109800  0.87925600  1
  O  O33  1  0.59058700  0.38914900  0.61493900  1
  O  O34  1  0.39770000  0.88545800  0.61834200  1
  O  O35  1  0.41063200  0.11160000  0.88449500  1
  O  O36  1  0.26673100  0.13514600  0.37893700  1
  O  O37  1  0.40173400  0.61210000  0.37677000  1
  O  O38  1  0.25629300  0.84404700  0.11822900  1
  O  O39  1  0.41976700  0.38778400  0.12049700  1
  O  O40  1  0.26021100  0.36646200  0.62723700  1
  O  O41  1  0.24878800  0.64933800  0.87802800  1
  O  O42  1  0.08137900  0.11680100  0.87801900  1
  O  O43  1  0.09095500  0.87139700  0.61795000  1
  O  O44  1  0.09058700  0.61085100  0.38506100  1
  O  O45  1  0.08051600  0.39890200  0.12074400  1
