# generated using pymatgen
data_LiNb(PO3)4
_symmetry_space_group_name_H-M   'P 1'
_cell_length_a   8.72429700
_cell_length_b   7.58812600
_cell_length_c   15.96034693
_cell_angle_alpha   67.85034570
_cell_angle_beta   90.00000000
_cell_angle_gamma   90.00000000
_symmetry_Int_Tables_number   1
_chemical_formula_structural   LiNb(PO3)4
_chemical_formula_sum   'Li4 Nb4 P16 O48'
_cell_volume   978.61783766
_cell_formula_units_Z   4
loop_
 _symmetry_equiv_pos_site_id
 _symmetry_equiv_pos_as_xyz
  1  'x, y, z'
loop_
 _atom_site_type_symbol
 _atom_site_label
 _atom_site_symmetry_multiplicity
 _atom_site_fract_x
 _atom_site_fract_y
 _atom_site_fract_z
 _atom_site_occupancy
  Li  Li0  1  0.58379800  0.86731700  0.07328900  1
  Li  Li1  1  0.08379800  0.13268300  0.42671100  1
  Li  Li2  1  0.91620200  0.86731700  0.57328900  1
  Li  Li3  1  0.41620200  0.13268300  0.92671100  1
  Nb  Nb4  1  0.65840200  0.31132400  0.64607900  1
  Nb  Nb5  1  0.84159800  0.31132400  0.14607900  1
  Nb  Nb6  1  0.15840200  0.68867600  0.85392100  1
  Nb  Nb7  1  0.34159800  0.68867600  0.35392100  1
  P  P8  1  0.27236600  0.36529200  0.57033900  1
  P  P9  1  0.05071300  0.64767600  0.21632800  1
  P  P10  1  0.23551500  0.76644500  0.04812000  1
  P  P11  1  0.03056300  0.10672400  0.68961300  1
  P  P12  1  0.73551500  0.23355500  0.45188000  1
  P  P13  1  0.55071300  0.35232400  0.28367200  1
  P  P14  1  0.53056300  0.89327600  0.81038700  1
  P  P15  1  0.22763400  0.36529200  0.07033900  1
  P  P16  1  0.77236600  0.63470800  0.92966100  1
  P  P17  1  0.46943700  0.10672400  0.18961300  1
  P  P18  1  0.44928700  0.64767600  0.71632800  1
  P  P19  1  0.26448500  0.76644500  0.54812000  1
  P  P20  1  0.96943700  0.89327600  0.31038700  1
  P  P21  1  0.76448500  0.23355500  0.95188000  1
  P  P22  1  0.94928700  0.35232400  0.78367200  1
  P  P23  1  0.72763400  0.63470800  0.42966100  1
  O  O24  1  0.37682800  0.88696600  0.03654600  1
  O  O25  1  0.13216100  0.79381600  0.12596600  1
  O  O26  1  0.06208500  0.20598000  0.76170400  1
  O  O27  1  0.28219100  0.42180300  0.46945100  1
  O  O28  1  0.16249900  0.56789100  0.29371000  1
  O  O29  1  0.78489400  0.45416100  0.40593500  1
  O  O30  1  0.40535500  0.26921500  0.62870900  1
  O  O31  1  0.45696700  0.49316300  0.30463600  1
  O  O32  1  0.11973400  0.23968200  0.59938600  1
  O  O33  1  0.60606000  0.08383300  0.77632600  1
  O  O34  1  0.95696700  0.50683700  0.19536400  1
  O  O35  1  0.86450000  0.11512100  0.66275300  1
  O  O36  1  0.64035700  0.19876600  0.53495200  1
  O  O37  1  0.28489400  0.54583900  0.09406500  1
  O  O38  1  0.66249900  0.43210900  0.20629000  1
  O  O39  1  0.78219100  0.57819700  0.03054900  1
  O  O40  1  0.14035700  0.80123400  0.96504800  1
  O  O41  1  0.36450000  0.88487900  0.83724700  1
  O  O42  1  0.63216100  0.20618400  0.37403400  1
  O  O43  1  0.10606000  0.91616700  0.72367400  1
  O  O44  1  0.87682800  0.11303400  0.46345400  1
  O  O45  1  0.61973400  0.76031800  0.90061400  1
  O  O46  1  0.43791500  0.20598000  0.26170400  1
  O  O47  1  0.90535500  0.73078500  0.87129100  1
  O  O48  1  0.09464500  0.26921500  0.12870900  1
  O  O49  1  0.56208500  0.79402000  0.73829600  1
  O  O50  1  0.38026600  0.23968200  0.09938600  1
  O  O51  1  0.12317200  0.88696600  0.53654600  1
  O  O52  1  0.89394000  0.08383300  0.27632600  1
  O  O53  1  0.36783900  0.79381600  0.62596600  1
  O  O54  1  0.63550000  0.11512100  0.16275300  1
  O  O55  1  0.85964300  0.19876600  0.03495200  1
  O  O56  1  0.21780900  0.42180300  0.96945100  1
  O  O57  1  0.33750100  0.56789100  0.79371000  1
  O  O58  1  0.71510600  0.45416100  0.90593500  1
  O  O59  1  0.35964300  0.80123400  0.46504800  1
  O  O60  1  0.13550000  0.88487900  0.33724700  1
  O  O61  1  0.04303300  0.49316300  0.80463600  1
  O  O62  1  0.39394000  0.91616700  0.22367400  1
  O  O63  1  0.88026600  0.76031800  0.40061400  1
  O  O64  1  0.54303300  0.50683700  0.69536400  1
  O  O65  1  0.59464500  0.73078500  0.37129100  1
  O  O66  1  0.21510600  0.54583900  0.59406500  1
  O  O67  1  0.83750100  0.43210900  0.70629000  1
  O  O68  1  0.71780900  0.57819700  0.53054900  1
  O  O69  1  0.93791500  0.79402000  0.23829600  1
  O  O70  1  0.86783900  0.20618400  0.87403400  1
  O  O71  1  0.62317200  0.11303400  0.96345400  1
