# generated using pymatgen
data_Li4B4Sb2SO16
_symmetry_space_group_name_H-M   'P 1'
_cell_length_a   9.83845420
_cell_length_b   9.74520954
_cell_length_c   9.46974812
_cell_angle_alpha   61.57727004
_cell_angle_beta   60.58959802
_cell_angle_gamma   57.83313193
_symmetry_Int_Tables_number   1
_chemical_formula_structural   Li4B4Sb2SO16
_chemical_formula_sum   'Li8 B8 Sb4 S2 O32'
_cell_volume   640.55951730
_cell_formula_units_Z   2
loop_
 _symmetry_equiv_pos_site_id
 _symmetry_equiv_pos_as_xyz
  1  'x, y, z'
loop_
 _atom_site_type_symbol
 _atom_site_label
 _atom_site_symmetry_multiplicity
 _atom_site_fract_x
 _atom_site_fract_y
 _atom_site_fract_z
 _atom_site_occupancy
  Li  Li0  1  0.94981600  0.55018400  0.94981600  1
  Li  Li1  1  0.95163800  0.54836200  0.54836200  1
  Li  Li2  1  0.70163800  0.29836200  0.29836200  1
  Li  Li3  1  0.69981600  0.30018400  0.69981600  1
  Li  Li4  1  0.55018400  0.94981600  0.55018400  1
  Li  Li5  1  0.54836200  0.95163800  0.95163800  1
  Li  Li6  1  0.29836200  0.70163800  0.70163800  1
  Li  Li7  1  0.30018400  0.69981600  0.30018400  1
  B  B8  1  0.89657500  0.27258400  0.91889600  1
  B  B9  1  0.97741600  0.35342500  0.33805600  1
  B  B10  1  0.91889600  0.91194400  0.89657500  1
  B  B11  1  0.91194400  0.91889600  0.27258400  1
  B  B12  1  0.33805600  0.33110400  0.97741600  1
  B  B13  1  0.33110400  0.33805600  0.35342500  1
  B  B14  1  0.27258400  0.89657500  0.91194400  1
  B  B15  1  0.35342500  0.97741600  0.33110400  1
  Sb  Sb16  1  0.12500000  0.62500000  0.12500000  1
  Sb  Sb17  1  0.62500000  0.12500000  0.12500000  1
  Sb  Sb18  1  0.12500000  0.12500000  0.12500000  1
  Sb  Sb19  1  0.12500000  0.12500000  0.62500000  1
  S  S20  1  0.50000000  0.50000000  0.50000000  1
  S  S21  1  0.75000000  0.75000000  0.75000000  1
  O  O22  1  0.02634400  0.27548700  0.93626500  1
  O  O23  1  0.55753200  0.55533800  0.30995900  1
  O  O24  1  0.75143300  0.26673400  0.05281800  1
  O  O25  1  0.98326600  0.49856700  0.32098500  1
  O  O26  1  0.05281800  0.92901500  0.75143300  1
  O  O27  1  0.97299800  0.33396600  0.20452000  1
  O  O28  1  0.30995900  0.57717100  0.55753200  1
  O  O29  1  0.55533800  0.55753200  0.57717100  1
  O  O30  1  0.48851600  0.20452000  0.33396600  1
  O  O31  1  0.92901500  0.05281800  0.26673400  1
  O  O32  1  0.97451300  0.22365600  0.48809600  1
  O  O33  1  0.57717100  0.30995900  0.55533800  1
  O  O34  1  0.93626500  0.76190400  0.02634400  1
  O  O35  1  0.76190400  0.93626500  0.27548700  1
  O  O36  1  0.91603400  0.27700200  0.76148400  1
  O  O37  1  0.20452000  0.48851600  0.97299800  1
  O  O38  1  0.04548000  0.76148400  0.27700200  1
  O  O39  1  0.33396600  0.97299800  0.48851600  1
  O  O40  1  0.48809600  0.31373500  0.97451300  1
  O  O41  1  0.31373500  0.48809600  0.22365600  1
  O  O42  1  0.67282900  0.94004100  0.69466200  1
  O  O43  1  0.27548700  0.02634400  0.76190400  1
  O  O44  1  0.32098500  0.19718200  0.98326600  1
  O  O45  1  0.76148400  0.04548000  0.91603400  1
  O  O46  1  0.69466200  0.69246800  0.67282900  1
  O  O47  1  0.94004100  0.67282900  0.69246800  1
  O  O48  1  0.27700200  0.91603400  0.04548000  1
  O  O49  1  0.19718200  0.32098500  0.49856700  1
  O  O50  1  0.26673400  0.75143300  0.92901500  1
  O  O51  1  0.49856700  0.98326600  0.19718200  1
  O  O52  1  0.69246800  0.69466200  0.94004100  1
  O  O53  1  0.22365600  0.97451300  0.31373500  1
