# generated using pymatgen
data_LiMnF3
_symmetry_space_group_name_H-M   'P 1'
_cell_length_a   10.18673600
_cell_length_b   7.13317700
_cell_length_c   7.88107071
_cell_angle_alpha   65.52644829
_cell_angle_beta   90.00000000
_cell_angle_gamma   90.00000000
_symmetry_Int_Tables_number   1
_chemical_formula_structural   LiMnF3
_chemical_formula_sum   'Li8 Mn8 F24'
_cell_volume   521.21570115
_cell_formula_units_Z   8
loop_
 _symmetry_equiv_pos_site_id
 _symmetry_equiv_pos_as_xyz
  1  'x, y, z'
loop_
 _atom_site_type_symbol
 _atom_site_label
 _atom_site_symmetry_multiplicity
 _atom_site_fract_x
 _atom_site_fract_y
 _atom_site_fract_z
 _atom_site_occupancy
  Li  Li0  1  0.98223200  0.24788500  0.15863200  1
  Li  Li1  1  0.51776800  0.74788500  0.15863200  1
  Li  Li2  1  0.25762200  0.21118000  0.51089500  1
  Li  Li3  1  0.75762200  0.28882000  0.48910500  1
  Li  Li4  1  0.24237800  0.71118000  0.51089500  1
  Li  Li5  1  0.74237800  0.78882000  0.48910500  1
  Li  Li6  1  0.48223200  0.25211500  0.84136800  1
  Li  Li7  1  0.01776800  0.75211500  0.84136800  1
  Mn  Mn8  1  0.76418100  0.03123100  0.01016700  1
  Mn  Mn9  1  0.73581900  0.53123100  0.01016700  1
  Mn  Mn10  1  0.50871100  0.15160700  0.27527000  1
  Mn  Mn11  1  0.99128900  0.65160700  0.27527000  1
  Mn  Mn12  1  0.00871100  0.34839300  0.72473000  1
  Mn  Mn13  1  0.49128900  0.84839300  0.72473000  1
  Mn  Mn14  1  0.26418100  0.46876900  0.98983300  1
  Mn  Mn15  1  0.23581900  0.96876900  0.98983300  1
  F  F16  1  0.39782200  0.08808300  0.07591300  1
  F  F17  1  0.13284400  0.23284700  0.99481200  1
  F  F18  1  0.90187500  0.98249800  0.22002100  1
  F  F19  1  0.10217800  0.58808300  0.07591300  1
  F  F20  1  0.36715600  0.73284700  0.99481200  1
  F  F21  1  0.59812500  0.48249800  0.22002100  1
  F  F22  1  0.33390900  0.32102600  0.26761000  1
  F  F23  1  0.87336900  0.37507600  0.28221100  1
  F  F24  1  0.62495800  0.08892600  0.51037800  1
  F  F25  1  0.16609100  0.82102600  0.26761000  1
  F  F26  1  0.62663100  0.87507600  0.28221100  1
  F  F27  1  0.12495800  0.41107400  0.48962200  1
  F  F28  1  0.87504200  0.58892600  0.51037800  1
  F  F29  1  0.37336900  0.12492400  0.71778900  1
  F  F30  1  0.83390900  0.17897400  0.73239000  1
  F  F31  1  0.37504200  0.91107400  0.48962200  1
  F  F32  1  0.12663100  0.62492400  0.71778900  1
  F  F33  1  0.66609100  0.67897400  0.73239000  1
  F  F34  1  0.40187500  0.51750200  0.77997900  1
  F  F35  1  0.63284400  0.26715300  0.00518800  1
  F  F36  1  0.89782200  0.41191700  0.92408700  1
  F  F37  1  0.09812500  0.01750200  0.77997900  1
  F  F38  1  0.86715600  0.76715300  0.00518800  1
  F  F39  1  0.60217800  0.91191700  0.92408700  1
