# generated using pymatgen
data_Li5V3P8O29
_symmetry_space_group_name_H-M   'P 1'
_cell_length_a   9.77051900
_cell_length_b   9.80169520
_cell_length_c   13.96687510
_cell_angle_alpha   90.24211457
_cell_angle_beta   89.89151972
_cell_angle_gamma   119.80468662
_symmetry_Int_Tables_number   1
_chemical_formula_structural   Li5V3P8O29
_chemical_formula_sum   'Li10 V6 P16 O58'
_cell_volume   1160.63642451
_cell_formula_units_Z   2
loop_
 _symmetry_equiv_pos_site_id
 _symmetry_equiv_pos_as_xyz
  1  'x, y, z'
loop_
 _atom_site_type_symbol
 _atom_site_label
 _atom_site_symmetry_multiplicity
 _atom_site_fract_x
 _atom_site_fract_y
 _atom_site_fract_z
 _atom_site_occupancy
  Li  Li0  1  0.76357000  0.09677300  0.43948800  1
  Li  Li1  1  0.89899000  0.66289800  0.43776300  1
  Li  Li2  1  0.76920100  0.67841200  0.94061400  1
  Li  Li3  1  0.32046400  0.09325400  0.94046700  1
  Li  Li4  1  0.33640200  0.23085200  0.43795700  1
  Li  Li5  1  0.68522700  0.91252300  0.06088300  1
  Li  Li6  1  0.22582300  0.32238400  0.06061000  1
  Li  Li7  1  0.09988300  0.33585400  0.55849200  1
  Li  Li8  1  0.09581000  0.77278900  0.06198000  1
  Li  Li9  1  0.98587500  0.96674200  0.49882900  1
  V  V10  1  0.56372800  0.57080000  0.74362000  1
  V  V11  1  0.43407700  0.43362300  0.25116400  1
  V  V12  1  0.56745300  0.00073500  0.25122700  1
  V  V13  1  0.43281300  0.99883200  0.74719100  1
  V  V14  1  0.99700600  0.43047700  0.75505500  1
  V  V15  1  0.99994600  0.56685300  0.24919500  1
  P  P16  1  0.91467100  0.22990300  0.15911700  1
  P  P17  1  0.77642100  0.08848100  0.65770400  1
  P  P18  1  0.91291400  0.68404600  0.65751100  1
  P  P19  1  0.66267000  0.33810900  0.87054700  1
  P  P20  1  0.66738200  0.33375700  0.37386800  1
  P  P21  1  0.76663400  0.68005800  0.15663200  1
  P  P22  1  0.69027500  0.77498900  0.34196900  1
  P  P23  1  0.31948600  0.08721500  0.15703500  1
  P  P24  1  0.68302100  0.91274300  0.84148900  1
  P  P25  1  0.31467000  0.22661400  0.65868700  1
  P  P26  1  0.23159700  0.31993900  0.84183700  1
  P  P27  1  0.32488400  0.66169200  0.62817300  1
  P  P28  1  0.33460900  0.66749800  0.12845400  1
  P  P29  1  0.08688500  0.31603400  0.34380300  1
  P  P30  1  0.22396800  0.91499100  0.34161800  1
  P  P31  1  0.08778300  0.77040000  0.84141700  1
  O  O32  1  0.00495100  0.22984900  0.43436900  1
  O  O33  1  0.92282700  0.25888100  0.66610100  1
  O  O34  1  0.75666100  0.98927100  0.93350500  1
  O  O35  1  0.74663400  0.08453700  0.15911900  1
  O  O36  1  0.90561500  0.38193300  0.17811300  1
  O  O37  1  0.81363700  0.33936400  0.82249300  1
  O  O38  1  0.91523800  0.52985700  0.67204200  1
  O  O39  1  0.99589100  0.75292600  0.93115800  1
  O  O40  1  0.91639700  0.66459200  0.15730100  1
  O  O41  1  0.68066400  0.19030500  0.33328200  1
  O  O42  1  0.62406100  0.09392800  0.67110100  1
  O  O43  1  0.80999700  0.48908400  0.33299500  1
  O  O44  1  0.67595100  0.34747300  0.97652200  1
  O  O45  1  0.66663000  0.33385800  0.48108500  1
  O  O46  1  0.66647800  0.48837400  0.82816200  1
  O  O47  1  0.47986000  0.09825800  0.17737500  1
  O  O48  1  0.51349900  0.18776100  0.83272900  1
  O  O49  1  0.74140100  0.65398400  0.66681300  1
  O  O50  1  0.78784400  0.79613200  0.24337000  1
  O  O51  1  0.79639400  0.78945900  0.42322700  1
  O  O52  1  0.75108700  0.75217800  0.06560300  1
  O  O53  1  0.61902900  0.51950500  0.17760700  1
  O  O54  1  0.51045600  0.31989200  0.33277600  1
  O  O55  1  0.65885100  0.74267200  0.83556200  1
  O  O56  1  0.47217400  0.38200800  0.67299400  1
  O  O57  1  0.34290700  0.08617500  0.66362400  1
  O  O58  1  0.79457500  0.99954100  0.75025300  1
  O  O59  1  0.79254700  0.01686000  0.56676700  1
  O  O60  1  0.20746600  0.00433100  0.42389100  1
  O  O61  1  0.66203900  0.91791600  0.34079600  1
  O  O62  1  0.53488300  0.61994000  0.33240300  1
  O  O63  1  0.33654600  0.25259900  0.15817600  1
  O  O64  1  0.47819600  0.66466200  0.67444700  1
  O  O65  1  0.38295000  0.47696300  0.82251400  1
  O  O66  1  0.24302100  0.24313800  0.93175300  1
  O  O67  1  0.22991200  0.22820700  0.56935100  1
  O  O68  1  0.20644900  0.20660900  0.75112900  1
  O  O69  1  0.25543100  0.33686900  0.33967800  1
  O  O70  1  0.48820200  0.81370600  0.16977200  1
  O  O71  1  0.52461100  0.90779900  0.82113700  1
  O  O72  1  0.32673000  0.51378500  0.17003100  1
  O  O73  1  0.33522500  0.66670300  0.02157200  1
  O  O74  1  0.32816600  0.64529400  0.52274200  1
  O  O75  1  0.18043600  0.50723900  0.67077900  1
  O  O76  1  0.38017300  0.91545300  0.33204000  1
  O  O77  1  0.32347000  0.80575200  0.67106900  1
  O  O78  1  0.08735500  0.34443900  0.83829100  1
  O  O79  1  0.99348900  0.20388300  0.25499700  1
  O  O80  1  0.00900000  0.23976600  0.07408900  1
  O  O81  1  0.09256500  0.47291900  0.33004100  1
  O  O82  1  0.18710400  0.67596900  0.16787700  1
  O  O83  1  0.09848900  0.62004100  0.82203700  1
  O  O84  1  0.25266800  0.91770200  0.84219500  1
  O  O85  1  0.24633500  0.00025100  0.06525500  1
  O  O86  1  0.20311800  0.99214200  0.24330400  1
  O  O87  1  0.08200500  0.74387300  0.33880400  1
  O  O88  1  0.98432500  0.76850900  0.56605200  1
  O  O89  1  0.00130800  0.79374600  0.74943400  1
