# generated using pymatgen
data_Li3MnV(PO4)3
_symmetry_space_group_name_H-M   'P 1'
_cell_length_a   9.75582300
_cell_length_b   9.85065716
_cell_length_c   9.87293651
_cell_angle_alpha   84.66906894
_cell_angle_beta   86.43178782
_cell_angle_gamma   87.47591208
_symmetry_Int_Tables_number   1
_chemical_formula_structural   Li3MnV(PO4)3
_chemical_formula_sum   'Li12 Mn4 V4 P12 O48'
_cell_volume   942.16750310
_cell_formula_units_Z   4
loop_
 _symmetry_equiv_pos_site_id
 _symmetry_equiv_pos_as_xyz
  1  'x, y, z'
loop_
 _atom_site_type_symbol
 _atom_site_label
 _atom_site_symmetry_multiplicity
 _atom_site_fract_x
 _atom_site_fract_y
 _atom_site_fract_z
 _atom_site_occupancy
  Li  Li0  1  0.24249000  0.51222100  0.98639000  1
  Li  Li1  1  0.38491600  0.25916300  0.00499300  1
  Li  Li2  1  0.47255400  0.56245500  0.77472600  1
  Li  Li3  1  0.17799400  0.73424000  0.77322000  1
  Li  Li4  1  0.60416800  0.98857800  0.74728300  1
  Li  Li5  1  0.81062900  0.74586100  0.62588900  1
  Li  Li6  1  0.75236300  0.01164500  0.49516200  1
  Li  Li7  1  0.52998200  0.22569300  0.44109400  1
  Li  Li8  1  0.97864700  0.92463800  0.30329000  1
  Li  Li9  1  0.81849400  0.23158000  0.26797200  1
  Li  Li10  1  0.19350300  0.38198300  0.24891900  1
  Li  Li11  1  0.02323800  0.69341200  0.07620100  1
  Mn  Mn12  1  0.21844500  0.02726800  0.74021300  1
  Mn  Mn13  1  0.50632200  0.53125100  0.46484100  1
  Mn  Mn14  1  0.49930700  0.75791600  0.24744700  1
  Mn  Mn15  1  0.72219700  0.73742300  0.02896500  1
  V  V16  1  0.78478300  0.24916000  0.97194100  1
  V  V17  1  0.00072800  0.24696300  0.75305000  1
  V  V18  1  0.00199800  0.46414300  0.53129300  1
  V  V19  1  0.28170100  0.96613400  0.25393700  1
  P  P20  1  0.40473300  0.82520000  0.94846000  1
  P  P21  1  0.89997900  0.94572200  0.82593500  1
  P  P22  1  0.92992700  0.55068300  0.83825600  1
  P  P23  1  0.30400000  0.34164800  0.67869600  1
  P  P24  1  0.69700000  0.31931600  0.66327700  1
  P  P25  1  0.42578800  0.83152900  0.55624800  1
  P  P26  1  0.07141600  0.15317200  0.44994400  1
  P  P27  1  0.80260600  0.67990300  0.34794400  1
  P  P28  1  0.19976700  0.65366000  0.31327200  1
  P  P29  1  0.57615200  0.44529200  0.15938000  1
  P  P30  1  0.59177900  0.05435600  0.18507900  1
  P  P31  1  0.09542200  0.17674900  0.05578900  1
  O  O32  1  0.85673300  0.87031400  0.96701100  1
  O  O33  1  0.56307300  0.82433300  0.91773500  1
  O  O34  1  0.79164000  0.61425900  0.88613200  1
  O  O35  1  0.34549600  0.96275500  0.88222200  1
  O  O36  1  0.33994100  0.69848100  0.90384100  1
  O  O37  1  0.92498200  0.39038400  0.87390600  1
  O  O38  1  0.05477600  0.60226600  0.90360900  1
  O  O39  1  0.12093000  0.16881000  0.89757600  1
  O  O40  1  0.87386000  0.10398800  0.83929800  1
  O  O41  1  0.66946700  0.30510900  0.82096700  1
  O  O42  1  0.05613200  0.90814400  0.80279000  1
  O  O43  1  0.34894100  0.40736000  0.80232900  1
  O  O44  1  0.81249300  0.91254200  0.71105000  1
  O  O45  1  0.94378600  0.58689200  0.67954900  1
  O  O46  1  0.33278000  0.18399600  0.69051600  1
  O  O47  1  0.14221000  0.37635800  0.67085200  1
  O  O48  1  0.28703000  0.86560100  0.63165800  1
  O  O49  1  0.54985200  0.90220400  0.59801800  1
  O  O50  1  0.86070200  0.32329500  0.62367400  1
  O  O51  1  0.63323100  0.45859500  0.61528600  1
  O  O52  1  0.44444500  0.67060400  0.58597200  1
  O  O53  1  0.64748700  0.19632300  0.59819300  1
  O  O54  1  0.07646600  0.12120900  0.61202800  1
  O  O55  1  0.37277600  0.39160100  0.53835100  1
  O  O56  1  0.84377200  0.80278300  0.41988300  1
  O  O57  1  0.14133300  0.59110600  0.45066200  1
  O  O58  1  0.86220500  0.54306700  0.40984900  1
  O  O59  1  0.41212700  0.87299100  0.39876600  1
  O  O60  1  0.63968800  0.66963500  0.37171700  1
  O  O61  1  0.93964700  0.09661300  0.40269000  1
  O  O62  1  0.07236900  0.31099900  0.41120600  1
  O  O63  1  0.20416200  0.08614500  0.39117700  1
  O  O64  1  0.36158300  0.63122900  0.31832200  1
  O  O65  1  0.15554400  0.80899800  0.29649500  1
  O  O66  1  0.56143500  0.41269400  0.31984500  1
  O  O67  1  0.65083100  0.10884300  0.30932600  1
  O  O68  1  0.84492300  0.69736500  0.19265000  1
  O  O69  1  0.62449600  0.89529900  0.18679000  1
  O  O70  1  0.15659500  0.58243600  0.19128300  1
  O  O71  1  0.43329600  0.08789500  0.18123200  1
  O  O72  1  0.59184900  0.60539100  0.12093700  1
  O  O73  1  0.37296400  0.83212300  0.10900900  1
  O  O74  1  0.71309600  0.37239500  0.11619400  1
  O  O75  1  0.93978200  0.20687300  0.09638900  1
  O  O76  1  0.44913100  0.40508400  0.09388800  1
  O  O77  1  0.13208100  0.03605900  0.12962800  1
  O  O78  1  0.18665400  0.29083700  0.08974200  1
  O  O79  1  0.65818900  0.11155500  0.04784800  1
