# generated using pymatgen
data_Na3LiMo2(H6O7)2
_symmetry_space_group_name_H-M   'P 1'
_cell_length_a   11.72990090
_cell_length_b   11.72990090
_cell_length_c   11.72990101
_cell_angle_alpha   44.06667548
_cell_angle_beta   44.06667548
_cell_angle_gamma   44.06667991
_symmetry_Int_Tables_number   1
_chemical_formula_structural   Na3LiMo2(H6O7)2
_chemical_formula_sum   'Na6 Li2 Mo4 H24 O28'
_cell_volume   709.16453016
_cell_formula_units_Z   2
loop_
 _symmetry_equiv_pos_site_id
 _symmetry_equiv_pos_as_xyz
  1  'x, y, z'
loop_
 _atom_site_type_symbol
 _atom_site_label
 _atom_site_symmetry_multiplicity
 _atom_site_fract_x
 _atom_site_fract_y
 _atom_site_fract_z
 _atom_site_occupancy
  Na  Na0  1  0.95622400  0.76095100  0.46861900  1
  Na  Na1  1  0.76095100  0.46861900  0.95622400  1
  Na  Na2  1  0.46861900  0.95622400  0.76095100  1
  Na  Na3  1  0.26095100  0.45622400  0.96861900  1
  Na  Na4  1  0.45622400  0.96861900  0.26095100  1
  Na  Na5  1  0.96861900  0.26095100  0.45622400  1
  Li  Li6  1  0.49081700  0.49081700  0.49081700  1
  Li  Li7  1  0.99081700  0.99081700  0.99081700  1
  Mo  Mo8  1  0.37368200  0.37368200  0.37368200  1
  Mo  Mo9  1  0.87368200  0.87368200  0.87368200  1
  Mo  Mo10  1  0.12847600  0.12847600  0.12847600  1
  Mo  Mo11  1  0.62847600  0.62847600  0.62847600  1
  H  H12  1  0.40188600  0.26321500  0.79628800  1
  H  H13  1  0.26321500  0.79628800  0.40188600  1
  H  H14  1  0.79628800  0.40188600  0.26321500  1
  H  H15  1  0.76321500  0.90188600  0.29628800  1
  H  H16  1  0.90188600  0.29628800  0.76321500  1
  H  H17  1  0.29628800  0.76321500  0.90188600  1
  H  H18  1  0.23186300  0.73053200  0.59345700  1
  H  H19  1  0.73053200  0.59345700  0.23186300  1
  H  H20  1  0.59345700  0.23186300  0.73053200  1
  H  H21  1  0.23053200  0.73186300  0.09345700  1
  H  H22  1  0.73186300  0.09345700  0.23053200  1
  H  H23  1  0.09345700  0.23053200  0.73186300  1
  H  H24  1  0.42735700  0.76727500  0.10692600  1
  H  H25  1  0.76727500  0.10692600  0.42735700  1
  H  H26  1  0.10692600  0.42735700  0.76727500  1
  H  H27  1  0.26727500  0.92735700  0.60692600  1
  H  H28  1  0.92735700  0.60692600  0.26727500  1
  H  H29  1  0.60692600  0.26727500  0.92735700  1
  H  H30  1  0.02213700  0.60574400  0.76806100  1
  H  H31  1  0.60574400  0.76806100  0.02213700  1
  H  H32  1  0.76806100  0.02213700  0.60574400  1
  H  H33  1  0.10574400  0.52213700  0.26806100  1
  H  H34  1  0.52213700  0.26806100  0.10574400  1
  H  H35  1  0.26806100  0.10574400  0.52213700  1
  O  O36  1  0.42935100  0.42935100  0.42935100  1
  O  O37  1  0.92935100  0.92935100  0.92935100  1
  O  O38  1  0.18252000  0.56360800  0.31658900  1
  O  O39  1  0.56360800  0.31658900  0.18252000  1
  O  O40  1  0.31658900  0.18252000  0.56360800  1
  O  O41  1  0.06360800  0.68252000  0.81658900  1
  O  O42  1  0.68252000  0.81658900  0.06360800  1
  O  O43  1  0.81658900  0.06360800  0.68252000  1
  O  O44  1  0.18482300  0.18482300  0.18482300  1
  O  O45  1  0.68482300  0.68482300  0.68482300  1
  O  O46  1  0.88959600  0.25823300  0.18383200  1
  O  O47  1  0.25823300  0.18383200  0.88959600  1
  O  O48  1  0.18383200  0.88959600  0.25823300  1
  O  O49  1  0.75823300  0.38959600  0.68383200  1
  O  O50  1  0.38959600  0.68383200  0.75823300  1
  O  O51  1  0.68383200  0.75823300  0.38959600  1
  O  O52  1  0.46885100  0.32564400  0.74200900  1
  O  O53  1  0.32564400  0.74200900  0.46885100  1
  O  O54  1  0.74200900  0.46885100  0.32564400  1
  O  O55  1  0.82564400  0.96885100  0.24200900  1
  O  O56  1  0.96885100  0.24200900  0.82564400  1
  O  O57  1  0.24200900  0.82564400  0.96885100  1
  O  O58  1  0.01009500  0.55055200  0.74308600  1
  O  O59  1  0.55055200  0.74308600  0.01009500  1
  O  O60  1  0.74308600  0.01009500  0.55055200  1
  O  O61  1  0.05055200  0.51009500  0.24308600  1
  O  O62  1  0.51009500  0.24308600  0.05055200  1
  O  O63  1  0.24308600  0.05055200  0.51009500  1
