# generated using pymatgen
data_Li4Co7(OF7)2
_symmetry_space_group_name_H-M   'P 1'
_cell_length_a   6.05168100
_cell_length_b   6.09062750
_cell_length_c   10.58025400
_cell_angle_alpha   91.41736229
_cell_angle_beta   105.89577629
_cell_angle_gamma   118.55341489
_symmetry_Int_Tables_number   1
_chemical_formula_structural   Li4Co7(OF7)2
_chemical_formula_sum   'Li4 Co7 O2 F14'
_cell_volume   323.80279498
_cell_formula_units_Z   1
loop_
 _symmetry_equiv_pos_site_id
 _symmetry_equiv_pos_as_xyz
  1  'x, y, z'
loop_
 _atom_site_type_symbol
 _atom_site_label
 _atom_site_symmetry_multiplicity
 _atom_site_fract_x
 _atom_site_fract_y
 _atom_site_fract_z
 _atom_site_occupancy
  Li  Li0  1  0.64064600  0.34898800  0.44475700  1
  Li  Li1  1  0.37635300  0.16879000  0.05646300  1
  Li  Li2  1  0.62498700  0.82522300  0.94734000  1
  Li  Li3  1  0.37402600  0.66590500  0.55838200  1
  Co  Co4  1  0.00390800  0.48810500  0.99408400  1
  Co  Co5  1  0.52460400  0.74969100  0.25034200  1
  Co  Co6  1  0.98965200  0.23516200  0.24410900  1
  Co  Co7  1  0.99694800  0.74940800  0.74963300  1
  Co  Co8  1  0.97976200  0.99007600  0.49972200  1
  Co  Co9  1  0.98123200  0.75652600  0.25127300  1
  Co  Co10  1  0.49577600  0.24460100  0.74810800  1
  O  O11  1  0.76960000  0.66365400  0.37520100  1
  O  O12  1  0.76592800  0.89258500  0.14206200  1
  F  F13  1  0.24342900  0.37535100  0.12152700  1
  F  F14  1  0.74447300  0.39324600  0.63907200  1
  F  F15  1  0.23848100  0.84405400  0.13068200  1
  F  F16  1  0.24609100  0.87437900  0.62948600  1
  F  F17  1  0.75903100  0.85664500  0.62577400  1
  F  F18  1  0.77043000  0.38388000  0.12154700  1
  F  F19  1  0.23384500  0.64447500  0.88116600  1
  F  F20  1  0.24344400  0.13832600  0.37579700  1
  F  F21  1  0.76237600  0.14077200  0.37627500  1
  F  F22  1  0.73883000  0.14705600  0.87883800  1
  F  F23  1  0.23382800  0.61451700  0.35224400  1
  F  F24  1  0.25207500  0.33942000  0.61772800  1
  F  F25  1  0.25525300  0.10541300  0.86408700  1
  F  F26  1  0.75499500  0.61375400  0.87430200  1
