# generated using pymatgen
data_LiMn2P4H11O18
_symmetry_space_group_name_H-M   'P 1'
_cell_length_a   5.44044600
_cell_length_b   6.17249112
_cell_length_c   11.97586556
_cell_angle_alpha   75.08614571
_cell_angle_beta   83.61503931
_cell_angle_gamma   66.38208802
_symmetry_Int_Tables_number   1
_chemical_formula_structural   LiMn2P4H11O18
_chemical_formula_sum   'Li1 Mn2 P4 H11 O18'
_cell_volume   356.04920033
_cell_formula_units_Z   1
loop_
 _symmetry_equiv_pos_site_id
 _symmetry_equiv_pos_as_xyz
  1  'x, y, z'
loop_
 _atom_site_type_symbol
 _atom_site_label
 _atom_site_symmetry_multiplicity
 _atom_site_fract_x
 _atom_site_fract_y
 _atom_site_fract_z
 _atom_site_occupancy
  Li  Li0  1  0.47024100  0.98920500  0.53861800  1
  Mn  Mn1  1  0.00566000  0.29550100  0.90576900  1
  Mn  Mn2  1  0.99325900  0.70299700  0.10120400  1
  P  P3  1  0.14109100  0.63435700  0.63770800  1
  P  P4  1  0.49894000  0.21031800  0.09644300  1
  P  P5  1  0.49623200  0.78707400  0.91142000  1
  P  P6  1  0.83685900  0.38453700  0.36887800  1
  H  H7  1  0.98697400  0.50340700  0.49901700  1
  H  H8  1  0.00706300  0.92926200  0.29549600  1
  H  H9  1  0.25299400  0.67951900  0.30543400  1
  H  H10  1  0.47234500  0.49124200  0.51392900  1
  H  H11  1  0.36058100  0.58145500  0.81731500  1
  H  H12  1  0.63359600  0.07791200  0.80503900  1
  H  H13  1  0.36678800  0.92332700  0.20675000  1
  H  H14  1  0.63468800  0.41921200  0.18614200  1
  H  H15  1  0.74933200  0.31942000  0.69912600  1
  H  H16  1  0.97940000  0.01693600  0.48450100  1
  H  H17  1  0.98337600  0.06283400  0.70656100  1
  O  O18  1  0.06614100  0.38795700  0.43674600  1
  O  O19  1  0.23973900  0.31693900  0.03047100  1
  O  O20  1  0.12455400  0.56097600  0.77052100  1
  O  O21  1  0.13287200  0.82048600  0.24840600  1
  O  O22  1  0.16909600  0.88530400  0.59573300  1
  O  O23  1  0.46716300  0.03798700  0.82418400  1
  O  O24  1  0.46304700  0.40637300  0.16771700  1
  O  O25  1  0.40730700  0.43297300  0.59985300  1
  O  O26  1  0.76478100  0.14647400  0.03136300  1
  O  O27  1  0.22784300  0.85270200  0.97407500  1
  O  O28  1  0.56095900  0.55668000  0.40038800  1
  O  O29  1  0.53366700  0.59548400  0.83788300  1
  O  O30  1  0.85398500  0.10718600  0.41438200  1
  O  O31  1  0.53370400  0.96133500  0.18684000  1
  O  O32  1  0.86336900  0.17396200  0.75492100  1
  O  O33  1  0.88972500  0.42617800  0.23849000  1
  O  O34  1  0.75281800  0.67614800  0.98081600  1
  O  O35  1  0.89551200  0.64654200  0.57833400  1
