# generated using pymatgen
data_Li24Mn11CrO36
_symmetry_space_group_name_H-M   'P 1'
_cell_length_a   13.20540252
_cell_length_b   13.20540252
_cell_length_c   9.72552111
_cell_angle_alpha   88.20757557
_cell_angle_beta   88.20757557
_cell_angle_gamma   158.14632516
_symmetry_Int_Tables_number   1
_chemical_formula_structural   Li24Mn11CrO36
_chemical_formula_sum   'Li24 Mn11 Cr1 O36'
_cell_volume   622.64671784
_cell_formula_units_Z   1
loop_
 _symmetry_equiv_pos_site_id
 _symmetry_equiv_pos_as_xyz
  1  'x, y, z'
loop_
 _atom_site_type_symbol
 _atom_site_label
 _atom_site_symmetry_multiplicity
 _atom_site_fract_x
 _atom_site_fract_y
 _atom_site_fract_z
 _atom_site_occupancy
  Li  Li0  1  0.72085600  0.77855000  0.24991000  1
  Li  Li1  1  0.66635400  0.83078700  0.75232800  1
  Li  Li2  1  0.22145000  0.27914400  0.75009000  1
  Li  Li3  1  0.41636400  0.58363600  0.50000000  1
  Li  Li4  1  0.60689000  0.88091000  0.25126400  1
  Li  Li5  1  0.16921300  0.33364600  0.24767200  1
  Li  Li6  1  0.91638600  0.08361400  0.00000000  1
  Li  Li7  1  0.11909000  0.39311000  0.74873600  1
  Li  Li8  1  0.54689700  0.93805600  0.75015600  1
  Li  Li9  1  0.06194400  0.45310300  0.24984400  1
  Li  Li10  1  0.50410500  0.00318200  0.25178300  1
  Li  Li11  1  0.24962000  0.75038000  0.00000000  1
  Li  Li12  1  0.99681800  0.49589500  0.74821700  1
  Li  Li13  1  0.74997400  0.25002600  0.50000000  1
  Li  Li14  1  0.95056800  0.55908100  0.24920800  1
  Li  Li15  1  0.44091900  0.04943200  0.75079200  1
  Li  Li16  1  0.89067900  0.61671500  0.74873500  1
  Li  Li17  1  0.08384000  0.91616000  0.50000000  1
  Li  Li18  1  0.38328500  0.10932100  0.25126500  1
  Li  Li19  1  0.83443300  0.66870200  0.24729900  1
  Li  Li20  1  0.58312300  0.41687700  0.00000000  1
  Li  Li21  1  0.78425900  0.72492400  0.74769800  1
  Li  Li22  1  0.33129800  0.16556700  0.75270100  1
  Li  Li23  1  0.27507600  0.21574100  0.25230200  1
  Mn  Mn24  1  0.47225300  0.52774700  0.00000000  1
  Mn  Mn25  1  0.97249900  0.02750100  0.50000000  1
  Mn  Mn26  1  0.36079800  0.63920200  0.00000000  1
  Mn  Mn27  1  0.30546600  0.69453400  0.50000000  1
  Mn  Mn28  1  0.80554000  0.19446000  0.00000000  1
  Mn  Mn29  1  0.19412400  0.80587600  0.50000000  1
  Mn  Mn30  1  0.13899900  0.86100100  0.00000000  1
  Mn  Mn31  1  0.69428100  0.30571900  0.00000000  1
  Mn  Mn32  1  0.63888300  0.36111700  0.50000000  1
  Mn  Mn33  1  0.02749800  0.97250200  0.00000000  1
  Mn  Mn34  1  0.52764300  0.47235700  0.50000000  1
  Cr  Cr35  1  0.86024900  0.13975100  0.50000000  1
  O  O36  1  0.83463600  0.88256500  0.88718500  1
  O  O37  1  0.61757500  0.66520500  0.61205700  1
  O  O38  1  0.11743500  0.16536400  0.11281500  1
  O  O39  1  0.81420100  0.98050800  0.38587300  1
  O  O40  1  0.33479500  0.38242500  0.38794300  1
  O  O41  1  0.52364100  0.69072200  0.11324500  1
  O  O42  1  0.30927800  0.47635900  0.88675500  1
  O  O43  1  0.49363700  0.77994200  0.61240100  1
  O  O44  1  0.01949200  0.18579900  0.61412700  1
  O  O45  1  0.45010300  0.83167400  0.11219200  1
  O  O46  1  0.99878500  0.28491400  0.11258200  1
  O  O47  1  0.22005800  0.50636300  0.38759900  1
  O  O48  1  0.16832600  0.54989700  0.88780800  1
  O  O49  1  0.71508600  0.00121500  0.88741800  1
  O  O50  1  0.95351700  0.33353700  0.61138600  1
  O  O51  1  0.35595400  0.85635400  0.61410300  1
  O  O52  1  0.14364600  0.64404600  0.38589700  1
  O  O53  1  0.66646300  0.04648300  0.38861400  1
  O  O54  1  0.33549600  0.95449400  0.11140200  1
  O  O55  1  0.85553300  0.35561400  0.11389500  1
  O  O56  1  0.64438600  0.14446700  0.88610500  1
  O  O57  1  0.04550600  0.66450400  0.88859800  1
  O  O58  1  0.28490200  0.00014700  0.61139600  1
  O  O59  1  0.83236900  0.45156700  0.61199300  1
  O  O60  1  0.78861000  0.50255800  0.11183000  1
  O  O61  1  0.99985300  0.71509800  0.38860400  1
  O  O62  1  0.54843300  0.16763100  0.38800700  1
  O  O63  1  0.98094300  0.81431600  0.88547800  1
  O  O64  1  0.49744200  0.21139000  0.88817000  1
  O  O65  1  0.69139200  0.52464500  0.61294000  1
  O  O66  1  0.47535500  0.30860800  0.38706000  1
  O  O67  1  0.66793100  0.62057400  0.11153000  1
  O  O68  1  0.18568400  0.01905700  0.11452200  1
  O  O69  1  0.88208100  0.83448500  0.38774800  1
  O  O70  1  0.37942600  0.33206900  0.88847000  1
  O  O71  1  0.16551500  0.11791900  0.61225200  1
