# generated using pymatgen
data_LiCrPO5
_symmetry_space_group_name_H-M   'P 1'
_cell_length_a   7.13355837
_cell_length_b   7.13355837
_cell_length_c   10.52031521
_cell_angle_alpha   69.73380061
_cell_angle_beta   69.73380061
_cell_angle_gamma   43.17441423
_symmetry_Int_Tables_number   1
_chemical_formula_structural   LiCrPO5
_chemical_formula_sum   'Li4 Cr4 P4 O20'
_cell_volume   339.93739834
_cell_formula_units_Z   4
loop_
 _symmetry_equiv_pos_site_id
 _symmetry_equiv_pos_as_xyz
  1  'x, y, z'
loop_
 _atom_site_type_symbol
 _atom_site_label
 _atom_site_symmetry_multiplicity
 _atom_site_fract_x
 _atom_site_fract_y
 _atom_site_fract_z
 _atom_site_occupancy
  Li  Li0  1  0.99640600  0.00359400  0.75000000  1
  Li  Li1  1  0.00000000  0.50000000  0.00000000  1
  Li  Li2  1  0.00359400  0.99640600  0.25000000  1
  Li  Li3  1  0.50000000  0.00000000  0.50000000  1
  Cr  Cr4  1  0.50000000  0.00000000  0.00000000  1
  Cr  Cr5  1  0.00000000  0.00000000  0.00000000  1
  Cr  Cr6  1  0.00000000  0.00000000  0.50000000  1
  Cr  Cr7  1  0.00000000  0.50000000  0.50000000  1
  P  P8  1  0.62424400  0.62543600  0.81389200  1
  P  P9  1  0.37575600  0.37456400  0.18610800  1
  P  P10  1  0.62543600  0.62424400  0.31389200  1
  P  P11  1  0.37456400  0.37575600  0.68610800  1
  O  O12  1  0.32003600  0.31405900  0.84301400  1
  O  O13  1  0.69642700  0.71328700  0.88981800  1
  O  O14  1  0.31412000  0.78471600  0.85241900  1
  O  O15  1  0.81525400  0.30830700  0.85205800  1
  O  O16  1  0.17629200  0.07811300  0.03337200  1
  O  O17  1  0.82370800  0.92188700  0.96662800  1
  O  O18  1  0.67996400  0.68594100  0.15698600  1
  O  O19  1  0.30357300  0.28671300  0.11018200  1
  O  O20  1  0.78471600  0.31412000  0.35241900  1
  O  O21  1  0.68588000  0.21528400  0.14758100  1
  O  O22  1  0.30830700  0.81525400  0.35205800  1
  O  O23  1  0.18474600  0.69169300  0.14794200  1
  O  O24  1  0.31405900  0.32003600  0.34301400  1
  O  O25  1  0.71328700  0.69642700  0.38981800  1
  O  O26  1  0.21528400  0.68588000  0.64758100  1
  O  O27  1  0.92188700  0.82370800  0.46662800  1
  O  O28  1  0.07811300  0.17629200  0.53337200  1
  O  O29  1  0.69169300  0.18474600  0.64794200  1
  O  O30  1  0.68594100  0.67996400  0.65698600  1
  O  O31  1  0.28671300  0.30357300  0.61018200  1
