# generated using pymatgen
data_Li7Cr3(WO8)2
_symmetry_space_group_name_H-M   'P 1'
_cell_length_a   5.91174858
_cell_length_b   5.91174858
_cell_length_c   9.68773513
_cell_angle_alpha   89.74245417
_cell_angle_beta   89.74245417
_cell_angle_gamma   59.71835422
_symmetry_Int_Tables_number   1
_chemical_formula_structural   Li7Cr3(WO8)2
_chemical_formula_sum   'Li7 Cr3 W2 O16'
_cell_volume   292.37444327
_cell_formula_units_Z   1
loop_
 _symmetry_equiv_pos_site_id
 _symmetry_equiv_pos_as_xyz
  1  'x, y, z'
loop_
 _atom_site_type_symbol
 _atom_site_label
 _atom_site_symmetry_multiplicity
 _atom_site_fract_x
 _atom_site_fract_y
 _atom_site_fract_z
 _atom_site_occupancy
  Li  Li0  1  0.33820800  0.83017800  0.78972400  1
  Li  Li1  1  0.66785900  0.66785900  0.09792700  1
  Li  Li2  1  0.99995700  0.99995700  0.00433600  1
  Li  Li3  1  0.99450600  0.99450600  0.51237800  1
  Li  Li4  1  0.83017800  0.33820800  0.78972400  1
  Li  Li5  1  0.16521600  0.16521600  0.29119100  1
  Li  Li6  1  0.33554700  0.33554700  0.59720900  1
  Cr  Cr7  1  0.82044300  0.82044300  0.76353300  1
  Cr  Cr8  1  0.15710600  0.65308600  0.28031300  1
  Cr  Cr9  1  0.65308600  0.15710600  0.28031300  1
  W  W10  1  0.64746700  0.64746700  0.51198000  1
  W  W11  1  0.33471500  0.33471500  0.00437300  1
  O  O12  1  0.33624600  0.82572500  0.41033000  1
  O  O13  1  0.51844200  0.51844200  0.64454500  1
  O  O14  1  0.70025300  0.70025300  0.88690000  1
  O  O15  1  0.98001300  0.98001300  0.70636000  1
  O  O16  1  0.99207900  0.99207900  0.20112900  1
  O  O17  1  0.82572500  0.33624600  0.41033000  1
  O  O18  1  0.53712100  0.96112800  0.64462300  1
  O  O19  1  0.96112800  0.53712100  0.64462300  1
  O  O20  1  0.17419100  0.17419100  0.92501700  1
  O  O21  1  0.82646600  0.82646600  0.39853200  1
  O  O22  1  0.04170800  0.49785500  0.15947200  1
  O  O23  1  0.49785500  0.04170800  0.15947200  1
  O  O24  1  0.35274400  0.35274400  0.39038600  1
  O  O25  1  0.17547800  0.65501300  0.91405100  1
  O  O26  1  0.48031300  0.48031300  0.15931100  1
  O  O27  1  0.65501300  0.17547800  0.91405100  1
