# generated using pymatgen
data_LiSnPO4
_symmetry_space_group_name_H-M   'P 1'
_cell_length_a   5.59284500
_cell_length_b   8.15354655
_cell_length_c   9.44062152
_cell_angle_alpha   103.31567544
_cell_angle_beta   89.17579813
_cell_angle_gamma   100.42417602
_symmetry_Int_Tables_number   1
_chemical_formula_structural   LiSnPO4
_chemical_formula_sum   'Li4 Sn4 P4 O16'
_cell_volume   411.85101987
_cell_formula_units_Z   4
loop_
 _symmetry_equiv_pos_site_id
 _symmetry_equiv_pos_as_xyz
  1  'x, y, z'
loop_
 _atom_site_type_symbol
 _atom_site_label
 _atom_site_symmetry_multiplicity
 _atom_site_fract_x
 _atom_site_fract_y
 _atom_site_fract_z
 _atom_site_occupancy
  Li  Li0  1  0.86761400  0.99080200  0.62999400  1
  Li  Li1  1  0.74940500  0.46176000  0.81592000  1
  Li  Li2  1  0.25059500  0.53824000  0.18408000  1
  Li  Li3  1  0.13238600  0.00919800  0.37000600  1
  Sn  Sn4  1  0.76705000  0.15441200  0.09173100  1
  Sn  Sn5  1  0.75153500  0.62720800  0.39038300  1
  Sn  Sn6  1  0.24846500  0.37279200  0.60961700  1
  Sn  Sn7  1  0.23295000  0.84558800  0.90826900  1
  P  P8  1  0.71118900  0.24979400  0.45265400  1
  P  P9  1  0.81645100  0.74655200  0.10585000  1
  P  P10  1  0.18354900  0.25344800  0.89415000  1
  P  P11  1  0.28881100  0.75020600  0.54734600  1
  O  O12  1  0.89683900  0.14619200  0.49185100  1
  O  O13  1  0.99172900  0.32740600  0.82476700  1
  O  O14  1  0.80161700  0.30963500  0.30879900  1
  O  O15  1  0.72307500  0.41985000  0.57280100  1
  O  O16  1  0.88060800  0.94805700  0.17104800  1
  O  O17  1  0.56349700  0.66820600  0.14636700  1
  O  O18  1  0.84908000  0.71667100  0.93543700  1
  O  O19  1  0.44711500  0.15411700  0.42897100  1
  O  O20  1  0.55288500  0.84588300  0.57102900  1
  O  O21  1  0.15092000  0.28332900  0.06456300  1
  O  O22  1  0.43650300  0.33179400  0.85363300  1
  O  O23  1  0.11939200  0.05194300  0.82895200  1
  O  O24  1  0.27692500  0.58015000  0.42719900  1
  O  O25  1  0.19838300  0.69036500  0.69120100  1
  O  O26  1  0.00827100  0.67259400  0.17523300  1
  O  O27  1  0.10316100  0.85380800  0.50814900  1
