# generated using pymatgen
data_LiCr2(PO4)3
_symmetry_space_group_name_H-M   'P 1'
_cell_length_a   8.69622600
_cell_length_b   8.88429700
_cell_length_c   11.96309200
_cell_angle_alpha   90.00000000
_cell_angle_beta   90.00000000
_cell_angle_gamma   90.00000000
_symmetry_Int_Tables_number   1
_chemical_formula_structural   LiCr2(PO4)3
_chemical_formula_sum   'Li4 Cr8 P12 O48'
_cell_volume   924.26674805
_cell_formula_units_Z   4
loop_
 _symmetry_equiv_pos_site_id
 _symmetry_equiv_pos_as_xyz
  1  'x, y, z'
loop_
 _atom_site_type_symbol
 _atom_site_label
 _atom_site_symmetry_multiplicity
 _atom_site_fract_x
 _atom_site_fract_y
 _atom_site_fract_z
 _atom_site_occupancy
  Li  Li0  1  0.16104100  0.71714900  0.25000000  1
  Li  Li1  1  0.16104100  0.78285100  0.75000000  1
  Li  Li2  1  0.83895900  0.21714900  0.25000000  1
  Li  Li3  1  0.83895900  0.28285100  0.75000000  1
  Cr  Cr4  1  0.24616900  0.02597000  0.10112600  1
  Cr  Cr5  1  0.24616900  0.02597000  0.39887400  1
  Cr  Cr6  1  0.24616900  0.47403000  0.60112600  1
  Cr  Cr7  1  0.24616900  0.47403000  0.89887400  1
  Cr  Cr8  1  0.75383100  0.52597000  0.10112600  1
  Cr  Cr9  1  0.75383100  0.52597000  0.39887400  1
  Cr  Cr10  1  0.75383100  0.97403000  0.89887400  1
  Cr  Cr11  1  0.75383100  0.97403000  0.60112600  1
  P  P12  1  0.03310100  0.75000000  0.00000000  1
  P  P13  1  0.03310100  0.75000000  0.50000000  1
  P  P14  1  0.39976800  0.37162800  0.12830200  1
  P  P15  1  0.39976800  0.12837200  0.62830200  1
  P  P16  1  0.39976800  0.12837200  0.87169800  1
  P  P17  1  0.39976800  0.37162800  0.37169800  1
  P  P18  1  0.60023200  0.62837200  0.87169800  1
  P  P19  1  0.60023200  0.62837200  0.62830200  1
  P  P20  1  0.60023200  0.87162800  0.12830200  1
  P  P21  1  0.60023200  0.87162800  0.37169800  1
  P  P22  1  0.96689900  0.25000000  0.00000000  1
  P  P23  1  0.96689900  0.25000000  0.50000000  1
  O  O24  1  0.05920100  0.13969900  0.42671200  1
  O  O25  1  0.05920100  0.36030100  0.57328800  1
  O  O26  1  0.05920100  0.36030100  0.92671200  1
  O  O27  1  0.05920100  0.13969900  0.07328800  1
  O  O28  1  0.13439200  0.83041000  0.41019200  1
  O  O29  1  0.13439200  0.83041000  0.08980800  1
  O  O30  1  0.13439200  0.66959000  0.58980800  1
  O  O31  1  0.13439200  0.66959000  0.91019200  1
  O  O32  1  0.21152000  0.01839800  0.25000000  1
  O  O33  1  0.21152000  0.48160200  0.75000000  1
  O  O34  1  0.29134100  0.03189800  0.55628400  1
  O  O35  1  0.29134100  0.46810200  0.05628400  1
  O  O36  1  0.29134100  0.46810200  0.44371600  1
  O  O37  1  0.29134100  0.03189800  0.94371600  1
  O  O38  1  0.34246200  0.06988400  0.75000000  1
  O  O39  1  0.34246200  0.43011600  0.25000000  1
  O  O40  1  0.37438500  0.20342200  0.37937700  1
  O  O41  1  0.37438500  0.29657800  0.62062300  1
  O  O42  1  0.37438500  0.29657800  0.87937700  1
  O  O43  1  0.37438500  0.20342200  0.12062300  1
  O  O44  1  0.43000500  0.89935800  0.11780800  1
  O  O45  1  0.43000500  0.60064200  0.61780800  1
  O  O46  1  0.43000500  0.89935800  0.38219200  1
  O  O47  1  0.43000500  0.60064200  0.88219200  1
  O  O48  1  0.56999500  0.10064200  0.88219200  1
  O  O49  1  0.56999500  0.39935800  0.11780800  1
  O  O50  1  0.56999500  0.39935800  0.38219200  1
  O  O51  1  0.56999500  0.10064200  0.61780800  1
  O  O52  1  0.62561500  0.70342200  0.12062300  1
  O  O53  1  0.62561500  0.70342200  0.37937700  1
  O  O54  1  0.62561500  0.79657800  0.87937700  1
  O  O55  1  0.62561500  0.79657800  0.62062300  1
  O  O56  1  0.65753800  0.56988400  0.75000000  1
  O  O57  1  0.65753800  0.93011600  0.25000000  1
  O  O58  1  0.70865900  0.53189800  0.55628400  1
  O  O59  1  0.70865900  0.53189800  0.94371600  1
  O  O60  1  0.70865900  0.96810200  0.05628400  1
  O  O61  1  0.70865900  0.96810200  0.44371600  1
  O  O62  1  0.78848000  0.51839800  0.25000000  1
  O  O63  1  0.78848000  0.98160200  0.75000000  1
  O  O64  1  0.86560800  0.16959000  0.58980800  1
  O  O65  1  0.86560800  0.33041000  0.08980800  1
  O  O66  1  0.86560800  0.33041000  0.41019200  1
  O  O67  1  0.86560800  0.16959000  0.91019200  1
  O  O68  1  0.94079900  0.86030100  0.92671200  1
  O  O69  1  0.94079900  0.63969900  0.07328800  1
  O  O70  1  0.94079900  0.63969900  0.42671200  1
  O  O71  1  0.94079900  0.86030100  0.57328800  1
