# generated using pymatgen
data_LiMn2OF5
_symmetry_space_group_name_H-M   'P 1'
_cell_length_a   4.73219700
_cell_length_b   17.29305697
_cell_length_c   5.12000657
_cell_angle_alpha   88.54703147
_cell_angle_beta   90.00000000
_cell_angle_gamma   90.00000000
_symmetry_Int_Tables_number   1
_chemical_formula_structural   LiMn2OF5
_chemical_formula_sum   'Li4 Mn8 O4 F20'
_cell_volume   418.85668146
_cell_formula_units_Z   4
loop_
 _symmetry_equiv_pos_site_id
 _symmetry_equiv_pos_as_xyz
  1  'x, y, z'
loop_
 _atom_site_type_symbol
 _atom_site_label
 _atom_site_symmetry_multiplicity
 _atom_site_fract_x
 _atom_site_fract_y
 _atom_site_fract_z
 _atom_site_occupancy
  Li  Li0  1  0.01035000  0.38179500  0.25124700  1
  Li  Li1  1  0.98923300  0.61082300  0.74640400  1
  Li  Li2  1  0.48965000  0.88179500  0.25124700  1
  Li  Li3  1  0.51076700  0.11082300  0.74640400  1
  Mn  Mn4  1  0.01003400  0.28161600  0.76436500  1
  Mn  Mn5  1  0.01797800  0.05521100  0.24941100  1
  Mn  Mn6  1  0.04448100  0.70996400  0.22501200  1
  Mn  Mn7  1  0.99948000  0.94578000  0.75743900  1
  Mn  Mn8  1  0.45551900  0.20996400  0.22501200  1
  Mn  Mn9  1  0.48202200  0.55521100  0.24941100  1
  Mn  Mn10  1  0.48996600  0.78161600  0.76436500  1
  Mn  Mn11  1  0.50052000  0.44578000  0.75743900  1
  O  O12  1  0.26234400  0.78498000  0.06777800  1
  O  O13  1  0.24389300  0.62823700  0.08432200  1
  O  O14  1  0.25610700  0.12823700  0.08432200  1
  O  O15  1  0.23765600  0.28498000  0.06777800  1
  F  F16  1  0.23701600  0.95943400  0.08423500  1
  F  F17  1  0.23234000  0.04452700  0.56911100  1
  F  F18  1  0.26295200  0.20943600  0.56239100  1
  F  F19  1  0.22655200  0.37125500  0.58283100  1
  F  F20  1  0.27344800  0.87125500  0.58283100  1
  F  F21  1  0.23704800  0.70943600  0.56239100  1
  F  F22  1  0.26298400  0.45943400  0.08423500  1
  F  F23  1  0.26766000  0.54452700  0.56911100  1
  F  F24  1  0.71075500  0.47276800  0.40935800  1
  F  F25  1  0.71128300  0.54274300  0.93052900  1
  F  F26  1  0.77139400  0.29103600  0.45240600  1
  F  F27  1  0.78619800  0.70683800  0.93577100  1
  F  F28  1  0.71339800  0.13578300  0.40550200  1
  F  F29  1  0.71415200  0.86777500  0.92188600  1
  F  F30  1  0.78584800  0.36777500  0.92188600  1
  F  F31  1  0.78660200  0.63578300  0.40550200  1
  F  F32  1  0.72860600  0.79103600  0.45240600  1
  F  F33  1  0.71380200  0.20683800  0.93577100  1
  F  F34  1  0.78871700  0.04274300  0.93052900  1
  F  F35  1  0.78924500  0.97276800  0.40935800  1
