# generated using pymatgen
data_LiMnPO4
_symmetry_space_group_name_H-M   'P 1'
_cell_length_a   5.21209203
_cell_length_b   10.92332119
_cell_length_c   8.46580913
_cell_angle_alpha   90.01952158
_cell_angle_beta   90.00030687
_cell_angle_gamma   90.01088659
_symmetry_Int_Tables_number   1
_chemical_formula_structural   LiMnPO4
_chemical_formula_sum   'Li4 Mn4 P4 O16'
_cell_volume   481.98688237
_cell_formula_units_Z   4
loop_
 _symmetry_equiv_pos_site_id
 _symmetry_equiv_pos_as_xyz
  1  'x, y, z'
loop_
 _atom_site_type_symbol
 _atom_site_label
 _atom_site_symmetry_multiplicity
 _atom_site_fract_x
 _atom_site_fract_y
 _atom_site_fract_z
 _atom_site_occupancy
  Li  Li0  1  0.05542300  0.24738100  0.30196000  1
  Li  Li1  1  0.55527200  0.25259600  0.80170600  1
  Li  Li2  1  0.05521200  0.74756200  0.19831800  1
  Li  Li3  1  0.55521900  0.75252300  0.69819000  1
  Mn  Mn4  1  0.03633900  0.38142200  0.64965800  1
  Mn  Mn5  1  0.03651300  0.88143400  0.85041600  1
  Mn  Mn6  1  0.53664100  0.11870900  0.14949000  1
  Mn  Mn7  1  0.53639500  0.61840200  0.35023000  1
  P  P8  1  0.03081200  0.18157200  0.94483100  1
  P  P9  1  0.53080700  0.31844300  0.44483700  1
  P  P10  1  0.03068200  0.68140900  0.55511900  1
  P  P11  1  0.53081600  0.81859200  0.05520400  1
  O  O12  1  0.95937100  0.06243700  0.85836700  1
  O  O13  1  0.45946500  0.43740900  0.35808100  1
  O  O14  1  0.95923500  0.56238400  0.64170300  1
  O  O15  1  0.45960200  0.93770300  0.14176200  1
  O  O16  1  0.91215400  0.18053900  0.11489700  1
  O  O17  1  0.41207600  0.31972400  0.61489200  1
  O  O18  1  0.91192400  0.68022600  0.38507100  1
  O  O19  1  0.41208500  0.81968000  0.88513200  1
  O  O20  1  0.32617500  0.19870600  0.96149700  1
  O  O21  1  0.82613400  0.30133700  0.46166100  1
  O  O22  1  0.32605100  0.69846700  0.53835800  1
  O  O23  1  0.82615500  0.80143500  0.03844700  1
  O  O24  1  0.41161400  0.20957500  0.35064700  1
  O  O25  1  0.91153500  0.29024300  0.85045900  1
  O  O26  1  0.41152400  0.70990000  0.14958000  1
  O  O27  1  0.91156500  0.79019100  0.64948800  1
