# generated using pymatgen
data_Li4V2C4SO16
_symmetry_space_group_name_H-M   'P 1'
_cell_length_a   9.74807514
_cell_length_b   9.64559500
_cell_length_c   9.31065267
_cell_angle_alpha   61.86359251
_cell_angle_beta   60.75713709
_cell_angle_gamma   57.37927040
_symmetry_Int_Tables_number   1
_chemical_formula_structural   Li4V2C4SO16
_chemical_formula_sum   'Li8 V4 C8 S2 O32'
_cell_volume   617.01375374
_cell_formula_units_Z   2
loop_
 _symmetry_equiv_pos_site_id
 _symmetry_equiv_pos_as_xyz
  1  'x, y, z'
loop_
 _atom_site_type_symbol
 _atom_site_label
 _atom_site_symmetry_multiplicity
 _atom_site_fract_x
 _atom_site_fract_y
 _atom_site_fract_z
 _atom_site_occupancy
  Li  Li0  1  0.54728300  0.95271700  0.54728300  1
  Li  Li1  1  0.95414000  0.54586000  0.54586000  1
  Li  Li2  1  0.29728300  0.70271700  0.29728300  1
  Li  Li3  1  0.70414000  0.29586000  0.29586000  1
  Li  Li4  1  0.54586000  0.95414000  0.95414000  1
  Li  Li5  1  0.95271700  0.54728300  0.95271700  1
  Li  Li6  1  0.29586000  0.70414000  0.70414000  1
  Li  Li7  1  0.70271700  0.29728300  0.70271700  1
  V  V8  1  0.12500000  0.12500000  0.12500000  1
  V  V9  1  0.62500000  0.12500000  0.12500000  1
  V  V10  1  0.12500000  0.62500000  0.12500000  1
  V  V11  1  0.12500000  0.12500000  0.62500000  1
  C  C12  1  0.27939200  0.88840100  0.91169300  1
  C  C13  1  0.88840100  0.27939200  0.92051500  1
  C  C14  1  0.32948500  0.33830700  0.36159900  1
  C  C15  1  0.91169300  0.92051500  0.27939200  1
  C  C16  1  0.33830700  0.32948500  0.97060800  1
  C  C17  1  0.92051500  0.91169300  0.88840100  1
  C  C18  1  0.36159900  0.97060800  0.32948500  1
  C  C19  1  0.97060800  0.36159900  0.33830700  1
  S  S20  1  0.75000000  0.75000000  0.75000000  1
  S  S21  1  0.50000000  0.50000000  0.50000000  1
  O  O22  1  0.90599700  0.28470900  0.77159500  1
  O  O23  1  0.27356100  0.75043800  0.92737600  1
  O  O24  1  0.75043800  0.27356100  0.04862500  1
  O  O25  1  0.76729400  0.94287000  0.28151200  1
  O  O26  1  0.30713000  0.48270600  0.24167500  1
  O  O27  1  0.28470900  0.90599700  0.03770000  1
  O  O28  1  0.47840500  0.21230000  0.34400300  1
  O  O29  1  0.03770000  0.77159500  0.28470900  1
  O  O30  1  0.20137500  0.32262400  0.49956200  1
  O  O31  1  0.92737600  0.04862500  0.27356100  1
  O  O32  1  0.69441900  0.69199100  0.67142500  1
  O  O33  1  0.55800900  0.55558100  0.30783500  1
  O  O34  1  0.28151200  0.00832500  0.76729400  1
  O  O35  1  0.24167500  0.96848800  0.30713000  1
  O  O36  1  0.94216500  0.67142500  0.69199100  1
  O  O37  1  0.67142500  0.94216500  0.69441900  1
  O  O38  1  0.57857500  0.30783500  0.55558100  1
  O  O39  1  0.30783500  0.57857500  0.55800900  1
  O  O40  1  0.00832500  0.28151200  0.94287000  1
  O  O41  1  0.96848800  0.24167500  0.48270600  1
  O  O42  1  0.69199100  0.69441900  0.94216500  1
  O  O43  1  0.55558100  0.55800900  0.57857500  1
  O  O44  1  0.32262400  0.20137500  0.97643900  1
  O  O45  1  0.04862500  0.92737600  0.75043800  1
  O  O46  1  0.21230000  0.47840500  0.96529100  1
  O  O47  1  0.77159500  0.03770000  0.90599700  1
  O  O48  1  0.96529100  0.34400300  0.21230000  1
  O  O49  1  0.94287000  0.76729400  0.00832500  1
  O  O50  1  0.48270600  0.30713000  0.96848800  1
  O  O51  1  0.49956200  0.97643900  0.20137500  1
  O  O52  1  0.97643900  0.49956200  0.32262400  1
  O  O53  1  0.34400300  0.96529100  0.47840500  1
