# generated using pymatgen
data_Li7Ti12NbO30
_symmetry_space_group_name_H-M   'P 1'
_cell_length_a   23.75377501
_cell_length_b   23.75377501
_cell_length_c   23.75377473
_cell_angle_alpha   12.42428854
_cell_angle_beta   12.42428854
_cell_angle_gamma   12.42429009
_symmetry_Int_Tables_number   1
_chemical_formula_structural   Li7Ti12NbO30
_chemical_formula_sum   'Li7 Ti12 Nb1 O30'
_cell_volume   539.39506097
_cell_formula_units_Z   1
loop_
 _symmetry_equiv_pos_site_id
 _symmetry_equiv_pos_as_xyz
  1  'x, y, z'
loop_
 _atom_site_type_symbol
 _atom_site_label
 _atom_site_symmetry_multiplicity
 _atom_site_fract_x
 _atom_site_fract_y
 _atom_site_fract_z
 _atom_site_occupancy
  Li  Li0  1  0.02584200  0.02584200  0.02584200  1
  Li  Li1  1  0.24570200  0.24570200  0.24570200  1
  Li  Li2  1  0.60841300  0.60841300  0.60841300  1
  Li  Li3  1  0.39089900  0.39089900  0.39089900  1
  Li  Li4  1  0.52625500  0.52625500  0.52625500  1
  Li  Li5  1  0.97383900  0.97383900  0.97383900  1
  Li  Li6  1  0.89011200  0.89011200  0.89011200  1
  Ti  Ti7  1  0.10492800  0.10492800  0.10492800  1
  Ti  Ti8  1  0.16205400  0.16205400  0.16205400  1
  Ti  Ti9  1  0.20383800  0.20383800  0.20383800  1
  Ti  Ti10  1  0.06505200  0.06505200  0.06505200  1
  Ti  Ti11  1  0.29601300  0.29601300  0.29601300  1
  Ti  Ti12  1  0.66216500  0.66216500  0.66216500  1
  Ti  Ti13  1  0.33820300  0.33820300  0.33820300  1
  Ti  Ti14  1  0.43244900  0.43244900  0.43244900  1
  Ti  Ti15  1  0.56621900  0.56621900  0.56621900  1
  Ti  Ti16  1  0.70439200  0.70439200  0.70439200  1
  Ti  Ti17  1  0.79772400  0.79772400  0.79772400  1
  Ti  Ti18  1  0.83805400  0.83805400  0.83805400  1
  Nb  Nb19  1  0.93209400  0.93209400  0.93209400  1
  O  O20  1  0.59578800  0.00596800  0.35083800  1
  O  O21  1  0.75956300  0.01574700  0.37477800  1
  O  O22  1  0.35083800  0.59578800  0.00596800  1
  O  O23  1  0.90472800  0.14892500  0.49537700  1
  O  O24  1  0.00596800  0.35083800  0.59578800  1
  O  O25  1  0.86981600  0.25471200  0.62511500  1
  O  O26  1  0.77936200  0.11194400  0.45738300  1
  O  O27  1  0.50640400  0.06782100  0.87610700  1
  O  O28  1  0.62175700  0.24410900  0.98516800  1
  O  O29  1  0.76295400  0.32751000  0.16390000  1
  O  O30  1  0.87975500  0.50774600  0.26355100  1
  O  O31  1  0.98516800  0.62175700  0.24410900  1
  O  O32  1  0.87610700  0.50640400  0.06782100  1
  O  O33  1  0.50774600  0.26355100  0.87975500  1
  O  O34  1  0.32751000  0.16390000  0.76295400  1
  O  O35  1  0.62511500  0.86981600  0.25471200  1
  O  O36  1  0.45738300  0.77936200  0.11194400  1
  O  O37  1  0.14892500  0.49537700  0.90472800  1
  O  O38  1  0.01574700  0.37477800  0.75956300  1
  O  O39  1  0.11194400  0.45738300  0.77936200  1
  O  O40  1  0.25471200  0.62511500  0.86981600  1
  O  O41  1  0.37477800  0.75956300  0.01574700  1
  O  O42  1  0.49537700  0.90472800  0.14892500  1
  O  O43  1  0.26355100  0.87975500  0.50774600  1
  O  O44  1  0.16390000  0.76295400  0.32751000  1
  O  O45  1  0.99475700  0.64811500  0.40670500  1
  O  O46  1  0.06782100  0.87610700  0.50640400  1
  O  O47  1  0.64811500  0.40670500  0.99475700  1
  O  O48  1  0.24410900  0.98516800  0.62175700  1
  O  O49  1  0.40670500  0.99475700  0.64811500  1
