# generated using pymatgen
data_Li6V3P8O29
_symmetry_space_group_name_H-M   'P 1'
_cell_length_a   9.78630600
_cell_length_b   9.79717430
_cell_length_c   13.98649335
_cell_angle_alpha   89.78351332
_cell_angle_beta   90.65319003
_cell_angle_gamma   119.85743919
_symmetry_Int_Tables_number   1
_chemical_formula_structural   Li6V3P8O29
_chemical_formula_sum   'Li12 V6 P16 O58'
_cell_volume   1162.92559292
_cell_formula_units_Z   2
loop_
 _symmetry_equiv_pos_site_id
 _symmetry_equiv_pos_as_xyz
  1  'x, y, z'
loop_
 _atom_site_type_symbol
 _atom_site_label
 _atom_site_symmetry_multiplicity
 _atom_site_fract_x
 _atom_site_fract_y
 _atom_site_fract_z
 _atom_site_occupancy
  Li  Li0  1  0.77047600  0.09003000  0.05670900  1
  Li  Li1  1  0.33388600  0.09701200  0.56463000  1
  Li  Li2  1  0.67120500  0.33139600  0.88543500  1
  Li  Li3  1  0.32926600  0.23955400  0.06094400  1
  Li  Li4  1  0.91704600  0.68391400  0.05877400  1
  Li  Li5  1  0.23237600  0.33397500  0.44352000  1
  Li  Li6  1  0.76106100  0.66694600  0.56245200  1
  Li  Li7  1  0.66725100  0.76633800  0.93882400  1
  Li  Li8  1  0.66647400  0.90563100  0.44002700  1
  Li  Li9  1  0.09369300  0.76813500  0.44534300  1
  Li  Li10  1  0.04752500  0.02973000  0.98568500  1
  Li  Li11  1  0.98703300  0.04359900  0.51630200  1
  V  V12  1  0.43211900  0.43318800  0.25096700  1
  V  V13  1  0.55975400  0.56030600  0.75017400  1
  V  V14  1  0.99996300  0.43567000  0.75007000  1
  V  V15  1  0.00111900  0.55814300  0.24939000  1
  V  V16  1  0.56397600  0.00058200  0.24601200  1
  V  V17  1  0.43655500  0.99615100  0.74986200  1
  P  P18  1  0.78102100  0.09076700  0.83917600  1
  P  P19  1  0.91651700  0.21994200  0.34159400  1
  P  P20  1  0.31637400  0.08679900  0.34621400  1
  P  P21  1  0.66741300  0.33497800  0.12846600  1
  P  P22  1  0.66509200  0.33401200  0.63099700  1
  P  P23  1  0.31640100  0.21952400  0.84326000  1
  P  P24  1  0.22037200  0.30835700  0.66025700  1
  P  P25  1  0.90947900  0.68866500  0.84515700  1
  P  P26  1  0.08127000  0.30265000  0.15487400  1
  P  P27  1  0.77395100  0.68550100  0.34180600  1
  P  P28  1  0.68260100  0.77027200  0.15720700  1
  P  P29  1  0.33426000  0.66665700  0.36886500  1
  P  P30  1  0.33425200  0.66708800  0.86992300  1
  P  P31  1  0.68875500  0.91174500  0.65483100  1
  P  P32  1  0.08237700  0.77425500  0.65913700  1
  P  P33  1  0.21951600  0.91768000  0.15991800  1
  O  O34  1  0.77993500  0.98725300  0.56537700  1
  O  O35  1  0.74398800  0.08012200  0.33730700  1
  O  O36  1  0.99686700  0.20099200  0.07046700  1
  O  O37  1  0.92271000  0.25571300  0.83978000  1
  O  O38  1  0.62969100  0.10497900  0.82858500  1
  O  O39  1  0.67901500  0.18900900  0.16429500  1
  O  O40  1  0.47333800  0.09258700  0.32902300  1
  O  O41  1  0.20997200  0.01261000  0.07896400  1
  O  O42  1  0.34474700  0.08019600  0.83860900  1
  O  O43  1  0.80919100  0.33219500  0.67932700  1
  O  O44  1  0.91738100  0.37715500  0.33219500  1
  O  O45  1  0.51206500  0.18729800  0.67059900  1
  O  O46  1  0.67125700  0.34176200  0.02089500  1
  O  O47  1  0.66316100  0.33969900  0.52449800  1
  O  O48  1  0.51311000  0.32412900  0.16678500  1
  O  O49  1  0.89674100  0.52509800  0.83526100  1
  O  O50  1  0.81321700  0.48767000  0.17163500  1
  O  O51  1  0.33703200  0.25440900  0.34256400  1
  O  O52  1  0.20570600  0.20333700  0.75274800  1
  O  O53  1  0.21324700  0.21446400  0.57153500  1
  O  O54  1  0.23314700  0.21841700  0.93293800  1
  O  O55  1  0.47948300  0.37224500  0.83128500  1
  O  O56  1  0.67187900  0.48776800  0.67317300  1
  O  O57  1  0.25523000  0.33834300  0.15996400  1
  O  O58  1  0.61913200  0.52754600  0.32619700  1
  O  O59  1  0.91735000  0.66146200  0.34272700  1
  O  O60  1  0.00033200  0.19856500  0.24905400  1
  O  O61  1  0.00387300  0.20684100  0.42670900  1
  O  O62  1  0.99275200  0.77882400  0.57064900  1
  O  O63  1  0.08365800  0.33946300  0.66189500  1
  O  O64  1  0.38009200  0.46201900  0.66766900  1
  O  O65  1  0.74024900  0.66392000  0.84181800  1
  O  O66  1  0.32103300  0.50902000  0.33081600  1
  O  O67  1  0.52530500  0.61903900  0.17226900  1
  O  O68  1  0.76746900  0.76777000  0.06836600  1
  O  O69  1  0.76852000  0.77089700  0.43018900  1
  O  O70  1  0.79430100  0.79377500  0.24917300  1
  O  O71  1  0.65934500  0.74201200  0.66054000  1
  O  O72  1  0.18500300  0.52571100  0.82459600  1
  O  O73  1  0.07764600  0.45756100  0.16438000  1
  O  O74  1  0.48318600  0.66372700  0.82892600  1
  O  O75  1  0.34431900  0.67534500  0.97585500  1
  O  O76  1  0.32871500  0.66686900  0.47534300  1
  O  O77  1  0.48618400  0.80976900  0.32748300  1
  O  O78  1  0.08405600  0.61974400  0.66806500  1
  O  O79  1  0.18707900  0.67283400  0.32354800  1
  O  O80  1  0.66184500  0.91733100  0.15671700  1
  O  O81  1  0.79653700  0.00025200  0.74766500  1
  O  O82  1  0.77494000  0.99733000  0.92754200  1
  O  O83  1  0.53637100  0.91867600  0.66277900  1
  O  O84  1  0.34246200  0.81620700  0.82094100  1
  O  O85  1  0.38126300  0.92265200  0.17011000  1
  O  O86  1  0.08377700  0.74635400  0.15822700  1
  O  O87  1  0.99190900  0.78023100  0.93375300  1
  O  O88  1  0.99707500  0.79340800  0.75246000  1
  O  O89  1  0.24972200  0.91808600  0.65886900  1
  O  O90  1  0.23463100  0.00309200  0.43706400  1
  O  O91  1  0.19935600  0.99128900  0.25872300  1
