# generated using pymatgen
data_Li5Mn8(BO3)8
_symmetry_space_group_name_H-M   'P 1'
_cell_length_a   5.31981100
_cell_length_b   9.10206417
_cell_length_c   11.49039349
_cell_angle_alpha   112.74287769
_cell_angle_beta   101.64743395
_cell_angle_gamma   89.60238503
_symmetry_Int_Tables_number   1
_chemical_formula_structural   Li5Mn8(BO3)8
_chemical_formula_sum   'Li5 Mn8 B8 O24'
_cell_volume   500.99458995
_cell_formula_units_Z   1
loop_
 _symmetry_equiv_pos_site_id
 _symmetry_equiv_pos_as_xyz
  1  'x, y, z'
loop_
 _atom_site_type_symbol
 _atom_site_label
 _atom_site_symmetry_multiplicity
 _atom_site_fract_x
 _atom_site_fract_y
 _atom_site_fract_z
 _atom_site_occupancy
  Li  Li0  1  0.07439900  0.91557300  0.83652900  1
  Li  Li1  1  0.30431900  0.17611800  0.32674300  1
  Li  Li2  1  0.56054500  0.40566000  0.84029800  1
  Li  Li3  1  0.64811300  0.79614900  0.59669100  1
  Li  Li4  1  0.81794300  0.66764100  0.32665100  1
  Mn  Mn5  1  0.08208200  0.61040900  0.87043100  1
  Mn  Mn6  1  0.16163500  0.98703900  0.62153700  1
  Mn  Mn7  1  0.33940100  0.53063900  0.37360700  1
  Mn  Mn8  1  0.59663800  0.09465200  0.87617500  1
  Mn  Mn9  1  0.40097200  0.90313000  0.11217900  1
  Mn  Mn10  1  0.65120900  0.46023800  0.61526800  1
  Mn  Mn11  1  0.83353200  0.00545200  0.36506300  1
  Mn  Mn12  1  0.91169900  0.37831700  0.12271700  1
  B  B13  1  0.10272800  0.27517800  0.87826500  1
  B  B14  1  0.15368700  0.65173000  0.63596100  1
  B  B15  1  0.36231800  0.85887800  0.37463200  1
  B  B16  1  0.60203300  0.75872200  0.86674700  1
  B  B17  1  0.39095100  0.25092700  0.12850500  1
  B  B18  1  0.65410700  0.12926700  0.62380200  1
  B  B19  1  0.83407900  0.33937300  0.36265600  1
  B  B20  1  0.90681900  0.73410900  0.12644000  1
  O  O21  1  0.02470400  0.78478500  0.64109700  1
  O  O22  1  0.05560800  0.54577200  0.68238800  1
  O  O23  1  0.18865100  0.12096400  0.83060000  1
  O  O24  1  0.22040300  0.40212900  0.87208000  1
  O  O25  1  0.11951100  0.86837200  0.40542400  1
  O  O26  1  0.36090700  0.78624600  0.90205400  1
  O  O27  1  0.09225200  0.72923200  0.05390200  1
  O  O28  1  0.37291100  0.61972500  0.58412500  1
  O  O29  1  0.28897800  0.40056800  0.16625100  1
  O  O30  1  0.28208100  0.12583300  0.14185400  1
  O  O31  1  0.56576800  0.01639400  0.66477500  1
  O  O32  1  0.56667200  0.27553300  0.66010200  1
  O  O33  1  0.44108200  0.96864600  0.32827300  1
  O  O34  1  0.69047400  0.60637100  0.83734500  1
  O  O35  1  0.52012000  0.74703400  0.39492800  1
  O  O36  1  0.74219100  0.88060100  0.86370900  1
  O  O37  1  0.60542900  0.36788000  0.40725000  1
  O  O38  1  0.87905900  0.29099800  0.93101800  1
  O  O39  1  0.60750500  0.23384800  0.07569700  1
  O  O40  1  0.84450700  0.08407400  0.54981700  1
  O  O41  1  0.80434700  0.88519200  0.17870300  1
  O  O42  1  0.83012900  0.60970600  0.14924200  1
  O  O43  1  0.92627300  0.45058100  0.31734800  1
  O  O44  1  0.97009600  0.21359500  0.36383800  1
