# generated using pymatgen
data_Li4MnOF4
_symmetry_space_group_name_H-M   'P 1'
_cell_length_a   8.20886953
_cell_length_b   8.20890219
_cell_length_c   8.20889946
_cell_angle_alpha   119.86128674
_cell_angle_beta   75.46042797
_cell_angle_gamma   75.46028840
_symmetry_Int_Tables_number   1
_chemical_formula_structural   Li4MnOF4
_chemical_formula_sum   'Li16 Mn4 O4 F16'
_cell_volume   415.16010447
_cell_formula_units_Z   4
loop_
 _symmetry_equiv_pos_site_id
 _symmetry_equiv_pos_as_xyz
  1  'x, y, z'
loop_
 _atom_site_type_symbol
 _atom_site_label
 _atom_site_symmetry_multiplicity
 _atom_site_fract_x
 _atom_site_fract_y
 _atom_site_fract_z
 _atom_site_occupancy
  Li  Li0  1  0.46986300  0.36656600  0.16357100  1
  Li  Li1  1  0.46986300  0.86656600  0.66357200  1
  Li  Li2  1  0.96986300  0.11656600  0.41357200  1
  Li  Li3  1  0.96986300  0.61656600  0.91357100  1
  Li  Li4  1  0.29700400  0.58643000  0.61656700  1
  Li  Li5  1  0.29700400  0.08643000  0.11656600  1
  Li  Li6  1  0.79700400  0.33643000  0.86656700  1
  Li  Li7  1  0.79700400  0.83643000  0.36656700  1
  Li  Li8  1  0.70299500  0.91357100  0.88343500  1
  Li  Li9  1  0.70299500  0.41357100  0.38343500  1
  Li  Li10  1  0.20299500  0.66357100  0.13343400  1
  Li  Li11  1  0.20299500  0.16357100  0.63343500  1
  Li  Li12  1  0.53013600  0.13343400  0.33643000  1
  Li  Li13  1  0.53013600  0.63343400  0.83643000  1
  Li  Li14  1  0.03013600  0.88343400  0.58643000  1
  Li  Li15  1  0.03013600  0.38343400  0.08643000  1
  Mn  Mn16  1  0.50001000  0.74999800  0.24999100  1
  Mn  Mn17  1  0.00000400  0.49999600  0.49999600  1
  Mn  Mn18  1  0.49999900  0.25000300  0.74999500  1
  Mn  Mn19  1  0.99999400  0.99999900  0.00000300  1
  O  O20  1  0.50000000  0.50000200  0.00000300  1
  O  O21  1  0.50000000  0.99999900  0.50000000  1
  O  O22  1  0.99999900  0.25000000  0.25000000  1
  O  O23  1  0.00000000  0.74999800  0.74999900  1
  F  F24  1  0.45821300  0.61643600  0.42535100  1
  F  F25  1  0.45821200  0.11643500  0.92535100  1
  F  F26  1  0.95821200  0.36643700  0.67535100  1
  F  F27  1  0.95821300  0.86643400  0.17535000  1
  F  F28  1  0.69108400  0.17535100  0.13356400  1
  F  F29  1  0.69108500  0.67535200  0.63356400  1
  F  F30  1  0.19108500  0.92535100  0.38356300  1
  F  F31  1  0.19108500  0.42535000  0.88356400  1
  F  F32  1  0.30891500  0.32464800  0.36643700  1
  F  F33  1  0.30891600  0.82465000  0.86643700  1
  F  F34  1  0.80891500  0.07464900  0.61643700  1
  F  F35  1  0.80891500  0.57465000  0.11643600  1
  F  F36  1  0.54178800  0.88356400  0.07465000  1
  F  F37  1  0.54178700  0.38356400  0.57465000  1
  F  F38  1  0.04178700  0.63356500  0.32465000  1
  F  F39  1  0.04178700  0.13356400  0.82465000  1
