# generated using pymatgen
data_K2LiNb6(PO8)3
_symmetry_space_group_name_H-M   'P 1'
_cell_length_a   8.53040000
_cell_length_b   10.49637232
_cell_length_c   13.45962166
_cell_angle_alpha   90.04285931
_cell_angle_beta   90.01751274
_cell_angle_gamma   113.37710813
_symmetry_Int_Tables_number   1
_chemical_formula_structural   K2LiNb6(PO8)3
_chemical_formula_sum   'K4 Li2 Nb12 P6 O48'
_cell_volume   1106.22352390
_cell_formula_units_Z   2
loop_
 _symmetry_equiv_pos_site_id
 _symmetry_equiv_pos_as_xyz
  1  'x, y, z'
loop_
 _atom_site_type_symbol
 _atom_site_label
 _atom_site_symmetry_multiplicity
 _atom_site_fract_x
 _atom_site_fract_y
 _atom_site_fract_z
 _atom_site_occupancy
  K  K0  1  0.59419000  0.10799800  0.19681400  1
  K  K1  1  0.69583600  0.74721700  0.65871000  1
  K  K2  1  0.30477300  0.25254500  0.65860500  1
  K  K3  1  0.08920400  0.55040100  0.14446700  1
  Li  Li4  1  0.57889700  0.57786900  0.99959800  1
  Li  Li5  1  0.42035900  0.92136900  0.49989600  1
  Nb  Nb6  1  0.96234800  0.24157400  0.40398500  1
  Nb  Nb7  1  0.83852200  0.30335300  0.65926100  1
  Nb  Nb8  1  0.97155900  0.75030800  0.90281400  1
  Nb  Nb9  1  0.64812900  0.40273700  0.43802300  1
  Nb  Nb10  1  0.84584100  0.81105600  0.15950900  1
  Nb  Nb11  1  0.35406100  0.10016000  0.93897200  1
  Nb  Nb12  1  0.65109800  0.90862200  0.93820200  1
  Nb  Nb13  1  0.15886800  0.19547900  0.15880200  1
  Nb  Nb14  1  0.34769100  0.59068400  0.43688500  1
  Nb  Nb15  1  0.03590600  0.25738200  0.90250400  1
  Nb  Nb16  1  0.15353500  0.68734100  0.65936900  1
  Nb  Nb17  1  0.03071400  0.75235800  0.40332900  1
  P  P18  1  0.72365000  0.38771600  0.88803000  1
  P  P19  1  0.50010200  0.00023000  0.72378100  1
  P  P20  1  0.72405300  0.88832100  0.38786600  1
  P  P21  1  0.50024200  0.49966300  0.22393300  1
  P  P22  1  0.27625900  0.11228600  0.38832800  1
  P  P23  1  0.27657100  0.61144400  0.88759900  1
  O  O24  1  0.97560300  0.26487200  0.76289400  1
  O  O25  1  0.93589400  0.24238400  0.55338400  1
  O  O26  1  0.84701500  0.07740100  0.92379500  1
  O  O27  1  0.76229100  0.04470400  0.40209100  1
  O  O28  1  0.86861100  0.35527400  0.93559600  1
  O  O29  1  0.79295600  0.30876100  0.37538100  1
  O  O30  1  0.97243600  0.76121200  0.26298300  1
  O  O31  1  0.64038800  0.10652100  0.65777900  1
  O  O32  1  0.92882200  0.73692900  0.05358300  1
  O  O33  1  0.84665300  0.57614500  0.42348700  1
  O  O34  1  0.71056300  0.35810800  0.77516600  1
  O  O35  1  0.68547100  0.36329500  0.57014700  1
  O  O36  1  0.50036300  0.00138500  0.97348200  1
  O  O37  1  0.75432900  0.54200000  0.90805700  1
  O  O38  1  0.86534500  0.85255500  0.43676500  1
  O  O39  1  0.55166300  0.29692600  0.93806500  1
  O  O40  1  0.79029200  0.80641400  0.87735400  1
  O  O41  1  0.41608600  0.07793000  0.78743700  1
  O  O42  1  0.58294800  0.42164400  0.28828500  1
  O  O43  1  0.44771900  0.20204700  0.43975000  1
  O  O44  1  0.63424300  0.60218300  0.15234200  1
  O  O45  1  0.70872900  0.85711600  0.27533000  1
  O  O46  1  0.68664500  0.86179900  0.06871600  1
  O  O47  1  0.50115800  0.50032700  0.47427200  1
  O  O48  1  0.31460500  0.13614600  0.07115800  1
  O  O49  1  0.29151900  0.14087900  0.27537800  1
  O  O50  1  0.35746000  0.39500500  0.15806800  1
  O  O51  1  0.55135400  0.80628400  0.44166400  1
  O  O52  1  0.41855900  0.57925500  0.28874700  1
  O  O53  1  0.58080300  0.91940500  0.78774200  1
  O  O54  1  0.20650400  0.19001000  0.87557800  1
  O  O55  1  0.45041800  0.69405400  0.93985600  1
  O  O56  1  0.13252300  0.14559200  0.43606700  1
  O  O57  1  0.23588000  0.45556100  0.90391000  1
  O  O58  1  0.31736500  0.64114900  0.56851400  1
  O  O59  1  0.99994700  0.00057900  0.15344100  1
  O  O60  1  0.29177300  0.64474500  0.77527000  1
  O  O61  1  0.15293800  0.42262400  0.42346500  1
  O  O62  1  0.06619300  0.26091700  0.05406800  1
  O  O63  1  0.36713100  0.89763600  0.65129400  1
  O  O64  1  0.02655400  0.23685400  0.26330900  1
  O  O65  1  0.20723600  0.69164500  0.37820700  1
  O  O66  1  0.13406100  0.64646300  0.93685700  1
  O  O67  1  0.24565700  0.95775600  0.40796400  1
  O  O68  1  0.99932300  0.49951000  0.65292000  1
  O  O69  1  0.15359800  0.92414400  0.92326600  1
  O  O70  1  0.07006300  0.76014000  0.55296700  1
  O  O71  1  0.02384500  0.73538900  0.76281700  1
