# generated using pymatgen
data_Li3MnFeCo(PO4)3
_symmetry_space_group_name_H-M   'P 1'
_cell_length_a   6.09230500
_cell_length_b   10.46045000
_cell_length_c   14.27796637
_cell_angle_alpha   89.88988648
_cell_angle_beta   90.00000000
_cell_angle_gamma   90.00000000
_symmetry_Int_Tables_number   1
_chemical_formula_structural   Li3MnFeCo(PO4)3
_chemical_formula_sum   'Li12 Mn4 Fe4 Co4 P12 O48'
_cell_volume   909.90815604
_cell_formula_units_Z   4
loop_
 _symmetry_equiv_pos_site_id
 _symmetry_equiv_pos_as_xyz
  1  'x, y, z'
loop_
 _atom_site_type_symbol
 _atom_site_label
 _atom_site_symmetry_multiplicity
 _atom_site_fract_x
 _atom_site_fract_y
 _atom_site_fract_z
 _atom_site_occupancy
  Li  Li0  1  0.75079300  0.99755700  0.66716300  1
  Li  Li1  1  0.24952500  0.99867700  0.99965100  1
  Li  Li2  1  0.75047500  0.99867700  0.99965100  1
  Li  Li3  1  0.24897600  0.99810700  0.33307400  1
  Li  Li4  1  0.75102400  0.99810700  0.33307400  1
  Li  Li5  1  0.24920700  0.99755700  0.66716300  1
  Li  Li6  1  0.24925400  0.50240500  0.50092800  1
  Li  Li7  1  0.75074600  0.50240500  0.50092800  1
  Li  Li8  1  0.24955000  0.50151900  0.16675600  1
  Li  Li9  1  0.75045000  0.50151900  0.16675600  1
  Li  Li10  1  0.25015600  0.50257700  0.83285300  1
  Li  Li11  1  0.74984400  0.50257700  0.83285300  1
  Mn  Mn12  1  0.50000000  0.21804300  0.16019200  1
  Mn  Mn13  1  0.50000000  0.21854600  0.49381000  1
  Mn  Mn14  1  0.50000000  0.21809100  0.82669000  1
  Mn  Mn15  1  0.00000000  0.28183400  0.66003700  1
  Fe  Fe16  1  0.00000000  0.28033900  0.99289400  1
  Fe  Fe17  1  0.00000000  0.28187400  0.32576100  1
  Fe  Fe18  1  0.50000000  0.71993400  0.00716500  1
  Fe  Fe19  1  0.50000000  0.72009400  0.34099200  1
  Co  Co20  1  0.50000000  0.72155300  0.67405400  1
  Co  Co21  1  0.00000000  0.77819800  0.83914100  1
  Co  Co22  1  0.00000000  0.78016500  0.50693700  1
  Co  Co23  1  0.00000000  0.77908000  0.17296600  1
  P  P24  1  0.00000000  0.09046500  0.80603400  1
  P  P25  1  0.00000000  0.09242300  0.13837400  1
  P  P26  1  0.00000000  0.09161000  0.47058500  1
  P  P27  1  0.50000000  0.40868900  0.30690900  1
  P  P28  1  0.50000000  0.41067400  0.63918600  1
  P  P29  1  0.50000000  0.40834900  0.97358200  1
  P  P30  1  0.00000000  0.59646200  0.36055000  1
  P  P31  1  0.00000000  0.59567500  0.02733500  1
  P  P32  1  0.00000000  0.59783800  0.69414800  1
  P  P33  1  0.50000000  0.90210500  0.86067900  1
  P  P34  1  0.50000000  0.90256900  0.19419700  1
  P  P35  1  0.50000000  0.90208000  0.52778300  1
  O  O36  1  0.50000000  0.04030400  0.23623600  1
  O  O37  1  0.50000000  0.03932200  0.56989000  1
  O  O38  1  0.50000000  0.03973200  0.90286400  1
  O  O39  1  0.00000000  0.09548600  0.57798000  1
  O  O40  1  0.00000000  0.09603700  0.91358700  1
  O  O41  1  0.00000000  0.09856700  0.24589100  1
  O  O42  1  0.20107000  0.16300500  0.09228800  1
  O  O43  1  0.79893000  0.16300500  0.09228800  1
  O  O44  1  0.20181800  0.16233100  0.42532300  1
  O  O45  1  0.79818200  0.16233100  0.42532300  1
  O  O46  1  0.20190000  0.16080500  0.76084700  1
  O  O47  1  0.79810000  0.16080500  0.76084700  1
  O  O48  1  0.70186500  0.34000100  0.59427900  1
  O  O49  1  0.29813500  0.34000100  0.59427900  1
  O  O50  1  0.70315500  0.33731100  0.26317500  1
  O  O51  1  0.29684500  0.33731100  0.26317500  1
  O  O52  1  0.70314600  0.33718000  0.92997400  1
  O  O53  1  0.29685400  0.33718000  0.92997400  1
  O  O54  1  0.50000000  0.40676800  0.41415800  1
  O  O55  1  0.50000000  0.40623500  0.08123800  1
  O  O56  1  0.50000000  0.40518500  0.74673700  1
  O  O57  1  0.00000000  0.45821000  0.40153700  1
  O  O58  1  0.00000000  0.45788300  0.06876400  1
  O  O59  1  0.00000000  0.46044900  0.73670900  1
  O  O60  1  0.50000000  0.54569500  0.26441400  1
  O  O61  1  0.50000000  0.54524400  0.93129800  1
  O  O62  1  0.50000000  0.54858000  0.59892700  1
  O  O63  1  0.00000000  0.59936500  0.25284200  1
  O  O64  1  0.00000000  0.59811800  0.91965600  1
  O  O65  1  0.00000000  0.59822500  0.58649300  1
  O  O66  1  0.20249700  0.66630300  0.07195600  1
  O  O67  1  0.20235000  0.66629700  0.40557100  1
  O  O68  1  0.20353300  0.66835000  0.73869900  1
  O  O69  1  0.79646700  0.66835000  0.73869900  1
  O  O70  1  0.79750300  0.66630300  0.07195600  1
  O  O71  1  0.79765000  0.66629700  0.40557100  1
  O  O72  1  0.70399100  0.83235100  0.90507500  1
  O  O73  1  0.29600900  0.83235100  0.90507500  1
  O  O74  1  0.70415400  0.83285500  0.23842400  1
  O  O75  1  0.70334700  0.83124500  0.57179800  1
  O  O76  1  0.29584600  0.83285500  0.23842400  1
  O  O77  1  0.29665300  0.83124500  0.57179800  1
  O  O78  1  0.50000000  0.90188800  0.75303700  1
  O  O79  1  0.50000000  0.90192200  0.41986700  1
  O  O80  1  0.50000000  0.90220900  0.08660500  1
  O  O81  1  0.00000000  0.95269400  0.76576400  1
  O  O82  1  0.00000000  0.95415800  0.09935600  1
  O  O83  1  0.00000000  0.95328200  0.43048400  1
