# generated using pymatgen
data_Li3Cr4(PO4)6
_symmetry_space_group_name_H-M   'P 1'
_cell_length_a   6.35883700
_cell_length_b   8.48148001
_cell_length_c   8.75805638
_cell_angle_alpha   91.45866258
_cell_angle_beta   106.87729316
_cell_angle_gamma   105.54277504
_symmetry_Int_Tables_number   1
_chemical_formula_structural   Li3Cr4(PO4)6
_chemical_formula_sum   'Li3 Cr4 P6 O24'
_cell_volume   432.72935942
_cell_formula_units_Z   1
loop_
 _symmetry_equiv_pos_site_id
 _symmetry_equiv_pos_as_xyz
  1  'x, y, z'
loop_
 _atom_site_type_symbol
 _atom_site_label
 _atom_site_symmetry_multiplicity
 _atom_site_fract_x
 _atom_site_fract_y
 _atom_site_fract_z
 _atom_site_occupancy
  Li  Li0  1  0.73911700  0.71312800  0.29476000  1
  Li  Li1  1  0.00000000  0.50000000  0.50000000  1
  Li  Li2  1  0.26088300  0.28687200  0.70524000  1
  Cr  Cr3  1  0.13431300  0.37656900  0.05947900  1
  Cr  Cr4  1  0.63475800  0.05906100  0.38141000  1
  Cr  Cr5  1  0.36524200  0.94093900  0.61859000  1
  Cr  Cr6  1  0.86568700  0.62343100  0.94052100  1
  P  P7  1  0.65015400  0.35498200  0.15099600  1
  P  P8  1  0.24786100  0.71412400  0.28216800  1
  P  P9  1  0.13217700  0.14752500  0.35207700  1
  P  P10  1  0.86782300  0.85247500  0.64792300  1
  P  P11  1  0.75213900  0.28587600  0.71783200  1
  P  P12  1  0.34984600  0.64501800  0.84900400  1
  O  O13  1  0.82518400  0.40413400  0.04903000  1
  O  O14  1  0.41514900  0.35361200  0.02636100  1
  O  O15  1  0.62641800  0.17741200  0.19148600  1
  O  O16  1  0.02578100  0.73638200  0.15903500  1
  O  O17  1  0.46892200  0.83405100  0.26363500  1
  O  O18  1  0.12830700  0.19313000  0.18165200  1
  O  O19  1  0.73011600  0.47913300  0.29589000  1
  O  O20  1  0.90715300  0.01308600  0.34420300  1
  O  O21  1  0.26432100  0.53675700  0.25201800  1
  O  O22  1  0.32847900  0.05903200  0.41205100  1
  O  O23  1  0.82546200  0.70254100  0.53386200  1
  O  O24  1  0.22552000  0.73731000  0.45226600  1
  O  O25  1  0.77448000  0.26269000  0.54773400  1
  O  O26  1  0.17453800  0.29745900  0.46613800  1
  O  O27  1  0.67152100  0.94096800  0.58794900  1
  O  O28  1  0.73567900  0.46324300  0.74798200  1
  O  O29  1  0.09284700  0.98691400  0.65579700  1
  O  O30  1  0.26988400  0.52086700  0.70411000  1
  O  O31  1  0.87169300  0.80687000  0.81834800  1
  O  O32  1  0.53107800  0.16594900  0.73636500  1
  O  O33  1  0.97421900  0.26361800  0.84096500  1
  O  O34  1  0.37358200  0.82258800  0.80851400  1
  O  O35  1  0.58485100  0.64638800  0.97363900  1
  O  O36  1  0.17481600  0.59586600  0.95097000  1
