# generated using pymatgen
data_Li5Fe7O3F13
_symmetry_space_group_name_H-M   'P 1'
_cell_length_a   6.20394600
_cell_length_b   6.21579028
_cell_length_c   10.70332799
_cell_angle_alpha   90.08282925
_cell_angle_beta   106.53988683
_cell_angle_gamma   119.92956172
_symmetry_Int_Tables_number   1
_chemical_formula_structural   Li5Fe7O3F13
_chemical_formula_sum   'Li5 Fe7 O3 F13'
_cell_volume   337.74828228
_cell_formula_units_Z   1
loop_
 _symmetry_equiv_pos_site_id
 _symmetry_equiv_pos_as_xyz
  1  'x, y, z'
loop_
 _atom_site_type_symbol
 _atom_site_label
 _atom_site_symmetry_multiplicity
 _atom_site_fract_x
 _atom_site_fract_y
 _atom_site_fract_z
 _atom_site_occupancy
  Li  Li0  1  0.48133200  0.75097400  0.24966300  1
  Li  Li1  1  0.89349800  0.19195100  0.56717200  1
  Li  Li2  1  0.11039900  0.80728700  0.43742000  1
  Li  Li3  1  0.00530800  0.75686800  0.74598400  1
  Li  Li4  1  0.13096900  0.32024600  0.93611100  1
  Fe  Fe5  1  0.91996000  0.68146200  0.07763900  1
  Fe  Fe6  1  0.49528500  0.00161900  0.00620400  1
  Fe  Fe7  1  0.98500700  0.25242100  0.24733200  1
  Fe  Fe8  1  0.49729400  0.24127200  0.24330200  1
  Fe  Fe9  1  0.48539800  0.49960800  0.50374200  1
  Fe  Fe10  1  0.49208600  0.25762900  0.74308900  1
  Fe  Fe11  1  0.48247500  0.73258800  0.74045100  1
  O  O12  1  0.75092600  0.35467500  0.13019800  1
  O  O13  1  0.29663400  0.90029000  0.13260500  1
  O  O14  1  0.28232400  0.39850300  0.62751200  1
  F  F15  1  0.74557200  0.10990200  0.37279800  1
  F  F16  1  0.75152300  0.87697400  0.12936900  1
  F  F17  1  0.24892000  0.62049300  0.37176800  1
  F  F18  1  0.25261100  0.38058900  0.13297100  1
  F  F19  1  0.23322600  0.13406600  0.36566700  1
  F  F20  1  0.70328100  0.59122200  0.37496300  1
  F  F21  1  0.76000200  0.86568800  0.63101100  1
  F  F22  1  0.76198200  0.63541500  0.86536100  1
  F  F23  1  0.75435200  0.38927400  0.63538300  1
  F  F24  1  0.25762800  0.12013100  0.86381700  1
  F  F25  1  0.25396000  0.88441100  0.63211500  1
  F  F26  1  0.71392400  0.09777700  0.86590300  1
  F  F27  1  0.25412200  0.64666500  0.87044800  1
