# generated using pymatgen
data_Li2Fe3F8
_symmetry_space_group_name_H-M   'P 1'
_cell_length_a   11.51675200
_cell_length_b   6.55461300
_cell_length_c   9.05826567
_cell_angle_alpha   83.65466026
_cell_angle_beta   90.00000000
_cell_angle_gamma   90.00000000
_symmetry_Int_Tables_number   1
_chemical_formula_structural   Li2Fe3F8
_chemical_formula_sum   'Li8 Fe12 F32'
_cell_volume   679.59999921
_cell_formula_units_Z   4
loop_
 _symmetry_equiv_pos_site_id
 _symmetry_equiv_pos_as_xyz
  1  'x, y, z'
loop_
 _atom_site_type_symbol
 _atom_site_label
 _atom_site_symmetry_multiplicity
 _atom_site_fract_x
 _atom_site_fract_y
 _atom_site_fract_z
 _atom_site_occupancy
  Li  Li0  1  0.61784600  0.09936100  0.07331700  1
  Li  Li1  1  0.88215400  0.59936100  0.07331700  1
  Li  Li2  1  0.42836300  0.29754700  0.40111500  1
  Li  Li3  1  0.07163700  0.79754700  0.40111500  1
  Li  Li4  1  0.92836300  0.20245300  0.59888500  1
  Li  Li5  1  0.57163700  0.70245300  0.59888500  1
  Li  Li6  1  0.11784600  0.40063900  0.92668300  1
  Li  Li7  1  0.38215400  0.90063900  0.92668300  1
  Fe  Fe8  1  0.39773100  0.36019900  0.06493000  1
  Fe  Fe9  1  0.10226900  0.86019900  0.06493000  1
  Fe  Fe10  1  0.09678400  0.31648700  0.25965500  1
  Fe  Fe11  1  0.40321600  0.81648700  0.25965500  1
  Fe  Fe12  1  0.70393600  0.35790100  0.36158200  1
  Fe  Fe13  1  0.79606400  0.85790100  0.36158200  1
  Fe  Fe14  1  0.20393600  0.14209900  0.63841800  1
  Fe  Fe15  1  0.29606400  0.64209900  0.63841800  1
  Fe  Fe16  1  0.59678400  0.18351300  0.74034500  1
  Fe  Fe17  1  0.90321600  0.68351300  0.74034500  1
  Fe  Fe18  1  0.89773100  0.13980100  0.93507000  1
  Fe  Fe19  1  0.60226900  0.63980100  0.93507000  1
  F  F20  1  0.58065500  0.38441500  0.09755400  1
  F  F21  1  0.22237600  0.36238900  0.08776200  1
  F  F22  1  0.96003500  0.33468400  0.08922300  1
  F  F23  1  0.91934500  0.88441500  0.09755400  1
  F  F24  1  0.27762400  0.86238900  0.08776200  1
  F  F25  1  0.53996500  0.83468400  0.08922300  1
  F  F26  1  0.71586100  0.08497500  0.23653400  1
  F  F27  1  0.09680400  0.02029800  0.25581800  1
  F  F28  1  0.78413900  0.58497500  0.23653400  1
  F  F29  1  0.40892300  0.11639500  0.25744000  1
  F  F30  1  0.40319600  0.52029800  0.25581800  1
  F  F31  1  0.09107700  0.61639500  0.25744000  1
  F  F32  1  0.81266700  0.14458700  0.47223600  1
  F  F33  1  0.57331400  0.25215700  0.50145700  1
  F  F34  1  0.68733300  0.64458700  0.47223600  1
  F  F35  1  0.92668600  0.75215700  0.50145700  1
  F  F36  1  0.07331400  0.24784300  0.49854300  1
  F  F37  1  0.31266700  0.35541300  0.52776400  1
  F  F38  1  0.42668600  0.74784300  0.49854300  1
  F  F39  1  0.18733300  0.85541300  0.52776400  1
  F  F40  1  0.90892300  0.38360500  0.74256000  1
  F  F41  1  0.59680400  0.47970200  0.74418200  1
  F  F42  1  0.59107700  0.88360500  0.74256000  1
  F  F43  1  0.21586100  0.41502500  0.76346600  1
  F  F44  1  0.90319600  0.97970200  0.74418200  1
  F  F45  1  0.28413900  0.91502500  0.76346600  1
  F  F46  1  0.46003500  0.16531600  0.91077700  1
  F  F47  1  0.72237600  0.13761100  0.91223800  1
  F  F48  1  0.08065500  0.11558500  0.90244600  1
  F  F49  1  0.03996500  0.66531600  0.91077700  1
  F  F50  1  0.77762400  0.63761100  0.91223800  1
  F  F51  1  0.41934500  0.61558500  0.90244600  1
