# generated using pymatgen
data_Li4Ti2Fe3Sn3O16
_symmetry_space_group_name_H-M   'P 1'
_cell_length_a   6.13145600
_cell_length_b   6.14044106
_cell_length_c   9.70996436
_cell_angle_alpha   89.63674775
_cell_angle_beta   89.74025532
_cell_angle_gamma   60.12206912
_symmetry_Int_Tables_number   1
_chemical_formula_structural   Li4Ti2Fe3Sn3O16
_chemical_formula_sum   'Li4 Ti2 Fe3 Sn3 O16'
_cell_volume   316.98233940
_cell_formula_units_Z   1
loop_
 _symmetry_equiv_pos_site_id
 _symmetry_equiv_pos_as_xyz
  1  'x, y, z'
loop_
 _atom_site_type_symbol
 _atom_site_label
 _atom_site_symmetry_multiplicity
 _atom_site_fract_x
 _atom_site_fract_y
 _atom_site_fract_z
 _atom_site_occupancy
  Li  Li0  1  0.34761000  0.32348600  0.10602900  1
  Li  Li1  1  0.97847400  0.01234500  0.01209500  1
  Li  Li2  1  0.98422100  0.00552800  0.49911300  1
  Li  Li3  1  0.66436200  0.66703000  0.60123400  1
  Ti  Ti4  1  0.34859400  0.33122500  0.49867900  1
  Ti  Ti5  1  0.69953800  0.65560900  0.02244100  1
  Fe  Fe6  1  0.65482300  0.17378200  0.78244700  1
  Fe  Fe7  1  0.83237700  0.34218900  0.28435100  1
  Fe  Fe8  1  0.83237900  0.82829700  0.28994100  1
  Sn  Sn9  1  0.16676600  0.17067400  0.78701700  1
  Sn  Sn10  1  0.16825700  0.66205600  0.78650200  1
  Sn  Sn11  1  0.34416200  0.82960000  0.28607000  1
  O  O12  1  0.17094300  0.17006600  0.40665100  1
  O  O13  1  0.03031800  0.48662600  0.65925800  1
  O  O14  1  0.34071500  0.32906900  0.90065700  1
  O  O15  1  0.98687100  0.00661900  0.68583100  1
  O  O16  1  0.99721900  0.00707400  0.19763100  1
  O  O17  1  0.18439500  0.65567300  0.41224400  1
  O  O18  1  0.47867100  0.04407500  0.65658000  1
  O  O19  1  0.47904400  0.47747600  0.65603400  1
  O  O20  1  0.31658700  0.83916200  0.90479400  1
  O  O21  1  0.65036300  0.18662600  0.40951300  1
  O  O22  1  0.52916400  0.51426900  0.15456400  1
  O  O23  1  0.51799000  0.95238300  0.14323600  1
  O  O24  1  0.67588400  0.65536600  0.39640100  1
  O  O25  1  0.82587600  0.33571300  0.90312400  1
  O  O26  1  0.96521500  0.50415700  0.14348200  1
  O  O27  1  0.82918200  0.83352700  0.90624200  1
