# generated using pymatgen
data_Li6MgNi7O16
_symmetry_space_group_name_H-M   'P 1'
_cell_length_a   4.91354800
_cell_length_b   5.08087421
_cell_length_c   11.22529532
_cell_angle_alpha   80.27955512
_cell_angle_beta   85.51839841
_cell_angle_gamma   79.64758885
_symmetry_Int_Tables_number   1
_chemical_formula_structural   Li6MgNi7O16
_chemical_formula_sum   'Li6 Mg1 Ni7 O16'
_cell_volume   271.39061035
_cell_formula_units_Z   1
loop_
 _symmetry_equiv_pos_site_id
 _symmetry_equiv_pos_as_xyz
  1  'x, y, z'
loop_
 _atom_site_type_symbol
 _atom_site_label
 _atom_site_symmetry_multiplicity
 _atom_site_fract_x
 _atom_site_fract_y
 _atom_site_fract_z
 _atom_site_occupancy
  Li  Li0  1  0.25201900  0.07695000  0.92948000  1
  Li  Li1  1  0.74798100  0.92305000  0.07052000  1
  Li  Li2  1  0.26063300  0.81742400  0.19470800  1
  Li  Li3  1  0.25346300  0.55986700  0.44012400  1
  Li  Li4  1  0.74653700  0.44013300  0.55987600  1
  Li  Li5  1  0.73936700  0.18257600  0.80529200  1
  Mg  Mg6  1  0.50000000  0.50000000  0.00000000  1
  Ni  Ni7  1  0.99345000  0.62249000  0.87603200  1
  Ni  Ni8  1  0.00655000  0.37751000  0.12396800  1
  Ni  Ni9  1  0.50910000  0.25631300  0.24858700  1
  Ni  Ni10  1  0.00083000  0.13313000  0.37537700  1
  Ni  Ni11  1  0.50000000  0.00000000  0.50000000  1
  Ni  Ni12  1  0.99917000  0.86687000  0.62462300  1
  Ni  Ni13  1  0.49090000  0.74368700  0.75141300  1
  O  O14  1  0.89296600  0.30713600  0.97484700  1
  O  O15  1  0.64279800  0.83524800  0.90418800  1
  O  O16  1  0.64393800  0.56096400  0.15656400  1
  O  O17  1  0.35720200  0.16475200  0.09581200  1
  O  O18  1  0.10703400  0.69286400  0.02515300  1
  O  O19  1  0.88265200  0.07680900  0.22153500  1
  O  O20  1  0.15042500  0.45702100  0.26315400  1
  O  O21  1  0.63528500  0.30394300  0.41533900  1
  O  O22  1  0.37029000  0.95103600  0.35041500  1
  O  O23  1  0.86188700  0.79813900  0.48318100  1
  O  O24  1  0.13811300  0.20186100  0.51681900  1
  O  O25  1  0.84957500  0.54297900  0.73684600  1
  O  O26  1  0.62971000  0.04896400  0.64958500  1
  O  O27  1  0.36471500  0.69605700  0.58466100  1
  O  O28  1  0.35606200  0.43903600  0.84343600  1
  O  O29  1  0.11734800  0.92319100  0.77846500  1
