# generated using pymatgen
data_LiFe4(BO3)4
_symmetry_space_group_name_H-M   'P 1'
_cell_length_a   5.31194300
_cell_length_b   9.04522182
_cell_length_c   11.42008526
_cell_angle_alpha   113.20985303
_cell_angle_beta   103.31579859
_cell_angle_gamma   89.83212629
_symmetry_Int_Tables_number   1
_chemical_formula_structural   LiFe4(BO3)4
_chemical_formula_sum   'Li2 Fe8 B8 O24'
_cell_volume   488.37003374
_cell_formula_units_Z   2
loop_
 _symmetry_equiv_pos_site_id
 _symmetry_equiv_pos_as_xyz
  1  'x, y, z'
loop_
 _atom_site_type_symbol
 _atom_site_label
 _atom_site_symmetry_multiplicity
 _atom_site_fract_x
 _atom_site_fract_y
 _atom_site_fract_z
 _atom_site_occupancy
  Li  Li0  1  0.81532800  0.17438900  0.33606500  1
  Li  Li1  1  0.06613700  0.41581100  0.84214100  1
  Fe  Fe2  1  0.59414500  0.60127000  0.87328000  1
  Fe  Fe3  1  0.90791900  0.88853300  0.12108600  1
  Fe  Fe4  1  0.16474800  0.48275500  0.62373600  1
  Fe  Fe5  1  0.34578100  0.02267300  0.37496200  1
  Fe  Fe6  1  0.64782500  0.97609100  0.62226200  1
  Fe  Fe7  1  0.84964700  0.52853200  0.37092100  1
  Fe  Fe8  1  0.09599100  0.09390300  0.87192200  1
  Fe  Fe9  1  0.40043800  0.39635300  0.12102600  1
  B  B10  1  0.36050500  0.35452400  0.36964700  1
  B  B11  1  0.09702000  0.76678800  0.87247100  1
  B  B12  1  0.85022400  0.85956300  0.37391100  1
  B  B13  1  0.60912700  0.26418500  0.87144900  1
  B  B14  1  0.15182700  0.14595400  0.63250900  1
  B  B15  1  0.39514800  0.72857100  0.11996300  1
  B  B16  1  0.64983200  0.63996600  0.61831900  1
  B  B17  1  0.90325600  0.23364900  0.12644300  1
  O  O18  1  0.89303000  0.77837200  0.93043500  1
  O  O19  1  0.53199900  0.53891300  0.66004100  1
  O  O20  1  0.83028400  0.10629300  0.14860700  1
  O  O21  1  0.48306300  0.22617700  0.37331900  1
  O  O22  1  0.12592300  0.38873700  0.41253800  1
  O  O23  1  0.18536500  0.61222200  0.81858700  1
  O  O24  1  0.72573400  0.39576400  0.87072800  1
  O  O25  1  0.93897100  0.96315700  0.32423700  1
  O  O26  1  0.27631100  0.86823300  0.16930300  1
  O  O27  1  0.36056400  0.09383500  0.58058600  1
  O  O28  1  0.06657100  0.29319900  0.64443400  1
  O  O29  1  0.61685300  0.73328800  0.07763700  1
  O  O30  1  0.37444500  0.27300500  0.91452500  1
  O  O31  1  0.64998500  0.90599300  0.43548000  1
  O  O32  1  0.71274900  0.11479800  0.83038100  1
  O  O33  1  0.02860000  0.04885600  0.67710000  1
  O  O34  1  0.28769900  0.58348800  0.10755300  1
  O  O35  1  0.78043500  0.37680200  0.16786500  1
  O  O36  1  0.86565300  0.58702500  0.56451000  1
  O  O37  1  0.55792600  0.78138200  0.62766900  1
  O  O38  1  0.95491600  0.71747100  0.36119100  1
  O  O39  1  0.20916500  0.89719000  0.86588300  1
  O  O40  1  0.46019500  0.45972100  0.32270400  1
  O  O41  1  0.11017300  0.23041100  0.06825400  1
