# generated using pymatgen
data_Li6MnV3(PO4)6
_symmetry_space_group_name_H-M   'P 1'
_cell_length_a   8.62738100
_cell_length_b   8.63046495
_cell_length_c   12.73574935
_cell_angle_alpha   105.93532439
_cell_angle_beta   105.99766802
_cell_angle_gamma   94.42999750
_symmetry_Int_Tables_number   1
_chemical_formula_structural   Li6MnV3(PO4)6
_chemical_formula_sum   'Li12 Mn2 V6 P12 O48'
_cell_volume   864.45262748
_cell_formula_units_Z   2
loop_
 _symmetry_equiv_pos_site_id
 _symmetry_equiv_pos_as_xyz
  1  'x, y, z'
loop_
 _atom_site_type_symbol
 _atom_site_label
 _atom_site_symmetry_multiplicity
 _atom_site_fract_x
 _atom_site_fract_y
 _atom_site_fract_z
 _atom_site_occupancy
  Li  Li0  1  0.99437500  0.00180500  0.87429200  1
  Li  Li1  1  0.99511400  0.00664700  0.37627200  1
  Li  Li2  1  0.71176900  0.28751300  0.62575100  1
  Li  Li3  1  0.50074000  0.50006500  0.74937500  1
  Li  Li4  1  0.71165300  0.28776700  0.12481200  1
  Li  Li5  1  0.50045800  0.50083500  0.50042100  1
  Li  Li6  1  0.28526600  0.71058400  0.87378000  1
  Li  Li7  1  0.49973200  0.49967100  0.25068200  1
  Li  Li8  1  0.49949900  0.49850900  0.99903000  1
  Li  Li9  1  0.28956500  0.71251500  0.37656000  1
  Li  Li10  1  0.00375100  0.99247600  0.62632200  1
  Li  Li11  1  0.00493000  0.99698300  0.12418900  1
  Mn  Mn12  1  0.94255200  0.62465300  0.93363800  1
  Mn  Mn13  1  0.62530100  0.94279100  0.68384200  1
  V  V14  1  0.37733900  0.05826300  0.81888300  1
  V  V15  1  0.37917300  0.05746100  0.32114100  1
  V  V16  1  0.05802000  0.37885500  0.57082900  1
  V  V17  1  0.05805400  0.37698000  0.06948400  1
  V  V18  1  0.94373300  0.61917600  0.43037900  1
  V  V19  1  0.61930100  0.94333500  0.18008200  1
  P  P20  1  0.71403900  0.28621000  0.87501500  1
  P  P21  1  0.33527500  0.13909800  0.56778400  1
  P  P22  1  0.13932000  0.33549800  0.81821000  1
  P  P23  1  0.71369900  0.28654500  0.37508500  1
  P  P24  1  0.33901600  0.13721100  0.06828300  1
  P  P25  1  0.13713500  0.33851400  0.31791100  1
  P  P26  1  0.86712400  0.66044600  0.68369400  1
  P  P27  1  0.66065600  0.86734800  0.93203500  1
  P  P28  1  0.28808700  0.71606600  0.62545900  1
  P  P29  1  0.86183100  0.66091900  0.18119300  1
  P  P30  1  0.66107500  0.86193100  0.43299100  1
  P  P31  1  0.28496200  0.71255300  0.12501200  1
  O  O32  1  0.33911400  0.01270900  0.95404200  1
  O  O33  1  0.38628700  0.05436900  0.66312900  1
  O  O34  1  0.82752500  0.25651200  0.98287600  1
  O  O35  1  0.33958400  0.01201100  0.45506600  1
  O  O36  1  0.73714400  0.17061000  0.76355100  1
  O  O37  1  0.15904000  0.15112400  0.79898200  1
  O  O38  1  0.53836200  0.26576600  0.88456700  1
  O  O39  1  0.15048900  0.15968900  0.54781300  1
  O  O40  1  0.39870600  0.04927100  0.16295900  1
  O  O41  1  0.82782300  0.25991600  0.48407300  1
  O  O42  1  0.74071400  0.17175500  0.26664200  1
  O  O43  1  0.15715100  0.15498700  0.30306000  1
  O  O44  1  0.45429800  0.29626600  0.60129600  1
  O  O45  1  0.05435100  0.38615200  0.91338600  1
  O  O46  1  0.01298600  0.33925400  0.70477200  1
  O  O47  1  0.74015700  0.46154900  0.86446600  1
  O  O48  1  0.53747000  0.26361600  0.38354400  1
  O  O49  1  0.29653500  0.45479900  0.85177700  1
  O  O50  1  0.15561700  0.15660800  0.05451700  1
  O  O51  1  0.45616200  0.29589900  0.10245800  1
  O  O52  1  0.04955200  0.39813200  0.41268800  1
  O  O53  1  0.70601400  0.54659400  0.64889900  1
  O  O54  1  0.01115100  0.33971800  0.20422300  1
  O  O55  1  0.73700000  0.46242800  0.36569600  1
  O  O56  1  0.26553400  0.53912700  0.63293300  1
  O  O57  1  0.99003000  0.65835800  0.79923400  1
  O  O58  1  0.29550400  0.45574900  0.35184600  1
  O  O59  1  0.95288100  0.59708300  0.58795300  1
  O  O60  1  0.54783800  0.70602700  0.89841500  1
  O  O61  1  0.84476400  0.85683700  0.94634100  1
  O  O62  1  0.70338200  0.54407200  0.14723900  1
  O  O63  1  0.46398000  0.74080500  0.61536800  1
  O  O64  1  0.26388400  0.53745000  0.13513000  1
  O  O65  1  0.98717300  0.66039300  0.29530800  1
  O  O66  1  0.95048400  0.59915600  0.08624100  1
  O  O67  1  0.54313100  0.70377200  0.39796200  1
  O  O68  1  0.85532100  0.84427400  0.69741900  1
  O  O69  1  0.25890700  0.82741300  0.73416900  1
  O  O70  1  0.17171300  0.74239800  0.51670500  1
  O  O71  1  0.59530500  0.95306100  0.83576700  1
  O  O72  1  0.84409300  0.84104300  0.44586500  1
  O  O73  1  0.46085000  0.73722200  0.11594700  1
  O  O74  1  0.84210100  0.84394600  0.19436200  1
  O  O75  1  0.25683400  0.82845200  0.23264800  1
  O  O76  1  0.66296900  0.98696300  0.54843700  1
  O  O77  1  0.17086400  0.73666000  0.01362600  1
  O  O78  1  0.60124200  0.95038700  0.33841700  1
  O  O79  1  0.65543400  0.99039200  0.04575000  1
