# generated using pymatgen
data_Li2CrSiO5
_symmetry_space_group_name_H-M   'P 1'
_cell_length_a   13.11334387
_cell_length_b   5.03768500
_cell_length_c   12.48266531
_cell_angle_alpha   90.00000000
_cell_angle_beta   61.21846428
_cell_angle_gamma   90.00000000
_symmetry_Int_Tables_number   1
_chemical_formula_structural   Li2CrSiO5
_chemical_formula_sum   'Li16 Cr8 Si8 O40'
_cell_volume   722.74453923
_cell_formula_units_Z   8
loop_
 _symmetry_equiv_pos_site_id
 _symmetry_equiv_pos_as_xyz
  1  'x, y, z'
loop_
 _atom_site_type_symbol
 _atom_site_label
 _atom_site_symmetry_multiplicity
 _atom_site_fract_x
 _atom_site_fract_y
 _atom_site_fract_z
 _atom_site_occupancy
  Li  Li0  1  0.32047700  0.76113600  0.82396700  1
  Li  Li1  1  0.09221000  0.77803300  0.56310400  1
  Li  Li2  1  0.18332300  0.21220700  0.64161300  1
  Li  Li3  1  0.59166500  0.72524600  0.84539600  1
  Li  Li4  1  0.40833500  0.22524600  0.65460400  1
  Li  Li5  1  0.81667700  0.71220700  0.85838700  1
  Li  Li6  1  0.32047700  0.73886400  0.32396700  1
  Li  Li7  1  0.09221000  0.72196700  0.06310400  1
  Li  Li8  1  0.90779000  0.27803300  0.93689600  1
  Li  Li9  1  0.67952300  0.26113600  0.67603300  1
  Li  Li10  1  0.18332300  0.28779300  0.14161300  1
  Li  Li11  1  0.59166500  0.77475400  0.34539600  1
  Li  Li12  1  0.40833500  0.27475400  0.15460400  1
  Li  Li13  1  0.81667700  0.78779300  0.35838700  1
  Li  Li14  1  0.90779000  0.22196700  0.43689600  1
  Li  Li15  1  0.67952300  0.23886400  0.17603300  1
  Cr  Cr16  1  0.06075900  0.72927700  0.80632600  1
  Cr  Cr17  1  0.43749900  0.26986300  0.86779900  1
  Cr  Cr18  1  0.06075900  0.77072300  0.30632600  1
  Cr  Cr19  1  0.56250100  0.76986300  0.63220100  1
  Cr  Cr20  1  0.43749900  0.23013700  0.36779900  1
  Cr  Cr21  1  0.93924100  0.22927700  0.69367400  1
  Cr  Cr22  1  0.56250100  0.73013700  0.13220100  1
  Cr  Cr23  1  0.93924100  0.27072300  0.19367400  1
  Si  Si24  1  0.16007900  0.21201800  0.90468100  1
  Si  Si25  1  0.66231100  0.22025000  0.93203700  1
  Si  Si26  1  0.16007900  0.28798200  0.40468100  1
  Si  Si27  1  0.33768900  0.72025000  0.56796300  1
  Si  Si28  1  0.66231100  0.27975000  0.43203700  1
  Si  Si29  1  0.83992100  0.71201800  0.59531900  1
  Si  Si30  1  0.33768900  0.77975000  0.06796300  1
  Si  Si31  1  0.83992100  0.78798200  0.09531900  1
  O  O32  1  0.99495400  0.04641200  0.79257900  1
  O  O33  1  0.13231200  0.89136100  0.90271700  1
  O  O34  1  0.12425000  0.38223600  0.81508400  1
  O  O35  1  0.38180100  0.61885300  0.93859600  1
  O  O36  1  0.30111300  0.23258200  0.84197400  1
  O  O37  1  0.09551900  0.16466700  0.54348300  1
  O  O38  1  0.20022000  0.80505100  0.64644500  1
  O  O39  1  0.64468600  0.89686500  0.96029100  1
  O  O40  1  0.50028000  0.95301300  0.78896400  1
  O  O41  1  0.99495400  0.45358800  0.29257900  1
  O  O42  1  0.59404800  0.32754000  0.85992700  1
  O  O43  1  0.13231200  0.60863900  0.40271700  1
  O  O44  1  0.40595200  0.82754000  0.64007300  1
  O  O45  1  0.12425000  0.11776400  0.31508400  1
  O  O46  1  0.49972000  0.45301300  0.71103600  1
  O  O47  1  0.35531400  0.39686500  0.53970900  1
  O  O48  1  0.38180100  0.88114700  0.43859600  1
  O  O49  1  0.30111300  0.26741800  0.34197400  1
  O  O50  1  0.79978000  0.30505100  0.85355500  1
  O  O51  1  0.90448100  0.66466700  0.95651700  1
  O  O52  1  0.09551900  0.33533300  0.04348300  1
  O  O53  1  0.20022000  0.69494900  0.14644500  1
  O  O54  1  0.69888700  0.73258200  0.65802600  1
  O  O55  1  0.61819900  0.11885300  0.56140400  1
  O  O56  1  0.64468600  0.60313500  0.46029100  1
  O  O57  1  0.50028000  0.54698700  0.28896400  1
  O  O58  1  0.87575000  0.88223600  0.68491600  1
  O  O59  1  0.59404800  0.17246000  0.35992700  1
  O  O60  1  0.86768800  0.39136100  0.59728300  1
  O  O61  1  0.40595200  0.67246000  0.14007300  1
  O  O62  1  0.00504600  0.54641200  0.70742100  1
  O  O63  1  0.49972000  0.04698700  0.21103600  1
  O  O64  1  0.35531400  0.10313500  0.03970900  1
  O  O65  1  0.79978000  0.19494900  0.35355500  1
  O  O66  1  0.90448100  0.83533300  0.45651700  1
  O  O67  1  0.69888700  0.76741800  0.15802600  1
  O  O68  1  0.61819900  0.38114700  0.06140400  1
  O  O69  1  0.87575000  0.61776400  0.18491600  1
  O  O70  1  0.86768800  0.10863900  0.09728300  1
  O  O71  1  0.00504600  0.95358800  0.20742100  1
