# generated using pymatgen
data_Li2VCrP2(HO5)2
_symmetry_space_group_name_H-M   'P 1'
_cell_length_a   5.41342300
_cell_length_b   7.36308284
_cell_length_c   14.31623028
_cell_angle_alpha   93.55210341
_cell_angle_beta   94.84129113
_cell_angle_gamma   106.32025139
_symmetry_Int_Tables_number   1
_chemical_formula_structural   Li2VCrP2(HO5)2
_chemical_formula_sum   'Li6 V3 Cr3 P6 H6 O30'
_cell_volume   543.49614050
_cell_formula_units_Z   3
loop_
 _symmetry_equiv_pos_site_id
 _symmetry_equiv_pos_as_xyz
  1  'x, y, z'
loop_
 _atom_site_type_symbol
 _atom_site_label
 _atom_site_symmetry_multiplicity
 _atom_site_fract_x
 _atom_site_fract_y
 _atom_site_fract_z
 _atom_site_occupancy
  Li  Li0  1  0.68473700  0.25971000  0.08200700  1
  Li  Li1  1  0.64878000  0.07361400  0.25114900  1
  Li  Li2  1  0.35122000  0.92638600  0.74885100  1
  Li  Li3  1  0.31526300  0.74029000  0.91799300  1
  Li  Li4  1  0.01798500  0.59256500  0.41558400  1
  Li  Li5  1  0.98201500  0.40743500  0.58441600  1
  V  V6  1  0.83312800  0.83316300  0.83338900  1
  V  V7  1  0.50000000  0.00000000  0.50000000  1
  V  V8  1  0.16687200  0.16683700  0.16661100  1
  Cr  Cr9  1  0.83374400  0.33346000  0.83327700  1
  Cr  Cr10  1  0.50000000  0.50000000  0.50000000  1
  Cr  Cr11  1  0.16625600  0.66654000  0.16672300  1
  P  P12  1  0.63544500  0.50792800  0.27449800  1
  P  P13  1  0.69696800  0.82523200  0.05970700  1
  P  P14  1  0.30303200  0.17476800  0.94029300  1
  P  P15  1  0.36455500  0.49207200  0.72550200  1
  P  P16  1  0.96786500  0.83936500  0.60748900  1
  P  P17  1  0.03213500  0.16063500  0.39251100  1
  H  H18  1  0.77197400  0.05399400  0.71325400  1
  H  H19  1  0.56215900  0.28279800  0.61998300  1
  H  H20  1  0.22802600  0.94600600  0.28674600  1
  H  H21  1  0.43784100  0.71720200  0.38001700  1
  H  H22  1  0.10474200  0.38718500  0.04647400  1
  H  H23  1  0.89525800  0.61281500  0.95352600  1
  O  O24  1  0.70248400  0.88310200  0.95753900  1
  O  O25  1  0.78863000  0.00899800  0.12950400  1
  O  O26  1  0.79671300  0.97264500  0.59163200  1
  O  O27  1  0.74253900  0.05649900  0.39891000  1
  O  O28  1  0.73255500  0.05678700  0.77967000  1
  O  O29  1  0.59257200  0.27723700  0.93468200  1
  O  O30  1  0.54470100  0.32429400  0.20445800  1
  O  O31  1  0.62836800  0.44928700  0.37672000  1
  O  O32  1  0.60330300  0.28049900  0.55385500  1
  O  O33  1  0.21137000  0.99100200  0.87049600  1
  O  O34  1  0.29751600  0.11689800  0.04246100  1
  O  O35  1  0.26744500  0.94321300  0.22033000  1
  O  O36  1  0.53879800  0.36056600  0.74232200  1
  O  O37  1  0.46120200  0.63943400  0.25767800  1
  O  O38  1  0.25746100  0.94350100  0.60109000  1
  O  O39  1  0.40742800  0.72276300  0.06531800  1
  O  O40  1  0.20328700  0.02735500  0.40836800  1
  O  O41  1  0.12808700  0.30607100  0.92418000  1
  O  O42  1  0.39669700  0.71950100  0.44614500  1
  O  O43  1  0.37163200  0.55071300  0.62328000  1
  O  O44  1  0.45529900  0.67570600  0.79554200  1
  O  O45  1  0.06593100  0.39006900  0.11293100  1
  O  O46  1  0.03610400  0.21788500  0.29041400  1
  O  O47  1  0.12337900  0.34313100  0.46279100  1
  O  O48  1  0.07499000  0.38994100  0.73135300  1
  O  O49  1  0.93406900  0.60993100  0.88706900  1
  O  O50  1  0.92501000  0.61005900  0.26864700  1
  O  O51  1  0.87191300  0.69392900  0.07582000  1
  O  O52  1  0.87662100  0.65686900  0.53720900  1
  O  O53  1  0.96389600  0.78211500  0.70958600  1
