# generated using pymatgen
data_LiMnOF2
_symmetry_space_group_name_H-M   'P 1'
_cell_length_a   5.62763300
_cell_length_b   9.00381900
_cell_length_c   10.00059900
_cell_angle_alpha   90.00000000
_cell_angle_beta   90.00000000
_cell_angle_gamma   90.00000000
_symmetry_Int_Tables_number   1
_chemical_formula_structural   LiMnOF2
_chemical_formula_sum   'Li8 Mn8 O8 F16'
_cell_volume   506.73224075
_cell_formula_units_Z   8
loop_
 _symmetry_equiv_pos_site_id
 _symmetry_equiv_pos_as_xyz
  1  'x, y, z'
loop_
 _atom_site_type_symbol
 _atom_site_label
 _atom_site_symmetry_multiplicity
 _atom_site_fract_x
 _atom_site_fract_y
 _atom_site_fract_z
 _atom_site_occupancy
  Li  Li0  1  0.44754200  0.33774100  0.54799100  1
  Li  Li1  1  0.94754200  0.16225900  0.54799100  1
  Li  Li2  1  0.94754200  0.66225900  0.45200900  1
  Li  Li3  1  0.44754200  0.83774100  0.45200900  1
  Li  Li4  1  0.52963600  0.68244900  0.06067300  1
  Li  Li5  1  0.02963600  0.81755100  0.06067300  1
  Li  Li6  1  0.02963600  0.31755100  0.93932700  1
  Li  Li7  1  0.52963600  0.18244900  0.93932700  1
  Mn  Mn8  1  0.75455100  0.49671200  0.73737300  1
  Mn  Mn9  1  0.24949300  0.65973600  0.73540100  1
  Mn  Mn10  1  0.74949300  0.84026400  0.73540100  1
  Mn  Mn11  1  0.25455100  0.00328800  0.73737300  1
  Mn  Mn12  1  0.24949300  0.15973600  0.26459900  1
  Mn  Mn13  1  0.75455100  0.99671200  0.26262700  1
  Mn  Mn14  1  0.25455100  0.50328800  0.26262700  1
  Mn  Mn15  1  0.74949300  0.34026400  0.26459900  1
  O  O16  1  0.89968600  0.67169500  0.65506600  1
  O  O17  1  0.39968600  0.82830500  0.65506600  1
  O  O18  1  0.45331400  0.52033500  0.66361400  1
  O  O19  1  0.95331400  0.97966500  0.66361400  1
  O  O20  1  0.95331400  0.47966500  0.33638600  1
  O  O21  1  0.45331400  0.02033500  0.33638600  1
  O  O22  1  0.89968600  0.17169500  0.34493400  1
  O  O23  1  0.39968600  0.32830500  0.34493400  1
  F  F24  1  0.27608100  0.17464400  0.60172000  1
  F  F25  1  0.77608100  0.32535600  0.60172000  1
  F  F26  1  0.77608100  0.82535600  0.39828000  1
  F  F27  1  0.27608100  0.67464400  0.39828000  1
  F  F28  1  0.10928100  0.30930200  0.12545800  1
  F  F29  1  0.60928100  0.19069800  0.12545800  1
  F  F30  1  0.57933100  0.50589500  0.16991300  1
  F  F31  1  0.07933100  0.99410500  0.16991300  1
  F  F32  1  0.70108500  0.84657200  0.11959900  1
  F  F33  1  0.20108500  0.65342800  0.11959900  1
  F  F34  1  0.70108500  0.34657200  0.88040100  1
  F  F35  1  0.20108500  0.15342800  0.88040100  1
  F  F36  1  0.07933100  0.49410500  0.83008700  1
  F  F37  1  0.57933100  0.00589500  0.83008700  1
  F  F38  1  0.60928100  0.69069800  0.87454200  1
  F  F39  1  0.10928100  0.80930200  0.87454200  1
