# generated using pymatgen
data_LiMnF3
_symmetry_space_group_name_H-M   'P 1'
_cell_length_a   7.13011900
_cell_length_b   7.27453905
_cell_length_c   7.96669627
_cell_angle_alpha   95.14485351
_cell_angle_beta   103.13989847
_cell_angle_gamma   89.95698015
_symmetry_Int_Tables_number   1
_chemical_formula_structural   LiMnF3
_chemical_formula_sum   'Li6 Mn6 F18'
_cell_volume   400.69694128
_cell_formula_units_Z   6
loop_
 _symmetry_equiv_pos_site_id
 _symmetry_equiv_pos_as_xyz
  1  'x, y, z'
loop_
 _atom_site_type_symbol
 _atom_site_label
 _atom_site_symmetry_multiplicity
 _atom_site_fract_x
 _atom_site_fract_y
 _atom_site_fract_z
 _atom_site_occupancy
  Li  Li0  1  0.26279300  0.45176600  0.08322200  1
  Li  Li1  1  0.58843100  0.23788300  0.32490200  1
  Li  Li2  1  0.07371500  0.24545800  0.33024100  1
  Li  Li3  1  0.92628500  0.75454200  0.66975900  1
  Li  Li4  1  0.41156900  0.76211700  0.67509800  1
  Li  Li5  1  0.73720700  0.54823400  0.91677800  1
  Mn  Mn6  1  0.76209400  0.04132400  0.04120100  1
  Mn  Mn7  1  0.23790600  0.95867600  0.95879900  1
  Mn  Mn8  1  0.56406000  0.73780700  0.26736600  1
  Mn  Mn9  1  0.07791300  0.74880100  0.28908100  1
  Mn  Mn10  1  0.92208700  0.25119900  0.71091900  1
  Mn  Mn11  1  0.43594000  0.26219300  0.73263400  1
  F  F12  1  0.77710000  0.74960000  0.08865100  1
  F  F13  1  0.26648900  0.70835500  0.07788000  1
  F  F14  1  0.49926300  0.00773800  0.17104500  1
  F  F15  1  0.51268500  0.45541300  0.22648200  1
  F  F16  1  0.82176400  0.18842000  0.28444400  1
  F  F17  1  0.09834100  0.46698500  0.23898800  1
  F  F18  1  0.09024500  0.00997500  0.17761900  1
  F  F19  1  0.84862100  0.76359900  0.42848900  1
  F  F20  1  0.37181500  0.78134000  0.43564300  1
  F  F21  1  0.62818500  0.21866000  0.56435700  1
  F  F22  1  0.15137900  0.23640100  0.57151100  1
  F  F23  1  0.90975500  0.99002500  0.82238100  1
  F  F24  1  0.90165900  0.53301500  0.76101200  1
  F  F25  1  0.17823600  0.81158000  0.71555600  1
  F  F26  1  0.48731500  0.54458700  0.77351800  1
  F  F27  1  0.50073700  0.99226200  0.82895500  1
  F  F28  1  0.73351100  0.29164500  0.92212000  1
  F  F29  1  0.22290000  0.25040000  0.91134900  1
