# generated using pymatgen
data_Na7Li4Yb5C12O37
_symmetry_space_group_name_H-M   'P 1'
_cell_length_a   10.29251397
_cell_length_b   10.29251397
_cell_length_c   10.34674487
_cell_angle_alpha   60.79252473
_cell_angle_beta   60.79252473
_cell_angle_gamma   59.34037948
_symmetry_Int_Tables_number   1
_chemical_formula_structural   Na7Li4Yb5C12O37
_chemical_formula_sum   'Na7 Li4 Yb5 C12 O37'
_cell_volume   780.13554530
_cell_formula_units_Z   1
loop_
 _symmetry_equiv_pos_site_id
 _symmetry_equiv_pos_as_xyz
  1  'x, y, z'
loop_
 _atom_site_type_symbol
 _atom_site_label
 _atom_site_symmetry_multiplicity
 _atom_site_fract_x
 _atom_site_fract_y
 _atom_site_fract_z
 _atom_site_occupancy
  Na  Na0  1  0.88312800  0.36309200  0.88125900  1
  Na  Na1  1  0.36309200  0.88312800  0.88125900  1
  Na  Na2  1  0.36520700  0.36520700  0.89195700  1
  Na  Na3  1  0.88764700  0.88764700  0.36321300  1
  Na  Na4  1  0.11908300  0.11908300  0.62639900  1
  Na  Na5  1  0.12408000  0.62886600  0.12294700  1
  Na  Na6  1  0.62886600  0.12408000  0.12294700  1
  Li  Li7  1  0.99939500  0.99939500  0.99881400  1
  Li  Li8  1  0.00366100  0.49962700  0.99775600  1
  Li  Li9  1  0.49962700  0.00366100  0.99775600  1
  Li  Li10  1  0.37114300  0.37114300  0.35658600  1
  Yb  Yb11  1  0.63765200  0.12177600  0.61453000  1
  Yb  Yb12  1  0.12177600  0.63765200  0.61453000  1
  Yb  Yb13  1  0.88222700  0.36627200  0.36793800  1
  Yb  Yb14  1  0.36627200  0.88222700  0.36793800  1
  Yb  Yb15  1  0.62155400  0.62155400  0.12759000  1
  C  C16  1  0.77464800  0.77464800  0.78625200  1
  C  C17  1  0.48271400  0.48271400  0.06463500  1
  C  C18  1  0.76912600  0.17241500  0.77293200  1
  C  C19  1  0.48305500  0.05951500  0.48400400  1
  C  C20  1  0.17241500  0.76912600  0.77293200  1
  C  C21  1  0.21087500  0.21087500  0.86738600  1
  C  C22  1  0.47166700  0.47166700  0.47788200  1
  C  C23  1  0.77281400  0.77281400  0.16254700  1
  C  C24  1  0.86484500  0.21511900  0.21286600  1
  C  C25  1  0.21511900  0.86484500  0.21286600  1
  C  C26  1  0.05951500  0.48305500  0.48400400  1
  C  C27  1  0.20985800  0.20985800  0.21315600  1
  O  O28  1  0.63027700  0.85047500  0.85956100  1
  O  O29  1  0.85047500  0.63027700  0.85956100  1
  O  O30  1  0.84302700  0.84302700  0.64133900  1
  O  O31  1  0.84549400  0.16181600  0.84712900  1
  O  O32  1  0.16181600  0.84549400  0.84712900  1
  O  O33  1  0.63136700  0.15425200  0.84425200  1
  O  O34  1  0.15425200  0.63136700  0.84425200  1
  O  O35  1  0.82611800  0.20047100  0.62240200  1
  O  O36  1  0.20047100  0.82611800  0.62240200  1
  O  O37  1  0.13806600  0.35628000  0.86670300  1
  O  O38  1  0.35628000  0.13806600  0.86670300  1
  O  O39  1  0.63340700  0.63340700  0.46687500  1
  O  O40  1  0.84663000  0.84663000  0.15400900  1
  O  O41  1  0.13891400  0.13891400  0.86826600  1
  O  O42  1  0.40111900  0.40111900  0.61750300  1
  O  O43  1  0.84197400  0.62352500  0.16611800  1
  O  O44  1  0.62352500  0.84197400  0.16611800  1
  O  O45  1  0.39625600  0.61501000  0.40298200  1
  O  O46  1  0.61501000  0.39625600  0.40298200  1
  O  O47  1  0.86417500  0.14519400  0.35574000  1
  O  O48  1  0.14519400  0.86417500  0.35574000  1
  O  O49  1  0.06120300  0.41610000  0.62549300  1
  O  O50  1  0.41610000  0.06120300  0.62549300  1
  O  O51  1  0.36185700  0.86009600  0.14565600  1
  O  O52  1  0.86009600  0.36185700  0.14565600  1
  O  O53  1  0.61935300  0.07792400  0.40711900  1
  O  O54  1  0.07792400  0.61935300  0.40711900  1
  O  O55  1  0.41123700  0.05353300  0.41511100  1
  O  O56  1  0.05353300  0.41123700  0.41511100  1
  O  O57  1  0.14230100  0.87174900  0.13770800  1
  O  O58  1  0.87174900  0.14230100  0.13770800  1
  O  O59  1  0.62912400  0.41322700  0.06091500  1
  O  O60  1  0.41322700  0.62912400  0.06091500  1
  O  O61  1  0.40433800  0.40433800  0.08646300  1
  O  O62  1  0.13975500  0.13975500  0.35489200  1
  O  O63  1  0.13374800  0.35454900  0.14349700  1
  O  O64  1  0.35454900  0.13374800  0.14349700  1
