# generated using pymatgen
data_Li4V3P8O29
_symmetry_space_group_name_H-M   'P 1'
_cell_length_a   9.79131896
_cell_length_b   9.79131896
_cell_length_c   13.95652758
_cell_angle_alpha   89.95980798
_cell_angle_beta   89.95980798
_cell_angle_gamma   60.07319830
_symmetry_Int_Tables_number   1
_chemical_formula_structural   Li4V3P8O29
_chemical_formula_sum   'Li8 V6 P16 O58'
_cell_volume   1159.60512217
_cell_formula_units_Z   2
loop_
 _symmetry_equiv_pos_site_id
 _symmetry_equiv_pos_as_xyz
  1  'x, y, z'
loop_
 _atom_site_type_symbol
 _atom_site_label
 _atom_site_symmetry_multiplicity
 _atom_site_fract_x
 _atom_site_fract_y
 _atom_site_fract_z
 _atom_site_occupancy
  Li  Li0  1  0.31874000  0.90896700  0.69112200  1
  Li  Li1  1  0.90979600  0.77241200  0.68959800  1
  Li  Li2  1  0.77473700  0.32186900  0.69204400  1
  Li  Li3  1  0.09103300  0.68126000  0.30887800  1
  Li  Li4  1  0.90585100  0.32252400  0.18987900  1
  Li  Li5  1  0.22758800  0.09020400  0.31040200  1
  Li  Li6  1  0.67813100  0.22526300  0.30795600  1
  Li  Li7  1  0.67747600  0.09414900  0.81012100  1
  V  V8  1  0.99944700  0.56805400  0.50212300  1
  V  V9  1  0.00492700  0.43244600  0.99370000  1
  V  V10  1  0.42861500  0.57138500  0.00000000  1
  V  V11  1  0.56392900  0.43607100  0.50000000  1
  V  V12  1  0.43194600  0.00055300  0.49787700  1
  V  V13  1  0.56755400  0.99507300  0.00630000  1
  P  P14  1  0.31715300  0.91326600  0.90782200  1
  P  P15  1  0.31418300  0.76979300  0.40623000  1
  P  P16  1  0.76981700  0.91406000  0.40846900  1
  P  P17  1  0.66471300  0.66776100  0.62333000  1
  P  P18  1  0.66859100  0.66066500  0.12186000  1
  P  P19  1  0.91114500  0.77312000  0.90794400  1
  P  P20  1  0.08673400  0.68284700  0.09217800  1
  P  P21  1  0.76850400  0.31963300  0.90880700  1
  P  P22  1  0.23020700  0.68581700  0.59377000  1
  P  P23  1  0.91159600  0.32049000  0.40746200  1
  P  P24  1  0.08594000  0.23018300  0.59153100  1
  P  P25  1  0.33223900  0.33528700  0.37667000  1
  P  P26  1  0.33933500  0.33140900  0.87814000  1
  P  P27  1  0.22688000  0.08885500  0.09205600  1
  P  P28  1  0.68036700  0.23149600  0.09119300  1
  P  P29  1  0.67951000  0.08840400  0.59253800  1
  O  O30  1  0.23744000  0.00834800  0.18375700  1
  O  O31  1  0.33599200  0.91544500  0.40766400  1
  O  O32  1  0.24479200  0.76366100  0.68103800  1
  O  O33  1  0.34280900  0.74403700  0.91638800  1
  O  O34  1  0.47699200  0.90638900  0.92957600  1
  O  O35  1  0.51243700  0.81231300  0.58339700  1
  O  O36  1  0.61782200  0.90476300  0.42655000  1
  O  O37  1  0.75799400  0.00362300  0.68397100  1
  O  O38  1  0.74201400  0.91877300  0.91290900  1
  O  O39  1  0.52065600  0.66326300  0.07544800  1
  O  O40  1  0.47701400  0.61790800  0.42749700  1
  O  O41  1  0.66588900  0.81346800  0.07738200  1
  O  O42  1  0.66779000  0.65719200  0.73020000  1
  O  O43  1  0.66726900  0.66243400  0.22793000  1
  O  O44  1  0.81250200  0.67399300  0.58408900  1
  O  O45  1  0.61673200  0.47771900  0.92602800  1
  O  O46  1  0.67057900  0.51229700  0.57918500  1
  O  O47  1  0.91554700  0.74567200  0.41089000  1
  O  O48  1  0.99771700  0.79343300  0.00033500  1
  O  O49  1  0.00633700  0.75364500  0.18345400  1
  O  O50  1  0.99165200  0.76256000  0.81624300  1
  O  O51  1  0.90213300  0.61982100  0.92733800  1
  O  O52  1  0.81909400  0.51206500  0.08052800  1
  O  O53  1  0.08455500  0.66400800  0.59233600  1
  O  O54  1  0.89848200  0.48002200  0.42570700  1
  O  O55  1  0.74482600  0.33630400  0.41068400  1
  O  O56  1  0.20837200  0.79162800  0.50000000  1
  O  O57  1  0.23633900  0.75520800  0.31896200  1
  O  O58  1  0.75898700  0.24053600  0.18108200  1
  O  O59  1  0.25596300  0.65719100  0.08361200  1
  O  O60  1  0.09361100  0.52300800  0.07042400  1
  O  O61  1  0.91334000  0.34308600  0.91396600  1
  O  O62  1  0.18768700  0.48756300  0.41660300  1
  O  O63  1  0.09523700  0.38217800  0.57345000  1
  O  O64  1  0.99333500  0.23871500  0.67772400  1
  O  O65  1  0.99637700  0.24200600  0.31602900  1
  O  O66  1  0.00530800  0.20644600  0.49577900  1
  O  O67  1  0.08122700  0.25798600  0.08709100  1
  O  O68  1  0.33673700  0.47934400  0.92455200  1
  O  O69  1  0.38209200  0.52298600  0.57250300  1
  O  O70  1  0.18653200  0.33411100  0.92261800  1
  O  O71  1  0.33756600  0.33273100  0.77207000  1
  O  O72  1  0.34280800  0.33221000  0.26980000  1
  O  O73  1  0.32600700  0.18749800  0.41591100  1
  O  O74  1  0.52228100  0.38326800  0.07397200  1
  O  O75  1  0.48770300  0.32942100  0.42081500  1
  O  O76  1  0.25432800  0.08445300  0.58911000  1
  O  O77  1  0.20656700  0.00228300  0.99966500  1
  O  O78  1  0.24635500  0.99366300  0.81654600  1
  O  O79  1  0.38017900  0.09786700  0.07266200  1
  O  O80  1  0.48793500  0.18090600  0.91947200  1
  O  O81  1  0.51997800  0.10151800  0.57429300  1
  O  O82  1  0.66369600  0.25517400  0.58931600  1
  O  O83  1  0.75946400  0.24101300  0.81891800  1
  O  O84  1  0.79234800  0.20765200  0.00000000  1
  O  O85  1  0.65691400  0.08666000  0.08603400  1
  O  O86  1  0.76128500  0.00666500  0.32227600  1
  O  O87  1  0.79355400  0.99469200  0.50422100  1
