# generated using pymatgen
data_LiMn3Al2(HO2)6
_symmetry_space_group_name_H-M   'P 1'
_cell_length_a   5.98323100
_cell_length_b   7.83424730
_cell_length_c   9.65574542
_cell_angle_alpha   93.64289140
_cell_angle_beta   98.54331442
_cell_angle_gamma   101.92835396
_symmetry_Int_Tables_number   1
_chemical_formula_structural   LiMn3Al2(HO2)6
_chemical_formula_sum   'Li2 Mn6 Al4 H12 O24'
_cell_volume   435.83528568
_cell_formula_units_Z   2
loop_
 _symmetry_equiv_pos_site_id
 _symmetry_equiv_pos_as_xyz
  1  'x, y, z'
loop_
 _atom_site_type_symbol
 _atom_site_label
 _atom_site_symmetry_multiplicity
 _atom_site_fract_x
 _atom_site_fract_y
 _atom_site_fract_z
 _atom_site_occupancy
  Li  Li0  1  0.65781800  0.15568400  0.00054800  1
  Li  Li1  1  0.34218200  0.84431600  0.99945200  1
  Mn  Mn2  1  0.91611100  0.66535500  0.50007200  1
  Mn  Mn3  1  0.75226600  0.99940900  0.50036900  1
  Mn  Mn4  1  0.58617300  0.33457500  0.50378000  1
  Mn  Mn5  1  0.24773400  0.00059100  0.49963100  1
  Mn  Mn6  1  0.41382700  0.66542500  0.49622000  1
  Mn  Mn7  1  0.08388900  0.33464500  0.49992800  1
  Al  Al8  1  0.83093200  0.83784600  0.99701000  1
  Al  Al9  1  0.50000000  0.50000000  0.00000000  1
  Al  Al10  1  0.16906800  0.16215400  0.00299000  1
  Al  Al11  1  0.00000000  0.50000000  0.00000000  1
  H  H12  1  0.90928200  0.25777700  0.80052400  1
  H  H13  1  0.72123500  0.58178300  0.78684100  1
  H  H14  1  0.57499400  0.91179000  0.79022100  1
  H  H15  1  0.78029900  0.42318400  0.20357800  1
  H  H16  1  0.63068500  0.73553400  0.20419000  1
  H  H17  1  0.36931500  0.26446600  0.79581000  1
  H  H18  1  0.42500600  0.08821000  0.20977900  1
  H  H19  1  0.21970100  0.57681600  0.79642200  1
  H  H20  1  0.04013400  0.93077400  0.79077100  1
  H  H21  1  0.27876500  0.41821700  0.21315900  1
  H  H22  1  0.09071800  0.74222300  0.19947600  1
  H  H23  1  0.95986600  0.06922600  0.20922900  1
  O  O24  1  0.93910000  0.27446600  0.90421200  1
  O  O25  1  0.85414000  0.22378000  0.60735600  1
  O  O26  1  0.74892300  0.59195900  0.89218700  1
  O  O27  1  0.68620000  0.56277400  0.60973900  1
  O  O28  1  0.49778600  0.90242500  0.59743200  1
  O  O29  1  0.59943000  0.91581400  0.89220300  1
  O  O30  1  0.83903600  0.43280400  0.39758900  1
  O  O31  1  0.75279500  0.41773300  0.10056300  1
  O  O32  1  0.67276300  0.76266700  0.39632100  1
  O  O33  1  0.59990300  0.72410600  0.10085400  1
  O  O34  1  0.32723700  0.23733300  0.60367900  1
  O  O35  1  0.40009700  0.27589400  0.89914600  1
  O  O36  1  0.50221400  0.09757500  0.40256800  1
  O  O37  1  0.40057000  0.08418600  0.10779700  1
  O  O38  1  0.24720500  0.58226700  0.89943700  1
  O  O39  1  0.16096400  0.56719600  0.60241100  1
  O  O40  1  0.99862600  0.90004100  0.60234500  1
  O  O41  1  0.06675000  0.94262700  0.89382000  1
  O  O42  1  0.31380000  0.43722600  0.39026100  1
  O  O43  1  0.25107700  0.40804100  0.10781300  1
  O  O44  1  0.14586000  0.77622000  0.39264400  1
  O  O45  1  0.06090000  0.72553400  0.09578800  1
  O  O46  1  0.00137400  0.09995900  0.39765500  1
  O  O47  1  0.93325000  0.05737300  0.10618000  1
