# generated using pymatgen
data_Li7V3P8O29
_symmetry_space_group_name_H-M   'P 1'
_cell_length_a   9.86863369
_cell_length_b   9.86863369
_cell_length_c   13.87253517
_cell_angle_alpha   89.66106569
_cell_angle_beta   89.66106569
_cell_angle_gamma   60.16527129
_symmetry_Int_Tables_number   1
_chemical_formula_structural   Li7V3P8O29
_chemical_formula_sum   'Li14 V6 P16 O58'
_cell_volume   1171.95580764
_cell_formula_units_Z   2
loop_
 _symmetry_equiv_pos_site_id
 _symmetry_equiv_pos_as_xyz
  1  'x, y, z'
loop_
 _atom_site_type_symbol
 _atom_site_label
 _atom_site_symmetry_multiplicity
 _atom_site_fract_x
 _atom_site_fract_y
 _atom_site_fract_z
 _atom_site_occupancy
  Li  Li0  1  0.22428600  0.68474500  0.69052100  1
  Li  Li1  1  0.09667100  0.67254200  0.18652100  1
  Li  Li2  1  0.67582900  0.22530800  0.18885000  1
  Li  Li3  1  0.33212800  0.32990300  0.86903100  1
  Li  Li4  1  0.68575600  0.08828400  0.68998800  1
  Li  Li5  1  0.08925800  0.22456800  0.69009800  1
  Li  Li6  1  0.77543200  0.91074200  0.30990200  1
  Li  Li7  1  0.22664200  0.09530400  0.18626900  1
  Li  Li8  1  0.90469600  0.77335800  0.81373100  1
  Li  Li9  1  0.32745800  0.90332900  0.81347900  1
  Li  Li10  1  0.67009700  0.66787200  0.13096900  1
  Li  Li11  1  0.31525500  0.77571400  0.30947900  1
  Li  Li12  1  0.91171600  0.31424400  0.31001200  1
  Li  Li13  1  0.77469200  0.32417100  0.81115000  1
  V  V14  1  0.56607800  0.99875700  0.50142600  1
  V  V15  1  0.43190200  0.99864900  0.99956500  1
  V  V16  1  0.00135100  0.56809800  0.00043500  1
  V  V17  1  0.00124300  0.43392200  0.49857400  1
  V  V18  1  0.43604900  0.56395100  0.50000000  1
  V  V19  1  0.56790700  0.43209300  0.00000000  1
  P  P20  1  0.23236300  0.67869300  0.90653600  1
  P  P21  1  0.08844800  0.67919900  0.40740200  1
  P  P22  1  0.67986400  0.23038300  0.40897200  1
  P  P23  1  0.33322600  0.33199500  0.62303600  1
  P  P24  1  0.33274200  0.33402400  0.12620900  1
  P  P25  1  0.67938000  0.08937000  0.90680600  1
  P  P26  1  0.76816600  0.90900000  0.09395700  1
  P  P27  1  0.09100000  0.23183400  0.90604300  1
  P  P28  1  0.91181900  0.76567500  0.59191500  1
  P  P29  1  0.23432500  0.08818100  0.40808500  1
  P  P30  1  0.32080100  0.91155200  0.59259800  1
  P  P31  1  0.66800500  0.66677400  0.37696400  1
  P  P32  1  0.66597600  0.66725800  0.87379100  1
  P  P33  1  0.32130700  0.76763700  0.09346400  1
  P  P34  1  0.91063000  0.32062000  0.09319400  1
  P  P35  1  0.76961700  0.32013600  0.59102800  1
  O  O36  1  0.24283400  0.74847700  0.18261600  1
  O  O37  1  0.25111500  0.66445200  0.40860200  1
  O  O38  1  0.00071400  0.75512500  0.68174000  1
  O  O39  1  0.08235700  0.66901600  0.90452100  1
  O  O40  1  0.37518100  0.51248300  0.92205500  1
  O  O41  1  0.32901000  0.48527200  0.58288700  1
  O  O42  1  0.52088200  0.37804500  0.42525300  1
  O  O43  1  0.75834600  0.23938400  0.68216400  1
  O  O44  1  0.67151600  0.24982200  0.90630100  1
  O  O45  1  0.18837400  0.48636100  0.08720300  1
  O  O46  1  0.10091300  0.51926000  0.42632800  1
  O  O47  1  0.48473500  0.33353900  0.07965100  1
  O  O48  1  0.33356100  0.33440600  0.73120000  1
  O  O49  1  0.34583000  0.33227800  0.23332200  1
  O  O50  1  0.48728800  0.18503600  0.58554700  1
  O  O51  1  0.11671400  0.36999600  0.92018200  1
  O  O52  1  0.18603100  0.32775500  0.58426500  1
  O  O53  1  0.66376100  0.08136400  0.41165000  1
  O  O54  1  0.78166500  0.99985200  0.00012800  1
  O  O55  1  0.75260900  0.00459300  0.18223400  1
  O  O56  1  0.76077600  0.99667100  0.81794100  1
  O  O57  1  0.51298800  0.11565800  0.91983400  1
  O  O58  1  0.32869700  0.18817200  0.08642000  1
  O  O59  1  0.74787100  0.91376300  0.59141400  1
  O  O60  1  0.37862800  0.10047100  0.42648100  1
  O  O61  1  0.08623700  0.25212900  0.40858600  1
  O  O62  1  0.99985000  0.78817200  0.49986800  1
  O  O63  1  0.99817500  0.75714200  0.31758900  1
  O  O64  1  0.00332900  0.23922400  0.18205900  1
  O  O65  1  0.92053100  0.75143000  0.09498500  1
  O  O66  1  0.63000400  0.88328600  0.07981800  1
  O  O67  1  0.24857000  0.07946900  0.90501500  1
  O  O68  1  0.67224500  0.81396900  0.41573500  1
  O  O69  1  0.48074000  0.89908700  0.57367200  1
  O  O70  1  0.24285800  0.00182500  0.68241100  1
  O  O71  1  0.24487500  0.99928600  0.31826000  1
  O  O72  1  0.21182800  0.00015000  0.50013200  1
  O  O73  1  0.33098400  0.91764300  0.09547900  1
  O  O74  1  0.81182800  0.67130300  0.91358000  1
  O  O75  1  0.89952900  0.62137200  0.57351900  1
  O  O76  1  0.51363900  0.81162600  0.91279700  1
  O  O77  1  0.66772200  0.65417000  0.76667800  1
  O  O78  1  0.66559400  0.66643900  0.26880000  1
  O  O79  1  0.51472800  0.67099000  0.41711300  1
  O  O80  1  0.88434200  0.48701200  0.08016600  1
  O  O81  1  0.81496400  0.51271200  0.41445300  1
  O  O82  1  0.33554800  0.74888500  0.59139800  1
  O  O83  1  0.21725300  0.78274700  0.00000000  1
  O  O84  1  0.25152300  0.75716600  0.81738400  1
  O  O85  1  0.48751700  0.62481900  0.07794500  1
  O  O86  1  0.66646100  0.51526500  0.92035000  1
  O  O87  1  0.62195500  0.47911800  0.57474700  1
  O  O88  1  0.91863600  0.33623900  0.58835000  1
  O  O89  1  0.99540700  0.24739100  0.81776600  1
  O  O90  1  0.00014800  0.21833500  0.99987200  1
  O  O91  1  0.75017800  0.32848400  0.09369900  1
  O  O92  1  0.76061600  0.24165400  0.31783600  1
  O  O93  1  0.79061200  0.20938800  0.50000000  1
