# generated using pymatgen
data_Na9Li7V16O48
_symmetry_space_group_name_H-M   'P 1'
_cell_length_a   6.97303228
_cell_length_b   6.97303228
_cell_length_c   22.51734015
_cell_angle_alpha   85.03812348
_cell_angle_beta   85.03812348
_cell_angle_gamma   83.37705142
_symmetry_Int_Tables_number   1
_chemical_formula_structural   Na9Li7V16O48
_chemical_formula_sum   'Na9 Li7 V16 O48'
_cell_volume   1080.23891202
_cell_formula_units_Z   1
loop_
 _symmetry_equiv_pos_site_id
 _symmetry_equiv_pos_as_xyz
  1  'x, y, z'
loop_
 _atom_site_type_symbol
 _atom_site_label
 _atom_site_symmetry_multiplicity
 _atom_site_fract_x
 _atom_site_fract_y
 _atom_site_fract_z
 _atom_site_occupancy
  Na  Na0  1  0.52288300  0.47711700  0.00000000  1
  Na  Na1  1  0.22712500  0.02356800  0.87475800  1
  Na  Na2  1  0.02359900  0.97640100  0.50000000  1
  Na  Na3  1  0.72640300  0.52360300  0.37499500  1
  Na  Na4  1  0.27367000  0.22636200  0.25004600  1
  Na  Na5  1  0.97643200  0.77287500  0.12524200  1
  Na  Na6  1  0.77363800  0.72633000  0.74995400  1
  Na  Na7  1  0.89593800  0.10406200  0.00000000  1
  Na  Na8  1  0.47639700  0.27359700  0.62500500  1
  Li  Li9  1  0.10086000  0.64914000  0.62500200  1
  Li  Li10  1  0.85077000  0.39976900  0.87472300  1
  Li  Li11  1  0.39914200  0.60085800  0.50000000  1
  Li  Li12  1  0.35086000  0.89914000  0.37499800  1
  Li  Li13  1  0.64914400  0.85089300  0.24999700  1
  Li  Li14  1  0.60023100  0.14923000  0.12527700  1
  Li  Li15  1  0.14910700  0.35085600  0.75000300  1
  V  V16  1  0.01179000  0.56700900  0.99964600  1
  V  V17  1  0.31922800  0.51015500  0.87464300  1
  V  V18  1  0.23977100  0.43112300  0.37525800  1
  V  V19  1  0.18112900  0.73975200  0.25028100  1
  V  V20  1  0.48984500  0.68077200  0.12535700  1
  V  V21  1  0.06996100  0.26049800  0.12548400  1
  V  V22  1  0.43299100  0.98821000  0.00035400  1
  V  V23  1  0.26024800  0.81887100  0.74971900  1
  V  V24  1  0.73950200  0.93003900  0.87451600  1
  V  V25  1  0.56887700  0.76022900  0.62474200  1
  V  V26  1  0.93112200  0.48979400  0.50025600  1
  V  V27  1  0.51020600  0.06887800  0.49974400  1
  V  V28  1  0.81885100  0.01019600  0.37475500  1
  V  V29  1  0.76008400  0.31890100  0.24982600  1
  V  V30  1  0.68109900  0.23991600  0.75017400  1
  V  V31  1  0.98980400  0.18114900  0.62524500  1
  O  O32  1  0.09462000  0.47043900  0.07208100  1
  O  O33  1  0.02802400  0.40586800  0.42795700  1
  O  O34  1  0.22285900  0.59492400  0.94688900  1
  O  O35  1  0.15585400  0.52802300  0.30296700  1
  O  O36  1  0.53823000  0.39530600  0.88733600  1
  O  O37  1  0.34427900  0.72202700  0.82202300  1
  O  O38  1  0.07464600  0.64034400  0.52504800  1
  O  O39  1  0.27797300  0.65572100  0.17797700  1
  O  O40  1  0.60469400  0.46177000  0.11266400  1
  O  O41  1  0.03802000  0.89548000  0.38734700  1
  O  O42  1  0.39035000  0.57463200  0.40004500  1
  O  O43  1  0.10968800  0.67532900  0.72494600  1
  O  O44  1  0.40507600  0.77714100  0.05311100  1
  O  O45  1  0.85748000  0.43148200  0.97361500  1
  O  O46  1  0.21828700  0.10703900  0.98649700  1
  O  O47  1  0.64537800  0.53807200  0.26236700  1
  O  O48  1  0.32467100  0.89031200  0.27505400  1
  O  O49  1  0.42536800  0.60965000  0.59995500  1
  O  O50  1  0.52956100  0.90538000  0.92791900  1
  O  O51  1  0.10452000  0.96198000  0.61265300  1
  O  O52  1  0.17531000  0.35966500  0.84999500  1
  O  O53  1  0.85471900  0.71112200  0.86235800  1
  O  O54  1  0.28887800  0.14528100  0.13764200  1
  O  O55  1  0.64033500  0.82469000  0.15000500  1
  O  O56  1  0.35965600  0.92535400  0.47495200  1
  O  O57  1  0.71195900  0.60453700  0.48765100  1
  O  O58  1  0.14557100  0.03802100  0.76231300  1
  O  O59  1  0.82464500  0.39031000  0.77503300  1
  O  O60  1  0.89296100  0.78171300  0.01350300  1
  O  O61  1  0.47197700  0.84414600  0.69703300  1
  O  O62  1  0.56851800  0.14252000  0.02638500  1
  O  O63  1  0.67531500  0.85970600  0.34995200  1
  O  O64  1  0.35451800  0.21196900  0.36264600  1
  O  O65  1  0.78803100  0.64548200  0.63735400  1
  O  O66  1  0.14029400  0.32468500  0.65004800  1
  O  O67  1  0.59413200  0.97197600  0.57204300  1
  O  O68  1  0.89145400  0.07488700  0.89758200  1
  O  O69  1  0.60969000  0.17535500  0.22496700  1
  O  O70  1  0.96197900  0.85442900  0.23768700  1
  O  O71  1  0.39546300  0.28804100  0.51234900  1
  O  O72  1  0.72197400  0.09412300  0.44705100  1
  O  O73  1  0.92511300  0.10854600  0.10241800  1
  O  O74  1  0.65499300  0.02771600  0.80260700  1
  O  O75  1  0.46192800  0.35462200  0.73763300  1
  O  O76  1  0.84411500  0.22198000  0.32207700  1
  O  O77  1  0.77802000  0.15588500  0.67792300  1
  O  O78  1  0.97228400  0.34500700  0.19739300  1
  O  O79  1  0.90587700  0.27802600  0.55294900  1
