# generated using pymatgen
data_Li15Zr7(Cu3O14)2
_symmetry_space_group_name_H-M   'P 1'
_cell_length_a   5.40174000
_cell_length_b   8.07486213
_cell_length_c   13.13338939
_cell_angle_alpha   88.77790390
_cell_angle_beta   80.85170780
_cell_angle_gamma   87.01715657
_symmetry_Int_Tables_number   1
_chemical_formula_structural   Li15Zr7(Cu3O14)2
_chemical_formula_sum   'Li15 Zr7 Cu6 O28'
_cell_volume   564.75378269
_cell_formula_units_Z   1
loop_
 _symmetry_equiv_pos_site_id
 _symmetry_equiv_pos_as_xyz
  1  'x, y, z'
loop_
 _atom_site_type_symbol
 _atom_site_label
 _atom_site_symmetry_multiplicity
 _atom_site_fract_x
 _atom_site_fract_y
 _atom_site_fract_z
 _atom_site_occupancy
  Li  Li0  1  0.92964500  0.85259000  0.21284500  1
  Li  Li1  1  0.49914400  0.00445500  0.50195600  1
  Li  Li2  1  0.85390100  0.65604200  0.03891300  1
  Li  Li3  1  0.42131300  0.79454000  0.32307500  1
  Li  Li4  1  0.06441400  0.19572400  0.17295300  1
  Li  Li5  1  0.22250900  0.43223300  0.35521700  1
  Li  Li6  1  0.63864300  0.29016400  0.07072500  1
  Li  Li7  1  0.95263300  0.92563700  0.60733900  1
  Li  Li8  1  0.65910800  0.34897300  0.46110300  1
  Li  Li9  1  0.78511700  0.56692800  0.64646400  1
  Li  Li10  1  0.26290700  0.50412300  0.75334900  1
  Li  Li11  1  0.99997000  0.00326500  0.99758600  1
  Li  Li12  1  0.35773600  0.70721300  0.93102600  1
  Li  Li13  1  0.07355500  0.14978500  0.78401700  1
  Li  Li14  1  0.52315200  0.06787200  0.89147600  1
  Zr  Zr15  1  0.47322300  0.93119700  0.10572700  1
  Zr  Zr16  1  0.75519500  0.50365700  0.24488700  1
  Zr  Zr17  1  0.33579400  0.64453600  0.53833700  1
  Zr  Zr18  1  0.89652800  0.78771600  0.82446500  1
  Zr  Zr19  1  0.02235200  0.06858500  0.39376800  1
  Zr  Zr20  1  0.16970400  0.35108800  0.96455800  1
  Zr  Zr21  1  0.60146600  0.21508500  0.67766100  1
  Cu  Cu22  1  0.29084400  0.57136900  0.14278300  1
  Cu  Cu23  1  0.87292200  0.70905700  0.42896900  1
  Cu  Cu24  1  0.42317800  0.85697700  0.71617000  1
  Cu  Cu25  1  0.55663400  0.14439500  0.28406400  1
  Cu  Cu26  1  0.13838000  0.29106200  0.56882400  1
  Cu  Cu27  1  0.71864600  0.42879300  0.85877500  1
  O  O28  1  0.17962900  0.77813700  0.07991800  1
  O  O29  1  0.63679900  0.72502300  0.18104900  1
  O  O30  1  0.73936500  0.91848600  0.36307300  1
  O  O31  1  0.07599800  0.62466500  0.27615400  1
  O  O32  1  0.17090800  0.85068100  0.46293400  1
  O  O33  1  0.30333100  0.13387500  0.03378400  1
  O  O34  1  0.56194400  0.57663100  0.39534500  1
  O  O35  1  0.73117600  0.99289900  0.74835300  1
  O  O36  1  0.94072100  0.41732300  0.10461500  1
  O  O37  1  0.11713300  0.71772800  0.67990400  1
  O  O38  1  0.03247200  0.50745000  0.50181800  1
  O  O39  1  0.20565500  0.91864700  0.84763800  1
  O  O40  1  0.61644200  0.78651700  0.58093000  1
  O  O41  1  0.43206200  0.38572800  0.21330200  1
  O  O42  1  0.75775800  0.06983200  0.14636100  1
  O  O43  1  0.48478200  0.43744400  0.60866600  1
  O  O44  1  0.86109600  0.27463700  0.31909200  1
  O  O45  1  0.26078400  0.00788000  0.25260800  1
  O  O46  1  0.69579600  0.86453400  0.96636500  1
  O  O47  1  0.60456600  0.63287600  0.79558900  1
  O  O48  1  0.04539700  0.57605100  0.89517700  1
  O  O49  1  0.32927900  0.21014200  0.42558500  1
  O  O50  1  0.28633600  0.09847800  0.63720800  1
  O  O51  1  0.46481400  0.49211500  0.00617800  1
  O  O52  1  0.91750300  0.34518100  0.70475500  1
  O  O53  1  0.79897300  0.13599900  0.53265000  1
  O  O54  1  0.38657200  0.28385700  0.82048100  1
  O  O55  1  0.86409700  0.23412200  0.92343200  1
