# generated using pymatgen
data_Li4MnNi3(PO4)4
_symmetry_space_group_name_H-M   'P 1'
_cell_length_a   4.73502631
_cell_length_b   10.19185797
_cell_length_c   5.97256700
_cell_angle_alpha   90.00000000
_cell_angle_beta   90.00000000
_cell_angle_gamma   89.91360257
_symmetry_Int_Tables_number   1
_chemical_formula_structural   Li4MnNi3(PO4)4
_chemical_formula_sum   'Li4 Mn1 Ni3 P4 O16'
_cell_volume   288.22808491
_cell_formula_units_Z   1
loop_
 _symmetry_equiv_pos_site_id
 _symmetry_equiv_pos_as_xyz
  1  'x, y, z'
loop_
 _atom_site_type_symbol
 _atom_site_label
 _atom_site_symmetry_multiplicity
 _atom_site_fract_x
 _atom_site_fract_y
 _atom_site_fract_z
 _atom_site_occupancy
  Li  Li0  1  0.00043600  0.99834000  0.99996300  1
  Li  Li1  1  0.00043600  0.99834000  0.50003700  1
  Li  Li2  1  0.49889900  0.50220100  0.50048600  1
  Li  Li3  1  0.49889900  0.50220100  0.99951400  1
  Mn  Mn4  1  0.97521300  0.27891800  0.25000000  1
  Ni  Ni5  1  0.01954700  0.72582100  0.75000000  1
  Ni  Ni6  1  0.48109200  0.22184700  0.75000000  1
  Ni  Ni7  1  0.52080800  0.77664200  0.25000000  1
  P  P8  1  0.08760800  0.59845900  0.25000000  1
  P  P9  1  0.41754300  0.08936900  0.25000000  1
  P  P10  1  0.58421200  0.90519200  0.75000000  1
  P  P11  1  0.91131800  0.40699400  0.75000000  1
  O  O12  1  0.20865400  0.45717500  0.25000000  1
  O  O13  1  0.22598400  0.66840700  0.04281100  1
  O  O14  1  0.22598400  0.66840700  0.45718900  1
  O  O15  1  0.23474300  0.39823900  0.75000000  1
  O  O16  1  0.26058500  0.89940700  0.75000000  1
  O  O17  1  0.28150900  0.16082700  0.04325400  1
  O  O18  1  0.28150900  0.16082700  0.45674600  1
  O  O19  1  0.29476000  0.94801000  0.25000000  1
  O  O20  1  0.70157600  0.04741900  0.75000000  1
  O  O21  1  0.72540100  0.83447800  0.54404600  1
  O  O22  1  0.72540100  0.83447800  0.95595400  1
  O  O23  1  0.74041600  0.09296700  0.25000000  1
  O  O24  1  0.76351500  0.60127300  0.25000000  1
  O  O25  1  0.76695300  0.33673800  0.54647100  1
  O  O26  1  0.76695300  0.33673800  0.95352900  1
  O  O27  1  0.80004300  0.55028700  0.75000000  1
