# generated using pymatgen
data_Li2Cr4O13
_symmetry_space_group_name_H-M   'P 1'
_cell_length_a   9.80376766
_cell_length_b   9.80376766
_cell_length_c   8.91970300
_cell_angle_alpha   90.00000000
_cell_angle_beta   90.00000000
_cell_angle_gamma   132.54253302
_symmetry_Int_Tables_number   1
_chemical_formula_structural   Li2Cr4O13
_chemical_formula_sum   'Li4 Cr8 O26'
_cell_volume   631.64295705
_cell_formula_units_Z   2
loop_
 _symmetry_equiv_pos_site_id
 _symmetry_equiv_pos_as_xyz
  1  'x, y, z'
loop_
 _atom_site_type_symbol
 _atom_site_label
 _atom_site_symmetry_multiplicity
 _atom_site_fract_x
 _atom_site_fract_y
 _atom_site_fract_z
 _atom_site_occupancy
  Li  Li0  1  0.58987300  0.90000800  0.14079500  1
  Li  Li1  1  0.09999200  0.41012700  0.35920500  1
  Li  Li2  1  0.90000800  0.58987300  0.85920500  1
  Li  Li3  1  0.41012700  0.09999200  0.64079500  1
  Cr  Cr4  1  0.16228700  0.27652400  0.72191800  1
  Cr  Cr5  1  0.72347600  0.83771300  0.77808200  1
  Cr  Cr6  1  0.07636400  0.40336200  0.01131600  1
  Cr  Cr7  1  0.59663800  0.92363600  0.48868400  1
  Cr  Cr8  1  0.40336200  0.07636400  0.98868400  1
  Cr  Cr9  1  0.92363600  0.59663800  0.51131600  1
  Cr  Cr10  1  0.83771300  0.72347600  0.22191800  1
  Cr  Cr11  1  0.27652400  0.16228700  0.27808200  1
  O  O12  1  0.25654200  0.30827600  0.31631800  1
  O  O13  1  0.69172400  0.74345800  0.18368200  1
  O  O14  1  0.94259500  0.05740500  0.75000000  1
  O  O15  1  0.60653700  0.77815600  0.61131400  1
  O  O16  1  0.22184400  0.39346300  0.88868600  1
  O  O17  1  0.15230400  0.37890300  0.58714200  1
  O  O18  1  0.62109700  0.84769600  0.91285800  1
  O  O19  1  0.90386800  0.19824100  0.07529100  1
  O  O20  1  0.80175900  0.09613200  0.42470900  1
  O  O21  1  0.46034700  0.79810800  0.34838800  1
  O  O22  1  0.20189200  0.53965300  0.15161200  1
  O  O23  1  0.00343800  0.48334400  0.91348900  1
  O  O24  1  0.51665600  0.99656200  0.58651100  1
  O  O25  1  0.48334400  0.00343800  0.08651100  1
  O  O26  1  0.99656200  0.51665600  0.41348900  1
  O  O27  1  0.53965300  0.20189200  0.84838800  1
  O  O28  1  0.79810800  0.46034700  0.65161200  1
  O  O29  1  0.09613200  0.80175900  0.57529100  1
  O  O30  1  0.19824100  0.90386800  0.92470900  1
  O  O31  1  0.84769600  0.62109700  0.08714200  1
  O  O32  1  0.37890300  0.15230400  0.41285800  1
  O  O33  1  0.39346300  0.22184400  0.11131400  1
  O  O34  1  0.77815600  0.60653700  0.38868600  1
  O  O35  1  0.05740500  0.94259500  0.25000000  1
  O  O36  1  0.30827600  0.25654200  0.68368200  1
  O  O37  1  0.74345800  0.69172400  0.81631800  1
