# generated using pymatgen
data_LiLaTi2O6
_symmetry_space_group_name_H-M   'P 1'
_cell_length_a   5.55939900
_cell_length_b   5.55185500
_cell_length_c   7.76769300
_cell_angle_alpha   89.99924026
_cell_angle_beta   90.00000000
_cell_angle_gamma   90.00000000
_symmetry_Int_Tables_number   1
_chemical_formula_structural   LiLaTi2O6
_chemical_formula_sum   'Li2 La2 Ti4 O12'
_cell_volume   239.74966684
_cell_formula_units_Z   2
loop_
 _symmetry_equiv_pos_site_id
 _symmetry_equiv_pos_as_xyz
  1  'x, y, z'
loop_
 _atom_site_type_symbol
 _atom_site_label
 _atom_site_symmetry_multiplicity
 _atom_site_fract_x
 _atom_site_fract_y
 _atom_site_fract_z
 _atom_site_occupancy
  Li  Li0  1  0.50000000  0.00000000  0.50000000  1
  Li  Li1  1  0.50000000  0.00000000  0.00000000  1
  La  La2  1  0.00907900  0.50000000  0.75000000  1
  La  La3  1  0.99092100  0.50000000  0.25000000  1
  Ti  Ti4  1  0.50000000  0.50000000  0.50000000  1
  Ti  Ti5  1  0.00000000  0.00000000  0.50000000  1
  Ti  Ti6  1  0.00000000  0.00000000  0.00000000  1
  Ti  Ti7  1  0.50000000  0.50000000  0.00000000  1
  O  O8  1  0.76856300  0.26903800  0.98215200  1
  O  O9  1  0.74950200  0.75000000  0.98027000  1
  O  O10  1  0.74950200  0.25000000  0.51973000  1
  O  O11  1  0.45543900  0.50000000  0.75000000  1
  O  O12  1  0.76856300  0.73096200  0.51784800  1
  O  O13  1  0.23143700  0.26903800  0.48215200  1
  O  O14  1  0.03779900  0.00000000  0.75000000  1
  O  O15  1  0.54456100  0.50000000  0.25000000  1
  O  O16  1  0.96220100  0.00000000  0.25000000  1
  O  O17  1  0.25049800  0.75000000  0.48027000  1
  O  O18  1  0.25049800  0.25000000  0.01973000  1
  O  O19  1  0.23143700  0.73096200  0.01784800  1
