# generated using pymatgen
data_Li2MnVP2(HO5)2
_symmetry_space_group_name_H-M   'P 1'
_cell_length_a   6.92962400
_cell_length_b   7.30657529
_cell_length_c   8.09122964
_cell_angle_alpha   90.92358479
_cell_angle_beta   93.39834371
_cell_angle_gamma   116.79277253
_symmetry_Int_Tables_number   1
_chemical_formula_structural   Li2MnVP2(HO5)2
_chemical_formula_sum   'Li4 Mn2 V2 P4 H4 O20'
_cell_volume   364.62704728
_cell_formula_units_Z   2
loop_
 _symmetry_equiv_pos_site_id
 _symmetry_equiv_pos_as_xyz
  1  'x, y, z'
loop_
 _atom_site_type_symbol
 _atom_site_label
 _atom_site_symmetry_multiplicity
 _atom_site_fract_x
 _atom_site_fract_y
 _atom_site_fract_z
 _atom_site_occupancy
  Li  Li0  1  0.07449700  0.82285700  0.67688400  1
  Li  Li1  1  0.42881700  0.17353600  0.82527100  1
  Li  Li2  1  0.57118300  0.82646400  0.17472900  1
  Li  Li3  1  0.92550300  0.17714300  0.32311600  1
  Mn  Mn4  1  0.00000000  0.50000000  0.00000000  1
  Mn  Mn5  1  0.50000000  0.00000000  0.50000000  1
  V  V6  1  0.00000000  0.00000000  0.00000000  1
  V  V7  1  0.50000000  0.50000000  0.50000000  1
  P  P8  1  0.48292500  0.76660900  0.84393800  1
  P  P9  1  0.01858800  0.23117300  0.65528200  1
  P  P10  1  0.98141200  0.76882700  0.34471800  1
  P  P11  1  0.51707500  0.23339100  0.15606200  1
  H  H12  1  0.79013400  0.65491600  0.85350000  1
  H  H13  1  0.28785100  0.66741000  0.35140700  1
  H  H14  1  0.71214900  0.33259000  0.64859300  1
  H  H15  1  0.20986600  0.34508400  0.14650000  1
  O  O16  1  0.33729600  0.65551600  0.98432900  1
  O  O17  1  0.11127800  0.11818400  0.77440800  1
  O  O18  1  0.38339600  0.87969700  0.73609100  1
  O  O19  1  0.69586900  0.93003200  0.93801400  1
  O  O20  1  0.18495500  0.93100400  0.44798100  1
  O  O21  1  0.53928300  0.62054200  0.73784300  1
  O  O22  1  0.18064300  0.34188300  0.52242500  1
  O  O23  1  0.03843000  0.61907400  0.24828300  1
  O  O24  1  0.94502300  0.71994200  0.89679900  1
  O  O25  1  0.44305900  0.73150900  0.39591900  1
  O  O26  1  0.55694100  0.26849100  0.60408100  1
  O  O27  1  0.05497700  0.28005800  0.10320100  1
  O  O28  1  0.96157000  0.38092600  0.75171700  1
  O  O29  1  0.81935700  0.65811700  0.47757500  1
  O  O30  1  0.46071700  0.37945800  0.26215700  1
  O  O31  1  0.81504500  0.06899600  0.55201900  1
  O  O32  1  0.30413100  0.06996800  0.06198600  1
  O  O33  1  0.61660400  0.12030300  0.26390900  1
  O  O34  1  0.88872200  0.88181600  0.22559200  1
  O  O35  1  0.66270400  0.34448400  0.01567100  1
