# generated using pymatgen
data_Li8MnO5F
_symmetry_space_group_name_H-M   'P 1'
_cell_length_a   5.36828785
_cell_length_b   18.24055542
_cell_length_c   6.00576040
_cell_angle_alpha   96.64440769
_cell_angle_beta   112.04898689
_cell_angle_gamma   86.63900979
_symmetry_Int_Tables_number   1
_chemical_formula_structural   Li8MnO5F
_chemical_formula_sum   'Li32 Mn4 O20 F4'
_cell_volume   541.34179162
_cell_formula_units_Z   4
loop_
 _symmetry_equiv_pos_site_id
 _symmetry_equiv_pos_as_xyz
  1  'x, y, z'
loop_
 _atom_site_type_symbol
 _atom_site_label
 _atom_site_symmetry_multiplicity
 _atom_site_fract_x
 _atom_site_fract_y
 _atom_site_fract_z
 _atom_site_occupancy
  Li  Li0  1  0.50499300  0.02890300  0.33285800  1
  Li  Li1  1  0.75498200  0.27891800  0.08286500  1
  Li  Li2  1  0.00495600  0.52890500  0.83284000  1
  Li  Li3  1  0.25493300  0.77892100  0.58284300  1
  Li  Li4  1  0.36114800  0.13182900  0.52010300  1
  Li  Li5  1  0.61111200  0.38183400  0.27007000  1
  Li  Li6  1  0.86115100  0.63181300  0.02003700  1
  Li  Li7  1  0.11109300  0.88183200  0.77005300  1
  Li  Li8  1  0.95003100  0.05977500  0.58737600  1
  Li  Li9  1  0.20004900  0.30978900  0.33738800  1
  Li  Li10  1  0.45002200  0.55977300  0.08727500  1
  Li  Li11  1  0.70004500  0.80979300  0.83734500  1
  Li  Li12  1  0.43661200  0.07433800  0.93706300  1
  Li  Li13  1  0.68661100  0.32434800  0.68707800  1
  Li  Li14  1  0.93662400  0.57433900  0.43708900  1
  Li  Li15  1  0.18659300  0.82435100  0.18709200  1
  Li  Li16  1  0.82891700  0.16625100  0.79979700  1
  Li  Li17  1  0.07893400  0.41625000  0.54981100  1
  Li  Li18  1  0.32889600  0.66625900  0.29982300  1
  Li  Li19  1  0.57894600  0.91624600  0.04980400  1
  Li  Li20  1  0.28565400  0.19146300  0.15629800  1
  Li  Li21  1  0.53567500  0.44146400  0.90625600  1
  Li  Li22  1  0.78566200  0.69146700  0.65629200  1
  Li  Li23  1  0.03567200  0.94145000  0.40628100  1
  Li  Li24  1  0.91116400  0.11722000  0.25184200  1
  Li  Li25  1  0.16117700  0.36722000  0.00183800  1
  Li  Li26  1  0.41114300  0.61721800  0.75183200  1
  Li  Li27  1  0.66121100  0.86720400  0.50182300  1
  Li  Li28  1  0.74256100  0.22478200  0.42727800  1
  Li  Li29  1  0.99251400  0.47476000  0.17721500  1
  Li  Li30  1  0.24248400  0.72477600  0.92720100  1
  Li  Li31  1  0.49257700  0.97476800  0.67727800  1
  Mn  Mn32  1  0.47303300  0.50540700  0.47341300  1
  Mn  Mn33  1  0.72324600  0.75530200  0.22359600  1
  Mn  Mn34  1  0.97332700  0.00534700  0.97369000  1
  Mn  Mn35  1  0.22331300  0.25534300  0.72370700  1
  O  O36  1  0.64783600  0.06664400  0.69299100  1
  O  O37  1  0.89782600  0.31663900  0.44299500  1
  O  O38  1  0.14777700  0.56665800  0.19295400  1
  O  O39  1  0.39776500  0.81663400  0.94294700  1
  O  O40  1  0.20290700  0.09046800  0.14911900  1
  O  O41  1  0.45297300  0.34049100  0.89908200  1
  O  O42  1  0.70288100  0.59048000  0.64910200  1
  O  O43  1  0.95289800  0.84044900  0.39900900  1
  O  O44  1  0.79511800  0.01589600  0.21583400  1
  O  O45  1  0.04504100  0.26593200  0.96579600  1
  O  O46  1  0.29506600  0.51591500  0.71579400  1
  O  O47  1  0.54506500  0.76585800  0.46579500  1
  O  O48  1  0.44287900  0.23422900  0.52215200  1
  O  O49  1  0.69287300  0.48424500  0.27203400  1
  O  O50  1  0.94287300  0.73420100  0.02202000  1
  O  O51  1  0.19295500  0.98421700  0.77224800  1
  O  O52  1  0.04464800  0.16027200  0.59163500  1
  O  O53  1  0.29454500  0.41026500  0.34156400  1
  O  O54  1  0.54450800  0.66020800  0.09152200  1
  O  O55  1  0.79456100  0.91025200  0.84160100  1
  F  F56  1  0.62247500  0.18261400  0.09238400  1
  F  F57  1  0.87247100  0.43262300  0.84230100  1
  F  F58  1  0.12245900  0.68260800  0.59237100  1
  F  F59  1  0.37253900  0.93254800  0.34229100  1
