# generated using pymatgen
data_LiNiPO4
_symmetry_space_group_name_H-M   'P 1'
_cell_length_a   4.97050771
_cell_length_b   4.97050771
_cell_length_c   15.40170774
_cell_angle_alpha   86.56273180
_cell_angle_beta   86.56273180
_cell_angle_gamma   74.79392637
_symmetry_Int_Tables_number   1
_chemical_formula_structural   LiNiPO4
_chemical_formula_sum   'Li4 Ni4 P4 O16'
_cell_volume   366.14432917
_cell_formula_units_Z   4
loop_
 _symmetry_equiv_pos_site_id
 _symmetry_equiv_pos_as_xyz
  1  'x, y, z'
loop_
 _atom_site_type_symbol
 _atom_site_label
 _atom_site_symmetry_multiplicity
 _atom_site_fract_x
 _atom_site_fract_y
 _atom_site_fract_z
 _atom_site_occupancy
  Li  Li0  1  0.78606500  0.66906500  0.27050400  1
  Li  Li1  1  0.66906500  0.78606500  0.77050400  1
  Li  Li2  1  0.33093500  0.21393500  0.22949600  1
  Li  Li3  1  0.21393500  0.33093500  0.72949600  1
  Ni  Ni4  1  0.92959100  0.37662700  0.08851800  1
  Ni  Ni5  1  0.62337300  0.07040900  0.41148200  1
  Ni  Ni6  1  0.37662700  0.92959100  0.58851800  1
  Ni  Ni7  1  0.07040900  0.62337300  0.91148200  1
  P  P8  1  0.29906800  0.73508500  0.37716900  1
  P  P9  1  0.26491500  0.70093200  0.12283100  1
  P  P10  1  0.73508500  0.29906800  0.87716900  1
  P  P11  1  0.70093200  0.26491500  0.62283100  1
  O  O12  1  0.43843000  0.91606000  0.31099800  1
  O  O13  1  0.91606000  0.43843000  0.81099800  1
  O  O14  1  0.20274900  0.01862600  0.13099200  1
  O  O15  1  0.56874900  0.55523100  0.14389600  1
  O  O16  1  0.37727800  0.81695900  0.46634900  1
  O  O17  1  0.01862600  0.20274900  0.63099200  1
  O  O18  1  0.55523100  0.56874900  0.64389600  1
  O  O19  1  0.81695900  0.37727800  0.96634900  1
  O  O20  1  0.18304100  0.62272200  0.03365100  1
  O  O21  1  0.44476900  0.43125100  0.35610400  1
  O  O22  1  0.98137400  0.79725100  0.36900800  1
  O  O23  1  0.62272200  0.18304100  0.53365100  1
  O  O24  1  0.43125100  0.44476900  0.85610400  1
  O  O25  1  0.79725100  0.98137400  0.86900800  1
  O  O26  1  0.08394000  0.56157000  0.18900200  1
  O  O27  1  0.56157000  0.08394000  0.68900200  1
