# generated using pymatgen
data_LiVSiO4
_symmetry_space_group_name_H-M   'P 1'
_cell_length_a   5.09935100
_cell_length_b   10.49885505
_cell_length_c   6.85232104
_cell_angle_alpha   89.98835450
_cell_angle_beta   90.00042252
_cell_angle_gamma   89.99998333
_symmetry_Int_Tables_number   1
_chemical_formula_structural   LiVSiO4
_chemical_formula_sum   'Li4 V4 Si4 O16'
_cell_volume   366.85508158
_cell_formula_units_Z   4
loop_
 _symmetry_equiv_pos_site_id
 _symmetry_equiv_pos_as_xyz
  1  'x, y, z'
loop_
 _atom_site_type_symbol
 _atom_site_label
 _atom_site_symmetry_multiplicity
 _atom_site_fract_x
 _atom_site_fract_y
 _atom_site_fract_z
 _atom_site_occupancy
  Li  Li0  1  0.24427300  0.14948900  0.50377700  1
  Li  Li1  1  0.74430300  0.35039200  0.00383400  1
  Li  Li2  1  0.24430300  0.64961100  0.99616500  1
  Li  Li3  1  0.74427200  0.85051000  0.49622500  1
  V  V4  1  0.74633700  0.33329100  0.50975800  1
  V  V5  1  0.24632200  0.66670100  0.49023500  1
  V  V6  1  0.24633100  0.16667200  0.00963600  1
  V  V7  1  0.74632900  0.83332700  0.99036600  1
  Si  Si8  1  0.74983500  0.09472400  0.76064300  1
  Si  Si9  1  0.24986500  0.40508800  0.26061100  1
  Si  Si10  1  0.74986300  0.59491200  0.73938900  1
  Si  Si11  1  0.24983900  0.90527600  0.23936100  1
  O  O12  1  0.18928900  0.05915200  0.23629300  1
  O  O13  1  0.68957500  0.44100500  0.73630500  1
  O  O14  1  0.18956300  0.55899300  0.26368900  1
  O  O15  1  0.68928500  0.94085100  0.76371300  1
  O  O16  1  0.06789400  0.12281500  0.76814300  1
  O  O17  1  0.56781800  0.37685500  0.26810900  1
  O  O18  1  0.06781300  0.62314800  0.73189000  1
  O  O19  1  0.56789800  0.87719000  0.23185900  1
  O  O20  1  0.63111300  0.15979200  0.56052000  1
  O  O21  1  0.13097400  0.34012200  0.06054900  1
  O  O22  1  0.63097200  0.65987800  0.93945100  1
  O  O23  1  0.13112100  0.84020500  0.43947900  1
  O  O24  1  0.61712400  0.16785100  0.94969500  1
  O  O25  1  0.11698600  0.33189900  0.44953800  1
  O  O26  1  0.61697600  0.66810100  0.55046200  1
  O  O27  1  0.11712700  0.83215200  0.05030500  1
