# generated using pymatgen
data_Li2Co2(CO3)3
_symmetry_space_group_name_H-M   'P 1'
_cell_length_a   7.44234300
_cell_length_b   7.46001302
_cell_length_c   7.51294975
_cell_angle_alpha   108.90649075
_cell_angle_beta   108.99343315
_cell_angle_gamma   107.36795128
_symmetry_Int_Tables_number   1
_chemical_formula_structural   Li2Co2(CO3)3
_chemical_formula_sum   'Li4 Co4 C6 O18'
_cell_volume   332.91679167
_cell_formula_units_Z   2
loop_
 _symmetry_equiv_pos_site_id
 _symmetry_equiv_pos_as_xyz
  1  'x, y, z'
loop_
 _atom_site_type_symbol
 _atom_site_label
 _atom_site_symmetry_multiplicity
 _atom_site_fract_x
 _atom_site_fract_y
 _atom_site_fract_z
 _atom_site_occupancy
  Li  Li0  1  0.68972700  0.15538900  0.38955000  1
  Li  Li1  1  0.41349200  0.69359900  0.19407200  1
  Li  Li2  1  0.15720400  0.16183100  0.15010900  1
  Li  Li3  1  0.18792700  0.43544400  0.71283100  1
  Co  Co4  1  0.96510200  0.84795600  0.46436300  1
  Co  Co5  1  0.58059500  0.56012300  0.58092000  1
  Co  Co6  1  0.84947300  0.46517900  0.96316300  1
  Co  Co7  1  0.46691100  0.96496900  0.84731900  1
  C  C8  1  0.75465000  0.84259700  0.07610200  1
  C  C9  1  0.59976100  0.41322300  0.19089000  1
  C  C10  1  0.82923100  0.06574500  0.74327900  1
  C  C11  1  0.19339200  0.59552500  0.41528600  1
  C  C12  1  0.40932200  0.19438500  0.59701900  1
  C  C13  1  0.07486500  0.75614400  0.84192700  1
  O  O14  1  0.95071700  0.94812600  0.21929900  1
  O  O15  1  0.61645700  0.91447000  0.09824500  1
  O  O16  1  0.60470800  0.30063900  0.02108100  1
  O  O17  1  0.64387000  0.61151400  0.24678500  1
  O  O18  1  0.89399600  0.08281000  0.60258200  1
  O  O19  1  0.55149400  0.32911300  0.30381900  1
  O  O20  1  0.91134900  0.69459000  0.66562400  1
  O  O21  1  0.65542600  0.90575700  0.68605700  1
  O  O22  1  0.30676400  0.53725000  0.33390100  1
  O  O23  1  0.94044800  0.21449200  0.93851500  1
  O  O24  1  0.60841400  0.25390600  0.63701000  1
  O  O25  1  0.32142200  0.30901600  0.55353400  1
  O  O26  1  0.68997100  0.66398100  0.91352200  1
  O  O27  1  0.30382500  0.02342300  0.60033400  1
  O  O28  1  0.02538500  0.60306200  0.29948500  1
  O  O29  1  0.24740700  0.64859100  0.61419200  1
  O  O30  1  0.22064700  0.94993300  0.94723000  1
  O  O31  1  0.09755200  0.61872000  0.91325600  1
