# generated using pymatgen
data_LiMn2(BO3)2
_symmetry_space_group_name_H-M   'P 1'
_cell_length_a   14.03375649
_cell_length_b   14.03375649
_cell_length_c   10.36552861
_cell_angle_alpha   89.72674056
_cell_angle_beta   89.72674056
_cell_angle_gamma   158.25073369
_symmetry_Int_Tables_number   1
_chemical_formula_structural   LiMn2(BO3)2
_chemical_formula_sum   'Li6 Mn12 B12 O36'
_cell_volume   756.20946449
_cell_formula_units_Z   6
loop_
 _symmetry_equiv_pos_site_id
 _symmetry_equiv_pos_as_xyz
  1  'x, y, z'
loop_
 _atom_site_type_symbol
 _atom_site_label
 _atom_site_symmetry_multiplicity
 _atom_site_fract_x
 _atom_site_fract_y
 _atom_site_fract_z
 _atom_site_occupancy
  Li  Li0  1  0.45361600  0.77872800  0.34524600  1
  Li  Li1  1  0.47894700  0.81884200  0.81542300  1
  Li  Li2  1  0.87114100  0.88217700  0.07790800  1
  Li  Li3  1  0.81884200  0.47894700  0.31542300  1
  Li  Li4  1  0.77872800  0.45361600  0.84524600  1
  Li  Li5  1  0.88217700  0.87114100  0.57790800  1
  Mn  Mn6  1  0.05784800  0.28412200  0.86290800  1
  Mn  Mn7  1  0.28796100  0.42122300  0.12868600  1
  Mn  Mn8  1  0.04658800  0.61766600  0.61740000  1
  Mn  Mn9  1  0.60419000  0.69859300  0.37582400  1
  Mn  Mn10  1  0.28412200  0.05784800  0.36290800  1
  Mn  Mn11  1  0.35715300  0.89709700  0.87196300  1
  Mn  Mn12  1  0.61766600  0.04658800  0.11740000  1
  Mn  Mn13  1  0.42122300  0.28796100  0.62868600  1
  Mn  Mn14  1  0.74764000  0.96160800  0.61736200  1
  Mn  Mn15  1  0.89709700  0.35715300  0.37196300  1
  Mn  Mn16  1  0.69859300  0.60419000  0.87582400  1
  Mn  Mn17  1  0.96160800  0.74764000  0.11736200  1
  B  B18  1  0.03879400  0.27018900  0.37498000  1
  B  B19  1  0.05535200  0.60712900  0.12315800  1
  B  B20  1  0.29882100  0.39546800  0.62226300  1
  B  B21  1  0.37883100  0.93117600  0.36508100  1
  B  B22  1  0.27018900  0.03879400  0.87498000  1
  B  B23  1  0.62132700  0.74924900  0.88044000  1
  B  B24  1  0.72589000  0.93393700  0.13700500  1
  B  B25  1  0.39546800  0.29882100  0.12226300  1
  B  B26  1  0.60712900  0.05535200  0.62315800  1
  B  B27  1  0.74924900  0.62132700  0.38044000  1
  B  B28  1  0.93117600  0.37883100  0.86508100  1
  B  B29  1  0.93393700  0.72589000  0.63700500  1
  O  O30  1  0.22505600  0.23479900  0.61416600  1
  O  O31  1  0.13343500  0.31418000  0.66369000  1
  O  O32  1  0.21034600  0.36361600  0.31792300  1
  O  O33  1  0.09523700  0.41621700  0.37888000  1
  O  O34  1  0.98124700  0.52141700  0.83425000  1
  O  O35  1  0.11834300  0.48625500  0.85768200  1
  O  O36  1  0.11971900  0.67912700  0.40661800  1
  O  O37  1  0.01480600  0.80313900  0.92825000  1
  O  O38  1  0.38766400  0.54101100  0.94749300  1
  O  O39  1  0.28530500  0.80626000  0.05387000  1
  O  O40  1  0.15760200  0.95587900  0.56817000  1
  O  O41  1  0.55386700  0.65867300  0.58239600  1
  O  O42  1  0.23479900  0.22505600  0.11416600  1
  O  O43  1  0.65564900  0.77433800  0.17408700  1
  O  O44  1  0.56931600  0.86189200  0.16630000  1
  O  O45  1  0.31418000  0.13343500  0.16369000  1
  O  O46  1  0.42584200  0.94812200  0.68450000  1
  O  O47  1  0.52141700  0.98124700  0.33425000  1
  O  O48  1  0.58447800  0.93913200  0.63522800  1
  O  O49  1  0.48625500  0.11834300  0.35768200  1
  O  O50  1  0.36361600  0.21034600  0.81792300  1
  O  O51  1  0.41621700  0.09523700  0.87888000  1
  O  O52  1  0.68371900  0.89062900  0.80709400  1
  O  O53  1  0.77707300  0.81848400  0.88932100  1
  O  O54  1  0.80313900  0.01480600  0.42825000  1
  O  O55  1  0.67912700  0.11971900  0.90661800  1
  O  O56  1  0.54101100  0.38766400  0.44749300  1
  O  O57  1  0.95587900  0.15760200  0.06817000  1
  O  O58  1  0.65867300  0.55386700  0.08239600  1
  O  O59  1  0.80626000  0.28530500  0.55387000  1
  O  O60  1  0.94812200  0.42584200  0.18450000  1
  O  O61  1  0.93913200  0.58447800  0.13522800  1
  O  O62  1  0.77433800  0.65564900  0.67408700  1
  O  O63  1  0.86189200  0.56931600  0.66630000  1
  O  O64  1  0.89062900  0.68371900  0.30709400  1
  O  O65  1  0.81848400  0.77707300  0.38932100  1
