# generated using pymatgen
data_Li4Ti2Nb3Fe3O16
_symmetry_space_group_name_H-M   'P 1'
_cell_length_a   6.14062146
_cell_length_b   6.07433281
_cell_length_c   9.82833248
_cell_angle_alpha   90.27797885
_cell_angle_beta   88.59256387
_cell_angle_gamma   119.60704557
_symmetry_Int_Tables_number   1
_chemical_formula_structural   Li4Ti2Nb3Fe3O16
_chemical_formula_sum   'Li4 Ti2 Nb3 Fe3 O16'
_cell_volume   318.62597038
_cell_formula_units_Z   1
loop_
 _symmetry_equiv_pos_site_id
 _symmetry_equiv_pos_as_xyz
  1  'x, y, z'
loop_
 _atom_site_type_symbol
 _atom_site_label
 _atom_site_symmetry_multiplicity
 _atom_site_fract_x
 _atom_site_fract_y
 _atom_site_fract_z
 _atom_site_occupancy
  Li  Li0  1  0.33226900  0.66398100  0.90311100  1
  Li  Li1  1  0.00651200  0.00302100  0.99629200  1
  Li  Li2  1  0.02063200  0.00954500  0.48451500  1
  Li  Li3  1  0.67327500  0.33765800  0.39332700  1
  Ti  Ti4  1  0.28838600  0.64015200  0.48419100  1
  Ti  Ti5  1  0.66170100  0.32875400  0.00871400  1
  Nb  Nb6  1  0.63886100  0.82136100  0.22814300  1
  Nb  Nb7  1  0.81860200  0.65139600  0.71899000  1
  Nb  Nb8  1  0.81355500  0.16903400  0.71663900  1
  Fe  Fe9  1  0.17225000  0.83150300  0.20853200  1
  Fe  Fe10  1  0.17324700  0.34098200  0.20849700  1
  Fe  Fe11  1  0.33899400  0.16339300  0.70773700  1
  O  O12  1  0.16145400  0.82309000  0.59381100  1
  O  O13  1  0.05173700  0.52640600  0.35165200  1
  O  O14  1  0.36271600  0.68043500  0.09858800  1
  O  O15  1  0.98004500  0.99045800  0.29896800  1
  O  O16  1  0.99262700  0.99883600  0.80896100  1
  O  O17  1  0.15679000  0.33873800  0.59219600  1
  O  O18  1  0.49403800  0.96636400  0.35305000  1
  O  O19  1  0.49395800  0.53099600  0.35425600  1
  O  O20  1  0.34347100  0.17166400  0.08882500  1
  O  O21  1  0.67773400  0.84011000  0.60302500  1
  O  O22  1  0.52946300  0.48389000  0.83933600  1
  O  O23  1  0.53637500  0.04306600  0.84594400  1
  O  O24  1  0.68418100  0.34540400  0.59020800  1
  O  O25  1  0.81083400  0.64869300  0.09288200  1
  O  O26  1  0.97462100  0.48922100  0.84290700  1
  O  O27  1  0.81167200  0.16215000  0.09454300  1
