# generated using pymatgen
data_Li24Ti7Cr5O36
_symmetry_space_group_name_H-M   'P 1'
_cell_length_a   5.07264500
_cell_length_b   9.79981476
_cell_length_c   13.41193652
_cell_angle_alpha   97.18828826
_cell_angle_beta   100.68346717
_cell_angle_gamma   94.84197894
_symmetry_Int_Tables_number   1
_chemical_formula_structural   Li24Ti7Cr5O36
_chemical_formula_sum   'Li24 Ti7 Cr5 O36'
_cell_volume   646.04316334
_cell_formula_units_Z   1
loop_
 _symmetry_equiv_pos_site_id
 _symmetry_equiv_pos_as_xyz
  1  'x, y, z'
loop_
 _atom_site_type_symbol
 _atom_site_label
 _atom_site_symmetry_multiplicity
 _atom_site_fract_x
 _atom_site_fract_y
 _atom_site_fract_z
 _atom_site_occupancy
  Li  Li0  1  0.16706500  0.00073800  0.83329200  1
  Li  Li1  1  0.04685100  0.00019400  0.61236100  1
  Li  Li2  1  0.00093400  0.75018900  0.25126800  1
  Li  Li3  1  0.33245900  0.75020500  0.91566600  1
  Li  Li4  1  0.04723300  0.49995400  0.11269800  1
  Li  Li5  1  0.38418700  0.49892200  0.78027100  1
  Li  Li6  1  0.16099100  0.50035800  0.33430200  1
  Li  Li7  1  0.50229200  0.49844500  0.99934600  1
  Li  Li8  1  0.28669900  0.50041300  0.55374100  1
  Li  Li9  1  0.33276300  0.25017400  0.41584300  1
  Li  Li10  1  0.49355300  0.99959500  0.50069000  1
  Li  Li11  1  0.28510700  0.00054500  0.05347200  1
  Li  Li12  1  0.61996600  0.00112400  0.72166300  1
  Li  Li13  1  0.38520800  0.00129700  0.28066000  1
  Li  Li14  1  0.71162200  0.99924700  0.94477900  1
  Li  Li15  1  0.66754900  0.74963900  0.58400600  1
  Li  Li16  1  0.72032800  0.50016400  0.44703300  1
  Li  Li17  1  0.83286500  0.50048000  0.66672400  1
  Li  Li18  1  0.61638500  0.49944600  0.21973600  1
  Li  Li19  1  0.94850600  0.50007200  0.88628700  1
  Li  Li20  1  0.66749000  0.25002300  0.08314300  1
  Li  Li21  1  0.83680600  0.00057300  0.16597200  1
  Li  Li22  1  0.00140400  0.24968000  0.75035700  1
  Li  Li23  1  0.95250100  0.99899400  0.38718400  1
  Ti  Ti24  1  0.11200800  0.25276600  0.97541800  1
  Ti  Ti25  1  0.22111400  0.74677600  0.69406900  1
  Ti  Ti26  1  0.43766600  0.24679700  0.63931800  1
  Ti  Ti27  1  0.44436900  0.74978800  0.13881600  1
  Ti  Ti28  1  0.55658400  0.75106500  0.36139200  1
  Ti  Ti29  1  0.88527600  0.25086900  0.52516900  1
  Ti  Ti30  1  0.89239900  0.75168500  0.02666400  1
  Cr  Cr31  1  0.11277300  0.74999500  0.47404900  1
  Cr  Cr32  1  0.22581700  0.25054500  0.19810600  1
  Cr  Cr33  1  0.56012600  0.24945300  0.86089800  1
  Cr  Cr34  1  0.77417900  0.75040400  0.80609300  1
  Cr  Cr35  1  0.77507200  0.24965100  0.30154700  1
  O  O36  1  0.00412400  0.86366300  0.92853500  1
  O  O37  1  0.06538300  0.63556500  0.78604400  1
  O  O38  1  0.99922000  0.36158500  0.42584000  1
  O  O39  1  0.14368900  0.36392300  0.64298000  1
  O  O40  1  0.26759400  0.36346400  0.88123000  1
  O  O41  1  0.33261700  0.86231300  0.59376800  1
  O  O42  1  0.07623900  0.13596500  0.28238600  1
  O  O43  1  0.19078300  0.13606400  0.52252100  1
  O  O44  1  0.40617900  0.13601100  0.95118300  1
  O  O45  1  0.14346600  0.86372000  0.14303100  1
  O  O46  1  0.26484000  0.86574600  0.38122500  1
  O  O47  1  0.48458200  0.86227100  0.81069900  1
  O  O48  1  0.32692800  0.13557100  0.73679100  1
  O  O49  1  0.18979500  0.63631400  0.02230500  1
  O  O50  1  0.39519700  0.63563100  0.45302800  1
  O  O51  1  0.52262800  0.63678400  0.68930900  1
  O  O52  1  0.33223700  0.63597100  0.23816700  1
  O  O53  1  0.66340600  0.63815900  0.90196800  1
  O  O54  1  0.33431600  0.36290900  0.09806300  1
  O  O55  1  0.66944800  0.36155200  0.76581800  1
  O  O56  1  0.46829600  0.36221800  0.30757800  1
  O  O57  1  0.59771900  0.36636200  0.54851300  1
  O  O58  1  0.81343200  0.36465300  0.97873700  1
  O  O59  1  0.66857000  0.86393300  0.26245300  1
  O  O60  1  0.53241300  0.13827500  0.19234400  1
  O  O61  1  0.73612500  0.13390400  0.61747400  1
  O  O62  1  0.84769300  0.13788200  0.85639500  1
  O  O63  1  0.59653600  0.86631200  0.04788700  1
  O  O64  1  0.81639200  0.86133700  0.47786700  1
  O  O65  1  0.92822100  0.86445800  0.71545500  1
  O  O66  1  0.66496100  0.13789500  0.40196600  1
  O  O67  1  0.73579600  0.63410600  0.11749300  1
  O  O68  1  0.85797800  0.63734800  0.35748900  1
  O  O69  1  0.99757500  0.63606400  0.57154000  1
  O  O70  1  0.92396700  0.36440600  0.21681800  1
  O  O71  1  0.00351200  0.13740600  0.07306200  1
