# generated using pymatgen
data_Li5Mn2P2(CO7)2
_symmetry_space_group_name_H-M   'P 1'
_cell_length_a   8.19807300
_cell_length_b   8.21550882
_cell_length_c   9.59506239
_cell_angle_alpha   106.98827462
_cell_angle_beta   106.97495766
_cell_angle_gamma   103.37209918
_symmetry_Int_Tables_number   1
_chemical_formula_structural   Li5Mn2P2(CO7)2
_chemical_formula_sum   'Li10 Mn4 P4 C4 O28'
_cell_volume   554.58273591
_cell_formula_units_Z   2
loop_
 _symmetry_equiv_pos_site_id
 _symmetry_equiv_pos_as_xyz
  1  'x, y, z'
loop_
 _atom_site_type_symbol
 _atom_site_label
 _atom_site_symmetry_multiplicity
 _atom_site_fract_x
 _atom_site_fract_y
 _atom_site_fract_z
 _atom_site_occupancy
  Li  Li0  1  0.55191000  0.79626700  0.09201000  1
  Li  Li1  1  0.77669200  0.25891000  0.25565500  1
  Li  Li2  1  0.00489400  0.01582700  0.25264900  1
  Li  Li3  1  0.25101600  0.73303600  0.25289000  1
  Li  Li4  1  0.48960900  0.51312100  0.25846000  1
  Li  Li5  1  0.99510600  0.98417300  0.74735100  1
  Li  Li6  1  0.22330800  0.74109000  0.74434500  1
  Li  Li7  1  0.51039100  0.48687900  0.74154000  1
  Li  Li8  1  0.74898400  0.26696400  0.74711000  1
  Li  Li9  1  0.44809000  0.20373300  0.90799000  1
  Mn  Mn10  1  0.44432400  0.19401000  0.33937600  1
  Mn  Mn11  1  0.93509400  0.68784400  0.34209800  1
  Mn  Mn12  1  0.55567600  0.80599000  0.66062400  1
  Mn  Mn13  1  0.06490600  0.31215600  0.65790200  1
  P  P14  1  0.69000900  0.94278300  0.41676300  1
  P  P15  1  0.19920000  0.44806700  0.41632900  1
  P  P16  1  0.80080000  0.55193300  0.58367100  1
  P  P17  1  0.30999100  0.05721700  0.58323700  1
  C  C18  1  0.25374200  0.00775100  0.03967500  1
  C  C19  1  0.74752200  0.49460600  0.04430600  1
  C  C20  1  0.74625800  0.99224900  0.96032500  1
  C  C21  1  0.25247800  0.50539400  0.95569400  1
  O  O22  1  0.88370000  0.63660700  0.08879900  1
  O  O23  1  0.39676200  0.14364600  0.07554400  1
  O  O24  1  0.85082700  0.09734200  0.10159300  1
  O  O25  1  0.22350000  0.98158500  0.16190700  1
  O  O26  1  0.35468700  0.60643200  0.10394800  1
  O  O27  1  0.70321300  0.44743500  0.15174800  1
  O  O28  1  0.78060900  0.85104900  0.31083100  1
  O  O29  1  0.30837900  0.36332000  0.32705900  1
  O  O30  1  0.11288400  0.55008800  0.32433100  1
  O  O31  1  0.60019400  0.04260300  0.31696000  1
  O  O32  1  0.17367600  0.92809300  0.41556600  1
  O  O33  1  0.05409800  0.29930600  0.42924700  1
  O  O34  1  0.54142900  0.79657800  0.42909400  1
  O  O35  1  0.67050200  0.41769700  0.41067600  1
  O  O36  1  0.82632400  0.07190700  0.58443400  1
  O  O37  1  0.94590200  0.70069400  0.57075300  1
  O  O38  1  0.45857100  0.20342200  0.57090600  1
  O  O39  1  0.32949800  0.58230300  0.58932400  1
  O  O40  1  0.88711600  0.44991200  0.67566900  1
  O  O41  1  0.21939100  0.14895100  0.68916900  1
  O  O42  1  0.39980600  0.95739700  0.68304000  1
  O  O43  1  0.69162100  0.63668000  0.67294100  1
  O  O44  1  0.77650000  0.01841500  0.83809300  1
  O  O45  1  0.14917300  0.90265800  0.89840700  1
  O  O46  1  0.29678700  0.55256500  0.84825200  1
  O  O47  1  0.64531300  0.39356800  0.89605200  1
  O  O48  1  0.60323800  0.85635400  0.92445600  1
  O  O49  1  0.11630000  0.36339300  0.91120100  1
