# generated using pymatgen
data_LiLa7(CuO7)2
_symmetry_space_group_name_H-M   'P 1'
_cell_length_a   11.61559929
_cell_length_b   11.61559929
_cell_length_c   11.87668611
_cell_angle_alpha   65.81788813
_cell_angle_beta   65.81788813
_cell_angle_gamma   68.90476628
_symmetry_Int_Tables_number   1
_chemical_formula_structural   LiLa7(CuO7)2
_chemical_formula_sum   'Li4 La28 Cu8 O56'
_cell_volume   1297.51413710
_cell_formula_units_Z   4
loop_
 _symmetry_equiv_pos_site_id
 _symmetry_equiv_pos_as_xyz
  1  'x, y, z'
loop_
 _atom_site_type_symbol
 _atom_site_label
 _atom_site_symmetry_multiplicity
 _atom_site_fract_x
 _atom_site_fract_y
 _atom_site_fract_z
 _atom_site_occupancy
  Li  Li0  1  0.28573100  0.28573100  0.07081600  1
  Li  Li1  1  0.71426900  0.71426900  0.92918400  1
  Li  Li2  1  0.57143800  0.57143800  0.64245200  1
  Li  Li3  1  0.42856200  0.42856200  0.35754800  1
  La  La4  1  0.35004100  0.07533000  0.92579300  1
  La  La5  1  0.07533000  0.35004100  0.92579300  1
  La  La6  1  0.00510700  0.28555900  0.28195200  1
  La  La7  1  0.29031400  0.56638800  0.85753800  1
  La  La8  1  0.28555900  0.00510700  0.28195200  1
  La  La9  1  0.13404500  0.86595500  0.00000000  1
  La  La10  1  0.86595500  0.13404500  0.00000000  1
  La  La11  1  0.56638800  0.29031400  0.85753800  1
  La  La12  1  0.21468700  0.93384100  0.64825300  1
  La  La13  1  0.06615900  0.78531300  0.35174700  1
  La  La14  1  0.49594400  0.21932200  0.21400500  1
  La  La15  1  0.92467000  0.64995900  0.07420700  1
  La  La16  1  0.78067800  0.50405600  0.78599500  1
  La  La17  1  0.93384100  0.21468700  0.64825300  1
  La  La18  1  0.21932200  0.49594400  0.21400500  1
  La  La19  1  0.78531300  0.06615800  0.35174700  1
  La  La20  1  0.64995900  0.92467000  0.07420700  1
  La  La21  1  0.50405600  0.78067800  0.78599500  1
  La  La22  1  0.41927300  0.14749600  0.57520800  1
  La  La23  1  0.85250400  0.58072700  0.42479200  1
  La  La24  1  0.43361200  0.70968600  0.14246200  1
  La  La25  1  0.58072700  0.85250400  0.42479200  1
  La  La26  1  0.14749600  0.41927300  0.57520800  1
  La  La27  1  0.70968600  0.43361200  0.14246200  1
  La  La28  1  0.99489300  0.71444100  0.71804800  1
  La  La29  1  0.71444100  0.99489300  0.71804800  1
  La  La30  1  0.63974600  0.36025400  0.50000000  1
  La  La31  1  0.36025400  0.63974600  0.50000000  1
  Cu  Cu32  1  0.21448300  0.21448300  0.42802200  1
  Cu  Cu33  1  0.07167500  0.07167500  0.14322000  1
  Cu  Cu34  1  0.92832500  0.92832500  0.85678000  1
  Cu  Cu35  1  0.00000000  0.00000000  0.50000000  1
  Cu  Cu36  1  0.35751700  0.35751600  0.71426000  1
  Cu  Cu37  1  0.78551700  0.78551700  0.57197800  1
  Cu  Cu38  1  0.64248300  0.64248300  0.28574000  1
  Cu  Cu39  1  0.50000000  0.50000000  0.00000000  1
  O  O40  1  0.32199000  0.32199000  0.88896500  1
  O  O41  1  0.25310400  0.25310400  0.74956300  1
  O  O42  1  0.32874600  0.95786600  0.78380500  1
  O  O43  1  0.95786600  0.32874600  0.78380500  1
  O  O44  1  0.31965500  0.31965500  0.39415100  1
  O  O45  1  0.03254900  0.03254900  0.82240600  1
  O  O46  1  0.24925300  0.24925300  0.25284200  1
  O  O47  1  0.17684800  0.17684800  0.10720400  1
  O  O48  1  0.10641300  0.10641300  0.96838600  1
  O  O49  1  0.88724300  0.25551700  0.14408300  1
  O  O50  1  0.25551700  0.88724300  0.14408300  1
  O  O51  1  0.31395300  0.68604700  0.00000000  1
  O  O52  1  0.68604700  0.31395300  0.00000000  1
  O  O53  1  0.11275700  0.74448300  0.85591700  1
  O  O54  1  0.74448300  0.11275700  0.85591700  1
  O  O55  1  0.89358700  0.89358700  0.03161400  1
  O  O56  1  0.75074700  0.75074700  0.74715800  1
  O  O57  1  0.82315200  0.82315200  0.89279600  1
  O  O58  1  0.17938100  0.17938100  0.60216000  1
  O  O59  1  0.03544800  0.03544800  0.32105000  1
  O  O60  1  0.10796600  0.10796600  0.46465200  1
  O  O61  1  0.96745100  0.96745100  0.17759400  1
  O  O62  1  0.10545800  0.46566100  0.07245400  1
  O  O63  1  0.82087700  0.17912300  0.50000000  1
  O  O64  1  0.04213400  0.67125400  0.21619500  1
  O  O65  1  0.60876900  0.24955300  0.35628600  1
  O  O66  1  0.17912300  0.82087700  0.50000000  1
  O  O67  1  0.46566100  0.10545800  0.07245400  1
  O  O68  1  0.67125400  0.04213400  0.21619500  1
  O  O69  1  0.53433900  0.89454200  0.92754600  1
  O  O70  1  0.24955300  0.60876900  0.35628600  1
  O  O71  1  0.89454200  0.53433900  0.92754600  1
  O  O72  1  0.67801000  0.67801000  0.11103500  1
  O  O73  1  0.53480000  0.53480000  0.82562400  1
  O  O74  1  0.89203400  0.89203400  0.53534800  1
  O  O75  1  0.74689600  0.74689600  0.25043700  1
  O  O76  1  0.60451900  0.60451900  0.96566900  1
  O  O77  1  0.96455200  0.96455200  0.67895000  1
  O  O78  1  0.82061900  0.82061900  0.39784000  1
  O  O79  1  0.54220300  0.17210200  0.71427500  1
  O  O80  1  0.82789800  0.45779700  0.28572500  1
  O  O81  1  0.97098000  0.60223500  0.57067700  1
  O  O82  1  0.39776400  0.02902000  0.42932300  1
  O  O83  1  0.17210200  0.54220300  0.71427500  1
  O  O84  1  0.60223600  0.97098000  0.57067700  1
  O  O85  1  0.45779700  0.82789800  0.28572500  1
  O  O86  1  0.02902000  0.39776400  0.42932300  1
  O  O87  1  0.60786200  0.60786200  0.46012100  1
  O  O88  1  0.53732700  0.53732700  0.32156400  1
  O  O89  1  0.39548100  0.39548100  0.03433100  1
  O  O90  1  0.68034500  0.68034500  0.60584900  1
  O  O91  1  0.46520000  0.46520000  0.17437600  1
  O  O92  1  0.39123100  0.75044700  0.64371400  1
  O  O93  1  0.75044700  0.39123100  0.64371400  1
  O  O94  1  0.39213800  0.39213800  0.53987900  1
  O  O95  1  0.46267300  0.46267300  0.67843600  1
