# generated using pymatgen
data_LiVOF2
_symmetry_space_group_name_H-M   'P 1'
_cell_length_a   5.47583200
_cell_length_b   8.97287025
_cell_length_c   10.12959662
_cell_angle_alpha   90.38528017
_cell_angle_beta   90.20040787
_cell_angle_gamma   90.39035811
_symmetry_Int_Tables_number   1
_chemical_formula_structural   LiVOF2
_chemical_formula_sum   'Li8 V8 O8 F16'
_cell_volume   497.68096329
_cell_formula_units_Z   8
loop_
 _symmetry_equiv_pos_site_id
 _symmetry_equiv_pos_as_xyz
  1  'x, y, z'
loop_
 _atom_site_type_symbol
 _atom_site_label
 _atom_site_symmetry_multiplicity
 _atom_site_fract_x
 _atom_site_fract_y
 _atom_site_fract_z
 _atom_site_occupancy
  Li  Li0  1  0.46816900  0.41966200  0.21026800  1
  Li  Li1  1  0.96421100  0.58983100  0.21206400  1
  Li  Li2  1  0.96538400  0.07955200  0.28520800  1
  Li  Li3  1  0.45165600  0.90762400  0.29346100  1
  Li  Li4  1  0.52953400  0.07853000  0.69622200  1
  Li  Li5  1  0.03440900  0.92267900  0.69578200  1
  Li  Li6  1  0.03935400  0.41507700  0.79299800  1
  Li  Li7  1  0.53825800  0.57608900  0.80850300  1
  V  V8  1  0.75052900  0.90570000  0.01129600  1
  V  V9  1  0.74017400  0.26105700  0.01234100  1
  V  V10  1  0.23363500  0.73919000  0.01186600  1
  V  V11  1  0.25421300  0.09500100  0.01113700  1
  V  V12  1  0.76705200  0.41876600  0.49594300  1
  V  V13  1  0.73055100  0.76220100  0.49123200  1
  V  V14  1  0.25898700  0.24680100  0.49231400  1
  V  V15  1  0.24393800  0.58508000  0.49746600  1
  O  O16  1  0.90835000  0.08646500  0.09082000  1
  O  O17  1  0.40444900  0.91460700  0.09165600  1
  O  O18  1  0.43152900  0.24661500  0.09504700  1
  O  O19  1  0.92443400  0.75378700  0.09254300  1
  O  O20  1  0.41846600  0.74522900  0.41770400  1
  O  O21  1  0.42531600  0.41640500  0.40909800  1
  O  O22  1  0.90242300  0.59122000  0.40468300  1
  O  O23  1  0.07859400  0.40768500  0.59769700  1
  F  F24  1  0.81369000  0.41812200  0.14584900  1
  F  F25  1  0.31106600  0.58933100  0.14980200  1
  F  F26  1  0.79522600  0.91979200  0.35519300  1
  F  F27  1  0.30538000  0.08365700  0.36328900  1
  F  F28  1  0.93799200  0.25976100  0.38692100  1
  F  F29  1  0.58871900  0.58069100  0.61858500  1
  F  F30  1  0.59436000  0.24712800  0.59274300  1
  F  F31  1  0.06562500  0.73694400  0.61093100  1
  F  F32  1  0.70448400  0.91825400  0.63274300  1
  F  F33  1  0.19552500  0.09127200  0.63238200  1
  F  F34  1  0.70681700  0.40984000  0.86722500  1
  F  F35  1  0.20678500  0.58013100  0.87252700  1
  F  F36  1  0.07844000  0.23684000  0.89228700  1
  F  F37  1  0.57147300  0.76414300  0.88987100  1
  F  F38  1  0.58094400  0.08600700  0.88624800  1
  F  F39  1  0.07985500  0.91323500  0.88604900  1
