# generated using pymatgen
data_Li3VPCO7
_symmetry_space_group_name_H-M   'P 1'
_cell_length_a   6.62183000
_cell_length_b   8.52531452
_cell_length_c   9.96286406
_cell_angle_alpha   95.40383728
_cell_angle_beta   90.35729063
_cell_angle_gamma   90.34608273
_symmetry_Int_Tables_number   1
_chemical_formula_structural   Li3VPCO7
_chemical_formula_sum   'Li12 V4 P4 C4 O28'
_cell_volume   559.91244368
_cell_formula_units_Z   4
loop_
 _symmetry_equiv_pos_site_id
 _symmetry_equiv_pos_as_xyz
  1  'x, y, z'
loop_
 _atom_site_type_symbol
 _atom_site_label
 _atom_site_symmetry_multiplicity
 _atom_site_fract_x
 _atom_site_fract_y
 _atom_site_fract_z
 _atom_site_occupancy
  Li  Li0  1  0.73998500  0.89789100  0.39252800  1
  Li  Li1  1  0.74449500  0.90441000  0.88102400  1
  Li  Li2  1  0.51685900  0.71987300  0.13378500  1
  Li  Li3  1  0.99001900  0.72227000  0.61173400  1
  Li  Li4  1  0.51478400  0.72069300  0.61257100  1
  Li  Li5  1  0.25536100  0.65424400  0.40023400  1
  Li  Li6  1  0.46419400  0.28363400  0.37737600  1
  Li  Li7  1  0.03517400  0.28374200  0.37666300  1
  Li  Li8  1  0.46956900  0.28151200  0.87265300  1
  Li  Li9  1  0.02902300  0.27942200  0.87226500  1
  Li  Li10  1  0.25143600  0.09677400  0.11541500  1
  Li  Li11  1  0.25085000  0.10225800  0.61312800  1
  V  V12  1  0.99190200  0.72602900  0.14564000  1
  V  V13  1  0.25452100  0.67008800  0.89209000  1
  V  V14  1  0.74920500  0.32744300  0.10273800  1
  V  V15  1  0.75074700  0.32919000  0.60376000  1
  P  P16  1  0.74919700  0.59092600  0.36092700  1
  P  P17  1  0.75068400  0.58897000  0.86191900  1
  P  P18  1  0.25018700  0.40726000  0.14060700  1
  P  P19  1  0.25045800  0.41401300  0.63897000  1
  C  C20  1  0.24634600  0.96397100  0.34973800  1
  C  C21  1  0.24885600  0.96482500  0.84684300  1
  C  C22  1  0.74784000  0.03672200  0.15450700  1
  C  C23  1  0.75035400  0.03502800  0.65217400  1
  O  O24  1  0.25166400  0.93108300  0.47175800  1
  O  O25  1  0.74628700  0.89071500  0.18603100  1
  O  O26  1  0.25018800  0.92588700  0.97078900  1
  O  O27  1  0.24014200  0.84992800  0.25066600  1
  O  O28  1  0.75096300  0.88858700  0.67800700  1
  O  O29  1  0.24871300  0.85040600  0.75054800  1
  O  O30  1  0.93908200  0.69222100  0.40371200  1
  O  O31  1  0.56430600  0.69036300  0.40761400  1
  O  O32  1  0.93559100  0.68941200  0.92244500  1
  O  O33  1  0.57076000  0.69385500  0.91437900  1
  O  O34  1  0.25068100  0.57522000  0.08831200  1
  O  O35  1  0.75047800  0.56811100  0.19991800  1
  O  O36  1  0.25100700  0.57854700  0.58904300  1
  O  O37  1  0.75733900  0.57072600  0.70543400  1
  O  O38  1  0.25026000  0.42868700  0.29570200  1
  O  O39  1  0.75034800  0.42461400  0.41001700  1
  O  O40  1  0.25084400  0.43051500  0.79754500  1
  O  O41  1  0.74671800  0.42269600  0.91136600  1
  O  O42  1  0.06649100  0.30691900  0.08326900  1
  O  O43  1  0.43218400  0.30850700  0.08362600  1
  O  O44  1  0.43241500  0.31002700  0.58768300  1
  O  O45  1  0.06788300  0.30869900  0.58648000  1
  O  O46  1  0.74680900  0.15127100  0.24915200  1
  O  O47  1  0.24921400  0.10957300  0.31728000  1
  O  O48  1  0.75123300  0.14835400  0.75007100  1
  O  O49  1  0.74906600  0.06946600  0.03039300  1
  O  O50  1  0.24871500  0.10991000  0.81995100  1
  O  O51  1  0.74857600  0.07450800  0.52952400  1
