# generated using pymatgen
data_Li2Mn3(BO3)3
_symmetry_space_group_name_H-M   'P 1'
_cell_length_a   5.86184200
_cell_length_b   8.28736548
_cell_length_c   9.06725735
_cell_angle_alpha   112.66098169
_cell_angle_beta   102.25647561
_cell_angle_gamma   102.10976030
_symmetry_Int_Tables_number   1
_chemical_formula_structural   Li2Mn3(BO3)3
_chemical_formula_sum   'Li4 Mn6 B6 O18'
_cell_volume   375.87415968
_cell_formula_units_Z   2
loop_
 _symmetry_equiv_pos_site_id
 _symmetry_equiv_pos_as_xyz
  1  'x, y, z'
loop_
 _atom_site_type_symbol
 _atom_site_label
 _atom_site_symmetry_multiplicity
 _atom_site_fract_x
 _atom_site_fract_y
 _atom_site_fract_z
 _atom_site_occupancy
  Li  Li0  1  0.04398500  0.38719200  0.22417500  1
  Li  Li1  1  0.40234000  0.71929800  0.88636600  1
  Li  Li2  1  0.91964000  0.61290200  0.77108400  1
  Li  Li3  1  0.72308400  0.05967100  0.55891900  1
  Mn  Mn4  1  0.23747600  0.99120300  0.78914600  1
  Mn  Mn5  1  0.12186500  0.37018800  0.88729400  1
  Mn  Mn6  1  0.43904800  0.69065900  0.54239400  1
  Mn  Mn7  1  0.53779100  0.29583900  0.44084000  1
  Mn  Mn8  1  0.88265000  0.64243900  0.13297100  1
  Mn  Mn9  1  0.76933800  0.02066800  0.19695300  1
  B  B10  1  0.10323200  0.36570700  0.54364800  1
  B  B11  1  0.21751900  0.95397600  0.10633100  1
  B  B12  1  0.44378300  0.70491600  0.22540300  1
  B  B13  1  0.56688800  0.31268700  0.78831200  1
  B  B14  1  0.78583000  0.03376700  0.88145900  1
  B  B15  1  0.89201400  0.63026300  0.46033200  1
  O  O16  1  0.15513100  0.85172900  0.93626400  1
  O  O17  1  0.13051100  0.75605900  0.55748300  1
  O  O18  1  0.05365300  0.92920100  0.19475300  1
  O  O19  1  0.17239000  0.47760500  0.71424100  1
  O  O20  1  0.24122000  0.41359000  0.44755600  1
  O  O21  1  0.22117500  0.56177700  0.14518600  1
  O  O22  1  0.56884600  0.88312300  0.80132600  1
  O  O23  1  0.42202200  0.26734300  0.87819400  1
  O  O24  1  0.54027700  0.80527400  0.39718900  1
  O  O25  1  0.50470900  0.20671700  0.61845900  1
  O  O26  1  0.57175900  0.74967500  0.12298800  1
  O  O27  1  0.45558100  0.07881400  0.20266900  1
  O  O28  1  0.78440700  0.46470500  0.87625800  1
  O  O29  1  0.73291500  0.59860500  0.55282000  1
  O  O30  1  0.82183400  0.52916000  0.29214100  1
  O  O31  1  0.91429000  0.08347900  0.78438100  1
  O  O32  1  0.88906700  0.21433300  0.45624100  1
  O  O33  1  0.87027300  0.13695100  0.05471800  1
