# generated using pymatgen
data_Li11Mn12(BO3)12
_symmetry_space_group_name_H-M   'P 1'
_cell_length_a   9.10014300
_cell_length_b   9.11414255
_cell_length_c   11.64177566
_cell_angle_alpha   88.45024985
_cell_angle_beta   112.80362759
_cell_angle_gamma   119.75093442
_symmetry_Int_Tables_number   1
_chemical_formula_structural   Li11Mn12(BO3)12
_chemical_formula_sum   'Li11 Mn12 B12 O36'
_cell_volume   756.11690262
_cell_formula_units_Z   1
loop_
 _symmetry_equiv_pos_site_id
 _symmetry_equiv_pos_as_xyz
  1  'x, y, z'
loop_
 _atom_site_type_symbol
 _atom_site_label
 _atom_site_symmetry_multiplicity
 _atom_site_fract_x
 _atom_site_fract_y
 _atom_site_fract_z
 _atom_site_occupancy
  Li  Li0  1  0.50996300  0.92408900  0.08603700  1
  Li  Li1  1  0.42914700  0.55357500  0.33237300  1
  Li  Li2  1  0.17500300  0.25644000  0.08279600  1
  Li  Li3  1  0.09309400  0.88700500  0.33387700  1
  Li  Li4  1  0.16426300  0.75723300  0.58335600  1
  Li  Li5  1  0.84156600  0.58997700  0.08281700  1
  Li  Li6  1  0.76565900  0.22114300  0.33546600  1
  Li  Li7  1  0.12431200  0.38553200  0.83132400  1
  Li  Li8  1  0.79081700  0.72107000  0.83177200  1
  Li  Li9  1  0.49821300  0.42396200  0.58181600  1
  Li  Li10  1  0.45568100  0.05343800  0.83056800  1
  Mn  Mn11  1  0.18897700  0.92989300  0.11657600  1
  Mn  Mn12  1  0.79028500  0.90001000  0.37286400  1
  Mn  Mn13  1  0.52455000  0.59888800  0.11792600  1
  Mn  Mn14  1  0.13912300  0.72836000  0.86629000  1
  Mn  Mn15  1  0.45821800  0.22853100  0.36734800  1
  Mn  Mn16  1  0.85364500  0.41312300  0.61784100  1
  Mn  Mn17  1  0.12790100  0.56570900  0.36790600  1
  Mn  Mn18  1  0.53585900  0.77579600  0.61406000  1
  Mn  Mn19  1  0.85660500  0.26319200  0.11712700  1
  Mn  Mn20  1  0.47377900  0.39911300  0.86773700  1
  Mn  Mn21  1  0.18003700  0.10222300  0.61816100  1
  Mn  Mn22  1  0.80599000  0.06655200  0.86354200  1
  B  B23  1  0.46178000  0.90192700  0.36844000  1
  B  B24  1  0.19130600  0.59759400  0.12421900  1
  B  B25  1  0.86403100  0.75413200  0.62191000  1
  B  B26  1  0.85861600  0.93153800  0.12505100  1
  B  B27  1  0.80008900  0.57071300  0.37532200  1
  B  B28  1  0.52549200  0.26513200  0.12485000  1
  B  B29  1  0.48051900  0.73941300  0.87439100  1
  B  B30  1  0.20772700  0.44138400  0.62644000  1
  B  B31  1  0.14397000  0.07130100  0.87419900  1
  B  B32  1  0.13337000  0.23856000  0.37418700  1
  B  B33  1  0.81092800  0.40385500  0.87463900  1
  B  B34  1  0.52390900  0.09788200  0.62483300  1
  O  O35  1  0.33415200  0.95719800  0.33250800  1
  O  O36  1  0.25582700  0.75106000  0.07964300  1
  O  O37  1  0.41103500  0.74142200  0.40487300  1
  O  O38  1  0.27693100  0.50385200  0.13976500  1
  O  O39  1  0.70916600  0.87341800  0.15938900  1
  O  O40  1  0.91318600  0.90325200  0.57156700  1
  O  O41  1  0.70068900  0.66989100  0.63774300  1
  O  O42  1  0.06900300  0.90739900  0.90430700  1
  O  O43  1  0.67333200  0.62629400  0.33178400  1
  O  O44  1  0.98542600  0.69230600  0.65789000  1
  O  O45  1  0.94281400  0.83658900  0.13918800  1
  O  O46  1  0.37441600  0.20548000  0.15757700  1
  O  O47  1  0.59012400  0.41933100  0.08102000  1
  O  O48  1  0.98218700  0.67483300  0.38924600  1
  O  O49  1  0.74316500  0.40726800  0.40774200  1
  O  O50  1  0.94941000  0.45595900  0.83138600  1
  O  O51  1  0.41736000  0.84505100  0.88901800  1
  O  O52  1  0.64651300  0.03912700  0.66121300  1
  O  O53  1  0.61014100  0.17135000  0.13815200  1
  O  O54  1  0.03988400  0.53882300  0.15620300  1
  O  O55  1  0.25495000  0.59282200  0.57880200  1
  O  O56  1  0.05097700  0.35628200  0.64685400  1
  O  O57  1  0.40529400  0.57650400  0.90724800  1
  O  O58  1  0.63301800  0.00091700  0.36737200  1
  O  O59  1  0.61951100  0.79291300  0.83145000  1
  O  O60  1  0.08637200  0.17930800  0.89298300  1
  O  O61  1  0.00682000  0.29421700  0.33098100  1
  O  O62  1  0.32624400  0.37448200  0.65620300  1
  O  O63  1  0.92286100  0.08461800  0.08016900  1
  O  O64  1  0.31551400  0.34262100  0.38805000  1
  O  O65  1  0.07592700  0.07582100  0.40739500  1
  O  O66  1  0.28082800  0.12594100  0.82809400  1
  O  O67  1  0.75040000  0.51167200  0.88943000  1
  O  O68  1  0.57259100  0.25219800  0.57922700  1
  O  O69  1  0.35684000  0.00802000  0.63668900  1
  O  O70  1  0.73444200  0.24118500  0.90656100  1
