# generated using pymatgen
data_Li4Ti3V3(SnO8)2
_symmetry_space_group_name_H-M   'P 1'
_cell_length_a   6.01283618
_cell_length_b   6.01283618
_cell_length_c   9.85820461
_cell_angle_alpha   89.32181693
_cell_angle_beta   89.32181693
_cell_angle_gamma   59.98188789
_symmetry_Int_Tables_number   1
_chemical_formula_structural   Li4Ti3V3(SnO8)2
_chemical_formula_sum   'Li4 Ti3 V3 Sn2 O16'
_cell_volume   308.57969947
_cell_formula_units_Z   1
loop_
 _symmetry_equiv_pos_site_id
 _symmetry_equiv_pos_as_xyz
  1  'x, y, z'
loop_
 _atom_site_type_symbol
 _atom_site_label
 _atom_site_symmetry_multiplicity
 _atom_site_fract_x
 _atom_site_fract_y
 _atom_site_fract_z
 _atom_site_occupancy
  Li  Li0  1  0.66569600  0.66569600  0.10442900  1
  Li  Li1  1  0.99803200  0.99803200  0.00680500  1
  Li  Li2  1  0.00259600  0.00259600  0.50866000  1
  Li  Li3  1  0.33248300  0.33248300  0.60245000  1
  Ti  Ti4  1  0.34164400  0.83342400  0.78486600  1
  Ti  Ti5  1  0.83342400  0.34164400  0.78486600  1
  Ti  Ti6  1  0.17022800  0.17022800  0.28247400  1
  V  V7  1  0.82435100  0.82435100  0.78809500  1
  V  V8  1  0.17066300  0.65944400  0.28688100  1
  V  V9  1  0.65944400  0.17066300  0.28688100  1
  Sn  Sn10  1  0.66925100  0.66925100  0.50628900  1
  Sn  Sn11  1  0.33824300  0.33824300  0.00974500  1
  O  O12  1  0.32660900  0.84443100  0.39895400  1
  O  O13  1  0.51846000  0.51846000  0.66630100  1
  O  O14  1  0.65166500  0.65166500  0.89739600  1
  O  O15  1  0.00538500  0.00538500  0.69528500  1
  O  O16  1  0.00395100  0.00395100  0.19199300  1
  O  O17  1  0.84443100  0.32660900  0.39895400  1
  O  O18  1  0.50483200  0.96390300  0.65672000  1
  O  O19  1  0.96390300  0.50483200  0.65672000  1
  O  O20  1  0.16552700  0.16552700  0.89610700  1
  O  O21  1  0.84283800  0.84283800  0.40284400  1
  O  O22  1  0.03472100  0.47341600  0.16034100  1
  O  O23  1  0.47341600  0.03472100  0.16034100  1
  O  O24  1  0.32650900  0.32650900  0.39389100  1
  O  O25  1  0.16921100  0.67874000  0.90072600  1
  O  O26  1  0.48271300  0.48271300  0.16255000  1
  O  O27  1  0.67874000  0.16921100  0.90072600  1
