# generated using pymatgen
data_Li4Mn3V3(NiO8)2
_symmetry_space_group_name_H-M   'P 1'
_cell_length_a   5.84911264
_cell_length_b   5.80346850
_cell_length_c   9.62357206
_cell_angle_alpha   90.00341181
_cell_angle_beta   89.86041543
_cell_angle_gamma   119.75528567
_symmetry_Int_Tables_number   1
_chemical_formula_structural   Li4Mn3V3(NiO8)2
_chemical_formula_sum   'Li4 Mn3 V3 Ni2 O16'
_cell_volume   283.60150862
_cell_formula_units_Z   1
loop_
 _symmetry_equiv_pos_site_id
 _symmetry_equiv_pos_as_xyz
  1  'x, y, z'
loop_
 _atom_site_type_symbol
 _atom_site_label
 _atom_site_symmetry_multiplicity
 _atom_site_fract_x
 _atom_site_fract_y
 _atom_site_fract_z
 _atom_site_occupancy
  Li  Li0  1  0.33661300  0.66835000  0.88758400  1
  Li  Li1  1  0.99274500  0.99631600  0.99815900  1
  Li  Li2  1  0.99606300  0.99807600  0.49830200  1
  Li  Li3  1  0.66815800  0.33406600  0.38958000  1
  Mn  Mn4  1  0.66065000  0.83035600  0.21534800  1
  Mn  Mn5  1  0.83037900  0.66187900  0.71500900  1
  Mn  Mn6  1  0.83043700  0.16857300  0.71499500  1
  V  V7  1  0.16675000  0.83046500  0.21461800  1
  V  V8  1  0.16677000  0.33627400  0.21461200  1
  V  V9  1  0.33563700  0.16782000  0.71478400  1
  Ni  Ni10  1  0.33490900  0.66748600  0.49177200  1
  Ni  Ni11  1  0.66907400  0.33453000  0.98823200  1
  O  O12  1  0.15865800  0.84335400  0.60774400  1
  O  O13  1  0.03999400  0.52004000  0.33016000  1
  O  O14  1  0.34217000  0.67109600  0.10585500  1
  O  O15  1  0.99069500  0.99536400  0.31365900  1
  O  O16  1  0.99241600  0.99620100  0.81317800  1
  O  O17  1  0.15855600  0.31536900  0.60770500  1
  O  O18  1  0.48306400  0.96459100  0.33087700  1
  O  O19  1  0.48298300  0.51844400  0.33085300  1
  O  O20  1  0.31272900  0.15633000  0.10709300  1
  O  O21  1  0.68672400  0.84338800  0.60667200  1
  O  O22  1  0.51971200  0.48294100  0.82976100  1
  O  O23  1  0.51987400  0.03682500  0.82980600  1
  O  O24  1  0.67390200  0.33697600  0.60731800  1
  O  O25  1  0.84232900  0.68223700  0.10740600  1
  O  O26  1  0.96557800  0.48281600  0.82934400  1
  O  O27  1  0.84243500  0.16013900  0.10741400  1
