# generated using pymatgen
data_Li2FeCo9O20
_symmetry_space_group_name_H-M   'P 1'
_cell_length_a   4.93487500
_cell_length_b   7.50832840
_cell_length_c   10.02071564
_cell_angle_alpha   95.63867986
_cell_angle_beta   94.66132495
_cell_angle_gamma   108.99298982
_symmetry_Int_Tables_number   1
_chemical_formula_structural   Li2FeCo9O20
_chemical_formula_sum   'Li2 Fe1 Co9 O20'
_cell_volume   346.84229017
_cell_formula_units_Z   1
loop_
 _symmetry_equiv_pos_site_id
 _symmetry_equiv_pos_as_xyz
  1  'x, y, z'
loop_
 _atom_site_type_symbol
 _atom_site_label
 _atom_site_symmetry_multiplicity
 _atom_site_fract_x
 _atom_site_fract_y
 _atom_site_fract_z
 _atom_site_occupancy
  Li  Li0  1  0.80036000  0.34784700  0.24631100  1
  Li  Li1  1  0.19964000  0.65215300  0.75368900  1
  Fe  Fe2  1  0.00000000  0.00000000  0.50000000  1
  Co  Co3  1  0.20092200  0.90092100  0.00527900  1
  Co  Co4  1  0.60290600  0.20310500  0.50464700  1
  Co  Co5  1  0.79907800  0.09907900  0.99472100  1
  Co  Co6  1  0.39967600  0.30001600  0.99521900  1
  Co  Co7  1  0.20127500  0.40244300  0.49971600  1
  Co  Co8  1  0.79872500  0.59755700  0.50028400  1
  Co  Co9  1  0.00000000  0.50000000  0.00000000  1
  Co  Co10  1  0.39709400  0.79689500  0.49535300  1
  Co  Co11  1  0.60032400  0.69998400  0.00478100  1
  O  O12  1  0.89050400  0.91950000  0.09625200  1
  O  O13  1  0.33065100  0.98294600  0.40230000  1
  O  O14  1  0.66934900  0.01705400  0.59770000  1
  O  O15  1  0.49957600  0.87484800  0.90405800  1
  O  O16  1  0.10949600  0.08050000  0.90374800  1
  O  O17  1  0.30461600  0.23377400  0.59809700  1
  O  O18  1  0.50042400  0.12515200  0.09594200  1
  O  O19  1  0.90331800  0.19780000  0.39924500  1
  O  O20  1  0.51477100  0.38332700  0.40342700  1
  O  O21  1  0.70718400  0.28131100  0.90250500  1
  O  O22  1  0.90187000  0.42505200  0.60007300  1
  O  O23  1  0.08397900  0.31345800  0.09401200  1
  O  O24  1  0.68757800  0.51192200  0.09733800  1
  O  O25  1  0.09813000  0.57494800  0.39992700  1
  O  O26  1  0.48522900  0.61667300  0.59657300  1
  O  O27  1  0.31242200  0.48807800  0.90266200  1
  O  O28  1  0.09668200  0.80220000  0.60075500  1
  O  O29  1  0.91602100  0.68654200  0.90598800  1
  O  O30  1  0.29281600  0.71868900  0.09749500  1
  O  O31  1  0.69538400  0.76622600  0.40190300  1
