# generated using pymatgen
data_Li2FePCO7
_symmetry_space_group_name_H-M   'P 1'
_cell_length_a   8.24464028
_cell_length_b   8.24614514
_cell_length_c   9.27766744
_cell_angle_alpha   73.81624601
_cell_angle_beta   106.16508132
_cell_angle_gamma   76.62082532
_symmetry_Int_Tables_number   1
_chemical_formula_structural   Li2FePCO7
_chemical_formula_sum   'Li8 Fe4 P4 C4 O28'
_cell_volume   548.19630070
_cell_formula_units_Z   4
loop_
 _symmetry_equiv_pos_site_id
 _symmetry_equiv_pos_as_xyz
  1  'x, y, z'
loop_
 _atom_site_type_symbol
 _atom_site_label
 _atom_site_symmetry_multiplicity
 _atom_site_fract_x
 _atom_site_fract_y
 _atom_site_fract_z
 _atom_site_occupancy
  Li  Li0  1  0.56621400  0.67830800  0.09830400  1
  Li  Li1  1  0.06620100  0.17831500  0.09829200  1
  Li  Li2  1  0.92824000  0.81623100  0.90167600  1
  Li  Li3  1  0.42824400  0.31622400  0.90167000  1
  Li  Li4  1  0.50411700  0.96018500  0.27297300  1
  Li  Li5  1  0.00409600  0.46021100  0.27296600  1
  Li  Li6  1  0.21016700  0.75414700  0.72700800  1
  Li  Li7  1  0.71017000  0.25415000  0.72701000  1
  Fe  Fe8  1  0.44237600  0.31524200  0.32983100  1
  Fe  Fe9  1  0.06522300  0.19231200  0.67017600  1
  Fe  Fe10  1  0.94239200  0.81523200  0.32985900  1
  Fe  Fe11  1  0.56522100  0.69231700  0.67017200  1
  P  P12  1  0.70314800  0.54901200  0.41690700  1
  P  P13  1  0.20314900  0.04901900  0.41690400  1
  P  P14  1  0.79904200  0.95317000  0.58307600  1
  P  P15  1  0.29904400  0.45316300  0.58307000  1
  C  C16  1  0.73523300  0.01324800  0.04754000  1
  C  C17  1  0.23522100  0.51325900  0.04752200  1
  C  C18  1  0.76329900  0.48525700  0.95248300  1
  C  C19  1  0.26330600  0.98524800  0.95248500  1
  O  O20  1  0.88001400  0.88285000  0.07474500  1
  O  O21  1  0.38000400  0.38286200  0.07472600  1
  O  O22  1  0.63281400  0.62996700  0.92525800  1
  O  O23  1  0.13281800  0.12996200  0.92525800  1
  O  O24  1  0.38436000  0.89101600  0.08959700  1
  O  O25  1  0.88435200  0.39102300  0.08959800  1
  O  O26  1  0.14099000  0.63436700  0.91043400  1
  O  O27  1  0.64100800  0.13435000  0.91045200  1
  O  O28  1  0.69938100  0.01068600  0.17724000  1
  O  O29  1  0.19937300  0.51069200  0.17722600  1
  O  O30  1  0.76089200  0.44947600  0.82279400  1
  O  O31  1  0.26089300  0.94947100  0.82279200  1
  O  O32  1  0.57962000  0.48400100  0.30313600  1
  O  O33  1  0.07962600  0.98400100  0.30313600  1
  O  O34  1  0.73364000  0.82997100  0.69674800  1
  O  O35  1  0.23364400  0.32995800  0.69674800  1
  O  O36  1  0.79687500  0.63930800  0.30921900  1
  O  O37  1  0.29688000  0.13931200  0.30920900  1
  O  O38  1  0.88964100  0.04658100  0.69088600  1
  O  O39  1  0.38964100  0.54658000  0.69087600  1
  O  O40  1  0.64419400  0.08586900  0.42756200  1
  O  O41  1  0.14419800  0.58586200  0.42756200  1
  O  O42  1  0.83559500  0.39396700  0.57239200  1
  O  O43  1  0.33559300  0.89398200  0.57238700  1
  O  O44  1  0.58960500  0.69335400  0.46111700  1
  O  O45  1  0.08960000  0.19336300  0.46110800  1
  O  O46  1  0.94333800  0.83947400  0.53893900  1
  O  O47  1  0.44333300  0.33946900  0.53893100  1
