# generated using pymatgen
data_Li(NiO2)2
_symmetry_space_group_name_H-M   'P 1'
_cell_length_a   5.67031500
_cell_length_b   5.67045049
_cell_length_c   9.42798000
_cell_angle_alpha   89.99920753
_cell_angle_beta   90.00017410
_cell_angle_gamma   59.99852115
_symmetry_Int_Tables_number   1
_chemical_formula_structural   Li(NiO2)2
_chemical_formula_sum   'Li4 Ni8 O16'
_cell_volume   262.52312247
_cell_formula_units_Z   4
loop_
 _symmetry_equiv_pos_site_id
 _symmetry_equiv_pos_as_xyz
  1  'x, y, z'
loop_
 _atom_site_type_symbol
 _atom_site_label
 _atom_site_symmetry_multiplicity
 _atom_site_fract_x
 _atom_site_fract_y
 _atom_site_fract_z
 _atom_site_occupancy
  Li  Li0  1  0.66668500  0.66666100  0.88881100  1
  Li  Li1  1  0.33330900  0.33336000  0.38879500  1
  Li  Li2  1  0.99998400  0.00003200  0.99693400  1
  Li  Li3  1  0.99999700  0.00000400  0.49694500  1
  Ni  Ni4  1  0.66662600  0.66668600  0.48965100  1
  Ni  Ni5  1  0.33332500  0.33333200  0.98964600  1
  Ni  Ni6  1  0.83104600  0.83108600  0.21520500  1
  Ni  Ni7  1  0.66214300  0.16892800  0.71520300  1
  Ni  Ni8  1  0.33784500  0.83108900  0.21520500  1
  Ni  Ni9  1  0.83105400  0.33787800  0.21522500  1
  Ni  Ni10  1  0.16893100  0.16894500  0.71520300  1
  Ni  Ni11  1  0.16893600  0.66214000  0.71521100  1
  O  O12  1  0.66666100  0.66667800  0.11267500  1
  O  O13  1  0.33334800  0.33333500  0.61265700  1
  O  O14  1  0.99998000  0.00000000  0.30801400  1
  O  O15  1  0.99998300  0.00000700  0.80800600  1
  O  O16  1  0.31771300  0.84114600  0.60575900  1
  O  O17  1  0.84113700  0.31771000  0.60575700  1
  O  O18  1  0.15883100  0.15887300  0.10577600  1
  O  O19  1  0.84114000  0.84116200  0.60576100  1
  O  O20  1  0.15876300  0.68236100  0.10577900  1
  O  O21  1  0.68230000  0.15885500  0.10577000  1
  O  O22  1  0.51699600  0.51701000  0.33166200  1
  O  O23  1  0.51699100  0.96601200  0.33162300  1
  O  O24  1  0.96595000  0.51703200  0.33166200  1
  O  O25  1  0.03400800  0.48299500  0.83166100  1
  O  O26  1  0.48301200  0.03399700  0.83162200  1
  O  O27  1  0.48300100  0.48298600  0.83162200  1
