# generated using pymatgen
data_LiMn2(BO3)2
_symmetry_space_group_name_H-M   'P 1'
_cell_length_a   5.78873500
_cell_length_b   9.12736518
_cell_length_c   9.79249899
_cell_angle_alpha   82.10614658
_cell_angle_beta   80.85835692
_cell_angle_gamma   77.86484291
_symmetry_Int_Tables_number   1
_chemical_formula_structural   LiMn2(BO3)2
_chemical_formula_sum   'Li4 Mn8 B8 O24'
_cell_volume   496.50525242
_cell_formula_units_Z   4
loop_
 _symmetry_equiv_pos_site_id
 _symmetry_equiv_pos_as_xyz
  1  'x, y, z'
loop_
 _atom_site_type_symbol
 _atom_site_label
 _atom_site_symmetry_multiplicity
 _atom_site_fract_x
 _atom_site_fract_y
 _atom_site_fract_z
 _atom_site_occupancy
  Li  Li0  1  0.70836700  0.46522000  0.96680100  1
  Li  Li1  1  0.79093300  0.52985200  0.54087400  1
  Li  Li2  1  0.54902100  0.03030900  0.78827700  1
  Li  Li3  1  0.04578000  0.02471900  0.28704200  1
  Mn  Mn4  1  0.77394000  0.81659400  0.98276800  1
  Mn  Mn5  1  0.00070400  0.67956300  0.25603500  1
  Mn  Mn6  1  0.73247700  0.17980400  0.51876000  1
  Mn  Mn7  1  0.47176300  0.69353400  0.77950300  1
  Mn  Mn8  1  0.50120200  0.30877400  0.24232200  1
  Mn  Mn9  1  0.26602800  0.79181600  0.48343000  1
  Mn  Mn10  1  0.03038400  0.29393800  0.72278600  1
  Mn  Mn11  1  0.23912100  0.21075500  0.01699000  1
  B  B12  1  0.97277500  0.36372300  0.28232800  1
  B  B13  1  0.72969200  0.85922300  0.52496700  1
  B  B14  1  0.76660400  0.15028900  0.97301800  1
  B  B15  1  0.49084900  0.36369100  0.76663300  1
  B  B16  1  0.53016400  0.63047500  0.21827700  1
  B  B17  1  0.23205800  0.88162200  0.02423300  1
  B  B18  1  0.26421100  0.12435400  0.47425100  1
  B  B19  1  0.00841200  0.63070000  0.73474700  1
  O  O20  1  0.91054600  0.84603000  0.41365100  1
  O  O21  1  0.80395600  0.65740800  0.83677300  1
  O  O22  1  0.91977200  0.25793600  0.95028300  1
  O  O23  1  0.92182700  0.48833100  0.35400400  1
  O  O24  1  0.67239200  0.98111200  0.60144100  1
  O  O25  1  0.80673500  0.03311200  0.89697000  1
  O  O26  1  0.84666300  0.24540700  0.32022000  1
  O  O27  1  0.60631800  0.73971200  0.56904500  1
  O  O28  1  0.66415400  0.35093000  0.65248700  1
  O  O29  1  0.41367800  0.86423800  0.91134300  1
  O  O30  1  0.68364200  0.73423900  0.19857200  1
  O  O31  1  0.45093300  0.48072200  0.84672600  1
  O  O32  1  0.58408400  0.50884000  0.14700300  1
  O  O33  1  0.36628000  0.24399300  0.80944000  1
  O  O34  1  0.56108200  0.18550600  0.06751700  1
  O  O35  1  0.31917600  0.66253200  0.31045400  1
  O  O36  1  0.41858300  0.22770400  0.45989000  1
  O  O37  1  0.16241400  0.73457700  0.71215000  1
  O  O38  1  0.17958700  0.00528000  0.09524700  1
  O  O39  1  0.30365100  0.00799000  0.39806900  1
  O  O40  1  0.04411000  0.51551700  0.65666900  1
  O  O41  1  0.10616100  0.76501500  0.06507200  1
  O  O42  1  0.15846100  0.34416400  0.17571600  1
  O  O43  1  0.05464300  0.15947900  0.56685000  1
