# generated using pymatgen
data_LiFe(SiO3)2
_symmetry_space_group_name_H-M   'P 1'
_cell_length_a   11.20591934
_cell_length_b   11.20591934
_cell_length_c   11.20591934
_cell_angle_alpha   113.65490363
_cell_angle_beta   113.65490363
_cell_angle_gamma   101.39349791
_symmetry_Int_Tables_number   1
_chemical_formula_structural   LiFe(SiO3)2
_chemical_formula_sum   'Li8 Fe8 Si16 O48'
_cell_volume   1067.40630864
_cell_formula_units_Z   8
loop_
 _symmetry_equiv_pos_site_id
 _symmetry_equiv_pos_as_xyz
  1  'x, y, z'
loop_
 _atom_site_type_symbol
 _atom_site_label
 _atom_site_symmetry_multiplicity
 _atom_site_fract_x
 _atom_site_fract_y
 _atom_site_fract_z
 _atom_site_occupancy
  Li  Li0  1  0.62275900  0.91575000  0.50675400  1
  Li  Li1  1  0.88399400  0.37724100  0.29299100  1
  Li  Li2  1  0.66575000  0.65899600  0.79299100  1
  Li  Li3  1  0.40899600  0.11600600  0.49324600  1
  Li  Li4  1  0.34100400  0.13399400  0.00675400  1
  Li  Li5  1  0.08425000  0.59100400  0.70700900  1
  Li  Li6  1  0.86600600  0.87275900  0.20700900  1
  Li  Li7  1  0.12724100  0.33425000  0.99324600  1
  Fe  Fe8  1  0.88065100  0.66566100  0.52740400  1
  Fe  Fe9  1  0.41566100  0.38825700  0.28501000  1
  Fe  Fe10  1  0.64675300  0.11934900  0.78501000  1
  Fe  Fe11  1  0.61174300  0.89675300  0.02740400  1
  Fe  Fe12  1  0.13825700  0.35324700  0.47259600  1
  Fe  Fe13  1  0.33433900  0.86174300  0.21499000  1
  Fe  Fe14  1  0.10324700  0.13065100  0.71499000  1
  Fe  Fe15  1  0.86934900  0.58433900  0.97259600  1
  Si  Si16  1  0.58457300  0.10319900  0.28413700  1
  Si  Si17  1  0.12849200  0.78154800  0.32393400  1
  Si  Si18  1  0.45761400  0.80455800  0.67606600  1
  Si  Si19  1  0.81906200  0.30043600  0.71586300  1
  Si  Si20  1  0.69956400  0.41542700  0.51862600  1
  Si  Si21  1  0.85319900  0.06906200  0.01862600  1
  Si  Si22  1  0.19544200  0.87150800  0.65305600  1
  Si  Si23  1  0.53154800  0.70761400  0.15305600  1
  Si  Si24  1  0.55455800  0.37849200  0.84694400  1
  Si  Si25  1  0.21845200  0.54238600  0.34694400  1
  Si  Si26  1  0.05043600  0.83457300  0.98137400  1
  Si  Si27  1  0.89680100  0.18093800  0.48137400  1
  Si  Si28  1  0.93093800  0.94956400  0.78413700  1
  Si  Si29  1  0.29238600  0.44544200  0.82393400  1
  Si  Si30  1  0.62150800  0.46845200  0.17606600  1
  Si  Si31  1  0.16542700  0.14680100  0.21586300  1
  O  O32  1  0.83970600  0.82798900  0.59889700  1
  O  O33  1  0.72324500  0.07373600  0.37335500  1
  O  O34  1  0.36841000  0.64602900  0.51714000  1
  O  O35  1  0.46104300  0.06042200  0.32196200  1
  O  O36  1  0.26832800  0.89766500  0.35300000  1
  O  O37  1  0.65011000  0.27675500  0.35049100  1
  O  O38  1  0.82373600  0.95038100  0.85049100  1
  O  O39  1  0.54466500  0.91532800  0.64700000  1
  O  O40  1  0.73846000  0.13908100  0.67803700  1
  O  O41  1  0.12888900  0.85127100  0.48286000  1
  O  O42  1  0.78195800  0.51237800  0.31487500  1
  O  O43  1  0.55249700  0.78291700  0.81487500  1
  O  O44  1  0.35397100  0.87111100  0.72238200  1
  O  O45  1  0.60127100  0.61841000  0.22238200  1
  O  O46  1  0.64766500  0.79466500  0.12933700  1
  O  O47  1  0.08467200  0.73167200  0.62933700  1
  O  O48  1  0.70038100  0.34989000  0.62664500  1
  O  O49  1  0.86091900  0.53895700  0.59937900  1
  O  O50  1  0.81042200  0.98846000  0.09937900  1
  O  O51  1  0.57798900  0.47909300  0.48828300  1
  O  O52  1  0.75919000  0.16029400  0.98828300  1
  O  O53  1  0.22909300  0.24081000  0.40110300  1
  O  O54  1  0.53291700  0.21804200  0.73042000  1
  O  O55  1  0.26237800  0.44750300  0.23042000  1
  O  O56  1  0.21708300  0.03195800  0.76958000  1
  O  O57  1  0.48762200  0.80249700  0.26958000  1
  O  O58  1  0.52090700  0.00919000  0.09889700  1
  O  O59  1  0.99081000  0.08970600  0.51171700  1
  O  O60  1  0.17201100  0.77090700  0.01171700  1
  O  O61  1  0.93957800  0.26154000  0.40062100  1
  O  O62  1  0.88908100  0.71104300  0.90062100  1
  O  O63  1  0.04961900  0.90011000  0.87335500  1
  O  O64  1  0.66532800  0.51832800  0.87066300  1
  O  O65  1  0.10233500  0.45533500  0.37066300  1
  O  O66  1  0.39602900  0.37888900  0.77761800  1
  O  O67  1  0.14872900  0.63159000  0.27761800  1
  O  O68  1  0.96804200  0.73762200  0.18512500  1
  O  O69  1  0.19750300  0.46708300  0.68512500  1
  O  O70  1  0.62111100  0.39872900  0.01714000  1
  O  O71  1  0.01154000  0.11091900  0.82196200  1
  O  O72  1  0.20533500  0.33467200  0.85300000  1
  O  O73  1  0.92626400  0.29961900  0.64950900  1
  O  O74  1  0.09989000  0.97324500  0.14950900  1
  O  O75  1  0.48167200  0.35233500  0.14700000  1
  O  O76  1  0.28895700  0.18957800  0.17803700  1
  O  O77  1  0.38159000  0.60397100  0.98286000  1
  O  O78  1  0.02675500  0.17626400  0.12664500  1
  O  O79  1  0.91029400  0.42201100  0.90110300  1
