# generated using pymatgen
data_Li6VFe3(PO4)6
_symmetry_space_group_name_H-M   'P 1'
_cell_length_a   8.59986400
_cell_length_b   8.62984148
_cell_length_c   8.64599594
_cell_angle_alpha   61.53641723
_cell_angle_beta   61.41682925
_cell_angle_gamma   61.37435318
_symmetry_Int_Tables_number   1
_chemical_formula_structural   Li6VFe3(PO4)6
_chemical_formula_sum   'Li6 V1 Fe3 P6 O24'
_cell_volume   468.42297828
_cell_formula_units_Z   1
loop_
 _symmetry_equiv_pos_site_id
 _symmetry_equiv_pos_as_xyz
  1  'x, y, z'
loop_
 _atom_site_type_symbol
 _atom_site_label
 _atom_site_symmetry_multiplicity
 _atom_site_fract_x
 _atom_site_fract_y
 _atom_site_fract_z
 _atom_site_occupancy
  Li  Li0  1  0.97396300  0.00254300  0.99285400  1
  Li  Li1  1  0.25011200  0.65147300  0.84744200  1
  Li  Li2  1  0.52471500  0.50555200  0.49700700  1
  Li  Li3  1  0.74277000  0.34699700  0.15769500  1
  Li  Li4  1  0.34747100  0.16094500  0.73754900  1
  Li  Li5  1  0.15905200  0.74249600  0.34673200  1
  V  V6  1  0.14318400  0.14653000  0.14633100  1
  Fe  Fe7  1  0.85405900  0.86281100  0.85394200  1
  Fe  Fe8  1  0.64672900  0.64497000  0.63772200  1
  Fe  Fe9  1  0.35277900  0.35072900  0.35149100  1
  P  P10  1  0.95097300  0.55029700  0.24882700  1
  P  P11  1  0.54932000  0.25178900  0.94950200  1
  P  P12  1  0.24981700  0.95302800  0.54776200  1
  P  P13  1  0.74882600  0.04174600  0.45929000  1
  P  P14  1  0.45748200  0.74828000  0.03873200  1
  P  P15  1  0.04485300  0.46304500  0.74985800  1
  O  O16  1  0.87249300  0.50477500  0.70851200  1
  O  O17  1  0.69647200  0.88083500  0.49193600  1
  O  O18  1  0.95348300  0.73037300  0.07731500  1
  O  O19  1  0.47002400  0.70385500  0.87973800  1
  O  O20  1  0.76173600  0.56989300  0.40720900  1
  O  O21  1  0.98407400  0.38700900  0.19374600  1
  O  O22  1  0.73870400  0.09243800  0.92972000  1
  O  O23  1  0.54917000  0.42297600  0.76795100  1
  O  O24  1  0.40768700  0.75961800  0.56918000  1
  O  O25  1  0.80323000  0.00871900  0.61898500  1
  O  O26  1  0.90749500  0.06723500  0.26525400  1
  O  O27  1  0.62820200  0.79220600  0.99593300  1
  O  O28  1  0.38712400  0.19545000  0.98502300  1
  O  O29  1  0.09322300  0.93060900  0.74140300  1
  O  O30  1  0.18953900  0.98810100  0.39050400  1
  O  O31  1  0.58639700  0.23518800  0.43694400  1
  O  O32  1  0.43733400  0.58626800  0.23060500  1
  O  O33  1  0.26686100  0.91089300  0.07126100  1
  O  O34  1  0.02986700  0.62033800  0.79879500  1
  O  O35  1  0.23352500  0.43637400  0.58409200  1
  O  O36  1  0.51740100  0.30677400  0.11280500  1
  O  O37  1  0.06824900  0.26953300  0.90780700  1
  O  O38  1  0.30804600  0.11309500  0.51530900  1
  O  O39  1  0.11356300  0.51322100  0.30823700  1
