# generated using pymatgen
data_LiMnP3H8O13
_symmetry_space_group_name_H-M   'P 1'
_cell_length_a   7.36166200
_cell_length_b   7.82771573
_cell_length_c   10.13977331
_cell_angle_alpha   84.04535323
_cell_angle_beta   74.46874062
_cell_angle_gamma   76.64432027
_symmetry_Int_Tables_number   1
_chemical_formula_structural   LiMnP3H8O13
_chemical_formula_sum   'Li2 Mn2 P6 H16 O26'
_cell_volume   547.19556332
_cell_formula_units_Z   2
loop_
 _symmetry_equiv_pos_site_id
 _symmetry_equiv_pos_as_xyz
  1  'x, y, z'
loop_
 _atom_site_type_symbol
 _atom_site_label
 _atom_site_symmetry_multiplicity
 _atom_site_fract_x
 _atom_site_fract_y
 _atom_site_fract_z
 _atom_site_occupancy
  Li  Li0  1  0.80420700  0.81673000  0.76397200  1
  Li  Li1  1  0.19579300  0.18327000  0.23602800  1
  Mn  Mn2  1  0.00000000  0.00000000  0.00000000  1
  Mn  Mn3  1  0.00000000  0.50000000  0.50000000  1
  P  P4  1  0.33157000  0.80587900  0.74303000  1
  P  P5  1  0.24521500  0.80596700  0.47653300  1
  P  P6  1  0.59123900  0.45687200  0.72883800  1
  P  P7  1  0.40876100  0.54312800  0.27116200  1
  P  P8  1  0.75478500  0.19403300  0.52346700  1
  P  P9  1  0.66843000  0.19412100  0.25697000  1
  H  H10  1  0.37214600  0.96651300  0.96143700  1
  H  H11  1  0.81017200  0.82404300  0.43033800  1
  H  H12  1  0.31651800  0.86525800  0.10188100  1
  H  H13  1  0.92547400  0.73598200  0.20690700  1
  H  H14  1  0.68832100  0.70128600  0.39714100  1
  H  H15  1  0.85243100  0.65214400  0.00815800  1
  H  H16  1  0.65316900  0.62149100  0.00453300  1
  H  H17  1  0.09704900  0.64190300  0.08800500  1
  H  H18  1  0.90295100  0.35809700  0.91199500  1
  H  H19  1  0.34683100  0.37850900  0.99546700  1
  H  H20  1  0.14756900  0.34785600  0.99184200  1
  H  H21  1  0.31167900  0.29871400  0.60285900  1
  H  H22  1  0.07452600  0.26401800  0.79309300  1
  H  H23  1  0.68348200  0.13474200  0.89811900  1
  H  H24  1  0.18982800  0.17595700  0.56966200  1
  H  H25  1  0.62785400  0.03348700  0.03856300  1
  O  O26  1  0.47462400  0.87847400  0.78906000  1
  O  O27  1  0.27853800  0.98008200  0.05267600  1
  O  O28  1  0.19499200  0.96006400  0.38507600  1
  O  O29  1  0.35783300  0.85755000  0.57957800  1
  O  O30  1  0.12081600  0.85548100  0.81485000  1
  O  O31  1  0.98238200  0.73991400  0.10629200  1
  O  O32  1  0.82085400  0.71785800  0.38282200  1
  O  O33  1  0.78652600  0.61239300  0.94758500  1
  O  O34  1  0.75488400  0.55024500  0.67102500  1
  O  O35  1  0.09387400  0.70772200  0.55861500  1
  O  O36  1  0.42686500  0.65887400  0.39110300  1
  O  O37  1  0.38589100  0.59224700  0.74587200  1
  O  O38  1  0.41375700  0.65331000  0.14043900  1
  O  O39  1  0.58624300  0.34669000  0.85956100  1
  O  O40  1  0.61410900  0.40775300  0.25412800  1
  O  O41  1  0.57313500  0.34112600  0.60889700  1
  O  O42  1  0.90612600  0.29227800  0.44138500  1
  O  O43  1  0.24511600  0.44975500  0.32897500  1
  O  O44  1  0.21347400  0.38760700  0.05241500  1
  O  O45  1  0.17914600  0.28214200  0.61717800  1
  O  O46  1  0.01761800  0.26008600  0.89370800  1
  O  O47  1  0.87918400  0.14451900  0.18515000  1
  O  O48  1  0.64216700  0.14245000  0.42042200  1
  O  O49  1  0.80500800  0.03993600  0.61492400  1
  O  O50  1  0.72146200  0.01991800  0.94732400  1
  O  O51  1  0.52537600  0.12152600  0.21094000  1
