# generated using pymatgen
data_LiSn2(PO4)3
_symmetry_space_group_name_H-M   'P 1'
_cell_length_a   8.58668541
_cell_length_b   8.51124660
_cell_length_c   9.13736462
_cell_angle_alpha   61.88708157
_cell_angle_beta   118.40000294
_cell_angle_gamma   120.28062147
_symmetry_Int_Tables_number   1
_chemical_formula_structural   LiSn2(PO4)3
_chemical_formula_sum   'Li2 Sn4 P6 O24'
_cell_volume   483.17074537
_cell_formula_units_Z   2
loop_
 _symmetry_equiv_pos_site_id
 _symmetry_equiv_pos_as_xyz
  1  'x, y, z'
loop_
 _atom_site_type_symbol
 _atom_site_label
 _atom_site_symmetry_multiplicity
 _atom_site_fract_x
 _atom_site_fract_y
 _atom_site_fract_z
 _atom_site_occupancy
  Li  Li0  1  0.93101006  0.31550628  0.86871220  1
  Li  Li1  1  0.06898994  0.68449372  0.13128780  1
  Sn  Sn2  1  0.64181850  0.35024068  0.94713273  1
  Sn  Sn3  1  0.85013878  0.13696475  0.56799355  1
  Sn  Sn4  1  0.14986122  0.86303525  0.43200645  1
  Sn  Sn5  1  0.35818150  0.64975932  0.05286727  1
  P  P6  1  0.96263552  0.74910225  0.75379069  1
  P  P7  1  0.54170807  0.03937933  0.75159788  1
  P  P8  1  0.24599676  0.46032486  0.74585309  1
  P  P9  1  0.75400324  0.53967514  0.25414691  1
  P  P10  1  0.45829193  0.96062067  0.24840212  1
  P  P11  1  0.03736448  0.25089775  0.24620931  1
  O  O12  1  0.82460266  0.53569100  0.79332690  1
  O  O13  1  0.87171310  0.87712582  0.73329833  1
  O  O14  1  0.52365942  0.84512424  0.89679178  1
  O  O15  1  0.74741719  0.12692260  0.74121919  1
  O  O16  1  0.45487626  0.48800479  0.79854390  1
  O  O17  1  0.51469765  0.17847579  0.79282816  1
  O  O18  1  0.20575339  0.47502514  0.89003674  1
  O  O19  1  0.14457907  0.76881294  0.91803388  1
  O  O20  1  0.99187276  0.19565438  0.40967590  1
  O  O21  1  0.11062203  0.25841769  0.73092077  1
  O  O22  1  0.40002895  0.01751407  0.57349727  1
  O  O23  1  0.80068748  0.38803061  0.42864831  1
  O  O24  1  0.19931252  0.61196939  0.57135169  1
  O  O25  1  0.59997105  0.98248593  0.42650273  1
  O  O26  1  0.88937797  0.74158231  0.26907923  1
  O  O27  1  0.00812724  0.80434562  0.59032410  1
  O  O28  1  0.85542093  0.23118706  0.08196612  1
  O  O29  1  0.79424661  0.52497486  0.10996326  1
  O  O30  1  0.48530235  0.82152421  0.20717184  1
  O  O31  1  0.54512374  0.51199521  0.20145610  1
  O  O32  1  0.25258281  0.87307740  0.25878081  1
  O  O33  1  0.47634058  0.15487576  0.10320822  1
  O  O34  1  0.12828690  0.12287418  0.26670167  1
  O  O35  1  0.17539734  0.46430900  0.20667310  1
