# generated using pymatgen
data_LiTiCoO4
_symmetry_space_group_name_H-M   'P 1'
_cell_length_a   5.97436200
_cell_length_b   8.17867201
_cell_length_c   5.97419600
_cell_angle_alpha   89.99924065
_cell_angle_beta   90.00105496
_cell_angle_gamma   90.00399394
_symmetry_Int_Tables_number   1
_chemical_formula_structural   LiTiCoO4
_chemical_formula_sum   'Li4 Ti4 Co4 O16'
_cell_volume   291.91323884
_cell_formula_units_Z   4
loop_
 _symmetry_equiv_pos_site_id
 _symmetry_equiv_pos_as_xyz
  1  'x, y, z'
loop_
 _atom_site_type_symbol
 _atom_site_label
 _atom_site_symmetry_multiplicity
 _atom_site_fract_x
 _atom_site_fract_y
 _atom_site_fract_z
 _atom_site_occupancy
  Li  Li0  1  0.22750600  0.00000300  0.00001800  1
  Li  Li1  1  0.77249100  0.50002100  0.99999100  1
  Li  Li2  1  0.00000200  0.24997400  0.22751500  1
  Li  Li3  1  0.99997400  0.75000100  0.77249400  1
  Ti  Ti4  1  0.49997500  0.25000900  0.22132400  1
  Ti  Ti5  1  0.22145900  0.99997900  0.49998900  1
  Ti  Ti6  1  0.77854000  0.50003300  0.50001700  1
  Ti  Ti7  1  0.50000500  0.74998100  0.77860500  1
  Co  Co8  1  0.25763000  0.37501300  0.74238500  1
  Co  Co9  1  0.74236000  0.12499300  0.74237400  1
  Co  Co10  1  0.25754200  0.62499000  0.25752300  1
  Co  Co11  1  0.74244600  0.87500600  0.25753400  1
  O  O12  1  0.26738400  0.25953000  0.01171100  1
  O  O13  1  0.73263900  0.24048500  0.01170300  1
  O  O14  1  0.01160500  0.99049600  0.26742700  1
  O  O15  1  0.98840600  0.50950900  0.26746900  1
  O  O16  1  0.01164500  0.00947000  0.73258300  1
  O  O17  1  0.98835600  0.49053000  0.73256800  1
  O  O18  1  0.26743700  0.74048000  0.98837700  1
  O  O19  1  0.73261300  0.75950100  0.98837300  1
  O  O20  1  0.48345300  0.01043400  0.26436300  1
  O  O21  1  0.51653500  0.48956300  0.26434000  1
  O  O22  1  0.26435300  0.23953000  0.48347900  1
  O  O23  1  0.73565400  0.26047500  0.48349400  1
  O  O24  1  0.26432600  0.76049300  0.51652700  1
  O  O25  1  0.73565000  0.73950200  0.51654100  1
  O  O26  1  0.51649800  0.51044500  0.73563500  1
  O  O27  1  0.48351800  0.98955600  0.73564100  1
