# generated using pymatgen
data_Li2MnV(P2O7)2
_symmetry_space_group_name_H-M   'P 1'
_cell_length_a   9.64168424
_cell_length_b   9.60957625
_cell_length_c   7.05461251
_cell_angle_alpha   99.36187488
_cell_angle_beta   99.45790713
_cell_angle_gamma   119.46249120
_symmetry_Int_Tables_number   1
_chemical_formula_structural   Li2MnV(P2O7)2
_chemical_formula_sum   'Li4 Mn2 V2 P8 O28'
_cell_volume   538.32949677
_cell_formula_units_Z   2
loop_
 _symmetry_equiv_pos_site_id
 _symmetry_equiv_pos_as_xyz
  1  'x, y, z'
loop_
 _atom_site_type_symbol
 _atom_site_label
 _atom_site_symmetry_multiplicity
 _atom_site_fract_x
 _atom_site_fract_y
 _atom_site_fract_z
 _atom_site_occupancy
  Li  Li0  1  0.15838693  0.01900686  0.67591942  1
  Li  Li1  1  0.72980140  0.09038590  0.32398233  1
  Li  Li2  1  0.23344524  0.59361704  0.32646516  1
  Li  Li3  1  0.65574485  0.51753475  0.67272150  1
  Mn  Mn4  1  0.39429879  0.39298269  0.26913731  1
  Mn  Mn5  1  0.35801622  0.85714928  0.73053211  1
  V  V6  1  0.85723394  0.35630464  0.72738297  1
  V  V7  1  0.89300283  0.89221701  0.27231478  1
  P  P8  1  0.11083581  0.29149225  0.52195420  1
  P  P9  1  0.75029921  0.03368508  0.91248109  1
  P  P10  1  0.25033216  0.53903102  0.91174801  1
  P  P11  1  0.46055782  0.13909207  0.48255480  1
  P  P12  1  0.60903379  0.78826461  0.51758088  1
  P  P13  1  0.71408858  0.49747521  0.08601345  1
  P  P14  1  0.21421270  0.00079397  0.08966892  1
  P  P15  1  0.96020600  0.63998062  0.47795004  1
  O  O16  1  0.07442951  0.11323238  0.48484823  1
  O  O17  1  0.36112216  0.03248247  0.60935620  1
  O  O18  1  0.58249973  0.01520773  0.91502056  1
  O  O19  1  0.08198146  0.51846171  0.90974233  1
  O  O20  1  0.22237832  0.37838766  0.75321899  1
  O  O21  1  0.37371803  0.02927071  0.24987482  1
  O  O22  1  0.23495522  0.17110534  0.09129316  1
  O  O23  1  0.21258918  0.39051348  0.39288691  1
  O  O24  1  0.45447775  0.29585080  0.50431901  1
  O  O25  1  0.13795397  0.67550173  0.51798107  1
  O  O26  1  0.63725486  0.17338511  0.51718347  1
  O  O27  1  0.86172596  0.18730991  0.85132823  1
  O  O28  1  0.36387407  0.69316533  0.85004998  1
  O  O29  1  0.21285809  0.91563070  0.88777599  1
  O  O30  1  0.72164222  0.41574855  0.88709449  1
  O  O31  1  0.33444518  0.53787053  0.11242425  1
  O  O32  1  0.83556775  0.02985947  0.11198852  1
  O  O33  1  0.06255071  0.88992752  0.15365240  1
  O  O34  1  0.55930815  0.38314152  0.14380095  1
  O  O35  1  0.57566670  0.61022896  0.47892185  1
  O  O36  1  0.45238448  0.79322912  0.49689558  1
  O  O37  1  0.95206964  0.29499658  0.50799492  1
  O  O38  1  0.85928919  0.53545317  0.60398833  1
  O  O39  1  0.71916677  0.87358279  0.74985688  1
  O  O40  1  0.87503093  0.52804910  0.24716379  1
  O  O41  1  0.73335485  0.66588121  0.08503226  1
  O  O42  1  0.71776854  0.89135443  0.39567348  1
  O  O43  1  0.95486230  0.79773800  0.49223139  1
