# generated using pymatgen
data_LiFe(PO3)3
_symmetry_space_group_name_H-M   'P 1'
_cell_length_a   5.32076900
_cell_length_b   10.69581000
_cell_length_c   12.08202900
_cell_angle_alpha   90.00000000
_cell_angle_beta   90.00000000
_cell_angle_gamma   90.00000000
_symmetry_Int_Tables_number   1
_chemical_formula_structural   LiFe(PO3)3
_chemical_formula_sum   'Li4 Fe4 P12 O36'
_cell_volume   687.58747633
_cell_formula_units_Z   4
loop_
 _symmetry_equiv_pos_site_id
 _symmetry_equiv_pos_as_xyz
  1  'x, y, z'
loop_
 _atom_site_type_symbol
 _atom_site_label
 _atom_site_symmetry_multiplicity
 _atom_site_fract_x
 _atom_site_fract_y
 _atom_site_fract_z
 _atom_site_occupancy
  Li  Li0  1  0.10364100  0.11174000  0.08198200  1
  Li  Li1  1  0.60364100  0.38826000  0.91801800  1
  Li  Li2  1  0.89635900  0.61174000  0.41801800  1
  Li  Li3  1  0.39635900  0.88826000  0.58198200  1
  Fe  Fe4  1  0.59317900  0.03138700  0.86836500  1
  Fe  Fe5  1  0.09317900  0.46861300  0.13163500  1
  Fe  Fe6  1  0.40682100  0.53138700  0.63163500  1
  Fe  Fe7  1  0.90682100  0.96861300  0.36836500  1
  P  P8  1  0.87936000  0.07382200  0.62495900  1
  P  P9  1  0.39182400  0.15140200  0.36095300  1
  P  P10  1  0.07799000  0.19364400  0.81964600  1
  P  P11  1  0.57799000  0.30635600  0.18035400  1
  P  P12  1  0.89182400  0.34859800  0.63904700  1
  P  P13  1  0.37936000  0.42617700  0.37504100  1
  P  P14  1  0.12064000  0.57382300  0.87504100  1
  P  P15  1  0.60817600  0.65140200  0.13904700  1
  P  P16  1  0.92201000  0.69364400  0.68035400  1
  P  P17  1  0.42201000  0.80635600  0.31964600  1
  P  P18  1  0.10817600  0.84859800  0.86095300  1
  P  P19  1  0.62064000  0.92617700  0.12495900  1
  O  O20  1  0.49599400  0.01019000  0.04102700  1
  O  O21  1  0.63211700  0.03701900  0.67549900  1
  O  O22  1  0.54379700  0.06095300  0.42808900  1
  O  O23  1  0.08419000  0.08831100  0.72395900  1
  O  O24  1  0.13190400  0.11674900  0.32290600  1
  O  O25  1  0.83780200  0.18685500  0.88634700  1
  O  O26  1  0.32412300  0.18819100  0.87945800  1
  O  O27  1  0.56617500  0.18113000  0.25358300  1
  O  O28  1  0.87817600  0.21527000  0.57611800  1
  O  O29  1  0.37817600  0.28473000  0.42388200  1
  O  O30  1  0.06617500  0.31887000  0.74641700  1
  O  O31  1  0.82412300  0.31180900  0.12054200  1
  O  O32  1  0.33780200  0.31314500  0.11365300  1
  O  O33  1  0.63190400  0.38325100  0.67709400  1
  O  O34  1  0.58419000  0.41168900  0.27604100  1
  O  O35  1  0.04379700  0.43904700  0.57191100  1
  O  O36  1  0.13211700  0.46298100  0.32450100  1
  O  O37  1  0.99599400  0.48981000  0.95897300  1
  O  O38  1  0.50400600  0.51019000  0.45897300  1
  O  O39  1  0.36788300  0.53701900  0.82450100  1
  O  O40  1  0.45620300  0.56095300  0.07191100  1
  O  O41  1  0.91581000  0.58831100  0.77604100  1
  O  O42  1  0.86809600  0.61674900  0.17709400  1
  O  O43  1  0.16219800  0.68685500  0.61365300  1
  O  O44  1  0.67587700  0.68819100  0.62054200  1
  O  O45  1  0.43382500  0.68113000  0.24641700  1
  O  O46  1  0.12182400  0.71527000  0.92388200  1
  O  O47  1  0.62182400  0.78473000  0.07611800  1
  O  O48  1  0.93382500  0.81887000  0.75358300  1
  O  O49  1  0.17587700  0.81180900  0.37945800  1
  O  O50  1  0.66219800  0.81314500  0.38634700  1
  O  O51  1  0.36809600  0.88325100  0.82290600  1
  O  O52  1  0.41581000  0.91168900  0.22395900  1
  O  O53  1  0.95620300  0.93904700  0.92808900  1
  O  O54  1  0.86788300  0.96298100  0.17549900  1
  O  O55  1  0.00400600  0.98981000  0.54102700  1
