# generated using pymatgen
data_LiMn(PO3)4
_symmetry_space_group_name_H-M   'P 1'
_cell_length_a   8.69642140
_cell_length_b   8.69642140
_cell_length_c   9.16750231
_cell_angle_alpha   62.19664229
_cell_angle_beta   62.19664229
_cell_angle_gamma   54.49253713
_symmetry_Int_Tables_number   1
_chemical_formula_structural   LiMn(PO3)4
_chemical_formula_sum   'Li2 Mn2 P8 O24'
_cell_volume   480.47377651
_cell_formula_units_Z   2
loop_
 _symmetry_equiv_pos_site_id
 _symmetry_equiv_pos_as_xyz
  1  'x, y, z'
loop_
 _atom_site_type_symbol
 _atom_site_label
 _atom_site_symmetry_multiplicity
 _atom_site_fract_x
 _atom_site_fract_y
 _atom_site_fract_z
 _atom_site_occupancy
  Li  Li0  1  0.00000000  0.00000000  0.50000000  1
  Li  Li1  1  0.00000000  0.00000000  0.00000000  1
  Mn  Mn2  1  0.32390400  0.67609600  0.75000000  1
  Mn  Mn3  1  0.67609600  0.32390400  0.25000000  1
  P  P4  1  0.30154000  0.42667600  0.13802800  1
  P  P5  1  0.65410800  0.05075500  0.10391400  1
  P  P6  1  0.94924500  0.34589200  0.39608600  1
  P  P7  1  0.57332400  0.69846000  0.36197200  1
  P  P8  1  0.42667600  0.30154000  0.63802800  1
  P  P9  1  0.05075500  0.65410800  0.60391400  1
  P  P10  1  0.34589200  0.94924500  0.89608600  1
  P  P11  1  0.69846000  0.57332400  0.86197200  1
  O  O12  1  0.71981200  0.07782300  0.21427800  1
  O  O13  1  0.20743000  0.58845800  0.99373700  1
  O  O14  1  0.13092800  0.39470900  0.29724700  1
  O  O15  1  0.43589700  0.22413600  0.08605300  1
  O  O16  1  0.59012400  0.53790300  0.80421900  1
  O  O17  1  0.77586400  0.56410300  0.41394700  1
  O  O18  1  0.60529100  0.86907200  0.20275300  1
  O  O19  1  0.97815400  0.20134900  0.56358000  1
  O  O20  1  0.41154200  0.79257000  0.50626300  1
  O  O21  1  0.79865100  0.02184600  0.93642000  1
  O  O22  1  0.92217700  0.28018800  0.28572200  1
  O  O23  1  0.46209700  0.40987600  0.69578100  1
  O  O24  1  0.53790300  0.59012400  0.30421900  1
  O  O25  1  0.07782300  0.71981200  0.71427800  1
  O  O26  1  0.20134900  0.97815400  0.06358000  1
  O  O27  1  0.58845800  0.20743000  0.49373700  1
  O  O28  1  0.02184600  0.79865100  0.43642000  1
  O  O29  1  0.39470900  0.13092800  0.79724700  1
  O  O30  1  0.22413600  0.43589700  0.58605300  1
  O  O31  1  0.40987600  0.46209700  0.19578100  1
  O  O32  1  0.56410300  0.77586400  0.91394700  1
  O  O33  1  0.86907200  0.60529100  0.70275300  1
  O  O34  1  0.79257000  0.41154200  0.00626300  1
  O  O35  1  0.28018800  0.92217700  0.78572200  1
