# generated using pymatgen
data_Li4V3P8O29
_symmetry_space_group_name_H-M   'P 1'
_cell_length_a   9.74280343
_cell_length_b   9.74280343
_cell_length_c   14.28338437
_cell_angle_alpha   89.87361800
_cell_angle_beta   89.87361800
_cell_angle_gamma   60.08717355
_symmetry_Int_Tables_number   1
_chemical_formula_structural   Li4V3P8O29
_chemical_formula_sum   'Li8 V6 P16 O58'
_cell_volume   1175.19260100
_cell_formula_units_Z   2
loop_
 _symmetry_equiv_pos_site_id
 _symmetry_equiv_pos_as_xyz
  1  'x, y, z'
loop_
 _atom_site_type_symbol
 _atom_site_label
 _atom_site_symmetry_multiplicity
 _atom_site_fract_x
 _atom_site_fract_y
 _atom_site_fract_z
 _atom_site_occupancy
  Li  Li0  1  0.90529200  0.76383900  0.93998900  1
  Li  Li1  1  0.76383900  0.90529200  0.43998900  1
  Li  Li2  1  0.90238500  0.33582500  0.44303300  1
  Li  Li3  1  0.76419200  0.33253800  0.94138100  1
  Li  Li4  1  0.33582500  0.90238500  0.94303300  1
  Li  Li5  1  0.33253800  0.76419200  0.44138100  1
  Li  Li6  1  0.01135300  0.99890300  0.00627500  1
  Li  Li7  1  0.99890300  0.01135300  0.50627500  1
  V  V8  1  0.56332800  0.43594500  0.74856100  1
  V  V9  1  0.43594500  0.56332800  0.24856100  1
  V  V10  1  0.56399800  0.99985400  0.25160200  1
  V  V11  1  0.43693600  0.00154700  0.74964000  1
  V  V12  1  0.99985400  0.56399800  0.75160200  1
  V  V13  1  0.00154700  0.43693600  0.24964000  1
  P  P14  1  0.91235300  0.77652800  0.15701400  1
  P  P15  1  0.77652800  0.91235300  0.65701400  1
  P  P16  1  0.91384400  0.31016000  0.65608900  1
  P  P17  1  0.66294100  0.66804600  0.86921300  1
  P  P18  1  0.66804600  0.66294100  0.36921300  1
  P  P19  1  0.77669800  0.31136700  0.15691400  1
  P  P20  1  0.69523200  0.22102300  0.33852200  1
  P  P21  1  0.31016000  0.91384400  0.15608900  1
  P  P22  1  0.69711300  0.08434900  0.83835400  1
  P  P23  1  0.31136700  0.77669800  0.65691400  1
  P  P24  1  0.22102300  0.69523200  0.83852200  1
  P  P25  1  0.33396600  0.33412600  0.63449900  1
  P  P26  1  0.33412600  0.33396600  0.13449900  1
  P  P27  1  0.08434900  0.69711300  0.33835400  1
  P  P28  1  0.21923000  0.08381900  0.33732800  1
  P  P29  1  0.08381900  0.21923000  0.83732800  1
  O  O30  1  0.99065600  0.80315700  0.41692900  1
  O  O31  1  0.91267600  0.74192800  0.67387900  1
  O  O32  1  0.80315700  0.99065600  0.91692900  1
  O  O33  1  0.74192800  0.91267600  0.17387900  1
  O  O34  1  0.91313700  0.61752700  0.17370700  1
  O  O35  1  0.81079200  0.67540200  0.83466100  1
  O  O36  1  0.91519100  0.46485000  0.66846800  1
  O  O37  1  0.99106200  0.20354700  0.91570800  1
  O  O38  1  0.91487000  0.34532400  0.17290400  1
  O  O39  1  0.67540200  0.81079200  0.33466100  1
  O  O40  1  0.61752700  0.91313700  0.67370700  1
  O  O41  1  0.81644700  0.51128500  0.32716000  1
  O  O42  1  0.64981900  0.66554400  0.97325700  1
  O  O43  1  0.66554400  0.64981900  0.47325700  1
  O  O44  1  0.67044400  0.51631000  0.82447300  1
  O  O45  1  0.46485000  0.91519100  0.16846800  1
  O  O46  1  0.51128500  0.81644700  0.82716000  1
  O  O47  1  0.74226400  0.34076700  0.67504600  1
  O  O48  1  0.78958100  0.19522700  0.23975000  1
  O  O49  1  0.80023700  0.21327500  0.41646500  1
  O  O50  1  0.79311100  0.23296400  0.06492600  1
  O  O51  1  0.61729700  0.46835000  0.17157600  1
  O  O52  1  0.51631000  0.67044400  0.32447300  1
  O  O53  1  0.65636800  0.26017200  0.84121000  1
  O  O54  1  0.46835000  0.61729700  0.67157600  1
  O  O55  1  0.34532400  0.91487000  0.67290400  1
  O  O56  1  0.78890200  0.01748800  0.73957200  1
  O  O57  1  0.78836000  0.97720300  0.56494600  1
  O  O58  1  0.20354700  0.99106200  0.41570800  1
  O  O59  1  0.65934700  0.08356100  0.34181200  1
  O  O60  1  0.53937300  0.38179600  0.32706800  1
  O  O61  1  0.34076700  0.74226400  0.17504600  1
  O  O62  1  0.48257100  0.33300400  0.68226500  1
  O  O63  1  0.38179600  0.53937300  0.82706800  1
  O  O64  1  0.21327500  0.80023700  0.91646500  1
  O  O65  1  0.23296400  0.79311100  0.56492600  1
  O  O66  1  0.19522700  0.78958100  0.73975000  1
  O  O67  1  0.26017200  0.65636800  0.34121000  1
  O  O68  1  0.47810200  0.18988000  0.17801200  1
  O  O69  1  0.54225600  0.07629300  0.82861600  1
  O  O70  1  0.33300400  0.48257100  0.18226500  1
  O  O71  1  0.32060300  0.34817100  0.03197900  1
  O  O72  1  0.34817100  0.32060300  0.53197900  1
  O  O73  1  0.18988000  0.47810200  0.67801200  1
  O  O74  1  0.38173800  0.07487400  0.32884900  1
  O  O75  1  0.33783500  0.18385500  0.68255600  1
  O  O76  1  0.08356100  0.65934700  0.84181200  1
  O  O77  1  0.01748800  0.78890200  0.23957200  1
  O  O78  1  0.97720300  0.78836000  0.06494600  1
  O  O79  1  0.07629300  0.54225600  0.32861600  1
  O  O80  1  0.18385500  0.33783500  0.18255600  1
  O  O81  1  0.07487400  0.38173800  0.82884900  1
  O  O82  1  0.26052400  0.08457100  0.84028200  1
  O  O83  1  0.22601700  0.97292500  0.06508300  1
  O  O84  1  0.19149600  0.01889300  0.23884800  1
  O  O85  1  0.08457100  0.26052400  0.34028200  1
  O  O86  1  0.97292500  0.22601700  0.56508300  1
  O  O87  1  0.01889300  0.19149600  0.73884800  1
