# generated using pymatgen
data_Li6Co5(P2O7)4
_symmetry_space_group_name_H-M   'P 1'
_cell_length_a   6.35494900
_cell_length_b   8.47533626
_cell_length_c   10.05197478
_cell_angle_alpha   107.77419277
_cell_angle_beta   90.32113701
_cell_angle_gamma   92.77006910
_symmetry_Int_Tables_number   1
_chemical_formula_structural   Li6Co5(P2O7)4
_chemical_formula_sum   'Li6 Co5 P8 O28'
_cell_volume   514.83950981
_cell_formula_units_Z   1
loop_
 _symmetry_equiv_pos_site_id
 _symmetry_equiv_pos_as_xyz
  1  'x, y, z'
loop_
 _atom_site_type_symbol
 _atom_site_label
 _atom_site_symmetry_multiplicity
 _atom_site_fract_x
 _atom_site_fract_y
 _atom_site_fract_z
 _atom_site_occupancy
  Li  Li0  1  0.00000000  0.50000000  0.50000000  1
  Li  Li1  1  0.01916600  0.16246300  0.60932500  1
  Li  Li2  1  0.09306600  0.60695300  0.12415500  1
  Li  Li3  1  0.50000000  0.50000000  0.50000000  1
  Li  Li4  1  0.90693400  0.39304700  0.87584500  1
  Li  Li5  1  0.98083400  0.83753700  0.39067500  1
  Co  Co6  1  0.31105600  0.88677000  0.64395100  1
  Co  Co7  1  0.35736800  0.88185100  0.06027500  1
  Co  Co8  1  0.50000000  0.50000000  0.00000000  1
  Co  Co9  1  0.64263200  0.11814900  0.93972500  1
  Co  Co10  1  0.68894400  0.11323000  0.35604900  1
  P  P11  1  0.15174300  0.20651200  0.01713200  1
  P  P12  1  0.18727400  0.18114100  0.31129600  1
  P  P13  1  0.26394700  0.54015700  0.73836300  1
  P  P14  1  0.47542500  0.75416300  0.32030800  1
  P  P15  1  0.52457500  0.24583700  0.67969200  1
  P  P16  1  0.73605300  0.45984300  0.26163700  1
  P  P17  1  0.81272600  0.81885900  0.68870400  1
  P  P18  1  0.84825700  0.79348800  0.98286800  1
  O  O19  1  0.04378400  0.83879500  0.07802800  1
  O  O20  1  0.01767700  0.08473300  0.36977600  1
  O  O21  1  0.06915200  0.42468600  0.72305800  1
  O  O22  1  0.07926900  0.20061300  0.16835300  1
  O  O23  1  0.22258400  0.38639000  0.02740400  1
  O  O24  1  0.23727400  0.35341500  0.40947600  1
  O  O25  1  0.25799900  0.64901200  0.64086600  1
  O  O26  1  0.29928900  0.80671200  0.42377700  1
  O  O27  1  0.33656300  0.63418100  0.88897900  1
  O  O28  1  0.32672000  0.13033900  0.65079100  1
  O  O29  1  0.32646200  0.08064100  0.96980600  1
  O  O30  1  0.39294400  0.70922000  0.16674100  1
  O  O31  1  0.38495100  0.07985800  0.26094700  1
  O  O32  1  0.45889300  0.42311900  0.66852500  1
  O  O33  1  0.54110700  0.57688100  0.33147500  1
  O  O34  1  0.61504900  0.92014200  0.73905300  1
  O  O35  1  0.60705600  0.29078000  0.83325900  1
  O  O36  1  0.67353800  0.91935900  0.03019400  1
  O  O37  1  0.67328000  0.86966100  0.34920900  1
  O  O38  1  0.66343700  0.36581900  0.11102100  1
  O  O39  1  0.70071100  0.19328800  0.57622300  1
  O  O40  1  0.74200100  0.35098800  0.35913400  1
  O  O41  1  0.76272600  0.64658500  0.59052400  1
  O  O42  1  0.77741600  0.61361000  0.97259600  1
  O  O43  1  0.92073100  0.79938700  0.83164700  1
  O  O44  1  0.93084800  0.57531400  0.27694200  1
  O  O45  1  0.98232300  0.91526700  0.63022400  1
  O  O46  1  0.95621600  0.16120500  0.92197200  1
