# generated using pymatgen
data_Li4Ti2Nb3Co3O16
_symmetry_space_group_name_H-M   'P 1'
_cell_length_a   6.02069315
_cell_length_b   6.02069315
_cell_length_c   9.85171273
_cell_angle_alpha   89.56727140
_cell_angle_beta   89.56727140
_cell_angle_gamma   60.80906926
_symmetry_Int_Tables_number   1
_chemical_formula_structural   Li4Ti2Nb3Co3O16
_chemical_formula_sum   'Li4 Ti2 Nb3 Co3 O16'
_cell_volume   311.74677205
_cell_formula_units_Z   1
loop_
 _symmetry_equiv_pos_site_id
 _symmetry_equiv_pos_as_xyz
  1  'x, y, z'
loop_
 _atom_site_type_symbol
 _atom_site_label
 _atom_site_symmetry_multiplicity
 _atom_site_fract_x
 _atom_site_fract_y
 _atom_site_fract_z
 _atom_site_occupancy
  Li  Li0  1  0.66641200  0.66641200  0.90336400  1
  Li  Li1  1  0.00327300  0.00327300  0.99875200  1
  Li  Li2  1  0.02019300  0.02019300  0.48538600  1
  Li  Li3  1  0.33077100  0.33077100  0.39094100  1
  Ti  Ti4  1  0.63697100  0.63697100  0.48459600  1
  Ti  Ti5  1  0.32687000  0.32687000  0.01090800  1
  Nb  Nb6  1  0.82053000  0.82053000  0.22885800  1
  Nb  Nb7  1  0.65169900  0.15811200  0.71567600  1
  Nb  Nb8  1  0.15811200  0.65169900  0.71567600  1
  Co  Co9  1  0.82614100  0.34186200  0.20858600  1
  Co  Co10  1  0.34186200  0.82614100  0.20858600  1
  Co  Co11  1  0.18767600  0.18767600  0.71140800  1
  O  O12  1  0.81973700  0.33887100  0.59306500  1
  O  O13  1  0.51764300  0.51764300  0.35009400  1
  O  O14  1  0.67485900  0.67485900  0.09965900  1
  O  O15  1  0.99711900  0.99711900  0.30023300  1
  O  O16  1  0.99830500  0.99830500  0.80717200  1
  O  O17  1  0.33887100  0.81973700  0.59306500  1
  O  O18  1  0.96331800  0.52887300  0.35087100  1
  O  O19  1  0.52887300  0.96331800  0.35087100  1
  O  O20  1  0.17021900  0.17021900  0.09290800  1
  O  O21  1  0.83545600  0.83545600  0.60070800  1
  O  O22  1  0.49747700  0.03771200  0.85000000  1
  O  O23  1  0.03771200  0.49747700  0.85000000  1
  O  O24  1  0.34892400  0.34892400  0.58950900  1
  O  O25  1  0.65154500  0.16342300  0.09422300  1
  O  O26  1  0.48463400  0.48463400  0.82856200  1
  O  O27  1  0.16342300  0.65154500  0.09422300  1
