# generated using pymatgen
data_Li5V3P8O29
_symmetry_space_group_name_H-M   'P 1'
_cell_length_a   9.79467847
_cell_length_b   9.79467847
_cell_length_c   13.96784524
_cell_angle_alpha   89.91982494
_cell_angle_beta   89.91982494
_cell_angle_gamma   60.01622213
_symmetry_Int_Tables_number   1
_chemical_formula_structural   Li5V3P8O29
_chemical_formula_sum   'Li10 V6 P16 O58'
_cell_volume   1160.67549559
_cell_formula_units_Z   2
loop_
 _symmetry_equiv_pos_site_id
 _symmetry_equiv_pos_as_xyz
  1  'x, y, z'
loop_
 _atom_site_type_symbol
 _atom_site_label
 _atom_site_symmetry_multiplicity
 _atom_site_fract_x
 _atom_site_fract_y
 _atom_site_fract_z
 _atom_site_occupancy
  Li  Li0  1  0.32190700  0.90538400  0.06078900  1
  Li  Li1  1  0.31719600  0.76984900  0.55946500  1
  Li  Li2  1  0.77587500  0.90203800  0.55781700  1
  Li  Li3  1  0.90203800  0.77587500  0.05781700  1
  Li  Li4  1  0.76984900  0.31719600  0.05946500  1
  Li  Li5  1  0.22496900  0.67972300  0.93989800  1
  Li  Li6  1  0.90538400  0.32190700  0.56078900  1
  Li  Li7  1  0.09208900  0.23013000  0.93895900  1
  Li  Li8  1  0.23013000  0.09208900  0.43895900  1
  Li  Li9  1  0.67972300  0.22496900  0.43989800  1
  V  V10  1  0.56986000  0.00191100  0.75451000  1
  V  V11  1  0.43141800  0.56721500  0.75098400  1
  V  V12  1  0.00191100  0.56986000  0.25451000  1
  V  V13  1  0.99824400  0.43325900  0.74641200  1
  V  V14  1  0.56721500  0.43141800  0.25098400  1
  V  V15  1  0.43325900  0.99824400  0.24641200  1
  P  P16  1  0.31911900  0.91327400  0.84207800  1
  P  P17  1  0.32006100  0.76804000  0.34241000  1
  P  P18  1  0.76621900  0.91250600  0.34214300  1
  P  P19  1  0.66294800  0.67121400  0.62769600  1
  P  P20  1  0.67121400  0.66294800  0.12769600  1
  P  P21  1  0.91250600  0.76621900  0.84214300  1
  P  P22  1  0.08608200  0.68280100  0.65793600  1
  P  P23  1  0.76804000  0.32006100  0.84241000  1
  P  P24  1  0.23097900  0.67972500  0.15914600  1
  P  P25  1  0.91327400  0.31911900  0.34207800  1
  P  P26  1  0.08644000  0.23431900  0.15750000  1
  P  P27  1  0.33016400  0.33253400  0.87274300  1
  P  P28  1  0.33253400  0.33016400  0.37274300  1
  P  P29  1  0.23431900  0.08644000  0.65750000  1
  P  P30  1  0.67972500  0.23097900  0.65914600  1
  P  P31  1  0.68280100  0.08608200  0.15793600  1
  O  O32  1  0.24750000  0.99595400  0.56767700  1
  O  O33  1  0.33829000  0.91706900  0.33673100  1
  O  O34  1  0.21049600  0.78931200  0.25053800  1
  O  O35  1  0.23644900  0.76110400  0.06891100  1
  O  O36  1  0.48051000  0.90174400  0.82374200  1
  O  O37  1  0.33485400  0.74843600  0.84334800  1
  O  O38  1  0.51498000  0.81090400  0.16609600  1
  O  O39  1  0.61993700  0.89838400  0.32458300  1
  O  O40  1  0.76749700  0.99283800  0.07332900  1
  O  O41  1  0.74633100  0.91555900  0.83461100  1
  O  O42  1  0.51000500  0.67786100  0.66757900  1
  O  O43  1  0.66923900  0.81819700  0.67158600  1
  O  O44  1  0.48060100  0.61722900  0.32093700  1
  O  O45  1  0.66669500  0.67551400  0.52099200  1
  O  O46  1  0.67551400  0.66669500  0.02099200  1
  O  O47  1  0.61722900  0.48060100  0.82093700  1
  O  O48  1  0.81819700  0.66923900  0.17158600  1
  O  O49  1  0.67786100  0.51000500  0.16757900  1
  O  O50  1  0.91555900  0.74633100  0.33461100  1
  O  O51  1  0.00781300  0.78545900  0.75419400  1
  O  O52  1  0.99727200  0.76095700  0.93252200  1
  O  O53  1  0.99283800  0.76749700  0.57332900  1
  O  O54  1  0.89838400  0.61993700  0.82458300  1
  O  O55  1  0.81090400  0.51498000  0.66609600  1
  O  O56  1  0.74843600  0.33485400  0.34334800  1
  O  O57  1  0.07945500  0.66573200  0.16114300  1
  O  O58  1  0.90174400  0.48051000  0.32374200  1
  O  O59  1  0.24855100  0.75936200  0.43374800  1
  O  O60  1  0.76110400  0.23644900  0.56891100  1
  O  O61  1  0.09735000  0.52051600  0.67630500  1
  O  O62  1  0.91706900  0.33829000  0.83673100  1
  O  O63  1  0.78931200  0.21049600  0.75053800  1
  O  O64  1  0.25445800  0.66178300  0.66025300  1
  O  O65  1  0.18492200  0.48141500  0.32460100  1
  O  O66  1  0.09523200  0.38420200  0.17711700  1
  O  O67  1  0.99595400  0.24750000  0.06767700  1
  O  O68  1  0.00384600  0.24279400  0.43188100  1
  O  O69  1  0.99943900  0.21008500  0.24979700  1
  O  O70  1  0.08441100  0.25061900  0.65655000  1
  O  O71  1  0.32629000  0.48586700  0.83377700  1
  O  O72  1  0.37732900  0.51878100  0.17561600  1
  O  O73  1  0.18546200  0.32428000  0.83271800  1
  O  O74  1  0.32388300  0.33854000  0.47907400  1
  O  O75  1  0.33854000  0.32388300  0.97907400  1
  O  O76  1  0.51878100  0.37732900  0.67561600  1
  O  O77  1  0.32428000  0.18546200  0.33271800  1
  O  O78  1  0.48586700  0.32629000  0.33377700  1
  O  O79  1  0.25061900  0.08441100  0.15655000  1
  O  O80  1  0.21008500  0.99943900  0.74979700  1
  O  O81  1  0.24279400  0.00384600  0.93188100  1
  O  O82  1  0.38420200  0.09523200  0.67711700  1
  O  O83  1  0.48141500  0.18492200  0.82460100  1
  O  O84  1  0.66178300  0.25445800  0.16025300  1
  O  O85  1  0.52051600  0.09735000  0.17630500  1
  O  O86  1  0.75936200  0.24855100  0.93374800  1
  O  O87  1  0.66573200  0.07945500  0.66114300  1
  O  O88  1  0.76095700  0.99727200  0.43252200  1
  O  O89  1  0.78545900  0.00781300  0.25419400  1
