# generated using pymatgen
data_LiP4WO12
_symmetry_space_group_name_H-M   'P 1'
_cell_length_a   7.86087032
_cell_length_b   7.86087032
_cell_length_c   9.70307765
_cell_angle_alpha   85.49936590
_cell_angle_beta   85.49936590
_cell_angle_gamma   124.38264475
_symmetry_Int_Tables_number   1
_chemical_formula_structural   LiP4WO12
_chemical_formula_sum   'Li2 P8 W2 O24'
_cell_volume   487.77815618
_cell_formula_units_Z   2
loop_
 _symmetry_equiv_pos_site_id
 _symmetry_equiv_pos_as_xyz
  1  'x, y, z'
loop_
 _atom_site_type_symbol
 _atom_site_label
 _atom_site_symmetry_multiplicity
 _atom_site_fract_x
 _atom_site_fract_y
 _atom_site_fract_z
 _atom_site_occupancy
  Li  Li0  1  0.96058100  0.03941900  0.25000000  1
  Li  Li1  1  0.03941900  0.96058100  0.75000000  1
  P  P2  1  0.78700300  0.70389300  0.04161300  1
  P  P3  1  0.26592600  0.56590700  0.51168000  1
  P  P4  1  0.43409300  0.73407400  0.98832000  1
  P  P5  1  0.70389300  0.78700300  0.54161300  1
  P  P6  1  0.29610700  0.21299700  0.45838700  1
  P  P7  1  0.56590700  0.26592600  0.01168000  1
  P  P8  1  0.73407400  0.43409300  0.48832000  1
  P  P9  1  0.21299700  0.29610700  0.95838700  1
  W  W10  1  0.18247600  0.81752400  0.25000000  1
  W  W11  1  0.81752400  0.18247600  0.75000000  1
  O  O12  1  0.74286100  0.86746400  0.39180100  1
  O  O13  1  0.91919400  0.53187700  0.37603300  1
  O  O14  1  0.94071600  0.81345000  0.14257600  1
  O  O15  1  0.86746400  0.74286100  0.89180100  1
  O  O16  1  0.32277700  0.74822500  0.40694000  1
  O  O17  1  0.53187700  0.91919400  0.87603300  1
  O  O18  1  0.24798200  0.38763200  0.42663400  1
  O  O19  1  0.64618500  0.45750300  0.09799400  1
  O  O20  1  0.81345000  0.94071600  0.64257600  1
  O  O21  1  0.54249700  0.35381500  0.40200600  1
  O  O22  1  0.61236800  0.75201800  0.07336600  1
  O  O23  1  0.74822500  0.32277700  0.90694000  1
  O  O24  1  0.25177500  0.67722300  0.09306000  1
  O  O25  1  0.38763200  0.24798200  0.92663400  1
  O  O26  1  0.45750300  0.64618500  0.59799400  1
  O  O27  1  0.18655000  0.05928400  0.35742400  1
  O  O28  1  0.35381500  0.54249700  0.90200600  1
  O  O29  1  0.75201800  0.61236800  0.57336600  1
  O  O30  1  0.46812300  0.08080600  0.12396700  1
  O  O31  1  0.67722300  0.25177500  0.59306000  1
  O  O32  1  0.13253600  0.25713900  0.10819900  1
  O  O33  1  0.05928400  0.18655000  0.85742400  1
  O  O34  1  0.08080600  0.46812300  0.62396700  1
  O  O35  1  0.25713900  0.13253600  0.60819900  1
