# generated using pymatgen
data_Ba2LiTi11O24
_symmetry_space_group_name_H-M   'P 1'
_cell_length_a   7.33649300
_cell_length_b   7.39610733
_cell_length_c   8.96521818
_cell_angle_alpha   101.86263955
_cell_angle_beta   101.91066242
_cell_angle_gamma   87.68192800
_symmetry_Int_Tables_number   1
_chemical_formula_structural   Ba2LiTi11O24
_chemical_formula_sum   'Ba2 Li1 Ti11 O24'
_cell_volume   465.82610715
_cell_formula_units_Z   1
loop_
 _symmetry_equiv_pos_site_id
 _symmetry_equiv_pos_as_xyz
  1  'x, y, z'
loop_
 _atom_site_type_symbol
 _atom_site_label
 _atom_site_symmetry_multiplicity
 _atom_site_fract_x
 _atom_site_fract_y
 _atom_site_fract_z
 _atom_site_occupancy
  Ba  Ba0  1  0.00457200  0.00043200  0.22469100  1
  Ba  Ba1  1  0.00923800  0.00393300  0.78129200  1
  Li  Li2  1  0.49329600  0.19370500  0.94632700  1
  Ti  Ti3  1  0.47398800  0.18193400  0.61763100  1
  Ti  Ti4  1  0.48056700  0.18400600  0.26914700  1
  Ti  Ti5  1  0.18911900  0.50889400  0.11160500  1
  Ti  Ti6  1  0.17937600  0.53173900  0.45269800  1
  Ti  Ti7  1  0.18468100  0.51061000  0.78716700  1
  Ti  Ti8  1  0.80980300  0.47815800  0.21140300  1
  Ti  Ti9  1  0.81128500  0.47229500  0.54711300  1
  Ti  Ti10  1  0.80347600  0.48726100  0.88323800  1
  Ti  Ti11  1  0.51976800  0.82915600  0.72986500  1
  Ti  Ti12  1  0.50749900  0.83228300  0.05171700  1
  Ti  Ti13  1  0.52287700  0.81681200  0.38962500  1
  O  O14  1  0.33948200  0.03573200  0.07848600  1
  O  O15  1  0.35928400  0.04402400  0.40068500  1
  O  O16  1  0.35070000  0.03817000  0.71884200  1
  O  O17  1  0.28732400  0.37178100  0.27815700  1
  O  O18  1  0.28585600  0.37769100  0.94223400  1
  O  O19  1  0.29289600  0.37880800  0.61121900  1
  O  O20  1  0.04773200  0.64403700  0.28218200  1
  O  O21  1  0.04803900  0.64535100  0.61530800  1
  O  O22  1  0.04755600  0.64760800  0.95011700  1
  O  O23  1  0.62267800  0.29269300  0.48481300  1
  O  O24  1  0.63458600  0.29479900  0.80626100  1
  O  O25  1  0.63490300  0.28881700  0.16644400  1
  O  O26  1  0.37549800  0.70358700  0.18397300  1
  O  O27  1  0.38016500  0.70397900  0.51168500  1
  O  O28  1  0.37021900  0.71068500  0.84420700  1
  O  O29  1  0.95280400  0.35380500  0.05030800  1
  O  O30  1  0.95585000  0.35718400  0.38656100  1
  O  O31  1  0.95565600  0.35670800  0.71692000  1
  O  O32  1  0.71087700  0.62852100  0.71790300  1
  O  O33  1  0.70331200  0.62478000  0.05899200  1
  O  O34  1  0.70870000  0.62525100  0.38976500  1
  O  O35  1  0.65305000  0.93745900  0.93421000  1
  O  O36  1  0.64547000  0.95328600  0.26546200  1
  O  O37  1  0.64781900  0.95402400  0.60174900  1
