# generated using pymatgen
data_Li2Mn4O9
_symmetry_space_group_name_H-M   'P 1'
_cell_length_a   4.93901349
_cell_length_b   4.93901349
_cell_length_c   13.58692700
_cell_angle_alpha   90.00000000
_cell_angle_beta   90.00000000
_cell_angle_gamma   119.99999311
_symmetry_Int_Tables_number   1
_chemical_formula_structural   Li2Mn4O9
_chemical_formula_sum   'Li4 Mn8 O18'
_cell_volume   287.03332893
_cell_formula_units_Z   2
loop_
 _symmetry_equiv_pos_site_id
 _symmetry_equiv_pos_as_xyz
  1  'x, y, z'
loop_
 _atom_site_type_symbol
 _atom_site_label
 _atom_site_symmetry_multiplicity
 _atom_site_fract_x
 _atom_site_fract_y
 _atom_site_fract_z
 _atom_site_occupancy
  Li  Li0  1  0.00000000  0.00000000  0.64822900  1
  Li  Li1  1  0.00000000  0.00000000  0.85177100  1
  Li  Li2  1  0.00000000  0.00000000  0.14822900  1
  Li  Li3  1  0.00000000  0.00000000  0.35177100  1
  Mn  Mn4  1  0.33333300  0.66666700  0.51468700  1
  Mn  Mn5  1  0.33333300  0.66666700  0.81547700  1
  Mn  Mn6  1  0.33333300  0.66666700  0.31547700  1
  Mn  Mn7  1  0.33333300  0.66666700  0.01468700  1
  Mn  Mn8  1  0.66666700  0.33333300  0.68452300  1
  Mn  Mn9  1  0.66666700  0.33333300  0.18452300  1
  Mn  Mn10  1  0.66666700  0.33333300  0.98531300  1
  Mn  Mn11  1  0.66666700  0.33333300  0.48531300  1
  O  O12  1  0.00000000  0.66884500  0.25000000  1
  O  O13  1  0.03106300  0.65658400  0.92019900  1
  O  O14  1  0.34341600  0.96893700  0.42019900  1
  O  O15  1  0.03106300  0.37447900  0.42019900  1
  O  O16  1  0.00000000  0.33115500  0.75000000  1
  O  O17  1  0.33115500  0.33115500  0.25000000  1
  O  O18  1  0.34341600  0.37447900  0.92019900  1
  O  O19  1  0.62552100  0.96893700  0.92019900  1
  O  O20  1  0.37447900  0.34341600  0.57980100  1
  O  O21  1  0.33115500  0.00000000  0.75000000  1
  O  O22  1  0.62552100  0.65658400  0.42019900  1
  O  O23  1  0.37447900  0.03106300  0.07980100  1
  O  O24  1  0.65658400  0.62552100  0.07980100  1
  O  O25  1  0.66884500  0.66884500  0.75000000  1
  O  O26  1  0.96893700  0.62552100  0.57980100  1
  O  O27  1  0.65658400  0.03106300  0.57980100  1
  O  O28  1  0.66884500  0.00000000  0.25000000  1
  O  O29  1  0.96893700  0.34341600  0.07980100  1
