# generated using pymatgen
data_Li4Fe3Co3(WO8)2
_symmetry_space_group_name_H-M   'P 1'
_cell_length_a   5.93832700
_cell_length_b   5.94053127
_cell_length_c   9.78823402
_cell_angle_alpha   89.10765409
_cell_angle_beta   89.02789763
_cell_angle_gamma   60.23736439
_symmetry_Int_Tables_number   1
_chemical_formula_structural   Li4Fe3Co3(WO8)2
_chemical_formula_sum   'Li4 Fe3 Co3 W2 O16'
_cell_volume   299.69598104
_cell_formula_units_Z   1
loop_
 _symmetry_equiv_pos_site_id
 _symmetry_equiv_pos_as_xyz
  1  'x, y, z'
loop_
 _atom_site_type_symbol
 _atom_site_label
 _atom_site_symmetry_multiplicity
 _atom_site_fract_x
 _atom_site_fract_y
 _atom_site_fract_z
 _atom_site_occupancy
  Li  Li0  1  0.66395800  0.66579800  0.08937700  1
  Li  Li1  1  0.00335900  0.00018800  0.01095700  1
  Li  Li2  1  0.00263400  0.00616900  0.51430800  1
  Li  Li3  1  0.32687400  0.32472600  0.59183400  1
  Fe  Fe4  1  0.82494400  0.83298700  0.78066500  1
  Fe  Fe5  1  0.65776700  0.16613500  0.28436500  1
  Fe  Fe6  1  0.16669500  0.65771800  0.28590400  1
  Co  Co7  1  0.82242300  0.34338300  0.78733800  1
  Co  Co8  1  0.34028500  0.82799200  0.78863000  1
  Co  Co9  1  0.17012400  0.17113000  0.28623600  1
  W  W10  1  0.65561200  0.65984000  0.51499500  1
  W  W11  1  0.32917500  0.33617700  0.01258100  1
  O  O12  1  0.82625800  0.34698200  0.41186400  1
  O  O13  1  0.51935300  0.50638800  0.64220500  1
  O  O14  1  0.66828700  0.65756000  0.88486800  1
  O  O15  1  0.00134800  0.01129200  0.70324600  1
  O  O16  1  0.99946100  0.99834200  0.19892300  1
  O  O17  1  0.34585000  0.82220400  0.41256500  1
  O  O18  1  0.95702400  0.51529500  0.65651200  1
  O  O19  1  0.52156800  0.95657000  0.65064900  1
  O  O20  1  0.17501200  0.17866500  0.91894500  1
  O  O21  1  0.83118300  0.82603500  0.41461200  1
  O  O22  1  0.49300900  0.03915200  0.14454100  1
  O  O23  1  0.03762200  0.49496600  0.14557600  1
  O  O24  1  0.33808500  0.33613600  0.39149800  1
  O  O25  1  0.66199800  0.17735500  0.90749500  1
  O  O26  1  0.48254900  0.48142600  0.15281500  1
  O  O27  1  0.17784200  0.65908900  0.90865400  1
