# generated using pymatgen
data_Li8Mn3Fe5(BO3)8
_symmetry_space_group_name_H-M   'P 1'
_cell_length_a   5.23600700
_cell_length_b   6.03397531
_cell_length_c   16.16268617
_cell_angle_alpha   81.85460750
_cell_angle_beta   89.22441398
_cell_angle_gamma   88.96823617
_symmetry_Int_Tables_number   1
_chemical_formula_structural   Li8Mn3Fe5(BO3)8
_chemical_formula_sum   'Li8 Mn3 Fe5 B8 O24'
_cell_volume   505.37829270
_cell_formula_units_Z   1
loop_
 _symmetry_equiv_pos_site_id
 _symmetry_equiv_pos_as_xyz
  1  'x, y, z'
loop_
 _atom_site_type_symbol
 _atom_site_label
 _atom_site_symmetry_multiplicity
 _atom_site_fract_x
 _atom_site_fract_y
 _atom_site_fract_z
 _atom_site_occupancy
  Li  Li0  1  0.84659600  0.06443700  0.38907200  1
  Li  Li1  1  0.15342800  0.43794200  0.10805100  1
  Li  Li2  1  0.65244900  0.18439400  0.86127300  1
  Li  Li3  1  0.34562300  0.31405300  0.63967400  1
  Li  Li4  1  0.65307800  0.68410600  0.35978500  1
  Li  Li5  1  0.34736000  0.81707300  0.13826600  1
  Li  Li6  1  0.84708400  0.56179100  0.89027200  1
  Li  Li7  1  0.15216200  0.93645400  0.60985400  1
  Mn  Mn8  1  0.16938800  0.02005900  0.79155400  1
  Mn  Mn9  1  0.16940400  0.52460300  0.29119700  1
  Mn  Mn10  1  0.66908700  0.77298600  0.54143900  1
  Fe  Fe11  1  0.67284100  0.27181100  0.04305900  1
  Fe  Fe12  1  0.33606100  0.22287900  0.46042200  1
  Fe  Fe13  1  0.83679100  0.47233100  0.71044300  1
  Fe  Fe14  1  0.82985400  0.97255800  0.21166600  1
  Fe  Fe15  1  0.33836900  0.72053800  0.96029900  1
  B  B16  1  0.32561100  0.03771900  0.29634000  1
  B  B17  1  0.82734600  0.28739400  0.54700400  1
  B  B18  1  0.66904000  0.46585200  0.20192100  1
  B  B19  1  0.17181200  0.21274700  0.95406800  1
  B  B20  1  0.82827000  0.78896100  0.04644900  1
  B  B21  1  0.32898900  0.53546900  0.79756400  1
  B  B22  1  0.17177500  0.71491200  0.45276000  1
  B  B23  1  0.67185600  0.96399900  0.70306100  1
  O  O24  1  0.58714200  0.01279200  0.30715900  1
  O  O25  1  0.18261300  0.16696100  0.34605200  1
  O  O26  1  0.70583800  0.17672400  0.48873700  1
  O  O27  1  0.29732000  0.32956500  0.00954100  1
  O  O28  1  0.78790100  0.08009100  0.76045300  1
  O  O29  1  0.81660600  0.33129200  0.15444300  1
  O  O30  1  0.31762400  0.07733400  0.90677700  1
  O  O31  1  0.08695200  0.26322000  0.55846000  1
  O  O32  1  0.40963700  0.48943400  0.18918500  1
  O  O33  1  0.91134600  0.23718000  0.94194300  1
  O  O34  1  0.68044500  0.41761500  0.59603600  1
  O  O35  1  0.20638000  0.42550100  0.73907500  1
  O  O36  1  0.78835900  0.57810800  0.25978900  1
  O  O37  1  0.32160200  0.57942500  0.40679300  1
  O  O38  1  0.08815400  0.76273600  0.05823200  1
  O  O39  1  0.58829000  0.51110300  0.80887500  1
  O  O40  1  0.91170200  0.73843600  0.43868700  1
  O  O41  1  0.68317000  0.92012200  0.09549900  1
  O  O42  1  0.18164600  0.66511500  0.84640700  1
  O  O43  1  0.20404500  0.92633900  0.23830800  1
  O  O44  1  0.70704100  0.67709800  0.98874400  1
  O  O45  1  0.28806800  0.83198500  0.50971300  1
  O  O46  1  0.82180500  0.82912400  0.65681100  1
  O  O47  1  0.41204000  0.98763600  0.68878500  1
