# generated using pymatgen
data_LiV4(PO4)3
_symmetry_space_group_name_H-M   'P 1'
_cell_length_a   10.72735238
_cell_length_b   10.72735238
_cell_length_c   10.72735238
_cell_angle_alpha   142.88385523
_cell_angle_beta   142.88385523
_cell_angle_gamma   53.49963903
_symmetry_Int_Tables_number   1
_chemical_formula_structural   LiV4(PO4)3
_chemical_formula_sum   'Li2 V8 P6 O24'
_cell_volume   446.64156105
_cell_formula_units_Z   2
loop_
 _symmetry_equiv_pos_site_id
 _symmetry_equiv_pos_as_xyz
  1  'x, y, z'
loop_
 _atom_site_type_symbol
 _atom_site_label
 _atom_site_symmetry_multiplicity
 _atom_site_fract_x
 _atom_site_fract_y
 _atom_site_fract_z
 _atom_site_occupancy
  Li  Li0  1  0.25000000  0.75000000  0.50000000  1
  Li  Li1  1  0.50000000  0.50000000  0.00000000  1
  V  V2  1  0.37500000  0.37000600  0.49500600  1
  V  V3  1  0.77293800  0.77293800  0.00000000  1
  V  V4  1  0.62999400  0.12500000  0.00499400  1
  V  V5  1  0.87500000  0.87999400  0.50499400  1
  V  V6  1  0.22706200  0.22706200  0.00000000  1
  V  V7  1  0.97706200  0.47706200  0.50000000  1
  V  V8  1  0.52293800  0.02293800  0.50000000  1
  V  V9  1  0.12000600  0.62500000  0.99500600  1
  P  P10  1  0.00000000  0.00000000  0.00000000  1
  P  P11  1  0.87500000  0.47759900  0.10259900  1
  P  P12  1  0.37500000  0.77240100  0.89740100  1
  P  P13  1  0.22759900  0.12500000  0.60259900  1
  P  P14  1  0.75000000  0.25000000  0.50000000  1
  P  P15  1  0.52240100  0.62500000  0.39740100  1
  O  O16  1  0.23107200  0.08947600  0.23575600  1
  O  O17  1  0.66931100  0.34079800  0.79982600  1
  O  O18  1  0.08068900  0.38051500  0.17148700  1
  O  O19  1  0.61948500  0.79097200  0.70017400  1
  O  O20  1  0.27689300  0.56548300  0.72080800  1
  O  O21  1  0.47310700  0.69391500  0.78859000  1
  O  O22  1  0.90532500  0.68451700  0.21141000  1
  O  O23  1  0.84467500  0.55608500  0.27919200  1
  O  O24  1  0.09079800  0.91931100  0.29982600  1
  O  O25  1  0.91052400  0.14628000  0.14159700  1
  O  O26  1  0.43451700  0.15532500  0.71141000  1
  O  O27  1  0.20902800  0.90920200  0.82851300  1
  O  O28  1  0.54097200  0.86948500  0.20017400  1
  O  O29  1  0.30608500  0.09467500  0.77919200  1
  O  O30  1  0.74531700  0.10372000  0.26424400  1
  O  O31  1  0.89628000  0.16052400  0.64159700  1
  O  O32  1  0.85372000  0.99531700  0.76424400  1
  O  O33  1  0.13051500  0.33068900  0.67148700  1
  O  O34  1  0.65920200  0.45902800  0.32851300  1
  O  O35  1  0.51892800  0.25468300  0.35840300  1
  O  O36  1  0.83947600  0.48107200  0.73575600  1
  O  O37  1  0.31548300  0.52689300  0.22080800  1
  O  O38  1  0.44391500  0.72310700  0.28859000  1
  O  O39  1  0.00468300  0.76892800  0.85840300  1
