# generated using pymatgen
data_Li4Ti3Cr3(FeO8)2
_symmetry_space_group_name_H-M   'P 1'
_cell_length_a   5.91244400
_cell_length_b   5.91625894
_cell_length_c   9.59886826
_cell_angle_alpha   89.96863100
_cell_angle_beta   90.35349919
_cell_angle_gamma   119.83457325
_symmetry_Int_Tables_number   1
_chemical_formula_structural   Li4Ti3Cr3(FeO8)2
_chemical_formula_sum   'Li4 Ti3 Cr3 Fe2 O16'
_cell_volume   291.25695945
_cell_formula_units_Z   1
loop_
 _symmetry_equiv_pos_site_id
 _symmetry_equiv_pos_as_xyz
  1  'x, y, z'
loop_
 _atom_site_type_symbol
 _atom_site_label
 _atom_site_symmetry_multiplicity
 _atom_site_fract_x
 _atom_site_fract_y
 _atom_site_fract_z
 _atom_site_occupancy
  Li  Li0  1  0.66258400  0.32922200  0.89270200  1
  Li  Li1  1  0.99817300  0.00434700  0.99485300  1
  Li  Li2  1  0.99960100  0.99912300  0.49733500  1
  Li  Li3  1  0.33294500  0.66804500  0.39578600  1
  Ti  Ti4  1  0.16642600  0.81999300  0.71971000  1
  Ti  Ti5  1  0.83263500  0.66094700  0.21476200  1
  Ti  Ti6  1  0.33971700  0.16824300  0.21554200  1
  Cr  Cr7  1  0.82998500  0.17069800  0.21306900  1
  Cr  Cr8  1  0.66040700  0.83080600  0.71375700  1
  Cr  Cr9  1  0.17219700  0.33424800  0.70986400  1
  Fe  Fe10  1  0.67277300  0.34037500  0.49140700  1
  Fe  Fe11  1  0.33703200  0.66240200  0.99069800  1
  O  O12  1  0.84236900  0.67422900  0.59988700  1
  O  O13  1  0.51891300  0.48353000  0.33440800  1
  O  O14  1  0.66090500  0.33807100  0.10326700  1
  O  O15  1  0.00254900  0.99981000  0.31062200  1
  O  O16  1  0.00505000  0.99996400  0.80934100  1
  O  O17  1  0.32770800  0.17068100  0.60358200  1
  O  O18  1  0.96165800  0.48846100  0.33807200  1
  O  O19  1  0.51438700  0.04138900  0.33930400  1
  O  O20  1  0.16365200  0.83451300  0.10263900  1
  O  O21  1  0.84932100  0.17416700  0.60440500  1
  O  O22  1  0.47381300  0.95921400  0.84026200  1
  O  O23  1  0.03502300  0.51333800  0.83473600  1
  O  O24  1  0.32677600  0.66800900  0.60351500  1
  O  O25  1  0.67517100  0.83056900  0.10017600  1
  O  O26  1  0.46939300  0.51011700  0.83308800  1
  O  O27  1  0.16913600  0.32579000  0.10105100  1
