# generated using pymatgen
data_Li7V7P6(O8F)3
_symmetry_space_group_name_H-M   'P 1'
_cell_length_a   13.65879572
_cell_length_b   13.65879572
_cell_length_c   6.44972100
_cell_angle_alpha   90.00000000
_cell_angle_beta   90.00000000
_cell_angle_gamma   119.99999865
_symmetry_Int_Tables_number   1
_chemical_formula_structural   Li7V7P6(O8F)3
_chemical_formula_sum   'Li14 V14 P12 O48 F6'
_cell_volume   1042.06878237
_cell_formula_units_Z   2
loop_
 _symmetry_equiv_pos_site_id
 _symmetry_equiv_pos_as_xyz
  1  'x, y, z'
loop_
 _atom_site_type_symbol
 _atom_site_label
 _atom_site_symmetry_multiplicity
 _atom_site_fract_x
 _atom_site_fract_y
 _atom_site_fract_z
 _atom_site_occupancy
  Li  Li0  1  0.18332600  0.25528200  0.74315300  1
  Li  Li1  1  0.92804400  0.18332600  0.24315300  1
  Li  Li2  1  0.37559900  0.49987800  0.24409300  1
  Li  Li3  1  0.49987800  0.12427900  0.74409300  1
  Li  Li4  1  0.25528200  0.07195600  0.24315300  1
  Li  Li5  1  0.87572100  0.37559900  0.74409300  1
  Li  Li6  1  0.66666700  0.33333300  0.56202400  1
  Li  Li7  1  0.33333300  0.66666700  0.06202400  1
  Li  Li8  1  0.12427900  0.62440100  0.24409300  1
  Li  Li9  1  0.74471800  0.92804400  0.74315300  1
  Li  Li10  1  0.50012200  0.87572100  0.24409300  1
  Li  Li11  1  0.62440100  0.50012200  0.74409300  1
  Li  Li12  1  0.07195600  0.81667400  0.74315300  1
  Li  Li13  1  0.81667400  0.74471800  0.24315300  1
  V  V14  1  0.70541200  0.12652200  0.98902800  1
  V  V15  1  0.70572500  0.12310000  0.48876100  1
  V  V16  1  0.12652200  0.42111100  0.48902800  1
  V  V17  1  0.12310000  0.41737500  0.98876100  1
  V  V18  1  0.58262500  0.70572500  0.98876100  1
  V  V19  1  0.57888900  0.70541200  0.48902800  1
  V  V20  1  0.00000000  0.00000000  0.99280000  1
  V  V21  1  0.00000000  0.00000000  0.49280000  1
  V  V22  1  0.42111100  0.29458800  0.98902800  1
  V  V23  1  0.41737500  0.29427500  0.48876100  1
  V  V24  1  0.87690000  0.58262500  0.48876100  1
  V  V25  1  0.87347800  0.57888900  0.98902800  1
  V  V26  1  0.29427500  0.87690000  0.98876100  1
  V  V27  1  0.29458800  0.87347800  0.48902800  1
  P  P28  1  0.18314900  0.24230500  0.24104800  1
  P  P29  1  0.94084400  0.18314900  0.74104800  1
  P  P30  1  0.36777200  0.48464400  0.74000000  1
  P  P31  1  0.48464400  0.11687200  0.24000000  1
  P  P32  1  0.88312800  0.36777200  0.24000000  1
  P  P33  1  0.24230500  0.05915600  0.74104800  1
  P  P34  1  0.75769500  0.94084400  0.24104800  1
  P  P35  1  0.11687200  0.63222800  0.74000000  1
  P  P36  1  0.51535600  0.88312800  0.74000000  1
  P  P37  1  0.63222800  0.51535600  0.24000000  1
  P  P38  1  0.05915600  0.81685100  0.24104800  1
  P  P39  1  0.81685100  0.75769500  0.74104800  1
  O  O40  1  0.12451200  0.10927800  0.24237900  1
  O  O41  1  0.01523400  0.12451200  0.74237900  1
  O  O42  1  0.69436800  0.01135300  0.23833800  1
  O  O43  1  0.36566600  0.36777900  0.74524100  1
  O  O44  1  0.14759400  0.27874300  0.43908800  1
  O  O45  1  0.86885100  0.14759400  0.93908800  1
  O  O46  1  0.14508200  0.27677300  0.04404500  1
  O  O47  1  0.86830900  0.14508200  0.54404500  1
  O  O48  1  0.01135300  0.31698500  0.73833800  1
  O  O49  1  0.36777900  0.00211200  0.24524100  1
  O  O50  1  0.42799300  0.54609500  0.53876300  1
  O  O51  1  0.54609500  0.11810200  0.03876300  1
  O  O52  1  0.24331700  0.45885900  0.73853800  1
  O  O53  1  0.55308300  0.13018200  0.43979400  1
  O  O54  1  0.42290100  0.55308300  0.93979400  1
  O  O55  1  0.68301500  0.69436800  0.73833800  1
  O  O56  1  0.78445800  0.24331700  0.23853800  1
  O  O57  1  0.99788800  0.36566600  0.24524100  1
  O  O58  1  0.10927800  0.98476600  0.74237900  1
  O  O59  1  0.45885900  0.21554200  0.23853800  1
  O  O60  1  0.27677300  0.13169100  0.54404500  1
  O  O61  1  0.88189800  0.42799300  0.03876300  1
  O  O62  1  0.27874300  0.13114900  0.93908800  1
  O  O63  1  0.13018200  0.57709900  0.93979400  1
  O  O64  1  0.86981800  0.42290100  0.43979400  1
  O  O65  1  0.72125700  0.86885100  0.43908800  1
  O  O66  1  0.11810200  0.57200700  0.53876300  1
  O  O67  1  0.72322700  0.86830900  0.04404500  1
  O  O68  1  0.54114100  0.78445800  0.73853800  1
  O  O69  1  0.89072200  0.01523400  0.24237900  1
  O  O70  1  0.00211200  0.63433400  0.74524100  1
  O  O71  1  0.21554200  0.75668300  0.73853800  1
  O  O72  1  0.31698500  0.30563200  0.23833800  1
  O  O73  1  0.57709900  0.44691700  0.43979400  1
  O  O74  1  0.44691700  0.86981800  0.93979400  1
  O  O75  1  0.75668300  0.54114100  0.23853800  1
  O  O76  1  0.45390500  0.88189800  0.53876300  1
  O  O77  1  0.57200700  0.45390500  0.03876300  1
  O  O78  1  0.63222100  0.99788800  0.74524100  1
  O  O79  1  0.98864700  0.68301500  0.23833800  1
  O  O80  1  0.13169100  0.85491800  0.04404500  1
  O  O81  1  0.85491800  0.72322700  0.54404500  1
  O  O82  1  0.13114900  0.85240600  0.43908800  1
  O  O83  1  0.85240600  0.72125700  0.93908800  1
  O  O84  1  0.63433400  0.63222100  0.24524100  1
  O  O85  1  0.30563200  0.98864700  0.73833800  1
  O  O86  1  0.98476600  0.87548800  0.24237900  1
  O  O87  1  0.87548800  0.89072200  0.74237900  1
  F  F88  1  0.72530100  0.24146000  0.72948500  1
  F  F89  1  0.24146000  0.51615900  0.22948500  1
  F  F90  1  0.48384100  0.72530100  0.22948500  1
  F  F91  1  0.51615900  0.27469900  0.72948500  1
  F  F92  1  0.75854000  0.48384100  0.72948500  1
  F  F93  1  0.27469900  0.75854000  0.22948500  1
