# generated using pymatgen
data_Li4Co3Ni(PO4)4
_symmetry_space_group_name_H-M   'P 1'
_cell_length_a   5.96513900
_cell_length_b   4.74575700
_cell_length_c   10.23215505
_cell_angle_alpha   89.96373711
_cell_angle_beta   90.00000000
_cell_angle_gamma   90.00000000
_symmetry_Int_Tables_number   1
_chemical_formula_structural   Li4Co3Ni(PO4)4
_chemical_formula_sum   'Li4 Co3 Ni1 P4 O16'
_cell_volume   289.66304418
_cell_formula_units_Z   1
loop_
 _symmetry_equiv_pos_site_id
 _symmetry_equiv_pos_as_xyz
  1  'x, y, z'
loop_
 _atom_site_type_symbol
 _atom_site_label
 _atom_site_symmetry_multiplicity
 _atom_site_fract_x
 _atom_site_fract_y
 _atom_site_fract_z
 _atom_site_occupancy
  Li  Li0  1  0.24939800  0.00021200  0.99955600  1
  Li  Li1  1  0.75060200  0.00021200  0.99955600  1
  Li  Li2  1  0.75072700  0.50013700  0.50122200  1
  Li  Li3  1  0.24927300  0.50013700  0.50122200  1
  Co  Co4  1  0.00000000  0.02573100  0.27746800  1
  Co  Co5  1  0.00000000  0.47836400  0.77823100  1
  Co  Co6  1  0.50000000  0.52206700  0.22147300  1
  Ni  Ni7  1  0.50000000  0.98026600  0.72345700  1
  P  P8  1  0.50000000  0.08379600  0.40784200  1
  P  P9  1  0.50000000  0.41368700  0.90467000  1
  P  P10  1  0.00000000  0.58688600  0.09332600  1
  P  P11  1  0.00000000  0.91508500  0.59413700  1
  O  O12  1  0.50000000  0.20301100  0.54924900  1
  O  O13  1  0.29411200  0.22319800  0.33610500  1
  O  O14  1  0.70588800  0.22319800  0.33610500  1
  O  O15  1  0.00000000  0.23816800  0.59846700  1
  O  O16  1  0.00000000  0.26343200  0.09806200  1
  O  O17  1  0.29402800  0.27249600  0.83384800  1
  O  O18  1  0.70597200  0.27249600  0.83384800  1
  O  O19  1  0.50000000  0.29592600  0.04671600  1
  O  O20  1  0.00000000  0.70628000  0.95217700  1
  O  O21  1  0.79364200  0.72576000  0.16478800  1
  O  O22  1  0.20635800  0.72576000  0.16478800  1
  O  O23  1  0.50000000  0.73708500  0.89932500  1
  O  O24  1  0.50000000  0.76100400  0.40174600  1
  O  O25  1  0.79322100  0.77566200  0.66496400  1
  O  O26  1  0.20677900  0.77566200  0.66496400  1
  O  O27  1  0.00000000  0.79428300  0.45268900  1
