# generated using pymatgen
data_Li4Ti4Mn(Co2O9)2
_symmetry_space_group_name_H-M   'P 1'
_cell_length_a   2.88784000
_cell_length_b   9.00908100
_cell_length_c   24.67093200
_cell_angle_alpha   90.00000000
_cell_angle_beta   90.00000000
_cell_angle_gamma   90.00000000
_symmetry_Int_Tables_number   1
_chemical_formula_structural   Li4Ti4Mn(Co2O9)2
_chemical_formula_sum   'Li8 Ti8 Mn2 Co8 O36'
_cell_volume   641.85832064
_cell_formula_units_Z   2
loop_
 _symmetry_equiv_pos_site_id
 _symmetry_equiv_pos_as_xyz
  1  'x, y, z'
loop_
 _atom_site_type_symbol
 _atom_site_label
 _atom_site_symmetry_multiplicity
 _atom_site_fract_x
 _atom_site_fract_y
 _atom_site_fract_z
 _atom_site_occupancy
  Li  Li0  1  0.00000000  0.17819400  0.99405500  1
  Li  Li1  1  0.00000000  0.20346600  0.19786300  1
  Li  Li2  1  0.00000000  0.29653400  0.69786300  1
  Li  Li3  1  0.00000000  0.32180600  0.49405500  1
  Li  Li4  1  0.00000000  0.67819400  0.50594500  1
  Li  Li5  1  0.00000000  0.70346600  0.30213700  1
  Li  Li6  1  0.00000000  0.79653400  0.80213700  1
  Li  Li7  1  0.00000000  0.82180600  0.00594500  1
  Ti  Ti8  1  0.00000000  0.01786100  0.10297100  1
  Ti  Ti9  1  0.50000000  0.15265100  0.80636800  1
  Ti  Ti10  1  0.50000000  0.34734900  0.30636800  1
  Ti  Ti11  1  0.00000000  0.48213900  0.60297100  1
  Ti  Ti12  1  0.00000000  0.51786100  0.39702900  1
  Ti  Ti13  1  0.50000000  0.65265100  0.69363200  1
  Ti  Ti14  1  0.50000000  0.84734900  0.19363200  1
  Ti  Ti15  1  0.00000000  0.98213900  0.89702900  1
  Mn  Mn16  1  0.00000000  0.00000000  0.50000000  1
  Mn  Mn17  1  0.00000000  0.50000000  0.00000000  1
  Co  Co18  1  0.00000000  0.01030300  0.31453100  1
  Co  Co19  1  0.50000000  0.13581400  0.58511600  1
  Co  Co20  1  0.50000000  0.36418600  0.08511600  1
  Co  Co21  1  0.00000000  0.48969700  0.81453100  1
  Co  Co22  1  0.00000000  0.51030300  0.18546900  1
  Co  Co23  1  0.50000000  0.63581400  0.91488400  1
  Co  Co24  1  0.50000000  0.86418600  0.41488400  1
  Co  Co25  1  0.00000000  0.98969700  0.68546900  1
  O  O26  1  0.00000000  0.00201300  0.42217200  1
  O  O27  1  0.00000000  0.99798700  0.57782800  1
  O  O28  1  0.50000000  0.03751400  0.94368500  1
  O  O29  1  0.50000000  0.05630100  0.16144300  1
  O  O30  1  0.50000000  0.11191800  0.66049800  1
  O  O31  1  0.00000000  0.11732100  0.75531500  1
  O  O32  1  0.50000000  0.14544900  0.50578100  1
  O  O33  1  0.50000000  0.13434100  0.29121200  1
  O  O34  1  0.00000000  0.17805200  0.85875800  1
  O  O35  1  0.00000000  0.22233300  0.08533400  1
  O  O36  1  0.00000000  0.27766700  0.58533400  1
  O  O37  1  0.00000000  0.32194800  0.35875800  1
  O  O38  1  0.50000000  0.36565900  0.79121200  1
  O  O39  1  0.50000000  0.35455100  0.00578100  1
  O  O40  1  0.00000000  0.38267900  0.25531500  1
  O  O41  1  0.50000000  0.38808200  0.16049800  1
  O  O42  1  0.50000000  0.44369900  0.66144300  1
  O  O43  1  0.50000000  0.46248600  0.44368500  1
  O  O44  1  0.00000000  0.50201300  0.07782800  1
  O  O45  1  0.00000000  0.49798700  0.92217200  1
  O  O46  1  0.50000000  0.53751400  0.55631500  1
  O  O47  1  0.50000000  0.55630100  0.33855700  1
  O  O48  1  0.50000000  0.61191800  0.83950200  1
  O  O49  1  0.00000000  0.61732100  0.74468500  1
  O  O50  1  0.50000000  0.64544900  0.99421900  1
  O  O51  1  0.50000000  0.63434100  0.20878800  1
  O  O52  1  0.00000000  0.67805200  0.64124200  1
  O  O53  1  0.00000000  0.72233300  0.41466600  1
  O  O54  1  0.00000000  0.77766700  0.91466600  1
  O  O55  1  0.00000000  0.82194800  0.14124200  1
  O  O56  1  0.50000000  0.86565900  0.70878800  1
  O  O57  1  0.50000000  0.85455100  0.49421900  1
  O  O58  1  0.00000000  0.88267900  0.24468500  1
  O  O59  1  0.50000000  0.88808200  0.33950200  1
  O  O60  1  0.50000000  0.94369900  0.83855700  1
  O  O61  1  0.50000000  0.96248600  0.05631500  1
