# generated using pymatgen
data_Li17Ni11O28
_symmetry_space_group_name_H-M   'P 1'
_cell_length_a   5.79632200
_cell_length_b   6.40416077
_cell_length_c   13.19099133
_cell_angle_alpha   84.35145396
_cell_angle_beta   82.89332050
_cell_angle_gamma   75.95543938
_symmetry_Int_Tables_number   1
_chemical_formula_structural   Li17Ni11O28
_chemical_formula_sum   'Li17 Ni11 O28'
_cell_volume   470.17921805
_cell_formula_units_Z   1
loop_
 _symmetry_equiv_pos_site_id
 _symmetry_equiv_pos_as_xyz
  1  'x, y, z'
loop_
 _atom_site_type_symbol
 _atom_site_label
 _atom_site_symmetry_multiplicity
 _atom_site_fract_x
 _atom_site_fract_y
 _atom_site_fract_z
 _atom_site_occupancy
  Li  Li0  1  0.07394400  0.93835000  0.78420900  1
  Li  Li1  1  0.36007000  0.64256800  0.92779800  1
  Li  Li2  1  0.71283900  0.27610400  0.85896400  1
  Li  Li3  1  0.50000000  0.00000000  0.00000000  1
  Li  Li4  1  0.00000000  0.00000000  0.00000000  1
  Li  Li5  1  0.28716100  0.72389600  0.14103600  1
  Li  Li6  1  0.63993000  0.35743200  0.07220200  1
  Li  Li7  1  0.92605600  0.06165000  0.21579100  1
  Li  Li8  1  0.71810800  0.78247600  0.35746700  1
  Li  Li9  1  0.57848000  0.42838600  0.28836100  1
  Li  Li10  1  0.21149700  0.78010200  0.35785100  1
  Li  Li11  1  0.86094600  0.14053500  0.43046500  1
  Li  Li12  1  0.50000000  0.50000000  0.50000000  1
  Li  Li13  1  0.13905400  0.85946500  0.56953500  1
  Li  Li14  1  0.28189200  0.21752400  0.64253300  1
  Li  Li15  1  0.78850300  0.21989800  0.64214900  1
  Li  Li16  1  0.42152000  0.57161400  0.71163900  1
  Ni  Ni17  1  0.56632100  0.92996800  0.78448800  1
  Ni  Ni18  1  0.85617600  0.64165600  0.92803300  1
  Ni  Ni19  1  0.21189500  0.28486300  0.85706800  1
  Ni  Ni20  1  0.14382400  0.35834400  0.07196700  1
  Ni  Ni21  1  0.78810500  0.71513700  0.14293200  1
  Ni  Ni22  1  0.43367900  0.07003200  0.21551200  1
  Ni  Ni23  1  0.07938700  0.42993700  0.28721600  1
  Ni  Ni24  1  0.36485100  0.14266200  0.42939600  1
  Ni  Ni25  1  0.00000000  0.50000000  0.50000000  1
  Ni  Ni26  1  0.63514900  0.85733800  0.57060400  1
  Ni  Ni27  1  0.92061300  0.57006300  0.71278400  1
  O  O28  1  0.64855800  0.62602700  0.81328700  1
  O  O29  1  0.48840500  0.23412200  0.76147800  1
  O  O30  1  0.12897800  0.58823200  0.82738400  1
  O  O31  1  0.00846700  0.26686200  0.75668900  1
  O  O32  1  0.29586800  0.97942600  0.88251200  1
  O  O33  1  0.77682400  0.94095900  0.88380300  1
  O  O34  1  0.60531200  0.67710000  0.03658700  1
  O  O35  1  0.39468800  0.32290000  0.96341300  1
  O  O36  1  0.94139800  0.32949700  0.95715200  1
  O  O37  1  0.05860200  0.67050300  0.04284800  1
  O  O38  1  0.70413200  0.02057400  0.11748800  1
  O  O39  1  0.22317600  0.05904100  0.11619700  1
  O  O40  1  0.99153300  0.73313800  0.24331100  1
  O  O41  1  0.51159500  0.76587800  0.23852200  1
  O  O42  1  0.87102200  0.41176800  0.17261600  1
  O  O43  1  0.35144200  0.37397300  0.18671300  1
  O  O44  1  0.61788700  0.10263600  0.32058500  1
  O  O45  1  0.17805500  0.11217100  0.32310100  1
  O  O46  1  0.91001200  0.80788000  0.47402900  1
  O  O47  1  0.82508900  0.46122100  0.39022500  1
  O  O48  1  0.43374500  0.84419800  0.47092400  1
  O  O49  1  0.29897900  0.44508700  0.39622700  1
  O  O50  1  0.56625500  0.15580200  0.52907600  1
  O  O51  1  0.08998800  0.19212000  0.52597100  1
  O  O52  1  0.38211300  0.89736400  0.67941500  1
  O  O53  1  0.82194500  0.88782900  0.67689900  1
  O  O54  1  0.17491100  0.53877900  0.60977500  1
  O  O55  1  0.70102100  0.55491300  0.60377300  1
