# generated using pymatgen
data_Li13Mn8O24
_symmetry_space_group_name_H-M   'P 1'
_cell_length_a   4.98005941
_cell_length_b   4.98005941
_cell_length_c   19.26638911
_cell_angle_alpha   87.18832349
_cell_angle_beta   87.18832349
_cell_angle_gamma   119.68047249
_symmetry_Int_Tables_number   1
_chemical_formula_structural   Li13Mn8O24
_chemical_formula_sum   'Li13 Mn8 O24'
_cell_volume   413.15158652
_cell_formula_units_Z   1
loop_
 _symmetry_equiv_pos_site_id
 _symmetry_equiv_pos_as_xyz
  1  'x, y, z'
loop_
 _atom_site_type_symbol
 _atom_site_label
 _atom_site_symmetry_multiplicity
 _atom_site_fract_x
 _atom_site_fract_y
 _atom_site_fract_z
 _atom_site_occupancy
  Li  Li0  1  0.50805100  0.00686100  0.24960700  1
  Li  Li1  1  0.37483200  0.86756100  0.62389200  1
  Li  Li2  1  0.99313900  0.49194900  0.75039300  1
  Li  Li3  1  0.75395300  0.24604700  0.50000000  1
  Li  Li4  1  0.90228000  0.09772000  0.00000000  1
  Li  Li5  1  0.25009100  0.74990900  0.00000000  1
  Li  Li6  1  0.34628200  0.16051400  0.74971700  1
  Li  Li7  1  0.15387900  0.33930000  0.25025700  1
  Li  Li8  1  0.83948600  0.65371800  0.25028300  1
  Li  Li9  1  0.66070000  0.84612100  0.74974300  1
  Li  Li10  1  0.09272600  0.90727400  0.50000000  1
  Li  Li11  1  0.13243900  0.62516800  0.37610800  1
  Li  Li12  1  0.59787100  0.40212900  0.00000000  1
  Mn  Mn13  1  0.45459800  0.29316500  0.37515600  1
  Mn  Mn14  1  0.95794400  0.79240000  0.87501200  1
  Mn  Mn15  1  0.78576700  0.95397200  0.37549100  1
  Mn  Mn16  1  0.29301500  0.45746800  0.87499600  1
  Mn  Mn17  1  0.70683500  0.54540200  0.62484400  1
  Mn  Mn18  1  0.20760000  0.04205600  0.12498800  1
  Mn  Mn19  1  0.04602800  0.21423300  0.62450900  1
  Mn  Mn20  1  0.54253200  0.70698500  0.12500400  1
  O  O21  1  0.46331900  0.97186500  0.43050400  1
  O  O22  1  0.78630200  0.28739800  0.31720700  1
  O  O23  1  0.97694300  0.47651700  0.93342200  1
  O  O24  1  0.35424800  0.50210600  0.68160600  1
  O  O25  1  0.49789400  0.64575200  0.31839400  1
  O  O26  1  0.27124400  0.77099700  0.81695900  1
  O  O27  1  0.39623300  0.24689100  0.57151100  1
  O  O28  1  0.85404200  0.98143900  0.18210400  1
  O  O29  1  0.01856100  0.14595800  0.81789600  1
  O  O30  1  0.76147300  0.90404400  0.57024200  1
  O  O31  1  0.75310900  0.60376700  0.42848900  1
  O  O32  1  0.89612200  0.76918000  0.06788100  1
  O  O33  1  0.09595600  0.23852700  0.42975800  1
  O  O34  1  0.26930500  0.39623600  0.06790000  1
  O  O35  1  0.23082000  0.10387800  0.93211900  1
  O  O36  1  0.99787700  0.85656400  0.68125300  1
  O  O37  1  0.14343600  0.00212300  0.31874700  1
  O  O38  1  0.60376400  0.73069500  0.93210000  1
  O  O39  1  0.71260200  0.21369800  0.68279300  1
  O  O40  1  0.48146200  0.35409800  0.18213500  1
  O  O41  1  0.64590200  0.51853800  0.81786500  1
  O  O42  1  0.02813500  0.53668100  0.56949600  1
  O  O43  1  0.22900300  0.72875600  0.18304100  1
  O  O44  1  0.52348300  0.02305700  0.06657800  1
