# generated using pymatgen
data_Li3Cr3(PO4)4
_symmetry_space_group_name_H-M   'P 1'
_cell_length_a   11.30197500
_cell_length_b   6.22551300
_cell_length_c   8.47123379
_cell_angle_alpha   78.35414337
_cell_angle_beta   90.00000000
_cell_angle_gamma   90.00000000
_symmetry_Int_Tables_number   1
_chemical_formula_structural   Li3Cr3(PO4)4
_chemical_formula_sum   'Li6 Cr6 P8 O32'
_cell_volume   583.77092832
_cell_formula_units_Z   2
loop_
 _symmetry_equiv_pos_site_id
 _symmetry_equiv_pos_as_xyz
  1  'x, y, z'
loop_
 _atom_site_type_symbol
 _atom_site_label
 _atom_site_symmetry_multiplicity
 _atom_site_fract_x
 _atom_site_fract_y
 _atom_site_fract_z
 _atom_site_occupancy
  Li  Li0  1  0.61007500  0.64727600  0.07117400  1
  Li  Li1  1  0.89218400  0.14238300  0.06067600  1
  Li  Li2  1  0.30237000  0.60215400  0.34663000  1
  Li  Li3  1  0.80237000  0.39784600  0.65337000  1
  Li  Li4  1  0.11007500  0.35272400  0.92882600  1
  Li  Li5  1  0.39218400  0.85761700  0.93932400  1
  Cr  Cr6  1  0.91460700  0.57830600  0.28091500  1
  Cr  Cr7  1  0.59114300  0.09957900  0.27403800  1
  Cr  Cr8  1  0.18590100  0.12421300  0.33846900  1
  Cr  Cr9  1  0.68590100  0.87578700  0.66153100  1
  Cr  Cr10  1  0.41460700  0.42169400  0.71908500  1
  Cr  Cr11  1  0.09114300  0.90042100  0.72596200  1
  P  P12  1  0.37396700  0.36544900  0.08530000  1
  P  P13  1  0.13146700  0.86959500  0.09909000  1
  P  P14  1  0.58640700  0.57427000  0.40396200  1
  P  P15  1  0.90894400  0.04064000  0.39894600  1
  P  P16  1  0.08640700  0.42573000  0.59603800  1
  P  P17  1  0.40894400  0.95936000  0.60105400  1
  P  P18  1  0.87396700  0.63455100  0.91470000  1
  P  P19  1  0.63146700  0.13040500  0.90091000  1
  O  O20  1  0.43836500  0.57894700  0.08199300  1
  O  O21  1  0.81815800  0.65019900  0.07976000  1
  O  O22  1  0.06873500  0.08987700  0.09885800  1
  O  O23  1  0.68604300  0.14800900  0.06697900  1
  O  O24  1  0.05646100  0.65958800  0.15749300  1
  O  O25  1  0.26785400  0.35927700  0.20382200  1
  O  O26  1  0.44883500  0.15521200  0.15021600  1
  O  O27  1  0.63250700  0.39371300  0.31646000  1
  O  O28  1  0.91273800  0.26409000  0.28127400  1
  O  O29  1  0.23128200  0.87481200  0.22549700  1
  O  O30  1  0.87983500  0.87721400  0.29194200  1
  O  O31  1  0.58141500  0.78453400  0.26966300  1
  O  O32  1  0.17652300  0.38731400  0.46641600  1
  O  O33  1  0.46254500  0.51048000  0.48157100  1
  O  O34  1  0.30734500  0.95987100  0.48112800  1
  O  O35  1  0.96254500  0.48952000  0.51842900  1
  O  O36  1  0.03429600  0.99115700  0.48373000  1
  O  O37  1  0.67652300  0.61268600  0.53358400  1
  O  O38  1  0.53429600  0.00884300  0.51627000  1
  O  O39  1  0.80734500  0.04012900  0.51887200  1
  O  O40  1  0.41273800  0.73591000  0.71872600  1
  O  O41  1  0.13250700  0.60628700  0.68354000  1
  O  O42  1  0.76785400  0.64072300  0.79617800  1
  O  O43  1  0.08141500  0.21546600  0.73033700  1
  O  O44  1  0.37983500  0.12278600  0.70805800  1
  O  O45  1  0.55646100  0.34041200  0.84250700  1
  O  O46  1  0.73128200  0.12518800  0.77450300  1
  O  O47  1  0.94883500  0.84478800  0.84978400  1
  O  O48  1  0.31815800  0.34980100  0.92024000  1
  O  O49  1  0.93836500  0.42105300  0.91800700  1
  O  O50  1  0.18604300  0.85199100  0.93302100  1
  O  O51  1  0.56873500  0.91012300  0.90114200  1
