# generated using pymatgen
data_LiMn(SiO3)2
_symmetry_space_group_name_H-M   'P 1'
_cell_length_a   5.22175200
_cell_length_b   8.92372960
_cell_length_c   18.41524472
_cell_angle_alpha   89.80266925
_cell_angle_beta   89.23607905
_cell_angle_gamma   89.91170375
_symmetry_Int_Tables_number   1
_chemical_formula_structural   LiMn(SiO3)2
_chemical_formula_sum   'Li8 Mn8 Si16 O48'
_cell_volume   858.02210020
_cell_formula_units_Z   8
loop_
 _symmetry_equiv_pos_site_id
 _symmetry_equiv_pos_as_xyz
  1  'x, y, z'
loop_
 _atom_site_type_symbol
 _atom_site_label
 _atom_site_symmetry_multiplicity
 _atom_site_fract_x
 _atom_site_fract_y
 _atom_site_fract_z
 _atom_site_occupancy
  Li  Li0  1  0.62749200  0.98802300  0.12327800  1
  Li  Li1  1  0.12737900  0.51114400  0.12422800  1
  Li  Li2  1  0.62253200  0.84124100  0.37537300  1
  Li  Li3  1  0.62549600  0.50617000  0.37467000  1
  Li  Li4  1  0.87359100  0.00197500  0.62272600  1
  Li  Li5  1  0.87544700  0.34511800  0.62320900  1
  Li  Li6  1  0.37679100  0.65962700  0.87662600  1
  Li  Li7  1  0.87484400  0.84055000  0.87694500  1
  Mn  Mn8  1  0.61261800  0.35216000  0.12556600  1
  Mn  Mn9  1  0.11086300  0.14678900  0.12584100  1
  Mn  Mn10  1  0.11994500  0.64792300  0.37506900  1
  Mn  Mn11  1  0.12920000  0.00853900  0.37315400  1
  Mn  Mn12  1  0.37090200  0.51150600  0.62369600  1
  Mn  Mn13  1  0.37920300  0.14772100  0.62252700  1
  Mn  Mn14  1  0.37202600  0.99766200  0.87516000  1
  Mn  Mn15  1  0.87161100  0.50133300  0.87612800  1
  Si  Si16  1  0.69574700  0.65944800  0.02895300  1
  Si  Si17  1  0.19534300  0.84024100  0.02898300  1
  Si  Si18  1  0.43013900  0.65705800  0.22840200  1
  Si  Si19  1  0.93672800  0.83696700  0.22784800  1
  Si  Si20  1  0.44142000  0.16390300  0.27190000  1
  Si  Si21  1  0.93807500  0.34032700  0.27187200  1
  Si  Si22  1  0.70452600  0.16351900  0.47324300  1
  Si  Si23  1  0.20813200  0.33965300  0.47332100  1
  Si  Si24  1  0.79747300  0.66418500  0.52533600  1
  Si  Si25  1  0.29318000  0.84053100  0.52548100  1
  Si  Si26  1  0.06789000  0.66165800  0.72698800  1
  Si  Si27  1  0.57082600  0.84472700  0.72663500  1
  Si  Si28  1  0.08205200  0.15687200  0.77129200  1
  Si  Si29  1  0.57565400  0.33956500  0.77237300  1
  Si  Si30  1  0.78784600  0.16388200  0.97232400  1
  Si  Si31  1  0.28791000  0.33516800  0.97241200  1
  O  O32  1  0.40183500  0.70831100  0.05391800  1
  O  O33  1  0.90064200  0.79141900  0.05407100  1
  O  O34  1  0.79172600  0.16184800  0.06131100  1
  O  O35  1  0.29272200  0.33673500  0.06112900  1
  O  O36  1  0.78099800  0.50670600  0.07196600  1
  O  O37  1  0.27979600  0.99224800  0.07199400  1
  O  O38  1  0.45122600  0.17623500  0.18244100  1
  O  O39  1  0.95497500  0.32050800  0.18212500  1
  O  O40  1  0.93758100  0.00468400  0.19503800  1
  O  O41  1  0.44127200  0.49157800  0.19378800  1
  O  O42  1  0.66232000  0.76795500  0.20072500  1
  O  O43  1  0.16374800  0.72841600  0.19496900  1
  O  O44  1  0.16350300  0.22780600  0.30568100  1
  O  O45  1  0.67123000  0.26496400  0.30375700  1
  O  O46  1  0.94041700  0.50611800  0.30282200  1
  O  O47  1  0.42629100  0.99848300  0.30941500  1
  O  O48  1  0.42654000  0.65959800  0.31742600  1
  O  O49  1  0.95738400  0.83473300  0.31737500  1
  O  O50  1  0.81758700  0.01880500  0.42989700  1
  O  O51  1  0.29799000  0.49073200  0.43293600  1
  O  O52  1  0.81587600  0.65126400  0.43694200  1
  O  O53  1  0.28466800  0.84736100  0.43632900  1
  O  O54  1  0.40555900  0.20092100  0.44557300  1
  O  O55  1  0.90853100  0.29991900  0.45261300  1
  O  O56  1  0.09789600  0.69936000  0.55285200  1
  O  O57  1  0.59326700  0.80013800  0.54721300  1
  O  O58  1  0.68333400  0.15189900  0.56197700  1
  O  O59  1  0.22291600  0.34266700  0.56305300  1
  O  O60  1  0.68433400  0.51850000  0.56830300  1
  O  O61  1  0.19568600  0.98908100  0.56576100  1
  O  O62  1  0.07607300  0.15810400  0.68338400  1
  O  O63  1  0.54793200  0.34387300  0.68486800  1
  O  O64  1  0.56009300  0.00890900  0.69084400  1
  O  O65  1  0.07313000  0.50016000  0.68477700  1
  O  O66  1  0.35046800  0.72455800  0.69439500  1
  O  O67  1  0.84393800  0.77264000  0.69647400  1
  O  O68  1  0.35015600  0.22730700  0.80614200  1
  O  O69  1  0.85082400  0.26846200  0.80109300  1
  O  O70  1  0.58185400  0.50132900  0.81273800  1
  O  O71  1  0.08034400  0.99527400  0.81237300  1
  O  O72  1  0.05832200  0.65014100  0.81417100  1
  O  O73  1  0.55378600  0.84490300  0.81453700  1
  O  O74  1  0.67545900  0.01717700  0.93246700  1
  O  O75  1  0.17564600  0.48289800  0.93283800  1
  O  O76  1  0.70090400  0.64602200  0.94091100  1
  O  O77  1  0.19973100  0.85381600  0.94092000  1
  O  O78  1  0.09272300  0.19551500  0.94615400  1
  O  O79  1  0.59388800  0.30473200  0.94595600  1
