# generated using pymatgen
data_Li3Mn4O8
_symmetry_space_group_name_H-M   'P 1'
_cell_length_a   6.02758651
_cell_length_b   8.28105071
_cell_length_c   6.11513414
_cell_angle_alpha   88.20938533
_cell_angle_beta   94.00445627
_cell_angle_gamma   89.41017738
_symmetry_Int_Tables_number   1
_chemical_formula_structural   Li3Mn4O8
_chemical_formula_sum   'Li6 Mn8 O16'
_cell_volume   304.31768201
_cell_formula_units_Z   2
loop_
 _symmetry_equiv_pos_site_id
 _symmetry_equiv_pos_as_xyz
  1  'x, y, z'
loop_
 _atom_site_type_symbol
 _atom_site_label
 _atom_site_symmetry_multiplicity
 _atom_site_fract_x
 _atom_site_fract_y
 _atom_site_fract_z
 _atom_site_occupancy
  Li  Li0  1  0.00000300  0.49999800  0.50000000  1
  Li  Li1  1  0.49999900  0.99999900  0.00000100  1
  Li  Li2  1  0.99999900  0.49999800  0.00000100  1
  Li  Li3  1  0.49999900  0.99999900  0.49999900  1
  Li  Li4  1  0.25017500  0.25009300  0.24989700  1
  Li  Li5  1  0.74982300  0.74990600  0.75010600  1
  Mn  Mn6  1  0.99999000  0.00000100  0.50002300  1
  Mn  Mn7  1  0.24957600  0.75041600  0.74963500  1
  Mn  Mn8  1  0.75043200  0.24957800  0.25036800  1
  Mn  Mn9  1  0.49998100  0.50000300  0.99996600  1
  Mn  Mn10  1  0.75040100  0.24972900  0.74971800  1
  Mn  Mn11  1  0.24959600  0.75027600  0.25028300  1
  Mn  Mn12  1  0.00000800  0.00000100  0.00000100  1
  Mn  Mn13  1  0.50001800  0.50000800  0.49998700  1
  O  O14  1  0.03896300  0.75978300  0.98025000  1
  O  O15  1  0.53920200  0.25951200  0.48029000  1
  O  O16  1  0.46079900  0.74049200  0.51971000  1
  O  O17  1  0.96103300  0.24021500  0.01974900  1
  O  O18  1  0.75897500  0.01502600  0.77160000  1
  O  O19  1  0.25857600  0.51545200  0.27180500  1
  O  O20  1  0.74143000  0.48454900  0.72819700  1
  O  O21  1  0.24102000  0.98497100  0.22840200  1
  O  O22  1  0.24385400  0.98262300  0.73064600  1
  O  O23  1  0.74361100  0.48210000  0.23098800  1
  O  O24  1  0.01083400  0.76273500  0.52385800  1
  O  O25  1  0.51151800  0.26265500  0.02438200  1
  O  O26  1  0.48848000  0.73734200  0.97561700  1
  O  O27  1  0.98916400  0.23726500  0.47614400  1
  O  O28  1  0.25638800  0.51790000  0.76901200  1
  O  O29  1  0.75615400  0.01737400  0.26936400  1
