# generated using pymatgen
data_LiMn4O8
_symmetry_space_group_name_H-M   'P 1'
_cell_length_a   6.98696721
_cell_length_b   6.98696721
_cell_length_c   9.68311127
_cell_angle_alpha   47.46274696
_cell_angle_beta   47.46274696
_cell_angle_gamma   24.68158121
_symmetry_Int_Tables_number   1
_chemical_formula_structural   LiMn4O8
_chemical_formula_sum   'Li1 Mn4 O8'
_cell_volume   142.48446345
_cell_formula_units_Z   1
loop_
 _symmetry_equiv_pos_site_id
 _symmetry_equiv_pos_as_xyz
  1  'x, y, z'
loop_
 _atom_site_type_symbol
 _atom_site_label
 _atom_site_symmetry_multiplicity
 _atom_site_fract_x
 _atom_site_fract_y
 _atom_site_fract_z
 _atom_site_occupancy
  Li  Li0  1  0.52409200  0.47590800  0.00000000  1
  Mn  Mn1  1  0.17251600  0.16315000  0.18153300  1
  Mn  Mn2  1  0.65114500  0.64321300  0.52372300  1
  Mn  Mn3  1  0.35678700  0.34885500  0.47627700  1
  Mn  Mn4  1  0.83685000  0.82748400  0.81846700  1
  O  O5  1  0.80574500  0.79697400  0.05322900  1
  O  O6  1  0.15792300  0.14959700  0.39069100  1
  O  O7  1  0.15886500  0.15134200  0.65315200  1
  O  O8  1  0.55085200  0.54129700  0.27519300  1
  O  O9  1  0.45870300  0.44914800  0.72480700  1
  O  O10  1  0.84865800  0.84113500  0.34684800  1
  O  O11  1  0.85040300  0.84207700  0.60930900  1
  O  O12  1  0.20302600  0.19425500  0.94677100  1
