# generated using pymatgen
data_LiCuF3
_symmetry_space_group_name_H-M   'P 1'
_cell_length_a   9.81222000
_cell_length_b   3.27909600
_cell_length_c   7.74363276
_cell_angle_alpha   73.69905890
_cell_angle_beta   90.00000000
_cell_angle_gamma   90.00000000
_symmetry_Int_Tables_number   1
_chemical_formula_structural   LiCuF3
_chemical_formula_sum   'Li4 Cu4 F12'
_cell_volume   239.13723905
_cell_formula_units_Z   4
loop_
 _symmetry_equiv_pos_site_id
 _symmetry_equiv_pos_as_xyz
  1  'x, y, z'
loop_
 _atom_site_type_symbol
 _atom_site_label
 _atom_site_symmetry_multiplicity
 _atom_site_fract_x
 _atom_site_fract_y
 _atom_site_fract_z
 _atom_site_occupancy
  Li  Li0  1  0.81650500  0.95829000  0.51847100  1
  Li  Li1  1  0.31650500  0.04171000  0.98152900  1
  Li  Li2  1  0.68349500  0.95829000  0.01847100  1
  Li  Li3  1  0.18349500  0.04171000  0.48152900  1
  Cu  Cu4  1  0.48825800  0.70388700  0.68780800  1
  Cu  Cu5  1  0.98825800  0.29611300  0.81219200  1
  Cu  Cu6  1  0.01174200  0.70388700  0.18780800  1
  Cu  Cu7  1  0.51174200  0.29611300  0.31219200  1
  F  F8  1  0.07426900  0.81768900  0.68903000  1
  F  F9  1  0.65482500  0.38043700  0.14219500  1
  F  F10  1  0.11710100  0.16377500  0.01607300  1
  F  F11  1  0.61710100  0.83622500  0.48392700  1
  F  F12  1  0.57426900  0.18231100  0.81097000  1
  F  F13  1  0.84517500  0.38043700  0.64219500  1
  F  F14  1  0.15482500  0.61956300  0.35780500  1
  F  F15  1  0.42573100  0.81768900  0.18903000  1
  F  F16  1  0.38289900  0.16377500  0.51607300  1
  F  F17  1  0.88289900  0.83622500  0.98392700  1
  F  F18  1  0.34517500  0.61956300  0.85780500  1
  F  F19  1  0.92573100  0.18231100  0.31097000  1
