# generated using pymatgen
data_LiFe(PO3)4
_symmetry_space_group_name_H-M   'P 1'
_cell_length_a   9.51162000
_cell_length_b   7.22158500
_cell_length_c   7.22300599
_cell_angle_alpha   84.43576124
_cell_angle_beta   90.00000000
_cell_angle_gamma   90.00000000
_symmetry_Int_Tables_number   1
_chemical_formula_structural   LiFe(PO3)4
_chemical_formula_sum   'Li2 Fe2 P8 O24'
_cell_volume   493.80309870
_cell_formula_units_Z   2
loop_
 _symmetry_equiv_pos_site_id
 _symmetry_equiv_pos_as_xyz
  1  'x, y, z'
loop_
 _atom_site_type_symbol
 _atom_site_label
 _atom_site_symmetry_multiplicity
 _atom_site_fract_x
 _atom_site_fract_y
 _atom_site_fract_z
 _atom_site_occupancy
  Li  Li0  1  0.01702700  0.27395600  0.74772300  1
  Li  Li1  1  0.51702700  0.72604400  0.25227700  1
  Fe  Fe2  1  0.76032300  0.71205400  0.78628400  1
  Fe  Fe3  1  0.26032300  0.28794600  0.21371600  1
  P  P4  1  0.38366300  0.38622800  0.89646100  1
  P  P5  1  0.41726800  0.78987200  0.84628700  1
  P  P6  1  0.59757700  0.39002200  0.59072400  1
  P  P7  1  0.72046900  0.01546700  0.45768100  1
  P  P8  1  0.22046900  0.98453300  0.54231900  1
  P  P9  1  0.09757700  0.60997800  0.40927600  1
  P  P10  1  0.91726800  0.21012800  0.15371300  1
  P  P11  1  0.88366300  0.61377200  0.10353900  1
  O  O12  1  0.89692200  0.16401100  0.95979400  1
  O  O13  1  0.94832700  0.61315000  0.91000200  1
  O  O14  1  0.24571200  0.27925500  0.92210800  1
  O  O15  1  0.34620800  0.59113200  0.80785300  1
  O  O16  1  0.48595500  0.30202300  0.75176100  1
  O  O17  1  0.10746900  0.09352600  0.61908300  1
  O  O18  1  0.33329200  0.92154000  0.69866400  1
  O  O19  1  0.81057700  0.92235000  0.61707600  1
  O  O20  1  0.71850400  0.47488500  0.69389700  1
  O  O21  1  0.56634300  0.78456500  0.77460700  1
  O  O22  1  0.02107500  0.49538500  0.55615700  1
  O  O23  1  0.66056000  0.20611700  0.52120200  1
  O  O24  1  0.16056000  0.79388300  0.47879800  1
  O  O25  1  0.52107500  0.50461500  0.44384300  1
  O  O26  1  0.06634300  0.21543500  0.22539300  1
  O  O27  1  0.21850400  0.52511500  0.30610300  1
  O  O28  1  0.31057700  0.07765000  0.38292400  1
  O  O29  1  0.83329200  0.07846000  0.30133600  1
  O  O30  1  0.60746900  0.90647400  0.38091700  1
  O  O31  1  0.98595500  0.69797700  0.24823900  1
  O  O32  1  0.84620800  0.40886800  0.19214700  1
  O  O33  1  0.74571200  0.72074500  0.07789200  1
  O  O34  1  0.44832700  0.38685000  0.08999800  1
  O  O35  1  0.39692200  0.83598900  0.04020600  1
