# generated using pymatgen
data_LiFeSiO4
_symmetry_space_group_name_H-M   'P 1'
_cell_length_a   5.53597000
_cell_length_b   5.53596137
_cell_length_c   22.96052300
_cell_angle_alpha   90.00000000
_cell_angle_beta   90.00000000
_cell_angle_gamma   60.00003764
_symmetry_Int_Tables_number   1
_chemical_formula_structural   LiFeSiO4
_chemical_formula_sum   'Li6 Fe6 Si6 O24'
_cell_volume   609.39565266
_cell_formula_units_Z   6
loop_
 _symmetry_equiv_pos_site_id
 _symmetry_equiv_pos_as_xyz
  1  'x, y, z'
loop_
 _atom_site_type_symbol
 _atom_site_label
 _atom_site_symmetry_multiplicity
 _atom_site_fract_x
 _atom_site_fract_y
 _atom_site_fract_z
 _atom_site_occupancy
  Li  Li0  1  0.00000000  0.00000000  0.00000000  1
  Li  Li1  1  0.00000000  0.00000000  0.50000000  1
  Li  Li2  1  0.00000000  0.00000000  0.16666600  1
  Li  Li3  1  0.00000000  0.00000000  0.66666600  1
  Li  Li4  1  0.00000000  0.00000000  0.33333300  1
  Li  Li5  1  0.00000000  0.00000000  0.83333300  1
  Fe  Fe6  1  0.50000000  0.50000000  0.66667000  1
  Fe  Fe7  1  0.00000000  0.50000000  0.33333100  1
  Fe  Fe8  1  0.50000000  0.00000000  0.99999900  1
  Fe  Fe9  1  0.50000000  0.50000000  0.16667000  1
  Fe  Fe10  1  0.00000000  0.50000000  0.83333100  1
  Fe  Fe11  1  0.50000000  0.00000000  0.49999900  1
  Si  Si12  1  0.50000000  0.50000000  0.41666600  1
  Si  Si13  1  0.50000000  0.50000000  0.91666600  1
  Si  Si14  1  0.00000000  0.50000000  0.08333400  1
  Si  Si15  1  0.00000000  0.50000000  0.58333400  1
  Si  Si16  1  0.50000000  0.00000000  0.25000000  1
  Si  Si17  1  0.50000000  0.00000000  0.75000000  1
  O  O18  1  0.39617700  0.82686000  0.20850700  1
  O  O19  1  0.39617700  0.82686000  0.70850700  1
  O  O20  1  0.39617600  0.77696600  0.45816000  1
  O  O21  1  0.39617600  0.77696600  0.95816000  1
  O  O22  1  0.82685900  0.39617600  0.12482500  1
  O  O23  1  0.82685900  0.39617600  0.62482500  1
  O  O24  1  0.77696400  0.39617500  0.37517500  1
  O  O25  1  0.77696400  0.39617500  0.87517500  1
  O  O26  1  0.82686000  0.77696500  0.04184000  1
  O  O27  1  0.82686000  0.77696500  0.54184000  1
  O  O28  1  0.77696500  0.82686000  0.29149300  1
  O  O29  1  0.77696500  0.82686000  0.79149300  1
  O  O30  1  0.22303500  0.17314000  0.29149300  1
  O  O31  1  0.22303500  0.17314000  0.79149300  1
  O  O32  1  0.17314000  0.22303500  0.04184000  1
  O  O33  1  0.17314000  0.22303500  0.54184000  1
  O  O34  1  0.22303600  0.60382500  0.37517500  1
  O  O35  1  0.22303600  0.60382500  0.87517500  1
  O  O36  1  0.17314100  0.60382400  0.12482500  1
  O  O37  1  0.17314100  0.60382400  0.62482500  1
  O  O38  1  0.60382400  0.22303400  0.45816000  1
  O  O39  1  0.60382400  0.22303400  0.95816000  1
  O  O40  1  0.60382300  0.17314000  0.20850700  1
  O  O41  1  0.60382300  0.17314000  0.70850700  1
