# generated using pymatgen
data_LiVP3H8O13
_symmetry_space_group_name_H-M   'P 1'
_cell_length_a   7.09546300
_cell_length_b   7.75698327
_cell_length_c   10.02503877
_cell_angle_alpha   83.71852655
_cell_angle_beta   74.98147914
_cell_angle_gamma   77.99767046
_symmetry_Int_Tables_number   1
_chemical_formula_structural   LiVP3H8O13
_chemical_formula_sum   'Li2 V2 P6 H16 O26'
_cell_volume   520.37330014
_cell_formula_units_Z   2
loop_
 _symmetry_equiv_pos_site_id
 _symmetry_equiv_pos_as_xyz
  1  'x, y, z'
loop_
 _atom_site_type_symbol
 _atom_site_label
 _atom_site_symmetry_multiplicity
 _atom_site_fract_x
 _atom_site_fract_y
 _atom_site_fract_z
 _atom_site_occupancy
  Li  Li0  1  0.00000000  0.00000000  0.00000000  1
  Li  Li1  1  0.00000000  0.50000000  0.50000000  1
  V  V2  1  0.80098900  0.82703000  0.77692700  1
  V  V3  1  0.19901100  0.17297000  0.22307300  1
  P  P4  1  0.32692900  0.80230800  0.74187900  1
  P  P5  1  0.24092100  0.80384500  0.47553900  1
  P  P6  1  0.59537100  0.45917900  0.73013300  1
  P  P7  1  0.40462900  0.54082100  0.26986700  1
  P  P8  1  0.75907900  0.19615500  0.52446100  1
  P  P9  1  0.67307100  0.19769200  0.25812100  1
  H  H10  1  0.35850000  0.98221900  0.96826000  1
  H  H11  1  0.81962700  0.81576600  0.43105300  1
  H  H12  1  0.31281300  0.85775700  0.10197600  1
  H  H13  1  0.92022300  0.74025900  0.20496900  1
  H  H14  1  0.68988000  0.69487100  0.39768700  1
  H  H15  1  0.85647700  0.66229500  0.01205500  1
  H  H16  1  0.64906000  0.62477400  0.00555300  1
  H  H17  1  0.09876100  0.65879700  0.08646700  1
  H  H18  1  0.90123900  0.34120300  0.91353300  1
  H  H19  1  0.35094000  0.37522600  0.99444700  1
  H  H20  1  0.14352300  0.33770500  0.98794500  1
  H  H21  1  0.31012000  0.30512900  0.60231300  1
  H  H22  1  0.07977700  0.25974100  0.79503100  1
  H  H23  1  0.68718700  0.14224300  0.89802400  1
  H  H24  1  0.18037300  0.18423400  0.56894700  1
  H  H25  1  0.64150000  0.01778100  0.03174000  1
  O  O26  1  0.47522800  0.87423500  0.79335600  1
  O  O27  1  0.27218800  0.98078900  0.06290300  1
  O  O28  1  0.19438900  0.95967600  0.38078800  1
  O  O29  1  0.36270100  0.85838000  0.57712300  1
  O  O30  1  0.11068000  0.85276400  0.81229500  1
  O  O31  1  0.97549100  0.74733100  0.10234400  1
  O  O32  1  0.82624300  0.71569200  0.37766800  1
  O  O33  1  0.78512400  0.62708500  0.94758400  1
  O  O34  1  0.76086500  0.55986600  0.67306000  1
  O  O35  1  0.08130800  0.70935500  0.55900900  1
  O  O36  1  0.42309800  0.65905000  0.38970400  1
  O  O37  1  0.38042900  0.58863100  0.74719300  1
  O  O38  1  0.41296500  0.65268200  0.13681100  1
  O  O39  1  0.58703500  0.34731800  0.86318900  1
  O  O40  1  0.61957100  0.41136900  0.25280700  1
  O  O41  1  0.57690200  0.34095000  0.61029600  1
  O  O42  1  0.91869200  0.29064500  0.44099100  1
  O  O43  1  0.23913500  0.44013400  0.32694000  1
  O  O44  1  0.21487600  0.37291500  0.05241600  1
  O  O45  1  0.17375700  0.28430800  0.62233200  1
  O  O46  1  0.02450900  0.25266900  0.89765600  1
  O  O47  1  0.88932000  0.14723600  0.18770500  1
  O  O48  1  0.63729900  0.14162000  0.42287700  1
  O  O49  1  0.80561100  0.04032400  0.61921200  1
  O  O50  1  0.72781200  0.01921100  0.93709700  1
  O  O51  1  0.52477200  0.12576500  0.20664400  1
