# generated using pymatgen
data_LiMn2(BO3)2
_symmetry_space_group_name_H-M   'P 1'
_cell_length_a   5.38864100
_cell_length_b   9.02127893
_cell_length_c   10.24820622
_cell_angle_alpha   89.15554576
_cell_angle_beta   87.53425058
_cell_angle_gamma   89.84518341
_symmetry_Int_Tables_number   1
_chemical_formula_structural   LiMn2(BO3)2
_chemical_formula_sum   'Li4 Mn8 B8 O24'
_cell_volume   497.67385357
_cell_formula_units_Z   4
loop_
 _symmetry_equiv_pos_site_id
 _symmetry_equiv_pos_as_xyz
  1  'x, y, z'
loop_
 _atom_site_type_symbol
 _atom_site_label
 _atom_site_symmetry_multiplicity
 _atom_site_fract_x
 _atom_site_fract_y
 _atom_site_fract_z
 _atom_site_occupancy
  Li  Li0  1  0.13390200  0.99297400  0.92363600  1
  Li  Li1  1  0.60122600  0.51401400  0.32358300  1
  Li  Li2  1  0.65547600  0.49295200  0.82850000  1
  Li  Li3  1  0.85919100  0.01901800  0.59020400  1
  Mn  Mn4  1  0.13132800  0.30084400  0.36799200  1
  Mn  Mn5  1  0.17161400  0.64975700  0.86802400  1
  Mn  Mn6  1  0.36014800  0.80960800  0.12405800  1
  Mn  Mn7  1  0.33778500  0.15603500  0.62319900  1
  Mn  Mn8  1  0.66709100  0.86206100  0.36823200  1
  Mn  Mn9  1  0.64650000  0.17187100  0.87642500  1
  Mn  Mn10  1  0.84341700  0.34979700  0.11611500  1
  Mn  Mn11  1  0.86012200  0.68112100  0.61836400  1
  B  B12  1  0.16194300  0.65666000  0.36913000  1
  B  B13  1  0.17355500  0.31882100  0.87169400  1
  B  B14  1  0.33035700  0.15969300  0.11723700  1
  B  B15  1  0.33021900  0.82289700  0.61989700  1
  B  B16  1  0.66851500  0.18939700  0.37892100  1
  B  B17  1  0.67557000  0.82988400  0.86816200  1
  B  B18  1  0.83130100  0.69398800  0.12580000  1
  B  B19  1  0.83518200  0.32667600  0.62881900  1
  O  O20  1  0.06851100  0.70328000  0.06809500  1
  O  O21  1  0.05082800  0.28982200  0.55772400  1
  O  O22  1  0.19782500  0.27482800  0.18008800  1
  O  O23  1  0.23468200  0.02464200  0.10158100  1
  O  O24  1  0.18975700  0.94795500  0.61867800  1
  O  O25  1  0.22318300  0.68750900  0.65762900  1
  O  O26  1  0.25483500  0.51902600  0.36542400  1
  O  O27  1  0.29772300  0.77790900  0.31392500  1
  O  O28  1  0.27426900  0.17963200  0.83781500  1
  O  O29  1  0.31872200  0.44045200  0.87305300  1
  O  O30  1  0.41986100  0.18827300  0.41652300  1
  O  O31  1  0.43650900  0.80929800  0.92451900  1
  O  O32  1  0.56603700  0.19994600  0.06155300  1
  O  O33  1  0.58549900  0.82867900  0.58237200  1
  O  O34  1  0.71312600  0.56228100  0.14275300  1
  O  O35  1  0.71106700  0.82634500  0.16276800  1
  O  O36  1  0.70706900  0.19882500  0.68374600  1
  O  O37  1  0.77379300  0.32157100  0.32845800  1
  O  O38  1  0.75046900  0.46422200  0.64801100  1
  O  O39  1  0.81042700  0.06797600  0.40100400  1
  O  O40  1  0.78974400  0.70113600  0.81283200  1
  O  O41  1  0.79485400  0.96163500  0.86629800  1
  O  O42  1  0.92270400  0.68952100  0.42718100  1
  O  O43  1  0.91791800  0.32678000  0.90707100  1
