# generated using pymatgen
data_Li3MnPCO7
_symmetry_space_group_name_H-M   'P 1'
_cell_length_a   6.58420200
_cell_length_b   8.59484097
_cell_length_c   9.95353397
_cell_angle_alpha   94.54164881
_cell_angle_beta   90.31335864
_cell_angle_gamma   90.42636708
_symmetry_Int_Tables_number   1
_chemical_formula_structural   Li3MnPCO7
_chemical_formula_sum   'Li12 Mn4 P4 C4 O28'
_cell_volume   561.47760074
_cell_formula_units_Z   4
loop_
 _symmetry_equiv_pos_site_id
 _symmetry_equiv_pos_as_xyz
  1  'x, y, z'
loop_
 _atom_site_type_symbol
 _atom_site_label
 _atom_site_symmetry_multiplicity
 _atom_site_fract_x
 _atom_site_fract_y
 _atom_site_fract_z
 _atom_site_occupancy
  Li  Li0  1  0.74345200  0.90130300  0.38786900  1
  Li  Li1  1  0.74628800  0.90917300  0.87701600  1
  Li  Li2  1  0.51632900  0.72428800  0.13020500  1
  Li  Li3  1  0.98336100  0.72613400  0.61155900  1
  Li  Li4  1  0.51875600  0.72524300  0.61130800  1
  Li  Li5  1  0.25466600  0.65502000  0.40082400  1
  Li  Li6  1  0.46375800  0.27920500  0.37860300  1
  Li  Li7  1  0.03586100  0.27913500  0.37805300  1
  Li  Li8  1  0.46897700  0.27427300  0.87548100  1
  Li  Li9  1  0.03046100  0.27337500  0.87553800  1
  Li  Li10  1  0.25218000  0.09520400  0.11962100  1
  Li  Li11  1  0.25083200  0.09508800  0.61655200  1
  Mn  Mn12  1  0.99998300  0.73254600  0.14393400  1
  Mn  Mn13  1  0.25561600  0.65543600  0.87544600  1
  Mn  Mn14  1  0.74949900  0.34164700  0.11225700  1
  Mn  Mn15  1  0.75010700  0.33963300  0.60921700  1
  P  P16  1  0.74835800  0.59181000  0.36263100  1
  P  P17  1  0.75055300  0.58996600  0.86152500  1
  P  P18  1  0.25021400  0.40930800  0.14131700  1
  P  P19  1  0.25016800  0.41069700  0.63831300  1
  C  C20  1  0.24550400  0.96428400  0.35157200  1
  C  C21  1  0.24775100  0.96642400  0.85264900  1
  C  C22  1  0.74866100  0.03542300  0.14886800  1
  C  C23  1  0.75031900  0.03286800  0.64878300  1
  O  O24  1  0.25106400  0.92998500  0.47364100  1
  O  O25  1  0.74806100  0.88927500  0.18153400  1
  O  O26  1  0.24488400  0.93081900  0.97703200  1
  O  O27  1  0.23872700  0.85294200  0.25235800  1
  O  O28  1  0.75066500  0.88759800  0.67772500  1
  O  O29  1  0.24945100  0.85512800  0.75592800  1
  O  O30  1  0.93932900  0.68911500  0.40845900  1
  O  O31  1  0.56258600  0.68757300  0.41239900  1
  O  O32  1  0.93859400  0.68817800  0.91840900  1
  O  O33  1  0.56868800  0.68972100  0.91699900  1
  O  O34  1  0.25141500  0.57701400  0.08927300  1
  O  O35  1  0.74940500  0.57845200  0.20186800  1
  O  O36  1  0.25053900  0.57945800  0.59691400  1
  O  O37  1  0.75104000  0.57714200  0.70445400  1
  O  O38  1  0.25011300  0.42606900  0.29664200  1
  O  O39  1  0.74886400  0.42181500  0.40440600  1
  O  O40  1  0.25066900  0.41877800  0.79671100  1
  O  O41  1  0.74961200  0.42196900  0.90716500  1
  O  O42  1  0.06468200  0.31120100  0.08430800  1
  O  O43  1  0.43381700  0.31269100  0.08437600  1
  O  O44  1  0.43352500  0.31134300  0.58475800  1
  O  O45  1  0.06551700  0.31049900  0.58365300  1
  O  O46  1  0.74790000  0.14581300  0.24445800  1
  O  O47  1  0.24967500  0.10894900  0.31895600  1
  O  O48  1  0.75056400  0.14409700  0.74632200  1
  O  O49  1  0.74956300  0.06678100  0.02459700  1
  O  O50  1  0.24982400  0.11048500  0.82203900  1
  O  O51  1  0.74957300  0.06962600  0.52547200  1
