# generated using pymatgen
data_LiCo7O7F
_symmetry_space_group_name_H-M   'P 1'
_cell_length_a   3.29025216
_cell_length_b   3.29025216
_cell_length_c   20.87346400
_cell_angle_alpha   90.00000000
_cell_angle_beta   90.00000000
_cell_angle_gamma   120.00000319
_symmetry_Int_Tables_number   1
_chemical_formula_structural   LiCo7O7F
_chemical_formula_sum   'Li1 Co7 O7 F1'
_cell_volume   195.69670366
_cell_formula_units_Z   1
loop_
 _symmetry_equiv_pos_site_id
 _symmetry_equiv_pos_as_xyz
  1  'x, y, z'
loop_
 _atom_site_type_symbol
 _atom_site_label
 _atom_site_symmetry_multiplicity
 _atom_site_fract_x
 _atom_site_fract_y
 _atom_site_fract_z
 _atom_site_occupancy
  Li  Li0  1  0.33333300  0.66666700  0.84055700  1
  Co  Co1  1  0.33333300  0.66666700  0.34609000  1
  Co  Co2  1  0.33333300  0.66666700  0.09581900  1
  Co  Co3  1  0.33333300  0.66666700  0.59683600  1
  Co  Co4  1  0.66666700  0.33333300  0.22075800  1
  Co  Co5  1  0.66666700  0.33333300  0.72153500  1
  Co  Co6  1  0.66666700  0.33333300  0.47140000  1
  Co  Co7  1  0.66666700  0.33333300  0.97223700  1
  O  O8  1  0.33333300  0.66666700  0.99856200  1
  O  O9  1  0.33333300  0.66666700  0.24916200  1
  O  O10  1  0.33333300  0.66666700  0.75051000  1
  O  O11  1  0.33333300  0.66666700  0.49952700  1
  O  O12  1  0.66666700  0.33333300  0.37440100  1
  O  O13  1  0.66666700  0.33333300  0.12337700  1
  O  O14  1  0.66666700  0.33333300  0.62435700  1
  F  F15  1  0.66666700  0.33333300  0.87573500  1
