# generated using pymatgen
data_Li2MnSiO4
_symmetry_space_group_name_H-M   'P 1'
_cell_length_a   6.34451300
_cell_length_b   7.44326400
_cell_length_c   7.83512600
_cell_angle_alpha   89.99896505
_cell_angle_beta   89.99854627
_cell_angle_gamma   89.99949311
_symmetry_Int_Tables_number   1
_chemical_formula_structural   Li2MnSiO4
_chemical_formula_sum   'Li8 Mn4 Si4 O16'
_cell_volume   370.00509074
_cell_formula_units_Z   4
loop_
 _symmetry_equiv_pos_site_id
 _symmetry_equiv_pos_as_xyz
  1  'x, y, z'
loop_
 _atom_site_type_symbol
 _atom_site_label
 _atom_site_symmetry_multiplicity
 _atom_site_fract_x
 _atom_site_fract_y
 _atom_site_fract_z
 _atom_site_occupancy
  Li  Li0  1  0.50000000  0.49999300  0.19010000  1
  Li  Li1  1  0.49999900  0.99999300  0.69009400  1
  Li  Li2  1  0.99999400  0.49999800  0.80990100  1
  Li  Li3  1  0.99999400  0.99999800  0.30989500  1
  Li  Li4  1  0.74999900  0.17737000  0.99999500  1
  Li  Li5  1  0.74999500  0.67737000  0.49999200  1
  Li  Li6  1  0.24999400  0.82262500  0.00000100  1
  Li  Li7  1  0.24999700  0.32262600  0.49999800  1
  Mn  Mn8  1  0.00002700  0.00000100  0.67868900  1
  Mn  Mn9  1  0.49999900  0.50001800  0.82132300  1
  Mn  Mn10  1  0.00002900  0.49999900  0.17870100  1
  Mn  Mn11  1  0.49999600  0.00001600  0.32131200  1
  Si  Si12  1  0.25000500  0.17407900  0.00000200  1
  Si  Si13  1  0.24999700  0.67408000  0.49999900  1
  Si  Si14  1  0.74999300  0.82592300  0.00000200  1
  Si  Si15  1  0.75000200  0.32592100  0.49999900  1
  O  O16  1  0.25631200  0.53779900  0.33317500  1
  O  O17  1  0.25631100  0.03780100  0.83317200  1
  O  O18  1  0.74369700  0.46219500  0.33316600  1
  O  O19  1  0.74369500  0.96219500  0.83316400  1
  O  O20  1  0.75630000  0.46220000  0.66682700  1
  O  O21  1  0.75629600  0.96220100  0.16682700  1
  O  O22  1  0.24369200  0.53779900  0.66683100  1
  O  O23  1  0.24369800  0.03779800  0.16683100  1
  O  O24  1  0.03520400  0.30044600  0.99190200  1
  O  O25  1  0.03520600  0.80044500  0.49189300  1
  O  O26  1  0.96478900  0.69955100  0.99190200  1
  O  O27  1  0.96478800  0.19955100  0.49189100  1
  O  O28  1  0.46479100  0.30044700  0.00810600  1
  O  O29  1  0.46479100  0.80044700  0.50809700  1
  O  O30  1  0.53520500  0.69955600  0.00811200  1
  O  O31  1  0.53520500  0.19955700  0.50810300  1
