# generated using pymatgen
data_Li2Cu2F5
_symmetry_space_group_name_H-M   'P 1'
_cell_length_a   3.01562800
_cell_length_b   9.95832600
_cell_length_c   14.07718994
_cell_angle_alpha   86.86889385
_cell_angle_beta   90.00000000
_cell_angle_gamma   90.00000000
_symmetry_Int_Tables_number   1
_chemical_formula_structural   Li2Cu2F5
_chemical_formula_sum   'Li8 Cu8 F20'
_cell_volume   422.11546339
_cell_formula_units_Z   4
loop_
 _symmetry_equiv_pos_site_id
 _symmetry_equiv_pos_as_xyz
  1  'x, y, z'
loop_
 _atom_site_type_symbol
 _atom_site_label
 _atom_site_symmetry_multiplicity
 _atom_site_fract_x
 _atom_site_fract_y
 _atom_site_fract_z
 _atom_site_occupancy
  Li  Li0  1  0.69269700  0.89174300  0.70724500  1
  Li  Li1  1  0.80730300  0.89174300  0.20724500  1
  Li  Li2  1  0.18108000  0.68653400  0.59604700  1
  Li  Li3  1  0.31892000  0.68653400  0.09604700  1
  Li  Li4  1  0.68108000  0.31346600  0.90395300  1
  Li  Li5  1  0.81892000  0.31346600  0.40395300  1
  Li  Li6  1  0.19269700  0.10825700  0.79275500  1
  Li  Li7  1  0.30730300  0.10825700  0.29275500  1
  Cu  Cu8  1  0.76370000  0.88837400  0.95353200  1
  Cu  Cu9  1  0.73630000  0.88837400  0.45353200  1
  Cu  Cu10  1  0.20317200  0.61345000  0.82437400  1
  Cu  Cu11  1  0.29682800  0.61345000  0.32437400  1
  Cu  Cu12  1  0.70317200  0.38655000  0.67562600  1
  Cu  Cu13  1  0.79682800  0.38655000  0.17562600  1
  Cu  Cu14  1  0.26370000  0.11162600  0.54646800  1
  Cu  Cu15  1  0.23630000  0.11162600  0.04646800  1
  F  F16  1  0.70627200  0.97188000  0.83262800  1
  F  F17  1  0.79372800  0.97188000  0.33262800  1
  F  F18  1  0.67538800  0.82468700  0.57892900  1
  F  F19  1  0.18634200  0.75962100  0.73632300  1
  F  F20  1  0.82461200  0.82468700  0.07892900  1
  F  F21  1  0.34823000  0.72138800  0.93728900  1
  F  F22  1  0.31365800  0.75962100  0.23632300  1
  F  F23  1  0.15177000  0.72138800  0.43728900  1
  F  F24  1  0.68195700  0.56154600  0.62621000  1
  F  F25  1  0.81804300  0.56154600  0.12621000  1
  F  F26  1  0.18195700  0.43845400  0.87379000  1
  F  F27  1  0.31804300  0.43845400  0.37379000  1
  F  F28  1  0.84823000  0.27861200  0.56271100  1
  F  F29  1  0.68634200  0.24037900  0.76367700  1
  F  F30  1  0.65177000  0.27861200  0.06271100  1
  F  F31  1  0.17538800  0.17531300  0.92107100  1
  F  F32  1  0.81365800  0.24037900  0.26367700  1
  F  F33  1  0.32461200  0.17531300  0.42107100  1
  F  F34  1  0.20627200  0.02812000  0.66737200  1
  F  F35  1  0.29372800  0.02812000  0.16737200  1
