# generated using pymatgen
data_Li4Cr3GaO8
_symmetry_space_group_name_H-M   'P 1'
_cell_length_a   5.14017700
_cell_length_b   5.92843973
_cell_length_c   10.68745812
_cell_angle_alpha   73.90019483
_cell_angle_beta   76.11778891
_cell_angle_gamma   73.24077705
_symmetry_Int_Tables_number   1
_chemical_formula_structural   Li4Cr3GaO8
_chemical_formula_sum   'Li8 Cr6 Ga2 O16'
_cell_volume   295.05331108
_cell_formula_units_Z   2
loop_
 _symmetry_equiv_pos_site_id
 _symmetry_equiv_pos_as_xyz
  1  'x, y, z'
loop_
 _atom_site_type_symbol
 _atom_site_label
 _atom_site_symmetry_multiplicity
 _atom_site_fract_x
 _atom_site_fract_y
 _atom_site_fract_z
 _atom_site_occupancy
  Li  Li0  1  0.50042700  0.31231800  0.62492900  1
  Li  Li1  1  0.49969400  0.93773700  0.87495300  1
  Li  Li2  1  0.49957300  0.68768200  0.37507100  1
  Li  Li3  1  0.50030600  0.06226300  0.12504700  1
  Li  Li4  1  0.50004200  0.81264800  0.62489800  1
  Li  Li5  1  0.50002800  0.43726600  0.87518200  1
  Li  Li6  1  0.49995800  0.18735200  0.37510200  1
  Li  Li7  1  0.49997200  0.56273400  0.12481800  1
  Cr  Cr8  1  0.00001600  0.12500000  0.74997400  1
  Cr  Cr9  1  0.00000000  0.50000000  0.50000000  1
  Cr  Cr10  1  0.99998400  0.87500000  0.25002600  1
  Cr  Cr11  1  0.99992500  0.25022500  0.00002600  1
  Cr  Cr12  1  0.00000000  0.00000000  0.50000000  1
  Cr  Cr13  1  0.00007500  0.74977500  0.99997400  1
  Ga  Ga14  1  0.00004400  0.62499400  0.75001300  1
  Ga  Ga15  1  0.99995600  0.37500600  0.24998700  1
  O  O16  1  0.77437800  0.71357300  0.18547900  1
  O  O17  1  0.22563300  0.53600900  0.31441000  1
  O  O18  1  0.77436700  0.46399100  0.68559000  1
  O  O19  1  0.22562200  0.28642700  0.81452100  1
  O  O20  1  0.22411700  0.91167100  0.06475500  1
  O  O21  1  0.77588300  0.08832900  0.93524500  1
  O  O22  1  0.77569000  0.83842100  0.43543800  1
  O  O23  1  0.22574600  0.66124600  0.56473900  1
  O  O24  1  0.77433500  0.21376000  0.18556200  1
  O  O25  1  0.22566400  0.03668100  0.31445500  1
  O  O26  1  0.77433600  0.96331900  0.68554500  1
  O  O27  1  0.22566500  0.78624000  0.81443800  1
  O  O28  1  0.77415600  0.58879100  0.93544900  1
  O  O29  1  0.77425400  0.33875400  0.43526100  1
  O  O30  1  0.22584400  0.41120900  0.06455100  1
  O  O31  1  0.22431000  0.16157900  0.56456200  1
