# generated using pymatgen
data_LiVPO4
_symmetry_space_group_name_H-M   'P 1'
_cell_length_a   4.98458500
_cell_length_b   9.41862900
_cell_length_c   6.32029300
_cell_angle_alpha   90.00013040
_cell_angle_beta   90.00339642
_cell_angle_gamma   89.99818552
_symmetry_Int_Tables_number   1
_chemical_formula_structural   LiVPO4
_chemical_formula_sum   'Li4 V4 P4 O16'
_cell_volume   296.72484261
_cell_formula_units_Z   4
loop_
 _symmetry_equiv_pos_site_id
 _symmetry_equiv_pos_as_xyz
  1  'x, y, z'
loop_
 _atom_site_type_symbol
 _atom_site_label
 _atom_site_symmetry_multiplicity
 _atom_site_fract_x
 _atom_site_fract_y
 _atom_site_fract_z
 _atom_site_occupancy
  Li  Li0  1  0.48411400  0.17053400  0.75001000  1
  Li  Li1  1  0.98407300  0.32943700  0.24999900  1
  Li  Li2  1  0.01577400  0.67039300  0.74999500  1
  Li  Li3  1  0.51581600  0.82958300  0.25001300  1
  V  V4  1  0.00037800  0.99992600  0.49997300  1
  V  V5  1  0.50019500  0.49987000  0.49979600  1
  V  V6  1  0.00025400  0.00012700  0.99987300  1
  V  V7  1  0.50024900  0.50010500  0.00007900  1
  P  P8  1  0.48546000  0.17810800  0.25001100  1
  P  P9  1  0.98548000  0.32188700  0.75004200  1
  P  P10  1  0.01451800  0.67810800  0.25003900  1
  P  P11  1  0.51448100  0.82188800  0.74998500  1
  O  O12  1  0.79245700  0.13747700  0.25001600  1
  O  O13  1  0.29249000  0.36249500  0.75020700  1
  O  O14  1  0.70741700  0.63755800  0.25023000  1
  O  O15  1  0.20736300  0.86245500  0.74976700  1
  O  O16  1  0.93548900  0.15588500  0.74998200  1
  O  O17  1  0.43550000  0.34406800  0.24999900  1
  O  O18  1  0.56439400  0.65584700  0.75001600  1
  O  O19  1  0.06443000  0.84413700  0.24997300  1
  O  O20  1  0.35455000  0.12078200  0.04709900  1
  O  O21  1  0.35457800  0.12077200  0.45291800  1
  O  O22  1  0.85451300  0.37923100  0.95291900  1
  O  O23  1  0.85488300  0.37930600  0.54707200  1
  O  O24  1  0.14523600  0.62070200  0.04709700  1
  O  O25  1  0.14541300  0.62070000  0.45289800  1
  O  O26  1  0.64524100  0.87930800  0.54707700  1
  O  O27  1  0.64525700  0.87931600  0.95291300  1
