# generated using pymatgen
data_Li3Mn4(BO3)4
_symmetry_space_group_name_H-M   'P 1'
_cell_length_a   5.89372400
_cell_length_b   9.07375279
_cell_length_c   9.84392883
_cell_angle_alpha   81.82086945
_cell_angle_beta   80.15443445
_cell_angle_gamma   77.22772794
_symmetry_Int_Tables_number   1
_chemical_formula_structural   Li3Mn4(BO3)4
_chemical_formula_sum   'Li6 Mn8 B8 O24'
_cell_volume   502.84996068
_cell_formula_units_Z   2
loop_
 _symmetry_equiv_pos_site_id
 _symmetry_equiv_pos_as_xyz
  1  'x, y, z'
loop_
 _atom_site_type_symbol
 _atom_site_label
 _atom_site_symmetry_multiplicity
 _atom_site_fract_x
 _atom_site_fract_y
 _atom_site_fract_z
 _atom_site_occupancy
  Li  Li0  1  0.57539200  0.21821800  0.58510300  1
  Li  Li1  1  0.64442300  0.28060600  0.17016400  1
  Li  Li2  1  0.35557700  0.71939400  0.82983600  1
  Li  Li3  1  0.42460800  0.78178200  0.41489700  1
  Li  Li4  1  0.10227600  0.21633300  0.08662300  1
  Li  Li5  1  0.89772400  0.78366700  0.91337700  1
  Mn  Mn6  1  0.66358300  0.55636000  0.59532500  1
  Mn  Mn7  1  0.85843900  0.44893200  0.88851500  1
  Mn  Mn8  1  0.60430700  0.93866700  0.14426100  1
  Mn  Mn9  1  0.33641700  0.44364000  0.40467500  1
  Mn  Mn10  1  0.39569300  0.06133300  0.85573900  1
  Mn  Mn11  1  0.14156100  0.55106800  0.11148500  1
  Mn  Mn12  1  0.90005000  0.03448200  0.35462200  1
  Mn  Mn13  1  0.09995000  0.96551800  0.64537800  1
  B  B14  1  0.85845100  0.11440000  0.91110700  1
  B  B15  1  0.59920200  0.61499000  0.15178300  1
  B  B16  1  0.64193900  0.88953300  0.60504500  1
  B  B17  1  0.35806100  0.11046700  0.39495500  1
  B  B18  1  0.40079800  0.38501000  0.84821700  1
  B  B19  1  0.11291500  0.62487000  0.64878400  1
  B  B20  1  0.14154900  0.88560000  0.08889300  1
  B  B21  1  0.88708500  0.37513000  0.35121600  1
  O  O22  1  0.78360900  0.61023000  0.04016200  1
  O  O23  1  0.69540300  0.39192500  0.45943400  1
  O  O24  1  0.76294100  0.00993700  0.56817900  1
  O  O25  1  0.81094700  0.23296400  0.98986700  1
  O  O26  1  0.52974200  0.73655900  0.22780000  1
  O  O27  1  0.68532400  0.77484000  0.52194600  1
  O  O28  1  0.71897500  0.00230500  0.93306200  1
  O  O29  1  0.48380900  0.49242200  0.18816700  1
  O  O30  1  0.53038700  0.10541700  0.27925500  1
  O  O31  1  0.30459700  0.60807500  0.54056600  1
  O  O32  1  0.51619100  0.50757800  0.81183300  1
  O  O33  1  0.31467600  0.22516000  0.47805400  1
  O  O34  1  0.47025800  0.26344100  0.77220000  1
  O  O35  1  0.23705900  0.99006300  0.43182100  1
  O  O36  1  0.46961300  0.89458300  0.72074500  1
  O  O37  1  0.21639100  0.38977000  0.95983800  1
  O  O38  1  0.28102500  0.99769500  0.06693800  1
  O  O39  1  0.02730900  0.48377700  0.32377800  1
  O  O40  1  0.07255100  0.74112700  0.73121000  1
  O  O41  1  0.18905300  0.76703600  0.01013300  1
  O  O42  1  0.92744900  0.25887300  0.26879000  1
  O  O43  1  0.97269100  0.51622300  0.67622200  1
  O  O44  1  0.05809400  0.08930300  0.81305500  1
  O  O45  1  0.94190600  0.91069700  0.18694500  1
