# generated using pymatgen
data_Li10Sn(PO6)2
_symmetry_space_group_name_H-M   'P 1'
_cell_length_a   6.83684700
_cell_length_b   7.51186008
_cell_length_c   10.99537776
_cell_angle_alpha   90.08733316
_cell_angle_beta   90.27651732
_cell_angle_gamma   90.64911882
_symmetry_Int_Tables_number   1
_chemical_formula_structural   Li10Sn(PO6)2
_chemical_formula_sum   'Li20 Sn2 P4 O24'
_cell_volume   564.65091246
_cell_formula_units_Z   2
loop_
 _symmetry_equiv_pos_site_id
 _symmetry_equiv_pos_as_xyz
  1  'x, y, z'
loop_
 _atom_site_type_symbol
 _atom_site_label
 _atom_site_symmetry_multiplicity
 _atom_site_fract_x
 _atom_site_fract_y
 _atom_site_fract_z
 _atom_site_occupancy
  Li  Li0  1  0.45986200  0.93730000  0.90426600  1
  Li  Li1  1  0.44402300  0.92224400  0.43018300  1
  Li  Li2  1  0.04879800  0.57234200  0.54227600  1
  Li  Li3  1  0.01871200  0.45294000  0.06351400  1
  Li  Li4  1  0.69940300  0.35470100  0.19570500  1
  Li  Li5  1  0.34136100  0.60902400  0.25424900  1
  Li  Li6  1  0.04515900  0.08244200  0.76857500  1
  Li  Li7  1  0.23727800  0.21889600  0.30435600  1
  Li  Li8  1  0.77803300  0.76897400  0.34848100  1
  Li  Li9  1  0.50734200  0.48372100  0.75884200  1
  Li  Li10  1  0.69112300  0.21888700  0.39070900  1
  Li  Li11  1  0.76250400  0.80770300  0.89671700  1
  Li  Li12  1  0.26152700  0.21002300  0.97933200  1
  Li  Li13  1  0.87785100  0.75644800  0.09777500  1
  Li  Li14  1  0.26731200  0.77144700  0.65660800  1
  Li  Li15  1  0.75552500  0.17080700  0.93231600  1
  Li  Li16  1  0.23494900  0.74701100  0.99668900  1
  Li  Li17  1  0.25933100  0.29797200  0.56551800  1
  Li  Li18  1  0.75700200  0.75002300  0.63122300  1
  Li  Li19  1  0.76874600  0.31786000  0.60452700  1
  Sn  Sn20  1  0.51941600  0.98082000  0.16158600  1
  Sn  Sn21  1  0.01583800  0.49441200  0.80299600  1
  P  P22  1  0.01016600  0.01187100  0.50348100  1
  P  P23  1  0.51170700  0.51416100  0.99950700  1
  P  P24  1  0.51282900  0.02393000  0.68529400  1
  P  P25  1  0.99831700  0.48186300  0.32076600  1
  O  O26  1  0.82847900  0.00762500  0.41881500  1
  O  O27  1  0.20174400  0.04735500  0.43366300  1
  O  O28  1  0.51474500  0.33506900  0.92798900  1
  O  O29  1  0.50152900  0.66987100  0.90462300  1
  O  O30  1  0.32155200  0.52233700  0.07838800  1
  O  O31  1  0.69679500  0.53344400  0.08054500  1
  O  O32  1  0.99216800  0.16467900  0.60025400  1
  O  O33  1  0.01754200  0.82715500  0.57112100  1
  O  O34  1  0.73525800  0.96285900  0.04220000  1
  O  O35  1  0.29931900  0.98002700  0.04424700  1
  O  O36  1  0.52242800  0.20251400  0.61489000  1
  O  O37  1  0.51767900  0.86227400  0.59493800  1
  O  O38  1  0.19133800  0.45966900  0.39634800  1
  O  O39  1  0.82008000  0.47455500  0.40986300  1
  O  O40  1  0.01741900  0.27186600  0.90027800  1
  O  O41  1  0.99898900  0.68355600  0.92783300  1
  O  O42  1  0.31760700  0.00282100  0.75685300  1
  O  O43  1  0.68491600  0.00227900  0.77901200  1
  O  O44  1  0.51893500  0.79348500  0.28789700  1
  O  O45  1  0.51117500  0.20361100  0.26013200  1
  O  O46  1  0.78116000  0.52344300  0.69790200  1
  O  O47  1  0.23020500  0.51581200  0.68032300  1
  O  O48  1  0.00466400  0.66462700  0.25398100  1
  O  O49  1  0.98305800  0.32864200  0.22561400  1
