# generated using pymatgen
data_LiMn(SiO3)2
_symmetry_space_group_name_H-M   'P 1'
_cell_length_a   5.15479100
_cell_length_b   8.96627500
_cell_length_c   18.60781700
_cell_angle_alpha   90.00000000
_cell_angle_beta   90.00000000
_cell_angle_gamma   90.00000000
_symmetry_Int_Tables_number   1
_chemical_formula_structural   LiMn(SiO3)2
_chemical_formula_sum   'Li8 Mn8 Si16 O48'
_cell_volume   860.03978639
_cell_formula_units_Z   8
loop_
 _symmetry_equiv_pos_site_id
 _symmetry_equiv_pos_as_xyz
  1  'x, y, z'
loop_
 _atom_site_type_symbol
 _atom_site_label
 _atom_site_symmetry_multiplicity
 _atom_site_fract_x
 _atom_site_fract_y
 _atom_site_fract_z
 _atom_site_occupancy
  Li  Li0  1  0.63284100  0.66066500  0.12280000  1
  Li  Li1  1  0.13284100  0.83933500  0.12280000  1
  Li  Li2  1  0.13284100  0.33933500  0.37720000  1
  Li  Li3  1  0.63284100  0.16066500  0.37720000  1
  Li  Li4  1  0.36715900  0.83933500  0.62280000  1
  Li  Li5  1  0.86715900  0.66066500  0.62280000  1
  Li  Li6  1  0.36715900  0.33933500  0.87720000  1
  Li  Li7  1  0.86715900  0.16066500  0.87720000  1
  Mn  Mn8  1  0.63858400  0.00189600  0.12387700  1
  Mn  Mn9  1  0.13858400  0.49810400  0.12387700  1
  Mn  Mn10  1  0.13858400  0.99810400  0.37612300  1
  Mn  Mn11  1  0.63858400  0.50189600  0.37612300  1
  Mn  Mn12  1  0.36141600  0.49810400  0.62387700  1
  Mn  Mn13  1  0.86141600  0.00189600  0.62387700  1
  Mn  Mn14  1  0.36141600  0.99810400  0.87612300  1
  Mn  Mn15  1  0.86141600  0.50189600  0.87612300  1
  Si  Si16  1  0.71029900  0.33821000  0.02727800  1
  Si  Si17  1  0.21029900  0.16179000  0.02727800  1
  Si  Si18  1  0.43711300  0.34307700  0.22814300  1
  Si  Si19  1  0.93711300  0.15692300  0.22814300  1
  Si  Si20  1  0.43711300  0.84307700  0.27185700  1
  Si  Si21  1  0.93711300  0.65692300  0.27185700  1
  Si  Si22  1  0.71029900  0.83821000  0.47272200  1
  Si  Si23  1  0.21029900  0.66179000  0.47272200  1
  Si  Si24  1  0.78970100  0.33821000  0.52727800  1
  Si  Si25  1  0.28970100  0.16179000  0.52727800  1
  Si  Si26  1  0.06288700  0.34307700  0.72814300  1
  Si  Si27  1  0.56288700  0.15692300  0.72814300  1
  Si  Si28  1  0.06288700  0.84307700  0.77185700  1
  Si  Si29  1  0.56288700  0.65692300  0.77185700  1
  Si  Si30  1  0.78970100  0.83821000  0.97272200  1
  Si  Si31  1  0.28970100  0.66179000  0.97272200  1
  O  O32  1  0.90067300  0.19390900  0.05309700  1
  O  O33  1  0.40067300  0.30609100  0.05309700  1
  O  O34  1  0.79894300  0.84965100  0.05964800  1
  O  O35  1  0.29894300  0.65034900  0.05964800  1
  O  O36  1  0.82690700  0.48137200  0.06926600  1
  O  O37  1  0.32690700  0.01862800  0.06926600  1
  O  O38  1  0.45591300  0.85033400  0.18580700  1
  O  O39  1  0.95591300  0.64966600  0.18580700  1
  O  O40  1  0.93400500  0.99702500  0.18629800  1
  O  O41  1  0.43400500  0.50297500  0.18629800  1
  O  O42  1  0.15963100  0.27350300  0.19630300  1
  O  O43  1  0.65963100  0.22649700  0.19630300  1
  O  O44  1  0.15963100  0.77350300  0.30369700  1
  O  O45  1  0.65963100  0.72649700  0.30369700  1
  O  O46  1  0.93400500  0.49702500  0.31370200  1
  O  O47  1  0.43400500  0.00297500  0.31370200  1
  O  O48  1  0.45591300  0.35033400  0.31419300  1
  O  O49  1  0.95591300  0.14966600  0.31419300  1
  O  O50  1  0.82690700  0.98137200  0.43073400  1
  O  O51  1  0.32690700  0.51862800  0.43073400  1
  O  O52  1  0.79894300  0.34965100  0.44035200  1
  O  O53  1  0.29894300  0.15034900  0.44035200  1
  O  O54  1  0.40067300  0.80609100  0.44690300  1
  O  O55  1  0.90067300  0.69390900  0.44690300  1
  O  O56  1  0.09932700  0.30609100  0.55309700  1
  O  O57  1  0.59932700  0.19390900  0.55309700  1
  O  O58  1  0.70105700  0.84965100  0.55964800  1
  O  O59  1  0.20105700  0.65034900  0.55964800  1
  O  O60  1  0.67309300  0.48137200  0.56926600  1
  O  O61  1  0.17309300  0.01862800  0.56926600  1
  O  O62  1  0.04408700  0.85033400  0.68580700  1
  O  O63  1  0.54408700  0.64966600  0.68580700  1
  O  O64  1  0.56599500  0.99702500  0.68629800  1
  O  O65  1  0.06599500  0.50297500  0.68629800  1
  O  O66  1  0.34036900  0.27350300  0.69630300  1
  O  O67  1  0.84036900  0.22649700  0.69630300  1
  O  O68  1  0.34036900  0.77350300  0.80369700  1
  O  O69  1  0.84036900  0.72649700  0.80369700  1
  O  O70  1  0.56599500  0.49702500  0.81370200  1
  O  O71  1  0.06599500  0.00297500  0.81370200  1
  O  O72  1  0.04408700  0.35033400  0.81419300  1
  O  O73  1  0.54408700  0.14966600  0.81419300  1
  O  O74  1  0.67309300  0.98137200  0.93073400  1
  O  O75  1  0.17309300  0.51862800  0.93073400  1
  O  O76  1  0.70105700  0.34965100  0.94035200  1
  O  O77  1  0.20105700  0.15034900  0.94035200  1
  O  O78  1  0.09932700  0.80609100  0.94690300  1
  O  O79  1  0.59932700  0.69390900  0.94690300  1
