# generated using pymatgen
data_Li5FeHO4
_symmetry_space_group_name_H-M   'P 1'
_cell_length_a   8.95424900
_cell_length_b   9.13780900
_cell_length_c   10.81370900
_cell_angle_alpha   90.00000000
_cell_angle_beta   90.00000000
_cell_angle_gamma   90.00000000
_symmetry_Int_Tables_number   1
_chemical_formula_structural   Li5FeHO4
_chemical_formula_sum   'Li40 Fe8 H8 O32'
_cell_volume   884.80164546
_cell_formula_units_Z   8
loop_
 _symmetry_equiv_pos_site_id
 _symmetry_equiv_pos_as_xyz
  1  'x, y, z'
loop_
 _atom_site_type_symbol
 _atom_site_label
 _atom_site_symmetry_multiplicity
 _atom_site_fract_x
 _atom_site_fract_y
 _atom_site_fract_z
 _atom_site_occupancy
  Li  Li0  1  0.98159200  0.58472900  0.20196600  1
  Li  Li1  1  0.98159200  0.91527100  0.20196600  1
  Li  Li2  1  0.07405700  0.06592200  0.42885500  1
  Li  Li3  1  0.07405700  0.43407800  0.42885500  1
  Li  Li4  1  0.07843200  0.75000000  0.43161200  1
  Li  Li5  1  0.11809900  0.25000000  0.97692100  1
  Li  Li6  1  0.10796300  0.56912600  0.98658500  1
  Li  Li7  1  0.10796300  0.93087400  0.98658500  1
  Li  Li8  1  0.20501800  0.58807500  0.61993700  1
  Li  Li9  1  0.20501800  0.91192500  0.61993700  1
  Li  Li10  1  0.29498200  0.08807500  0.11993700  1
  Li  Li11  1  0.29498200  0.41192500  0.11993700  1
  Li  Li12  1  0.39203700  0.06912600  0.48658500  1
  Li  Li13  1  0.39203700  0.43087400  0.48658500  1
  Li  Li14  1  0.38190100  0.75000000  0.47692100  1
  Li  Li15  1  0.42156800  0.25000000  0.93161200  1
  Li  Li16  1  0.42594300  0.56592200  0.92885500  1
  Li  Li17  1  0.42594300  0.93407800  0.92885500  1
  Li  Li18  1  0.51840800  0.08472900  0.70196600  1
  Li  Li19  1  0.51840800  0.41527100  0.70196600  1
  Li  Li20  1  0.48159200  0.58472900  0.29803400  1
  Li  Li21  1  0.48159200  0.91527100  0.29803400  1
  Li  Li22  1  0.57405700  0.06592200  0.07114500  1
  Li  Li23  1  0.57405700  0.43407800  0.07114500  1
  Li  Li24  1  0.57843200  0.75000000  0.06838800  1
  Li  Li25  1  0.61809900  0.25000000  0.52307900  1
  Li  Li26  1  0.60796300  0.56912600  0.51341500  1
  Li  Li27  1  0.60796300  0.93087400  0.51341500  1
  Li  Li28  1  0.70501800  0.58807500  0.88006300  1
  Li  Li29  1  0.70501800  0.91192500  0.88006300  1
  Li  Li30  1  0.79498200  0.08807500  0.38006300  1
  Li  Li31  1  0.79498200  0.41192500  0.38006300  1
  Li  Li32  1  0.89203700  0.06912600  0.01341500  1
  Li  Li33  1  0.89203700  0.43087400  0.01341500  1
  Li  Li34  1  0.88190100  0.75000000  0.02307900  1
  Li  Li35  1  0.92156800  0.25000000  0.56838800  1
  Li  Li36  1  0.92594300  0.93407800  0.57114500  1
  Li  Li37  1  0.92594300  0.56592200  0.57114500  1
  Li  Li38  1  0.01840800  0.08472900  0.79803400  1
  Li  Li39  1  0.01840800  0.41527100  0.79803400  1
  Fe  Fe40  1  0.02262100  0.25000000  0.21818100  1
  Fe  Fe41  1  0.21085400  0.25000000  0.62447300  1
  Fe  Fe42  1  0.28914600  0.75000000  0.12447300  1
  Fe  Fe43  1  0.47737900  0.75000000  0.71818100  1
  Fe  Fe44  1  0.52262100  0.25000000  0.28181900  1
  Fe  Fe45  1  0.71085400  0.25000000  0.87552700  1
  Fe  Fe46  1  0.78914600  0.75000000  0.37552700  1
  Fe  Fe47  1  0.97737900  0.75000000  0.78181900  1
  H  H48  1  0.22536900  0.58286000  0.31527000  1
  H  H49  1  0.22536900  0.91714000  0.31527000  1
  H  H50  1  0.27463100  0.08286000  0.81527000  1
  H  H51  1  0.27463100  0.41714000  0.81527000  1
  H  H52  1  0.72536900  0.58286000  0.18473000  1
  H  H53  1  0.72536900  0.91714000  0.18473000  1
  H  H54  1  0.77463100  0.08286000  0.68473000  1
  H  H55  1  0.77463100  0.41714000  0.68473000  1
  O  O56  1  0.05457400  0.75000000  0.61605300  1
  O  O57  1  0.07437800  0.41724700  0.12056700  1
  O  O58  1  0.07437800  0.08275300  0.12056700  1
  O  O59  1  0.07892000  0.41557800  0.61897200  1
  O  O60  1  0.07892000  0.08442200  0.61897200  1
  O  O61  1  0.07738500  0.75000000  0.10737800  1
  O  O62  1  0.24382000  0.07445200  0.90250100  1
  O  O63  1  0.24382000  0.42554800  0.90250100  1
  O  O64  1  0.25618000  0.57445200  0.40250100  1
  O  O65  1  0.25618000  0.92554800  0.40250100  1
  O  O66  1  0.42261500  0.25000000  0.60737800  1
  O  O67  1  0.42108000  0.58442200  0.11897200  1
  O  O68  1  0.42108000  0.91557800  0.11897200  1
  O  O69  1  0.42562200  0.58275300  0.62056700  1
  O  O70  1  0.42562200  0.91724700  0.62056700  1
  O  O71  1  0.44542600  0.25000000  0.11605300  1
  O  O72  1  0.55457400  0.75000000  0.88394700  1
  O  O73  1  0.57437800  0.08275300  0.37943300  1
  O  O74  1  0.57437800  0.41724700  0.37943300  1
  O  O75  1  0.57892000  0.08442200  0.88102800  1
  O  O76  1  0.57892000  0.41557800  0.88102800  1
  O  O77  1  0.57738500  0.75000000  0.39262200  1
  O  O78  1  0.74382000  0.07445200  0.59749900  1
  O  O79  1  0.74382000  0.42554800  0.59749900  1
  O  O80  1  0.75618000  0.57445200  0.09749900  1
  O  O81  1  0.75618000  0.92554800  0.09749900  1
  O  O82  1  0.92261500  0.25000000  0.89262200  1
  O  O83  1  0.92108000  0.91557800  0.38102800  1
  O  O84  1  0.92108000  0.58442200  0.38102800  1
  O  O85  1  0.92562200  0.91724700  0.87943300  1
  O  O86  1  0.92562200  0.58275300  0.87943300  1
  O  O87  1  0.94542600  0.25000000  0.38394700  1
