# generated using pymatgen
data_Li4Fe5Sb(PO4)6
_symmetry_space_group_name_H-M   'P 1'
_cell_length_a   8.37422000
_cell_length_b   8.50433940
_cell_length_c   8.53250978
_cell_angle_alpha   64.71817586
_cell_angle_beta   65.19397112
_cell_angle_gamma   65.24905414
_symmetry_Int_Tables_number   1
_chemical_formula_structural   Li4Fe5Sb(PO4)6
_chemical_formula_sum   'Li4 Fe5 Sb1 P6 O24'
_cell_volume   477.05690101
_cell_formula_units_Z   1
loop_
 _symmetry_equiv_pos_site_id
 _symmetry_equiv_pos_as_xyz
  1  'x, y, z'
loop_
 _atom_site_type_symbol
 _atom_site_label
 _atom_site_symmetry_multiplicity
 _atom_site_fract_x
 _atom_site_fract_y
 _atom_site_fract_z
 _atom_site_occupancy
  Li  Li0  1  0.74874300  0.13893400  0.35263300  1
  Li  Li1  1  0.27972700  0.83863200  0.64578100  1
  Li  Li2  1  0.63923100  0.27872200  0.84097500  1
  Li  Li3  1  0.84091800  0.64089500  0.28450500  1
  Fe  Fe4  1  0.01056000  0.00140300  0.99777600  1
  Fe  Fe5  1  0.34926400  0.35323300  0.34841600  1
  Fe  Fe6  1  0.49198900  0.50406200  0.50076200  1
  Fe  Fe7  1  0.14413100  0.14965600  0.14848000  1
  Fe  Fe8  1  0.65573600  0.65803100  0.66026800  1
  Sb  Sb9  1  0.84289000  0.83568600  0.84212300  1
  P  P10  1  0.07597200  0.74754100  0.43166200  1
  P  P11  1  0.42896300  0.07483100  0.74886600  1
  P  P12  1  0.74688400  0.43304000  0.07278200  1
  P  P13  1  0.24855700  0.54379900  0.94698800  1
  P  P14  1  0.55399200  0.94934000  0.24988100  1
  P  P15  1  0.93820900  0.24487900  0.54537500  1
  O  O16  1  0.48467400  0.90654100  0.68912700  1
  O  O17  1  0.68626700  0.48464000  0.90706100  1
  O  O18  1  0.90626700  0.68434100  0.48827100  1
  O  O19  1  0.07048000  0.90134000  0.25017500  1
  O  O20  1  0.07998700  0.81009900  0.57641600  1
  O  O21  1  0.25889500  0.58835400  0.41192200  1
  O  O22  1  0.23921400  0.08350300  0.89177400  1
  O  O23  1  0.42413000  0.25222300  0.58184000  1
  O  O24  1  0.17203900  0.39929000  0.97543100  1
  O  O25  1  0.59155000  0.41167100  0.25996700  1
  O  O26  1  0.10207800  0.74535800  0.92241800  1
  O  O27  1  0.39626700  0.99518800  0.18258400  1
  O  O28  1  0.57439500  0.07284000  0.81822000  1
  O  O29  1  0.88634000  0.23928200  0.09072100  1
  O  O30  1  0.40532700  0.56784800  0.75960300  1
  O  O31  1  0.81665800  0.57611000  0.07158300  1
  O  O32  1  0.56869500  0.76103600  0.40491600  1
  O  O33  1  0.75458600  0.91795300  0.10017500  1
  O  O34  1  0.75402300  0.40569800  0.57001600  1
  O  O35  1  0.94286700  0.17251900  0.40802800  1
  O  O36  1  0.92461100  0.09977000  0.74382100  1
  O  O37  1  0.11016500  0.30467800  0.48284300  1
  O  O38  1  0.31659900  0.50147000  0.10611500  1
  O  O39  1  0.53812000  0.10256500  0.31270000  1
