# generated using pymatgen
data_LiFe4(PO4)3
_symmetry_space_group_name_H-M   'P 1'
_cell_length_a   8.70705207
_cell_length_b   8.70705207
_cell_length_c   6.61124532
_cell_angle_alpha   72.03655054
_cell_angle_beta   72.03655054
_cell_angle_gamma   94.39465139
_symmetry_Int_Tables_number   1
_chemical_formula_structural   LiFe4(PO4)3
_chemical_formula_sum   'Li2 Fe8 P6 O24'
_cell_volume   445.29880346
_cell_formula_units_Z   2
loop_
 _symmetry_equiv_pos_site_id
 _symmetry_equiv_pos_as_xyz
  1  'x, y, z'
loop_
 _atom_site_type_symbol
 _atom_site_label
 _atom_site_symmetry_multiplicity
 _atom_site_fract_x
 _atom_site_fract_y
 _atom_site_fract_z
 _atom_site_occupancy
  Li  Li0  1  0.99692000  0.01350900  0.74966000  1
  Li  Li1  1  0.01350900  0.99692000  0.24966000  1
  Fe  Fe2  1  0.94407000  0.62499000  0.62722500  1
  Fe  Fe3  1  0.62499000  0.94407000  0.12722500  1
  Fe  Fe4  1  0.26308700  0.72721600  0.75821200  1
  Fe  Fe5  1  0.51380900  0.52729200  0.53658000  1
  Fe  Fe6  1  0.72721600  0.26308700  0.25821200  1
  Fe  Fe7  1  0.52729200  0.51380900  0.03658000  1
  Fe  Fe8  1  0.37108700  0.05921900  0.86656100  1
  Fe  Fe9  1  0.05921900  0.37108700  0.36656100  1
  P  P10  1  0.67007500  0.88086800  0.62207600  1
  P  P11  1  0.88086800  0.67007500  0.12207600  1
  P  P12  1  0.69921600  0.30024800  0.75157800  1
  P  P13  1  0.30024800  0.69921600  0.25157800  1
  P  P14  1  0.11457500  0.33610100  0.87302700  1
  P  P15  1  0.33610100  0.11457500  0.37302700  1
  O  O16  1  0.60935600  0.95488400  0.80957500  1
  O  O17  1  0.84890200  0.85032100  0.58574500  1
  O  O18  1  0.95488400  0.60935600  0.30957500  1
  O  O19  1  0.85032100  0.84890200  0.08574500  1
  O  O20  1  0.32227000  0.98644000  0.60782100  1
  O  O21  1  0.54182000  0.71502100  0.69402900  1
  O  O22  1  0.71433000  0.48000800  0.76268900  1
  O  O23  1  0.98644000  0.32227000  0.10782100  1
  O  O24  1  0.72439600  0.19002200  0.96501300  1
  O  O25  1  0.81187600  0.27873100  0.53512700  1
  O  O26  1  0.71502100  0.54182000  0.19402900  1
  O  O27  1  0.48000800  0.71433000  0.26268900  1
  O  O28  1  0.52294000  0.28344200  0.73312200  1
  O  O29  1  0.27360100  0.46759000  0.81191700  1
  O  O30  1  0.19002200  0.72439600  0.46501300  1
  O  O31  1  0.27873100  0.81187600  0.03512700  1
  O  O32  1  0.00294100  0.67140900  0.89242400  1
  O  O33  1  0.28344200  0.52294000  0.23312200  1
  O  O34  1  0.46759000  0.27360100  0.31191700  1
  O  O35  1  0.67140900  0.00294100  0.39242400  1
  O  O36  1  0.15110200  0.15984400  0.90096000  1
  O  O37  1  0.03965300  0.39675800  0.68587900  1
  O  O38  1  0.15984400  0.15110200  0.40096000  1
  O  O39  1  0.39675800  0.03965300  0.18587900  1
