# generated using pymatgen
data_Li3V2(O2F)2
_symmetry_space_group_name_H-M   'P 1'
_cell_length_a   5.93706900
_cell_length_b   6.03219996
_cell_length_c   15.07458003
_cell_angle_alpha   80.25103232
_cell_angle_beta   85.17375532
_cell_angle_gamma   60.75174218
_symmetry_Int_Tables_number   1
_chemical_formula_structural   Li3V2(O2F)2
_chemical_formula_sum   'Li12 V8 O16 F8'
_cell_volume   464.24367156
_cell_formula_units_Z   4
loop_
 _symmetry_equiv_pos_site_id
 _symmetry_equiv_pos_as_xyz
  1  'x, y, z'
loop_
 _atom_site_type_symbol
 _atom_site_label
 _atom_site_symmetry_multiplicity
 _atom_site_fract_x
 _atom_site_fract_y
 _atom_site_fract_z
 _atom_site_occupancy
  Li  Li0  1  0.12097200  0.78416500  0.82955900  1
  Li  Li1  1  0.70007300  0.20296400  0.83181900  1
  Li  Li2  1  0.33340500  0.47794100  0.69297300  1
  Li  Li3  1  0.16153100  0.23983500  0.84096600  1
  Li  Li4  1  0.16346600  0.49953800  0.33621100  1
  Li  Li5  1  0.50594600  0.00132200  0.96103100  1
  Li  Li6  1  0.67059900  0.00641800  0.33086400  1
  Li  Li7  1  0.97886400  0.52875300  0.96392600  1
  Li  Li8  1  0.35923200  0.97237800  0.71000800  1
  Li  Li9  1  0.15636200  0.00974400  0.33268700  1
  Li  Li10  1  0.50436300  0.53227600  0.95445700  1
  Li  Li11  1  0.83386400  0.49642000  0.71154500  1
  V  V12  1  0.50008900  0.25097200  0.49733200  1
  V  V13  1  0.99557400  0.75599300  0.50670100  1
  V  V14  1  0.32352900  0.24968500  0.16338200  1
  V  V15  1  0.50492300  0.75048800  0.49059100  1
  V  V16  1  0.83386200  0.74455000  0.16978100  1
  V  V17  1  0.99293100  0.25613100  0.50331900  1
  V  V18  1  0.33467700  0.74618000  0.16839600  1
  V  V19  1  0.82286400  0.25105300  0.16574700  1
  O  O20  1  0.31098200  0.62576800  0.42760100  1
  O  O21  1  0.16635700  0.60471300  0.10344800  1
  O  O22  1  0.16652600  0.39069900  0.56883600  1
  O  O23  1  0.49410600  0.36528000  0.23992600  1
  O  O24  1  0.84580600  0.10406000  0.42846200  1
  O  O25  1  0.68007500  0.87511000  0.56448500  1
  O  O26  1  0.66984000  0.12111100  0.10249500  1
  O  O27  1  0.99798400  0.89204700  0.24388400  1
  O  O28  1  0.31977100  0.13121500  0.42236500  1
  O  O29  1  0.16396600  0.12919200  0.10024400  1
  O  O30  1  0.17478000  0.89553900  0.56305300  1
  O  O31  1  0.49410000  0.89558500  0.23958800  1
  O  O32  1  0.85199000  0.61471100  0.42685300  1
  O  O33  1  0.68521000  0.38089400  0.56336400  1
  O  O34  1  0.66747400  0.60120600  0.10087900  1
  O  O35  1  0.00334900  0.36933200  0.23922500  1
  F  F36  1  0.33082400  0.36430100  0.92301800  1
  F  F37  1  0.48270200  0.15188500  0.75588900  1
  F  F38  1  0.83429100  0.87446800  0.91612500  1
  F  F39  1  0.03167900  0.60260600  0.75586800  1
  F  F40  1  0.32576200  0.87649900  0.91188300  1
  F  F41  1  0.49350700  0.62324300  0.74177100  1
  F  F42  1  0.83318900  0.37073700  0.91118900  1
  F  F43  1  0.01193600  0.13299400  0.75492300  1
