# generated using pymatgen
data_LiCuF3
_symmetry_space_group_name_H-M   'P 1'
_cell_length_a   5.53269373
_cell_length_b   5.53269373
_cell_length_c   5.53269293
_cell_angle_alpha   55.25518222
_cell_angle_beta   55.25518222
_cell_angle_gamma   55.25518491
_symmetry_Int_Tables_number   1
_chemical_formula_structural   LiCuF3
_chemical_formula_sum   'Li2 Cu2 F6'
_cell_volume   106.54860377
_cell_formula_units_Z   2
loop_
 _symmetry_equiv_pos_site_id
 _symmetry_equiv_pos_as_xyz
  1  'x, y, z'
loop_
 _atom_site_type_symbol
 _atom_site_label
 _atom_site_symmetry_multiplicity
 _atom_site_fract_x
 _atom_site_fract_y
 _atom_site_fract_z
 _atom_site_occupancy
  Li  Li0  1  0.80568800  0.80568800  0.80568800  1
  Li  Li1  1  0.30568800  0.30568800  0.30568800  1
  Cu  Cu2  1  0.51055400  0.51055400  0.51055400  1
  Cu  Cu3  1  0.01055400  0.01055400  0.01055400  1
  F  F4  1  0.73226400  0.40666600  0.11429300  1
  F  F5  1  0.61429300  0.90666600  0.23226400  1
  F  F6  1  0.90666600  0.23226400  0.61429300  1
  F  F7  1  0.11429300  0.73226400  0.40666600  1
  F  F8  1  0.40666600  0.11429300  0.73226400  1
  F  F9  1  0.23226400  0.61429300  0.90666600  1
