# generated using pymatgen
data_LiV3OF11
_symmetry_space_group_name_H-M   'P 1'
_cell_length_a   5.25380600
_cell_length_b   5.40275700
_cell_length_c   15.61690669
_cell_angle_alpha   80.18098106
_cell_angle_beta   90.00000000
_cell_angle_gamma   90.00000000
_symmetry_Int_Tables_number   1
_chemical_formula_structural   LiV3OF11
_chemical_formula_sum   'Li2 V6 O2 F22'
_cell_volume   436.79292546
_cell_formula_units_Z   2
loop_
 _symmetry_equiv_pos_site_id
 _symmetry_equiv_pos_as_xyz
  1  'x, y, z'
loop_
 _atom_site_type_symbol
 _atom_site_label
 _atom_site_symmetry_multiplicity
 _atom_site_fract_x
 _atom_site_fract_y
 _atom_site_fract_z
 _atom_site_occupancy
  Li  Li0  1  0.71970900  0.29052000  0.99214300  1
  Li  Li1  1  0.21970900  0.70948000  0.00785700  1
  V  V2  1  0.49168200  0.90205600  0.17390400  1
  V  V3  1  0.00056400  0.74985400  0.50011900  1
  V  V4  1  0.52584900  0.57537900  0.82543600  1
  V  V5  1  0.99168200  0.09794400  0.82609600  1
  V  V6  1  0.02584900  0.42462100  0.17456400  1
  V  V7  1  0.50056400  0.25014600  0.49988100  1
  O  O8  1  0.77832000  0.36107000  0.85476300  1
  O  O9  1  0.27832000  0.63893000  0.14523700  1
  F  F10  1  0.19525900  0.45889400  0.47665000  1
  F  F11  1  0.28519400  0.31306900  0.80473700  1
  F  F12  1  0.69525900  0.54110600  0.52335000  1
  F  F13  1  0.07264300  0.02034900  0.94462700  1
  F  F14  1  0.08609300  0.67556300  0.61100900  1
  F  F15  1  0.42479700  0.86227700  0.28515400  1
  F  F16  1  0.91743300  0.82048700  0.38899800  1
  F  F17  1  0.57483100  0.67314200  0.71158100  1
  F  F18  1  0.57264300  0.97965100  0.05537300  1
  F  F19  1  0.20238700  0.12630900  0.14707000  1
  F  F20  1  0.30604900  0.95953700  0.47674800  1
  F  F21  1  0.21233200  0.80310700  0.81720200  1
  F  F22  1  0.71233200  0.19689300  0.18279800  1
  F  F23  1  0.80604900  0.04046300  0.52325200  1
  F  F24  1  0.43180100  0.51192100  0.95065200  1
  F  F25  1  0.07483100  0.32685800  0.28841900  1
  F  F26  1  0.41743300  0.17951300  0.61100200  1
  F  F27  1  0.92479700  0.13772300  0.71484600  1
  F  F28  1  0.93180100  0.48807900  0.04934800  1
  F  F29  1  0.58609300  0.32443700  0.38899100  1
  F  F30  1  0.70238700  0.87369100  0.85293000  1
  F  F31  1  0.78519400  0.68693100  0.19526300  1
