# generated using pymatgen
data_Li3V3O5F3
_symmetry_space_group_name_H-M   'P 1'
_cell_length_a   5.98889059
_cell_length_b   6.08884021
_cell_length_c   8.42776966
_cell_angle_alpha   88.89836696
_cell_angle_beta   89.30807889
_cell_angle_gamma   91.80119630
_symmetry_Int_Tables_number   1
_chemical_formula_structural   Li3V3O5F3
_chemical_formula_sum   'Li6 V6 O10 F6'
_cell_volume   307.08862597
_cell_formula_units_Z   2
loop_
 _symmetry_equiv_pos_site_id
 _symmetry_equiv_pos_as_xyz
  1  'x, y, z'
loop_
 _atom_site_type_symbol
 _atom_site_label
 _atom_site_symmetry_multiplicity
 _atom_site_fract_x
 _atom_site_fract_y
 _atom_site_fract_z
 _atom_site_occupancy
  Li  Li0  1  0.48811000  0.51936300  0.50521900  1
  Li  Li1  1  0.98782600  0.01974500  0.00539900  1
  Li  Li2  1  0.51152400  0.99136700  0.24286300  1
  Li  Li3  1  0.01105100  0.49179600  0.74287900  1
  Li  Li4  1  0.24626300  0.99641300  0.62653900  1
  Li  Li5  1  0.74665400  0.49658800  0.12650800  1
  V  V6  1  0.26778600  0.47997900  0.12331400  1
  V  V7  1  0.00602100  0.74685400  0.38259000  1
  V  V8  1  0.50510800  0.24703000  0.88277400  1
  V  V9  1  0.76730000  0.98050000  0.62334700  1
  V  V10  1  0.99833900  0.25100400  0.37480500  1
  V  V11  1  0.49836600  0.75090600  0.87455700  1
  O  O12  1  0.98914900  0.76509200  0.61176400  1
  O  O13  1  0.48911100  0.26531500  0.11183300  1
  O  O14  1  0.78416900  0.98683600  0.38263200  1
  O  O15  1  0.28362500  0.48694400  0.88269700  1
  O  O16  1  0.97010900  0.21966000  0.61024300  1
  O  O17  1  0.46989700  0.71979900  0.11047900  1
  O  O18  1  0.51600200  0.79111900  0.63843800  1
  O  O19  1  0.01586400  0.29134700  0.13797200  1
  O  O20  1  0.72306400  0.00561900  0.86324000  1
  O  O21  1  0.22377600  0.50468200  0.36283500  1
  F  F22  1  0.24055700  0.00670200  0.37871600  1
  F  F23  1  0.74006900  0.50700300  0.87901700  1
  F  F24  1  0.25993300  0.99716600  0.87285100  1
  F  F25  1  0.76041400  0.49755800  0.37281600  1
  F  F26  1  0.49997000  0.24178900  0.63680100  1
  F  F27  1  0.99993800  0.74182400  0.13687200  1
