# generated using pymatgen
data_Li2Ti3V3O12
_symmetry_space_group_name_H-M   'P 1'
_cell_length_a   6.79660149
_cell_length_b   9.05497137
_cell_length_c   8.48604737
_cell_angle_alpha   101.75379505
_cell_angle_beta   109.55877902
_cell_angle_gamma   99.44970277
_symmetry_Int_Tables_number   1
_chemical_formula_structural   Li2Ti3V3O12
_chemical_formula_sum   'Li4 Ti6 V6 O24'
_cell_volume   466.26812483
_cell_formula_units_Z   2
loop_
 _symmetry_equiv_pos_site_id
 _symmetry_equiv_pos_as_xyz
  1  'x, y, z'
loop_
 _atom_site_type_symbol
 _atom_site_label
 _atom_site_symmetry_multiplicity
 _atom_site_fract_x
 _atom_site_fract_y
 _atom_site_fract_z
 _atom_site_occupancy
  Li  Li0  1  0.25000300  0.75000300  0.50001000  1
  Li  Li1  1  0.75000000  0.25000300  0.49999500  1
  Li  Li2  1  0.00000100  0.99999600  0.99998900  1
  Li  Li3  1  0.50001400  0.50000300  0.00000800  1
  Ti  Ti4  1  0.50002600  0.50001500  0.50001600  1
  Ti  Ti5  1  0.99999700  0.99999100  0.49999300  1
  Ti  Ti6  1  0.32743600  0.00767300  0.83767200  1
  Ti  Ti7  1  0.82747500  0.50770800  0.83770600  1
  Ti  Ti8  1  0.17248800  0.49225800  0.16231600  1
  Ti  Ti9  1  0.67250500  0.99228800  0.16232100  1
  V  V10  1  0.25000000  0.75004300  0.00001600  1
  V  V11  1  0.91143300  0.74719700  0.66629500  1
  V  V12  1  0.58866900  0.75281100  0.33373100  1
  V  V13  1  0.74999200  0.25000400  0.99996500  1
  V  V14  1  0.41133400  0.24722200  0.66630000  1
  V  V15  1  0.08863000  0.25278000  0.33370600  1
  O  O16  1  0.43385600  0.23364200  0.90667400  1
  O  O17  1  0.93382200  0.73365000  0.90666300  1
  O  O18  1  0.06618200  0.26633800  0.09331300  1
  O  O19  1  0.56614600  0.76635800  0.09335500  1
  O  O20  1  0.02235800  0.98945200  0.74357000  1
  O  O21  1  0.52235400  0.48946400  0.74356900  1
  O  O22  1  0.47763000  0.51056500  0.25642400  1
  O  O23  1  0.97764700  0.01053600  0.25642000  1
  O  O24  1  0.30701100  0.00287900  0.60023100  1
  O  O25  1  0.80700900  0.50286300  0.60023400  1
  O  O26  1  0.19298600  0.49713100  0.39975800  1
  O  O27  1  0.69298600  0.99713800  0.39976000  1
  O  O28  1  0.65682100  0.01792400  0.93561500  1
  O  O29  1  0.15679400  0.51794500  0.93563800  1
  O  O30  1  0.84321100  0.48203800  0.06435600  1
  O  O31  1  0.34320200  0.98205800  0.06437700  1
  O  O32  1  0.91235000  0.77187400  0.43808600  1
  O  O33  1  0.41234800  0.27187300  0.43809300  1
  O  O34  1  0.58765600  0.72813200  0.56190100  1
  O  O35  1  0.08764100  0.22813300  0.56189700  1
  O  O36  1  0.23715800  0.76786400  0.77495300  1
  O  O37  1  0.73712000  0.26784200  0.77490100  1
  O  O38  1  0.26281900  0.73216600  0.22510900  1
  O  O39  1  0.76288900  0.23214100  0.22506400  1
