# generated using pymatgen
data_LiNi4(PO4)3
_symmetry_space_group_name_H-M   'P 1'
_cell_length_a   8.04889283
_cell_length_b   8.04889283
_cell_length_c   9.92531200
_cell_angle_alpha   90.00000000
_cell_angle_beta   90.00000000
_cell_angle_gamma   133.29057626
_symmetry_Int_Tables_number   1
_chemical_formula_structural   LiNi4(PO4)3
_chemical_formula_sum   'Li2 Ni8 P6 O24'
_cell_volume   468.03631799
_cell_formula_units_Z   2
loop_
 _symmetry_equiv_pos_site_id
 _symmetry_equiv_pos_as_xyz
  1  'x, y, z'
loop_
 _atom_site_type_symbol
 _atom_site_label
 _atom_site_symmetry_multiplicity
 _atom_site_fract_x
 _atom_site_fract_y
 _atom_site_fract_z
 _atom_site_occupancy
  Li  Li0  1  0.02207600  0.97792400  0.25393900  1
  Li  Li1  1  0.97792400  0.02207600  0.75393900  1
  Ni  Ni2  1  0.62586800  0.37413200  0.43988000  1
  Ni  Ni3  1  0.05366000  0.45265300  0.25037200  1
  Ni  Ni4  1  0.54734700  0.94634000  0.25037200  1
  Ni  Ni5  1  0.63197200  0.36802800  0.06199700  1
  Ni  Ni6  1  0.37413200  0.62586800  0.93988000  1
  Ni  Ni7  1  0.45265300  0.05366000  0.75037200  1
  Ni  Ni8  1  0.94634000  0.54734700  0.75037200  1
  Ni  Ni9  1  0.36802800  0.63197200  0.56199700  1
  P  P10  1  0.18485400  0.81514600  0.46336500  1
  P  P11  1  0.47882500  0.52117500  0.20465100  1
  P  P12  1  0.18488400  0.81511600  0.03475900  1
  P  P13  1  0.81514600  0.18485400  0.96336500  1
  P  P14  1  0.52117500  0.47882500  0.70465100  1
  P  P15  1  0.81511600  0.18488400  0.53475900  1
  O  O16  1  0.32433100  0.06013300  0.42341900  1
  O  O17  1  0.93986700  0.67566900  0.42341900  1
  O  O18  1  0.28081500  0.71918500  0.38709700  1
  O  O19  1  0.78523600  0.21476400  0.38089300  1
  O  O20  1  0.22721000  0.36221100  0.25330100  1
  O  O21  1  0.63778900  0.77279000  0.25330100  1
  O  O22  1  0.57838900  0.42161100  0.25243600  1
  O  O23  1  0.78421700  0.21578300  0.11725500  1
  O  O24  1  0.28025900  0.71974100  0.11245600  1
  O  O25  1  0.32436700  0.06063000  0.07417400  1
  O  O26  1  0.93937000  0.67563300  0.07417400  1
  O  O27  1  0.48833500  0.51166500  0.04851300  1
  O  O28  1  0.06013300  0.32433100  0.92341900  1
  O  O29  1  0.67566900  0.93986700  0.92341900  1
  O  O30  1  0.71918500  0.28081500  0.88709700  1
  O  O31  1  0.21476400  0.78523600  0.88089300  1
  O  O32  1  0.42161100  0.57838900  0.75243600  1
  O  O33  1  0.77279000  0.63778900  0.75330100  1
  O  O34  1  0.36221100  0.22721000  0.75330100  1
  O  O35  1  0.21578300  0.78421700  0.61725500  1
  O  O36  1  0.71974100  0.28025900  0.61245600  1
  O  O37  1  0.67563300  0.93937000  0.57417400  1
  O  O38  1  0.06063000  0.32436700  0.57417400  1
  O  O39  1  0.51166500  0.48833400  0.54851300  1
