# generated using pymatgen
data_Li3Fe2(SiO4)2
_symmetry_space_group_name_H-M   'P 1'
_cell_length_a   5.17006899
_cell_length_b   6.61499570
_cell_length_c   10.56600161
_cell_angle_alpha   89.92055779
_cell_angle_beta   89.44611971
_cell_angle_gamma   90.22513145
_symmetry_Int_Tables_number   1
_chemical_formula_structural   Li3Fe2(SiO4)2
_chemical_formula_sum   'Li6 Fe4 Si4 O16'
_cell_volume   361.33704675
_cell_formula_units_Z   2
loop_
 _symmetry_equiv_pos_site_id
 _symmetry_equiv_pos_as_xyz
  1  'x, y, z'
loop_
 _atom_site_type_symbol
 _atom_site_label
 _atom_site_symmetry_multiplicity
 _atom_site_fract_x
 _atom_site_fract_y
 _atom_site_fract_z
 _atom_site_occupancy
  Li  Li0  1  0.63543300  0.24720900  0.91198800  1
  Li  Li1  1  0.23488000  0.99712400  0.83935600  1
  Li  Li2  1  0.75614400  0.49718100  0.65988100  1
  Li  Li3  1  0.64106900  0.25473300  0.42133300  1
  Li  Li4  1  0.23433400  0.50185100  0.34533200  1
  Li  Li5  1  0.75784300  0.99966100  0.15714400  1
  Fe  Fe6  1  0.23449500  0.51975700  0.82105800  1
  Fe  Fe7  1  0.74643300  0.99043500  0.66794300  1
  Fe  Fe8  1  0.24612200  0.99088900  0.33220100  1
  Fe  Fe9  1  0.75563000  0.51368000  0.16346700  1
  Si  Si10  1  0.74837400  0.74901000  0.91117300  1
  Si  Si11  1  0.25417500  0.24068900  0.59227300  1
  Si  Si12  1  0.74548900  0.74838500  0.41305800  1
  Si  Si13  1  0.25229600  0.25892500  0.09146500  1
  O  O14  1  0.20550400  0.25678600  0.94036600  1
  O  O15  1  0.05915100  0.75774700  0.88683000  1
  O  O16  1  0.61955800  0.95713900  0.85331700  1
  O  O17  1  0.63580300  0.53704400  0.84798400  1
  O  O18  1  0.13194800  0.04478200  0.66153400  1
  O  O19  1  0.13140700  0.44892400  0.64701400  1
  O  O20  1  0.57526200  0.24465000  0.60204900  1
  O  O21  1  0.68752300  0.73827300  0.56134900  1
  O  O22  1  0.20746700  0.23141000  0.43223900  1
  O  O23  1  0.05639700  0.75807300  0.37444400  1
  O  O24  1  0.63253500  0.54221900  0.33815800  1
  O  O25  1  0.61758500  0.95413300  0.34269500  1
  O  O26  1  0.11307200  0.44927800  0.16738400  1
  O  O27  1  0.14341500  0.05453100  0.16550500  1
  O  O28  1  0.57440400  0.27082000  0.11366900  1
  O  O29  1  0.68945900  0.74472100  0.06777100  1
