# generated using pymatgen
data_Li8Fe2O9
_symmetry_space_group_name_H-M   'P 1'
_cell_length_a   5.74139300
_cell_length_b   8.63304643
_cell_length_c   14.82838196
_cell_angle_alpha   87.12611120
_cell_angle_beta   100.86184375
_cell_angle_gamma   109.09543260
_symmetry_Int_Tables_number   1
_chemical_formula_structural   Li8Fe2O9
_chemical_formula_sum   'Li32 Fe8 O36'
_cell_volume   682.04158503
_cell_formula_units_Z   4
loop_
 _symmetry_equiv_pos_site_id
 _symmetry_equiv_pos_as_xyz
  1  'x, y, z'
loop_
 _atom_site_type_symbol
 _atom_site_label
 _atom_site_symmetry_multiplicity
 _atom_site_fract_x
 _atom_site_fract_y
 _atom_site_fract_z
 _atom_site_occupancy
  Li  Li0  1  0.89385700  0.12205400  0.96344300  1
  Li  Li1  1  0.16943700  0.62461500  0.95055500  1
  Li  Li2  1  0.66902100  0.62741600  0.95320800  1
  Li  Li3  1  0.43899800  0.12549100  0.95869300  1
  Li  Li4  1  0.25854000  0.40740900  0.84826300  1
  Li  Li5  1  0.97759900  0.85120100  0.84832000  1
  Li  Li6  1  0.59540400  0.62796700  0.76006000  1
  Li  Li7  1  0.05353400  0.62727000  0.75864100  1
  Li  Li8  1  0.78918400  0.12124300  0.74055700  1
  Li  Li9  1  0.32998000  0.12066200  0.74036700  1
  Li  Li10  1  0.12458200  0.34231400  0.65515000  1
  Li  Li11  1  0.40225600  0.89774800  0.64901600  1
  Li  Li12  1  0.48553700  0.62855600  0.54237000  1
  Li  Li13  1  0.71799600  0.12492100  0.54821800  1
  Li  Li14  1  0.93291100  0.62384000  0.53465900  1
  Li  Li15  1  0.79014900  0.87801800  0.45164300  1
  Li  Li16  1  0.20985100  0.12198200  0.54835700  1
  Li  Li17  1  0.06708900  0.37616000  0.46534100  1
  Li  Li18  1  0.28200400  0.87507900  0.45178200  1
  Li  Li19  1  0.51446300  0.37144400  0.45763000  1
  Li  Li20  1  0.59774400  0.10225200  0.35098400  1
  Li  Li21  1  0.87541800  0.65768600  0.34485000  1
  Li  Li22  1  0.67002000  0.87933800  0.25963300  1
  Li  Li23  1  0.21081600  0.87875700  0.25944300  1
  Li  Li24  1  0.94646600  0.37273000  0.24135900  1
  Li  Li25  1  0.40459600  0.37203300  0.23994000  1
  Li  Li26  1  0.02240100  0.14879900  0.15168000  1
  Li  Li27  1  0.74146000  0.59259100  0.15173700  1
  Li  Li28  1  0.56100200  0.87450900  0.04130700  1
  Li  Li29  1  0.33097900  0.37258400  0.04679200  1
  Li  Li30  1  0.83056300  0.37538500  0.04944500  1
  Li  Li31  1  0.10614300  0.87794600  0.03655700  1
  Fe  Fe32  1  0.49280500  0.87752600  0.84848200  1
  Fe  Fe33  1  0.74302000  0.37103100  0.85417400  1
  Fe  Fe34  1  0.89168900  0.87144700  0.64924300  1
  Fe  Fe35  1  0.64122400  0.37804000  0.64720100  1
  Fe  Fe36  1  0.35877600  0.62196000  0.35279900  1
  Fe  Fe37  1  0.10831100  0.12855300  0.35075700  1
  Fe  Fe38  1  0.25698000  0.62896900  0.14582600  1
  Fe  Fe39  1  0.50719500  0.12247400  0.15151800  1
  O  O40  1  0.77525000  0.88276100  0.94073500  1
  O  O41  1  0.29557700  0.88377700  0.93396700  1
  O  O42  1  0.01802000  0.35878600  0.93645200  1
  O  O43  1  0.54173400  0.36643800  0.93819700  1
  O  O44  1  0.37818600  0.65016200  0.84457800  1
  O  O45  1  0.85846200  0.59648100  0.85791800  1
  O  O46  1  0.61029900  0.12132200  0.84621000  1
  O  O47  1  0.69252700  0.87545700  0.75072800  1
  O  O48  1  0.19223100  0.87380900  0.74798500  1
  O  O49  1  0.91848100  0.37404900  0.74901000  1
  O  O50  1  0.46722500  0.37471800  0.75131700  1
  O  O51  1  0.00707300  0.09857800  0.65498900  1
  O  O52  1  0.77044800  0.62860200  0.65362300  1
  O  O53  1  0.52647300  0.15241200  0.64190900  1
  O  O54  1  0.60940400  0.86940500  0.56229400  1
  O  O55  1  0.36108200  0.38950400  0.56742400  1
  O  O56  1  0.07836000  0.86335000  0.55996900  1
  O  O57  1  0.83749100  0.38505500  0.55983900  1
  O  O58  1  0.16250900  0.61494500  0.44016100  1
  O  O59  1  0.92164000  0.13665000  0.44003100  1
  O  O60  1  0.63891800  0.61049600  0.43257600  1
  O  O61  1  0.39059600  0.13059500  0.43770600  1
  O  O62  1  0.47352700  0.84758800  0.35809100  1
  O  O63  1  0.22955200  0.37139800  0.34637700  1
  O  O64  1  0.99292700  0.90142200  0.34501100  1
  O  O65  1  0.53277500  0.62528200  0.24868300  1
  O  O66  1  0.08151900  0.62595100  0.25099000  1
  O  O67  1  0.80776900  0.12619100  0.25201500  1
  O  O68  1  0.30747300  0.12454300  0.24927200  1
  O  O69  1  0.38970100  0.87867800  0.15379000  1
  O  O70  1  0.14153800  0.40351900  0.14208200  1
  O  O71  1  0.62181400  0.34983800  0.15542200  1
  O  O72  1  0.45826600  0.63356200  0.06180300  1
  O  O73  1  0.98198000  0.64121400  0.06354800  1
  O  O74  1  0.70442300  0.11622300  0.06603300  1
  O  O75  1  0.22475000  0.11723900  0.05926500  1
