# generated using pymatgen
data_Li2V3SnO8
_symmetry_space_group_name_H-M   'P 1'
_cell_length_a   8.56557807
_cell_length_b   8.65861126
_cell_length_c   8.60018388
_cell_angle_alpha   89.99963335
_cell_angle_beta   89.99841475
_cell_angle_gamma   90.00762658
_symmetry_Int_Tables_number   1
_chemical_formula_structural   Li2V3SnO8
_chemical_formula_sum   'Li8 V12 Sn4 O32'
_cell_volume   637.84132397
_cell_formula_units_Z   4
loop_
 _symmetry_equiv_pos_site_id
 _symmetry_equiv_pos_as_xyz
  1  'x, y, z'
loop_
 _atom_site_type_symbol
 _atom_site_label
 _atom_site_symmetry_multiplicity
 _atom_site_fract_x
 _atom_site_fract_y
 _atom_site_fract_z
 _atom_site_occupancy
  Li  Li0  1  0.00486701  0.00464575  0.00300773  1
  Li  Li1  1  0.24576681  0.24488399  0.24514514  1
  Li  Li2  1  0.25412796  0.75521087  0.74521817  1
  Li  Li3  1  0.49510018  0.99532121  0.50294843  1
  Li  Li4  1  0.50491611  0.49532375  0.99708630  1
  Li  Li5  1  0.74582996  0.25520402  0.75484209  1
  Li  Li6  1  0.75417395  0.74492636  0.25479478  1
  Li  Li7  1  0.99508369  0.50459998  0.49701256  1
  V  V8  1  0.11640373  0.13259505  0.62383930  1
  V  V9  1  0.12321336  0.38261206  0.86665185  1
  V  V10  1  0.13576332  0.62555670  0.11886791  1
  V  V11  1  0.36433081  0.37461405  0.61892244  1
  V  V12  1  0.37688442  0.61754558  0.36663136  1
  V  V13  1  0.38346958  0.86756414  0.12390607  1
  V  V14  1  0.61643256  0.36746875  0.37613426  1
  V  V15  1  0.62316505  0.11732389  0.13341214  1
  V  V16  1  0.63577872  0.87457750  0.88112557  1
  V  V17  1  0.86428843  0.12544835  0.38106794  1
  V  V18  1  0.87685995  0.88245801  0.63336076  1
  V  V19  1  0.88368758  0.63243843  0.87626331  1
  Sn  Sn20  1  0.12500451  0.87423476  0.37630463  1
  Sn  Sn21  1  0.37497702  0.12569347  0.87629911  1
  Sn  Sn22  1  0.62491560  0.62563623  0.62359043  1
  Sn  Sn23  1  0.87498700  0.37434144  0.12364643  1
  O  O24  1  0.10696054  0.11868951  0.39198609  1
  O  O25  1  0.11901898  0.89916006  0.61880391  1
  O  O26  1  0.10560915  0.62022540  0.87961564  1
  O  O27  1  0.12927214  0.14722428  0.85930906  1
  O  O28  1  0.11811878  0.38498211  0.10307917  1
  O  O29  1  0.13072676  0.36343036  0.62986430  1
  O  O30  1  0.13239913  0.63341115  0.35228332  1
  O  O31  1  0.15483978  0.86834721  0.13072934  1
  O  O32  1  0.34495889  0.13184417  0.63070304  1
  O  O33  1  0.36766623  0.36647330  0.85228879  1
  O  O34  1  0.36948022  0.63673486  0.12988188  1
  O  O35  1  0.38191384  0.61516350  0.60313914  1
  O  O36  1  0.37082971  0.85294242  0.35924228  1
  O  O37  1  0.39433110  0.37987389  0.37952314  1
  O  O38  1  0.38077826  0.10065437  0.11896132  1
  O  O39  1  0.39292556  0.88126511  0.89194607  1
  O  O40  1  0.60705896  0.38129638  0.60803469  1
  O  O41  1  0.61905705  0.60078327  0.38120574  1
  O  O42  1  0.60578989  0.87965177  0.12032088  1
  O  O43  1  0.62918708  0.35268069  0.14071465  1
  O  O44  1  0.61812679  0.11514345  0.89695028  1
  O  O45  1  0.63064473  0.13656744  0.37009418  1
  O  O46  1  0.63237042  0.86654408  0.64776676  1
  O  O47  1  0.65498166  0.63174689  0.86934139  1
  O  O48  1  0.84499140  0.36822470  0.36926803  1
  O  O49  1  0.86766340  0.13346885  0.14771243  1
  O  O50  1  0.86939446  0.86339847  0.87009381  1
  O  O51  1  0.88179951  0.88491034  0.39691319  1
  O  O52  1  0.87082863  0.64708654  0.64067951  1
  O  O53  1  0.89436813  0.12002247  0.62047998  1
  O  O54  1  0.88087885  0.39925214  0.88109208  1
  O  O55  1  0.89300365  0.61871649  0.10803719  1
