# generated using pymatgen
data_Li4AlCr3O8
_symmetry_space_group_name_H-M   'P 1'
_cell_length_a   5.84875000
_cell_length_b   5.91914410
_cell_length_c   10.16219568
_cell_angle_alpha   73.40876564
_cell_angle_beta   89.99987354
_cell_angle_gamma   119.60744791
_symmetry_Int_Tables_number   1
_chemical_formula_structural   Li4AlCr3O8
_chemical_formula_sum   'Li8 Al2 Cr6 O16'
_cell_volume   288.90846894
_cell_formula_units_Z   2
loop_
 _symmetry_equiv_pos_site_id
 _symmetry_equiv_pos_as_xyz
  1  'x, y, z'
loop_
 _atom_site_type_symbol
 _atom_site_label
 _atom_site_symmetry_multiplicity
 _atom_site_fract_x
 _atom_site_fract_y
 _atom_site_fract_z
 _atom_site_occupancy
  Li  Li0  1  0.49981600  0.99995300  0.00001100  1
  Li  Li1  1  0.99986300  0.00005000  0.49999000  1
  Li  Li2  1  0.49984600  0.00001200  0.49999000  1
  Li  Li3  1  0.99983500  0.99999100  0.00000800  1
  Li  Li4  1  0.24997800  0.99961500  0.25017600  1
  Li  Li5  1  0.74998000  0.99963700  0.75017600  1
  Li  Li6  1  0.75036100  0.00038600  0.24982400  1
  Li  Li7  1  0.25034400  0.00036700  0.74982400  1
  Al  Al8  1  0.25118400  0.49999800  0.75000100  1
  Al  Al9  1  0.75122800  0.49999900  0.25000200  1
  Cr  Cr10  1  0.99871600  0.50035200  0.50089400  1
  Cr  Cr11  1  0.25137300  0.49999200  0.24999700  1
  Cr  Cr12  1  0.99834300  0.49963900  0.99911400  1
  Cr  Cr13  1  0.49857800  0.50025800  0.00098900  1
  Cr  Cr14  1  0.75166200  0.49998500  0.74999400  1
  Cr  Cr15  1  0.49830300  0.49974500  0.49900300  1
  O  O16  1  0.86237900  0.72845700  0.87838800  1
  O  O17  1  0.36236800  0.72840400  0.37843700  1
  O  O18  1  0.13396800  0.27159500  0.12156500  1
  O  O19  1  0.63391800  0.27154600  0.62161500  1
  O  O20  1  0.38293600  0.28080500  0.86764000  1
  O  O21  1  0.88300500  0.28086200  0.36765800  1
  O  O22  1  0.63887600  0.27869200  0.12622400  1
  O  O23  1  0.13888300  0.27875200  0.62623000  1
  O  O24  1  0.89890700  0.27806000  0.86695300  1
  O  O25  1  0.39899900  0.27809600  0.36698300  1
  O  O26  1  0.10214800  0.71914200  0.13234300  1
  O  O27  1  0.60213200  0.71919700  0.63236100  1
  O  O28  1  0.36014000  0.72124900  0.87377200  1
  O  O29  1  0.86018000  0.72131200  0.37377600  1
  O  O30  1  0.62090400  0.72190100  0.13301600  1
  O  O31  1  0.12085000  0.72194700  0.63304900  1
