# generated using pymatgen
data_LiMn3Al2(HO2)6
_symmetry_space_group_name_H-M   'P 1'
_cell_length_a   5.15911142
_cell_length_b   5.15911142
_cell_length_c   19.14171039
_cell_angle_alpha   87.33181192
_cell_angle_beta   87.33181192
_cell_angle_gamma   120.70495238
_symmetry_Int_Tables_number   1
_chemical_formula_structural   LiMn3Al2(HO2)6
_chemical_formula_sum   'Li2 Mn6 Al4 H12 O24'
_cell_volume   436.11438212
_cell_formula_units_Z   2
loop_
 _symmetry_equiv_pos_site_id
 _symmetry_equiv_pos_as_xyz
  1  'x, y, z'
loop_
 _atom_site_type_symbol
 _atom_site_label
 _atom_site_symmetry_multiplicity
 _atom_site_fract_x
 _atom_site_fract_y
 _atom_site_fract_z
 _atom_site_occupancy
  Li  Li0  1  0.08351100  0.25031800  0.75003800  1
  Li  Li1  1  0.25031800  0.08351100  0.25003800  1
  Mn  Mn2  1  0.16602900  0.66328900  0.50002600  1
  Mn  Mn3  1  0.33318200  0.49989600  0.00003500  1
  Mn  Mn4  1  0.49989600  0.33318200  0.50003500  1
  Mn  Mn5  1  0.66328900  0.16602900  0.00002600  1
  Mn  Mn6  1  0.83394500  0.00321300  0.50001800  1
  Mn  Mn7  1  0.00321300  0.83394500  0.00001800  1
  Al  Al8  1  0.41716000  0.91677600  0.74997100  1
  Al  Al9  1  0.58306200  0.74917000  0.24997200  1
  Al  Al10  1  0.91677600  0.41716000  0.24997100  1
  Al  Al11  1  0.74917000  0.58306200  0.74997200  1
  H  H12  1  0.20925800  0.39764200  0.35330500  1
  H  H13  1  0.04615900  0.56451500  0.85324800  1
  H  H14  1  0.11872200  0.93672700  0.64681200  1
  H  H15  1  0.28523800  0.77587200  0.14677500  1
  H  H16  1  0.56451500  0.04615900  0.35324800  1
  H  H17  1  0.39764200  0.20925800  0.85330500  1
  H  H18  1  0.46589900  0.63463700  0.64697600  1
  H  H19  1  0.63463700  0.46589900  0.14697600  1
  H  H20  1  0.86737300  0.70069100  0.35302300  1
  H  H21  1  0.70069100  0.86737300  0.85302300  1
  H  H22  1  0.93672700  0.11872200  0.14681200  1
  H  H23  1  0.77587200  0.28523800  0.64677500  1
  O  O24  1  0.15805500  0.35440600  0.44592500  1
  O  O25  1  0.23096200  0.42773500  0.30155400  1
  O  O26  1  0.06429000  0.59493300  0.80166300  1
  O  O27  1  0.00944100  0.52061300  0.94864500  1
  O  O28  1  0.10196200  0.90472000  0.69825600  1
  O  O29  1  0.14781200  0.98210400  0.54998800  1
  O  O30  1  0.31215700  0.84211100  0.05413200  1
  O  O31  1  0.26904000  0.73728500  0.19824900  1
  O  O32  1  0.59493300  0.06429000  0.30166300  1
  O  O33  1  0.52061300  0.00944100  0.44864500  1
  O  O34  1  0.35440600  0.15805500  0.94592500  1
  O  O35  1  0.42773500  0.23096200  0.80155400  1
  O  O36  1  0.63130800  0.46435300  0.19847600  1
  O  O37  1  0.65708700  0.47944600  0.05140100  1
  O  O38  1  0.46435300  0.63130800  0.69847600  1
  O  O39  1  0.47944600  0.65708700  0.55140100  1
  O  O40  1  0.68421300  0.85201600  0.95005400  1
  O  O41  1  0.86905300  0.70252200  0.30161100  1
  O  O42  1  0.70252200  0.86905300  0.80161100  1
  O  O43  1  0.85201600  0.68421300  0.45005400  1
  O  O44  1  0.73728500  0.26904000  0.69824900  1
  O  O45  1  0.84211100  0.31215700  0.55413200  1
  O  O46  1  0.90472000  0.10196200  0.19825600  1
  O  O47  1  0.98210400  0.14781200  0.04998800  1
