# generated using pymatgen
data_Li10Fe5Co3O16
_symmetry_space_group_name_H-M   'P 1'
_cell_length_a   5.97717200
_cell_length_b   5.98755739
_cell_length_c   9.83369386
_cell_angle_alpha   90.67479455
_cell_angle_beta   90.15198963
_cell_angle_gamma   119.81483161
_symmetry_Int_Tables_number   1
_chemical_formula_structural   Li10Fe5Co3O16
_chemical_formula_sum   'Li10 Fe5 Co3 O16'
_cell_volume   305.31565474
_cell_formula_units_Z   1
loop_
 _symmetry_equiv_pos_site_id
 _symmetry_equiv_pos_as_xyz
  1  'x, y, z'
loop_
 _atom_site_type_symbol
 _atom_site_label
 _atom_site_symmetry_multiplicity
 _atom_site_fract_x
 _atom_site_fract_y
 _atom_site_fract_z
 _atom_site_occupancy
  Li  Li0  1  0.62241800  0.81400300  0.94665600  1
  Li  Li1  1  0.20985700  0.81852200  0.94523200  1
  Li  Li2  1  0.21405100  0.39965300  0.94538900  1
  Li  Li3  1  0.34912500  0.67580200  0.72661500  1
  Li  Li4  1  0.01202000  0.01343900  0.01560400  1
  Li  Li5  1  0.00959300  0.00828900  0.51171800  1
  Li  Li6  1  0.81816300  0.61746900  0.44650200  1
  Li  Li7  1  0.41093500  0.21091500  0.44380400  1
  Li  Li8  1  0.68315000  0.34879800  0.22680200  1
  Li  Li9  1  0.82269500  0.20643300  0.44155500  1
  Fe  Fe10  1  0.35420900  0.69297400  0.46928500  1
  Fe  Fe11  1  0.67800500  0.35234800  0.97187100  1
  Fe  Fe12  1  0.18327900  0.35619600  0.21455000  1
  Fe  Fe13  1  0.84616400  0.18290300  0.71439400  1
  Fe  Fe14  1  0.35189100  0.18201700  0.71280600  1
  Co  Co15  1  0.67425400  0.84667900  0.21161000  1
  Co  Co16  1  0.84571700  0.67407000  0.71310200  1
  Co  Co17  1  0.18140300  0.84760600  0.21327600  1
  O  O18  1  0.67976700  0.85301200  0.58879800  1
  O  O19  1  0.51231000  0.99678300  0.33656200  1
  O  O20  1  0.36134800  0.68397600  0.09893500  1
  O  O21  1  0.50133000  0.51807200  0.33936500  1
  O  O22  1  0.18768400  0.85506900  0.58629400  1
  O  O23  1  0.02064600  0.02384500  0.82556400  1
  O  O24  1  0.99281100  0.01385200  0.31920700  1
  O  O25  1  0.03425700  0.52103600  0.34051100  1
  O  O26  1  0.83466000  0.68287000  0.09006300  1
  O  O27  1  0.18000700  0.34240300  0.59202600  1
  O  O28  1  0.99746300  0.49779200  0.84337400  1
  O  O29  1  0.51875200  0.49973700  0.83791200  1
  O  O30  1  0.67769800  0.33607000  0.59375300  1
  O  O31  1  0.84841000  0.18706200  0.09179500  1
  O  O32  1  0.52248700  0.03075200  0.83727300  1
  O  O33  1  0.34555000  0.18979000  0.08813400  1
