# generated using pymatgen
data_Li4MnSi2O7
_symmetry_space_group_name_H-M   'P 1'
_cell_length_a   6.92124018
_cell_length_b   9.53942987
_cell_length_c   9.18980800
_cell_angle_alpha   89.99935770
_cell_angle_beta   90.00032886
_cell_angle_gamma   78.32509690
_symmetry_Int_Tables_number   1
_chemical_formula_structural   Li4MnSi2O7
_chemical_formula_sum   'Li16 Mn4 Si8 O28'
_cell_volume   594.20137263
_cell_formula_units_Z   4
loop_
 _symmetry_equiv_pos_site_id
 _symmetry_equiv_pos_as_xyz
  1  'x, y, z'
loop_
 _atom_site_type_symbol
 _atom_site_label
 _atom_site_symmetry_multiplicity
 _atom_site_fract_x
 _atom_site_fract_y
 _atom_site_fract_z
 _atom_site_occupancy
  Li  Li0  1  0.44004600  0.85042900  0.49055000  1
  Li  Li1  1  0.44014700  0.35038200  0.24050800  1
  Li  Li2  1  0.44007200  0.85041800  0.99056300  1
  Li  Li3  1  0.44015700  0.35037700  0.74050900  1
  Li  Li4  1  0.55985500  0.64962200  0.24049700  1
  Li  Li5  1  0.55993700  0.14958100  0.99056200  1
  Li  Li6  1  0.55985500  0.64962600  0.74050300  1
  Li  Li7  1  0.55994800  0.14957600  0.49055000  1
  Li  Li8  1  0.14887600  0.78807000  0.24761000  1
  Li  Li9  1  0.14890300  0.28808100  0.99749900  1
  Li  Li10  1  0.14885700  0.78805200  0.74760300  1
  Li  Li11  1  0.14889000  0.28807600  0.49749000  1
  Li  Li12  1  0.85112200  0.71193300  0.49749500  1
  Li  Li13  1  0.85112600  0.21193200  0.24760400  1
  Li  Li14  1  0.85110900  0.71191900  0.99747800  1
  Li  Li15  1  0.85113700  0.21192900  0.74760700  1
  Mn  Mn16  1  0.00004600  0.99999100  0.00099700  1
  Mn  Mn17  1  0.99999800  0.49997500  0.75124100  1
  Mn  Mn18  1  0.99997200  0.50002700  0.25122200  1
  Mn  Mn19  1  0.99996200  0.00000800  0.50101800  1
  Si  Si20  1  0.70887000  0.92372200  0.25488300  1
  Si  Si21  1  0.70894300  0.42388600  0.00506000  1
  Si  Si22  1  0.70885300  0.92373400  0.75489200  1
  Si  Si23  1  0.70894900  0.42389500  0.50505000  1
  Si  Si24  1  0.29105800  0.57610200  0.50506600  1
  Si  Si25  1  0.29112900  0.07628300  0.25488200  1
  Si  Si26  1  0.29105900  0.57610500  0.00506800  1
  Si  Si27  1  0.29115000  0.07626700  0.75489200  1
  O  O28  1  0.50000000  0.50000100  0.40872400  1
  O  O29  1  0.49997600  0.00000800  0.15873200  1
  O  O30  1  0.50000400  0.49999200  0.90872200  1
  O  O31  1  0.49999900  0.00000100  0.65868200  1
  O  O32  1  0.23237300  0.94766600  0.35485200  1
  O  O33  1  0.23163600  0.44746900  0.10478600  1
  O  O34  1  0.23256300  0.94757300  0.85492600  1
  O  O35  1  0.23166800  0.44747800  0.60476300  1
  O  O36  1  0.76836200  0.55251700  0.60467700  1
  O  O37  1  0.76756200  0.05235400  0.35486300  1
  O  O38  1  0.76833700  0.55253000  0.10469700  1
  O  O39  1  0.76744500  0.05242500  0.85493100  1
  O  O40  1  0.88656700  0.86320100  0.13809900  1
  O  O41  1  0.88616500  0.36347400  0.88813000  1
  O  O42  1  0.88656000  0.86321600  0.63811300  1
  O  O43  1  0.88613200  0.36350400  0.38812100  1
  O  O44  1  0.11387400  0.63648900  0.38813100  1
  O  O45  1  0.11341900  0.13680800  0.13808400  1
  O  O46  1  0.11386600  0.63650000  0.88812500  1
  O  O47  1  0.11344200  0.13678900  0.63811400  1
  O  O48  1  0.65739300  0.79403200  0.35231800  1
  O  O49  1  0.65836000  0.29387500  0.10239400  1
  O  O50  1  0.65740500  0.79402600  0.85231200  1
  O  O51  1  0.65837200  0.29387800  0.60238900  1
  O  O52  1  0.34164000  0.70612500  0.60238500  1
  O  O53  1  0.34261000  0.20596600  0.35232100  1
  O  O54  1  0.34164400  0.70613200  0.10239000  1
  O  O55  1  0.34259800  0.20597400  0.85231600  1
