# generated using pymatgen
data_Li2Cu2F5
_symmetry_space_group_name_H-M   'P 1'
_cell_length_a   2.92750100
_cell_length_b   7.74674000
_cell_length_c   17.83559300
_cell_angle_alpha   90.00000000
_cell_angle_beta   90.00000000
_cell_angle_gamma   90.00000000
_symmetry_Int_Tables_number   1
_chemical_formula_structural   Li2Cu2F5
_chemical_formula_sum   'Li8 Cu8 F20'
_cell_volume   404.48608494
_cell_formula_units_Z   4
loop_
 _symmetry_equiv_pos_site_id
 _symmetry_equiv_pos_as_xyz
  1  'x, y, z'
loop_
 _atom_site_type_symbol
 _atom_site_label
 _atom_site_symmetry_multiplicity
 _atom_site_fract_x
 _atom_site_fract_y
 _atom_site_fract_z
 _atom_site_occupancy
  Li  Li0  1  0.75000000  0.14702900  0.02585100  1
  Li  Li1  1  0.75000000  0.86251900  0.12695600  1
  Li  Li2  1  0.25000000  0.36251900  0.37304400  1
  Li  Li3  1  0.25000000  0.64702900  0.47414900  1
  Li  Li4  1  0.75000000  0.35297100  0.52585100  1
  Li  Li5  1  0.75000000  0.63748100  0.62695600  1
  Li  Li6  1  0.25000000  0.13748100  0.87304400  1
  Li  Li7  1  0.25000000  0.85297100  0.97414900  1
  Cu  Cu8  1  0.25000000  0.50553000  0.08606700  1
  Cu  Cu9  1  0.25000000  0.17624100  0.19786500  1
  Cu  Cu10  1  0.75000000  0.67624100  0.30213500  1
  Cu  Cu11  1  0.75000000  0.00553000  0.41393300  1
  Cu  Cu12  1  0.25000000  0.99447000  0.58606700  1
  Cu  Cu13  1  0.25000000  0.32375900  0.69786500  1
  Cu  Cu14  1  0.75000000  0.82375900  0.80213500  1
  Cu  Cu15  1  0.75000000  0.49447000  0.91393300  1
  F  F16  1  0.25000000  0.32380400  0.01380100  1
  F  F17  1  0.25000000  0.99297800  0.06775100  1
  F  F18  1  0.25000000  0.70185600  0.14601500  1
  F  F19  1  0.75000000  0.32580700  0.15822600  1
  F  F20  1  0.75000000  0.01219100  0.21494200  1
  F  F21  1  0.25000000  0.51219100  0.28505800  1
  F  F22  1  0.25000000  0.82580700  0.34177400  1
  F  F23  1  0.75000000  0.20185600  0.35398500  1
  F  F24  1  0.75000000  0.49297800  0.43224900  1
  F  F25  1  0.75000000  0.82380400  0.48619900  1
  F  F26  1  0.25000000  0.17619600  0.51380100  1
  F  F27  1  0.25000000  0.50702200  0.56775100  1
  F  F28  1  0.25000000  0.79814400  0.64601500  1
  F  F29  1  0.75000000  0.17419300  0.65822600  1
  F  F30  1  0.75000000  0.48780900  0.71494200  1
  F  F31  1  0.25000000  0.98780900  0.78505800  1
  F  F32  1  0.25000000  0.67419300  0.84177400  1
  F  F33  1  0.75000000  0.29814400  0.85398500  1
  F  F34  1  0.75000000  0.00702200  0.93224900  1
  F  F35  1  0.75000000  0.67619600  0.98619900  1
