# generated using pymatgen
data_Li2VP2O7
_symmetry_space_group_name_H-M   'P 1'
_cell_length_a   9.90817500
_cell_length_b   9.95568300
_cell_length_c   11.29537003
_cell_angle_alpha   76.94227721
_cell_angle_beta   90.00000000
_cell_angle_gamma   90.00000000
_symmetry_Int_Tables_number   1
_chemical_formula_structural   Li2VP2O7
_chemical_formula_sum   'Li16 V8 P16 O56'
_cell_volume   1085.39515745
_cell_formula_units_Z   8
loop_
 _symmetry_equiv_pos_site_id
 _symmetry_equiv_pos_as_xyz
  1  'x, y, z'
loop_
 _atom_site_type_symbol
 _atom_site_label
 _atom_site_symmetry_multiplicity
 _atom_site_fract_x
 _atom_site_fract_y
 _atom_site_fract_z
 _atom_site_occupancy
  Li  Li0  1  0.72101700  0.11212200  0.55102400  1
  Li  Li1  1  0.42146300  0.16921800  0.45450000  1
  Li  Li2  1  0.10708800  0.08550800  0.97091100  1
  Li  Li3  1  0.91061200  0.34520600  0.04304700  1
  Li  Li4  1  0.41061200  0.15479400  0.95695300  1
  Li  Li5  1  0.60708800  0.41449200  0.02908900  1
  Li  Li6  1  0.92146300  0.33078200  0.54550000  1
  Li  Li7  1  0.22101700  0.38787800  0.44897600  1
  Li  Li8  1  0.77898300  0.61212200  0.55102400  1
  Li  Li9  1  0.07853700  0.66921800  0.45450000  1
  Li  Li10  1  0.39291200  0.58550800  0.97091100  1
  Li  Li11  1  0.58938800  0.84520600  0.04304700  1
  Li  Li12  1  0.08938800  0.65479400  0.95695300  1
  Li  Li13  1  0.89291200  0.91449200  0.02908900  1
  Li  Li14  1  0.57853700  0.83078200  0.54550000  1
  Li  Li15  1  0.27898300  0.88787800  0.44897600  1
  V  V16  1  0.92831900  0.20275000  0.32691500  1
  V  V17  1  0.21828200  0.26378800  0.17314900  1
  V  V18  1  0.71828200  0.23621200  0.82685100  1
  V  V19  1  0.42831900  0.29725000  0.67308500  1
  V  V20  1  0.57168100  0.70275000  0.32691500  1
  V  V21  1  0.28171800  0.76378800  0.17314900  1
  V  V22  1  0.78171800  0.73621200  0.82685100  1
  V  V23  1  0.07168100  0.79725000  0.67308500  1
  P  P24  1  0.45315200  0.02638100  0.23891200  1
  P  P25  1  0.70357300  0.12057800  0.10978200  1
  P  P26  1  0.93027600  0.05930500  0.75460800  1
  P  P27  1  0.14968800  0.12212600  0.57293100  1
  P  P28  1  0.64968800  0.37787400  0.42706900  1
  P  P29  1  0.43027600  0.44069500  0.24539200  1
  P  P30  1  0.04684800  0.52638100  0.23891200  1
  P  P31  1  0.20357300  0.37942200  0.89021800  1
  P  P32  1  0.79642700  0.62057800  0.10978200  1
  P  P33  1  0.95315200  0.47361900  0.76108800  1
  P  P34  1  0.56972400  0.55930500  0.75460800  1
  P  P35  1  0.35031200  0.62212600  0.57293100  1
  P  P36  1  0.85031200  0.87787400  0.42706900  1
  P  P37  1  0.06972400  0.94069500  0.24539200  1
  P  P38  1  0.29642700  0.87942200  0.89021800  1
  P  P39  1  0.54684800  0.97361900  0.76108800  1
  O  O40  1  0.41413400  0.02211600  0.36972100  1
  O  O41  1  0.83986500  0.02381100  0.44748700  1
  O  O42  1  0.08984800  0.08764800  0.26500700  1
  O  O43  1  0.36483200  0.11822700  0.14182200  1
  O  O44  1  0.60256800  0.09324700  0.22665800  1
  O  O45  1  0.82906000  0.18316900  0.15461700  1
  O  O46  1  0.63100100  0.22611800  0.00612200  1
  O  O47  1  0.27664400  0.01597700  0.92571100  1
  O  O48  1  0.07967000  0.11039600  0.70550100  1
  O  O49  1  0.92735500  0.06915800  0.88690400  1
  O  O50  1  0.53633500  0.11999700  0.78921500  1
  O  O51  1  0.28749800  0.18843200  0.58066500  1
  O  O52  1  0.82965400  0.16520200  0.68064800  1
  O  O53  1  0.06166200  0.22297600  0.48126800  1
  O  O54  1  0.56166200  0.27702400  0.51873200  1
  O  O55  1  0.32965400  0.33479800  0.31935200  1
  O  O56  1  0.78749800  0.31156800  0.41933500  1
  O  O57  1  0.03633500  0.38000300  0.21078500  1
  O  O58  1  0.57967000  0.38960400  0.29449900  1
  O  O59  1  0.42735500  0.43084200  0.11309600  1
  O  O60  1  0.77664400  0.48402300  0.07428900  1
  O  O61  1  0.13100100  0.27388200  0.99387800  1
  O  O62  1  0.32906000  0.31683100  0.84538300  1
  O  O63  1  0.10256800  0.40675300  0.77334200  1
  O  O64  1  0.58984800  0.41235200  0.73499300  1
  O  O65  1  0.86483200  0.38177300  0.85817800  1
  O  O66  1  0.08586600  0.52211600  0.36972100  1
  O  O67  1  0.33986500  0.47618900  0.55251300  1
  O  O68  1  0.66013500  0.52381100  0.44748700  1
  O  O69  1  0.91413400  0.47788400  0.63027900  1
  O  O70  1  0.13516800  0.61822700  0.14182200  1
  O  O71  1  0.41015200  0.58764800  0.26500700  1
  O  O72  1  0.89743200  0.59324700  0.22665800  1
  O  O73  1  0.67094000  0.68316900  0.15461700  1
  O  O74  1  0.86899900  0.72611800  0.00612200  1
  O  O75  1  0.22335600  0.51597700  0.92571100  1
  O  O76  1  0.57264500  0.56915800  0.88690400  1
  O  O77  1  0.42033000  0.61039600  0.70550100  1
  O  O78  1  0.96366500  0.61999700  0.78921500  1
  O  O79  1  0.21250200  0.68843200  0.58066500  1
  O  O80  1  0.67034600  0.66520200  0.68064800  1
  O  O81  1  0.43833800  0.72297600  0.48126800  1
  O  O82  1  0.93833800  0.77702400  0.51873200  1
  O  O83  1  0.17034600  0.83479800  0.31935200  1
  O  O84  1  0.71250200  0.81156800  0.41933500  1
  O  O85  1  0.46366500  0.88000300  0.21078500  1
  O  O86  1  0.07264500  0.93084200  0.11309600  1
  O  O87  1  0.92033000  0.88960400  0.29449900  1
  O  O88  1  0.72335600  0.98402300  0.07428900  1
  O  O89  1  0.36899900  0.77388200  0.99387800  1
  O  O90  1  0.17094000  0.81683100  0.84538300  1
  O  O91  1  0.39743200  0.90675300  0.77334200  1
  O  O92  1  0.63516800  0.88177300  0.85817800  1
  O  O93  1  0.91015200  0.91235200  0.73499300  1
  O  O94  1  0.16013500  0.97618900  0.55251300  1
  O  O95  1  0.58586600  0.97788400  0.63027900  1
