# generated using pymatgen
data_Li3V4P2O8F9
_symmetry_space_group_name_H-M   'P 1'
_cell_length_a   14.59025200
_cell_length_b   7.04601600
_cell_length_c   7.42062104
_cell_angle_alpha   75.50275243
_cell_angle_beta   90.00000000
_cell_angle_gamma   90.00000000
_symmetry_Int_Tables_number   1
_chemical_formula_structural   Li3V4P2O8F9
_chemical_formula_sum   'Li6 V8 P4 O16 F18'
_cell_volume   738.57339256
_cell_formula_units_Z   2
loop_
 _symmetry_equiv_pos_site_id
 _symmetry_equiv_pos_as_xyz
  1  'x, y, z'
loop_
 _atom_site_type_symbol
 _atom_site_label
 _atom_site_symmetry_multiplicity
 _atom_site_fract_x
 _atom_site_fract_y
 _atom_site_fract_z
 _atom_site_occupancy
  Li  Li0  1  0.75000000  0.01951500  0.44037800  1
  Li  Li1  1  0.44927400  0.81602700  0.72683400  1
  Li  Li2  1  0.05072600  0.81602700  0.72683400  1
  Li  Li3  1  0.55072600  0.18397300  0.27316600  1
  Li  Li4  1  0.94927400  0.18397300  0.27316600  1
  Li  Li5  1  0.25000000  0.98048500  0.55962200  1
  V  V6  1  0.75000000  0.96354100  0.06066200  1
  V  V7  1  0.25000000  0.51759700  0.94923500  1
  V  V8  1  0.38056800  0.68586600  0.32421800  1
  V  V9  1  0.11943200  0.68586600  0.32421800  1
  V  V10  1  0.61943200  0.31413400  0.67578200  1
  V  V11  1  0.88056800  0.31413400  0.67578200  1
  V  V12  1  0.75000000  0.48240300  0.05076500  1
  V  V13  1  0.25000000  0.03645900  0.93933800  1
  P  P14  1  0.89995800  0.66383900  0.29782100  1
  P  P15  1  0.60004200  0.66383900  0.29782100  1
  P  P16  1  0.39995800  0.33616100  0.70217900  1
  P  P17  1  0.10004200  0.33616100  0.70217900  1
  O  O18  1  0.84435100  0.86042900  0.25638200  1
  O  O19  1  0.65564900  0.86042900  0.25638200  1
  O  O20  1  0.50398300  0.71213000  0.21164500  1
  O  O21  1  0.99601700  0.71213000  0.21164500  1
  O  O22  1  0.35458700  0.49241900  0.78977500  1
  O  O23  1  0.14541300  0.49241900  0.78977500  1
  O  O24  1  0.90404800  0.57885500  0.51027100  1
  O  O25  1  0.59595200  0.57885500  0.51027100  1
  O  O26  1  0.40404800  0.42114500  0.48972900  1
  O  O27  1  0.09595200  0.42114500  0.48972900  1
  O  O28  1  0.85458700  0.50758100  0.21022500  1
  O  O29  1  0.64541300  0.50758100  0.21022500  1
  O  O30  1  0.49601700  0.28787000  0.78835500  1
  O  O31  1  0.00398300  0.28787000  0.78835500  1
  O  O32  1  0.34435100  0.13957100  0.74361800  1
  O  O33  1  0.15564900  0.13957100  0.74361800  1
  F  F34  1  0.25000000  0.80943800  0.81383700  1
  F  F35  1  0.75000000  0.76073000  0.92079400  1
  F  F36  1  0.41183600  0.86271100  0.48812900  1
  F  F37  1  0.08816400  0.86271100  0.48812900  1
  F  F38  1  0.34568500  0.92349900  0.12051100  1
  F  F39  1  0.15431500  0.92349900  0.12051100  1
  F  F40  1  0.25000000  0.71031500  0.42028600  1
  F  F41  1  0.84151100  0.45552000  0.86297400  1
  F  F42  1  0.65848900  0.45552000  0.86297400  1
  F  F43  1  0.34151100  0.54448000  0.13702600  1
  F  F44  1  0.15848900  0.54448000  0.13702600  1
  F  F45  1  0.75000000  0.28968500  0.57971400  1
  F  F46  1  0.84568500  0.07650100  0.87948900  1
  F  F47  1  0.65431500  0.07650100  0.87948900  1
  F  F48  1  0.91183600  0.13728900  0.51187100  1
  F  F49  1  0.58816400  0.13728900  0.51187100  1
  F  F50  1  0.25000000  0.23927000  0.07920600  1
  F  F51  1  0.75000000  0.19056200  0.18616300  1
