# generated using pymatgen
data_LiNb10O18
_symmetry_space_group_name_H-M   'P 1'
_cell_length_a   9.45812100
_cell_length_b   7.93633500
_cell_length_c   10.42199760
_cell_angle_alpha   69.54929679
_cell_angle_beta   90.00000000
_cell_angle_gamma   90.00000000
_symmetry_Int_Tables_number   1
_chemical_formula_structural   LiNb10O18
_chemical_formula_sum   'Li2 Nb20 O36'
_cell_volume   732.99831363
_cell_formula_units_Z   2
loop_
 _symmetry_equiv_pos_site_id
 _symmetry_equiv_pos_as_xyz
  1  'x, y, z'
loop_
 _atom_site_type_symbol
 _atom_site_label
 _atom_site_symmetry_multiplicity
 _atom_site_fract_x
 _atom_site_fract_y
 _atom_site_fract_z
 _atom_site_occupancy
  Li  Li0  1  0.50000000  0.00000000  0.50000000  1
  Li  Li1  1  0.00000000  0.00000000  0.00000000  1
  Nb  Nb2  1  0.88421200  0.99603700  0.66865300  1
  Nb  Nb3  1  0.62621900  0.80282000  0.98141200  1
  Nb  Nb4  1  0.13010700  0.82040100  0.62305700  1
  Nb  Nb5  1  0.61578800  0.99603700  0.16865300  1
  Nb  Nb6  1  0.12949300  0.60284400  0.93948100  1
  Nb  Nb7  1  0.87378100  0.80282000  0.48141200  1
  Nb  Nb8  1  0.61341400  0.60403400  0.77026800  1
  Nb  Nb9  1  0.36989300  0.82040100  0.12305700  1
  Nb  Nb10  1  0.37050700  0.60284400  0.43948100  1
  Nb  Nb11  1  0.11341400  0.39596600  0.72973200  1
  Nb  Nb12  1  0.88658600  0.60403400  0.27026800  1
  Nb  Nb13  1  0.62949300  0.39715600  0.56051900  1
  Nb  Nb14  1  0.63010700  0.17959900  0.87694300  1
  Nb  Nb15  1  0.38658600  0.39596600  0.22973200  1
  Nb  Nb16  1  0.12621900  0.19718000  0.51858800  1
  Nb  Nb17  1  0.87050700  0.39715600  0.06051900  1
  Nb  Nb18  1  0.38421200  0.00396300  0.83134700  1
  Nb  Nb19  1  0.86989300  0.17959900  0.37694300  1
  Nb  Nb20  1  0.37378100  0.19718000  0.01858800  1
  Nb  Nb21  1  0.11578800  0.00396300  0.33134700  1
  O  O22  1  0.76239500  0.98929900  0.85031600  1
  O  O23  1  0.24695400  0.80466100  0.96113300  1
  O  O24  1  0.01276200  0.80041100  0.80379100  1
  O  O25  1  0.50516700  0.80035500  0.80274300  1
  O  O26  1  0.73760500  0.98929900  0.35031600  1
  O  O27  1  0.74706800  0.79785700  0.64561400  1
  O  O28  1  0.25304600  0.80466100  0.46113300  1
  O  O29  1  0.74329500  0.58235000  0.93166300  1
  O  O30  1  0.23600600  0.58867800  0.77433700  1
  O  O31  1  0.48723800  0.80041100  0.30379100  1
  O  O32  1  0.99483300  0.80035500  0.30274300  1
  O  O33  1  0.00306500  0.60095300  0.60859200  1
  O  O34  1  0.50775000  0.60526800  0.59807700  1
  O  O35  1  0.75293200  0.79785700  0.14561400  1
  O  O36  1  0.00775000  0.39473200  0.90192300  1
  O  O37  1  0.50306500  0.39904700  0.89140800  1
  O  O38  1  0.75670500  0.58235000  0.43166300  1
  O  O39  1  0.73600600  0.41132200  0.72566300  1
  O  O40  1  0.26399400  0.58867800  0.27433700  1
  O  O41  1  0.24329500  0.41765000  0.56833700  1
  O  O42  1  0.49693500  0.60095300  0.10859200  1
  O  O43  1  0.99225000  0.60526800  0.09807700  1
  O  O44  1  0.24706800  0.20214300  0.85438600  1
  O  O45  1  0.49225000  0.39473200  0.40192300  1
  O  O46  1  0.99693500  0.39904700  0.39140800  1
  O  O47  1  0.00516700  0.19964500  0.69725700  1
  O  O48  1  0.51276200  0.19958900  0.69620900  1
  O  O49  1  0.76399400  0.41132200  0.22566300  1
  O  O50  1  0.25670500  0.41765000  0.06833700  1
  O  O51  1  0.74695400  0.19533900  0.53886700  1
  O  O52  1  0.25293200  0.20214300  0.35438600  1
  O  O53  1  0.26239500  0.01070100  0.64968400  1
  O  O54  1  0.49483300  0.19964500  0.19725700  1
  O  O55  1  0.98723800  0.19958900  0.19620900  1
  O  O56  1  0.75304600  0.19533900  0.03886700  1
  O  O57  1  0.23760500  0.01070100  0.14968400  1
