# generated using pymatgen
data_Li3Mn(BO3)2
_symmetry_space_group_name_H-M   'P 1'
_cell_length_a   7.78690214
_cell_length_b   8.36745111
_cell_length_c   8.22910410
_cell_angle_alpha   102.60195743
_cell_angle_beta   106.32114042
_cell_angle_gamma   75.36981146
_symmetry_Int_Tables_number   1
_chemical_formula_structural   Li3Mn(BO3)2
_chemical_formula_sum   'Li12 Mn4 B8 O24'
_cell_volume   491.59308241
_cell_formula_units_Z   4
loop_
 _symmetry_equiv_pos_site_id
 _symmetry_equiv_pos_as_xyz
  1  'x, y, z'
loop_
 _atom_site_type_symbol
 _atom_site_label
 _atom_site_symmetry_multiplicity
 _atom_site_fract_x
 _atom_site_fract_y
 _atom_site_fract_z
 _atom_site_occupancy
  Li  Li0  1  0.06744300  0.58276400  0.30420500  1
  Li  Li1  1  0.06747200  0.08273000  0.80426500  1
  Li  Li2  1  0.93256500  0.41721700  0.69582400  1
  Li  Li3  1  0.93257700  0.91729000  0.19577300  1
  Li  Li4  1  0.38144400  0.54559400  0.11633700  1
  Li  Li5  1  0.38149800  0.04560800  0.61640000  1
  Li  Li6  1  0.61847400  0.45440800  0.88365100  1
  Li  Li7  1  0.61861000  0.95442500  0.38361400  1
  Li  Li8  1  0.71705000  0.66163600  0.16968800  1
  Li  Li9  1  0.71713100  0.16163200  0.66974900  1
  Li  Li10  1  0.28294300  0.33834700  0.83029700  1
  Li  Li11  1  0.28293900  0.83844800  0.33028600  1
  Mn  Mn12  1  0.72262800  0.83120700  0.75047600  1
  Mn  Mn13  1  0.27718900  0.16883400  0.24940400  1
  Mn  Mn14  1  0.72278900  0.33135800  0.25055700  1
  Mn  Mn15  1  0.27735100  0.66849400  0.74938000  1
  B  B16  1  0.61714700  0.15436100  0.98521000  1
  B  B17  1  0.61707400  0.65436500  0.48515100  1
  B  B18  1  0.38286300  0.84556500  0.01477900  1
  B  B19  1  0.38291700  0.34560600  0.51481100  1
  B  B20  1  0.05527000  0.67225800  0.99004800  1
  B  B21  1  0.05521900  0.17221800  0.49001500  1
  B  B22  1  0.94476900  0.32782500  0.01006200  1
  B  B23  1  0.94475100  0.82775400  0.50995800  1
  O  O24  1  0.25002700  0.39196400  0.37284600  1
  O  O25  1  0.24988400  0.89174400  0.87285400  1
  O  O26  1  0.74994100  0.60796700  0.62708500  1
  O  O27  1  0.74999800  0.10821200  0.12719400  1
  O  O28  1  0.12065000  0.22697900  0.04054400  1
  O  O29  1  0.12062300  0.72697300  0.54048100  1
  O  O30  1  0.87934700  0.77301800  0.95945400  1
  O  O31  1  0.87932500  0.27303800  0.45948000  1
  O  O32  1  0.58742400  0.55781500  0.32694700  1
  O  O33  1  0.58748900  0.05773100  0.82697400  1
  O  O34  1  0.41255200  0.44224600  0.67301600  1
  O  O35  1  0.41257400  0.94228700  0.17299300  1
  O  O36  1  0.52013400  0.31990700  0.01973700  1
  O  O37  1  0.52014600  0.81990600  0.51978600  1
  O  O38  1  0.47986200  0.68005800  0.98021300  1
  O  O39  1  0.47986900  0.18007300  0.48023400  1
  O  O40  1  0.15607200  0.69110100  0.15728900  1
  O  O41  1  0.15602400  0.19096700  0.65722400  1
  O  O42  1  0.84394000  0.30912800  0.84286900  1
  O  O43  1  0.84396200  0.80890900  0.34272300  1
  O  O44  1  0.87185900  0.44004200  0.13722200  1
  O  O45  1  0.87176500  0.93997000  0.63710600  1
  O  O46  1  0.12822200  0.55998500  0.86291200  1
  O  O47  1  0.12819900  0.06003700  0.36287800  1
