# generated using pymatgen
data_Li2MnV(P2O7)2
_symmetry_space_group_name_H-M   'P 1'
_cell_length_a   8.33652600
_cell_length_b   7.06888400
_cell_length_c   9.70222665
_cell_angle_alpha   71.23971929
_cell_angle_beta   90.00000000
_cell_angle_gamma   90.00000000
_symmetry_Int_Tables_number   1
_chemical_formula_structural   Li2MnV(P2O7)2
_chemical_formula_sum   'Li4 Mn2 V2 P8 O28'
_cell_volume   541.37582025
_cell_formula_units_Z   2
loop_
 _symmetry_equiv_pos_site_id
 _symmetry_equiv_pos_as_xyz
  1  'x, y, z'
loop_
 _atom_site_type_symbol
 _atom_site_label
 _atom_site_symmetry_multiplicity
 _atom_site_fract_x
 _atom_site_fract_y
 _atom_site_fract_z
 _atom_site_occupancy
  Li  Li0  1  0.85886800  0.66895600  0.91470600  1
  Li  Li1  1  0.35759100  0.32692200  0.59061900  1
  Li  Li2  1  0.85759100  0.67307800  0.40938100  1
  Li  Li3  1  0.35886800  0.33104400  0.08529400  1
  Mn  Mn4  1  0.50066900  0.73068700  0.89193400  1
  Mn  Mn5  1  0.00066900  0.26931300  0.10806600  1
  V  V6  1  0.99811700  0.27344900  0.60517100  1
  V  V7  1  0.49811700  0.72655100  0.39482900  1
  P  P8  1  0.17862700  0.51798800  0.80094700  1
  P  P9  1  0.78918300  0.08882000  0.89472700  1
  P  P10  1  0.28285400  0.91175900  0.60960700  1
  P  P11  1  0.67964300  0.47703300  0.70096400  1
  P  P12  1  0.17964300  0.52296700  0.29903600  1
  P  P13  1  0.78285400  0.08824100  0.39039300  1
  P  P14  1  0.28918300  0.91118000  0.10527300  1
  P  P15  1  0.67862700  0.48201200  0.19905300  1
  O  O16  1  0.32953500  0.85206300  0.97068100  1
  O  O17  1  0.70680600  0.88816900  0.93283700  1
  O  O18  1  0.03566400  0.47869400  0.90735600  1
  O  O19  1  0.34046700  0.49572500  0.87561400  1
  O  O20  1  0.67683600  0.60845500  0.80029600  1
  O  O21  1  0.43309600  0.91329100  0.70210600  1
  O  O22  1  0.15374500  0.75020200  0.70427700  1
  O  O23  1  0.65566900  0.24789400  0.80144300  1
  O  O24  1  0.93770700  0.09527300  0.79941900  1
  O  O25  1  0.17154600  0.39862100  0.69353300  1
  O  O26  1  0.84018600  0.49290800  0.62178600  1
  O  O27  1  0.53746600  0.51462900  0.59483400  1
  O  O28  1  0.32609200  0.85190500  0.47676200  1
  O  O29  1  0.69521100  0.88896500  0.43098100  1
  O  O30  1  0.19521100  0.11103500  0.56901900  1
  O  O31  1  0.82609200  0.14809500  0.52323800  1
  O  O32  1  0.03746600  0.48537100  0.40516600  1
  O  O33  1  0.34018600  0.50709200  0.37821400  1
  O  O34  1  0.67154600  0.60137900  0.30646700  1
  O  O35  1  0.43770700  0.90472700  0.20058100  1
  O  O36  1  0.15566900  0.75210600  0.19855700  1
  O  O37  1  0.65374500  0.24979800  0.29572300  1
  O  O38  1  0.93309600  0.08670900  0.29789400  1
  O  O39  1  0.17683600  0.39154500  0.19970400  1
  O  O40  1  0.84046700  0.50427500  0.12438600  1
  O  O41  1  0.53566400  0.52130600  0.09264400  1
  O  O42  1  0.20680600  0.11183100  0.06716300  1
  O  O43  1  0.82953500  0.14793700  0.02931900  1
