# generated using pymatgen
data_LiMnSiO4
_symmetry_space_group_name_H-M   'P 1'
_cell_length_a   5.71167900
_cell_length_b   6.19627857
_cell_length_c   9.27743989
_cell_angle_alpha   78.05129553
_cell_angle_beta   81.18125075
_cell_angle_gamma   76.49834062
_symmetry_Int_Tables_number   1
_chemical_formula_structural   LiMnSiO4
_chemical_formula_sum   'Li4 Mn4 Si4 O16'
_cell_volume   310.44019870
_cell_formula_units_Z   4
loop_
 _symmetry_equiv_pos_site_id
 _symmetry_equiv_pos_as_xyz
  1  'x, y, z'
loop_
 _atom_site_type_symbol
 _atom_site_label
 _atom_site_symmetry_multiplicity
 _atom_site_fract_x
 _atom_site_fract_y
 _atom_site_fract_z
 _atom_site_occupancy
  Li  Li0  1  0.68111100  0.36254500  0.91446100  1
  Li  Li1  1  0.19388300  0.44180800  0.77238100  1
  Li  Li2  1  0.80611700  0.55819200  0.22761900  1
  Li  Li3  1  0.31888900  0.63745500  0.08553900  1
  Mn  Mn4  1  0.30556500  0.93409800  0.77992900  1
  Mn  Mn5  1  0.78095800  0.16072300  0.58863700  1
  Mn  Mn6  1  0.21904200  0.83927700  0.41136300  1
  Mn  Mn7  1  0.69443500  0.06590200  0.22007100  1
  Si  Si8  1  0.81475900  0.83957700  0.90806900  1
  Si  Si9  1  0.67928400  0.70996800  0.53754900  1
  Si  Si10  1  0.32071600  0.29003200  0.46245100  1
  Si  Si11  1  0.18524100  0.16042300  0.09193100  1
  O  O12  1  0.61107300  0.70441300  0.88510600  1
  O  O13  1  0.10288900  0.70710000  0.87718400  1
  O  O14  1  0.22479900  0.13462500  0.91668800  1
  O  O15  1  0.78735500  0.09318100  0.80302000  1
  O  O16  1  0.86648600  0.85172500  0.57253300  1
  O  O17  1  0.38983700  0.77760300  0.60935600  1
  O  O18  1  0.79062300  0.45211100  0.60222200  1
  O  O19  1  0.35654400  0.22514300  0.64053700  1
  O  O20  1  0.64345600  0.77485700  0.35946300  1
  O  O21  1  0.20937700  0.54788900  0.39777800  1
  O  O22  1  0.61016300  0.22239700  0.39064400  1
  O  O23  1  0.13351400  0.14827500  0.42746700  1
  O  O24  1  0.21264500  0.90681900  0.19698000  1
  O  O25  1  0.77520100  0.86537500  0.08331200  1
  O  O26  1  0.89711100  0.29290000  0.12281600  1
  O  O27  1  0.38892700  0.29558700  0.11489400  1
