# generated using pymatgen
data_Li5Co2Ni3O10
_symmetry_space_group_name_H-M   'P 1'
_cell_length_a   5.06081662
_cell_length_b   9.94475589
_cell_length_c   7.69396646
_cell_angle_alpha   70.93444846
_cell_angle_beta   77.82060777
_cell_angle_gamma   99.02759654
_symmetry_Int_Tables_number   1
_chemical_formula_structural   Li5Co2Ni3O10
_chemical_formula_sum   'Li10 Co4 Ni6 O20'
_cell_volume   346.89584956
_cell_formula_units_Z   2
loop_
 _symmetry_equiv_pos_site_id
 _symmetry_equiv_pos_as_xyz
  1  'x, y, z'
loop_
 _atom_site_type_symbol
 _atom_site_label
 _atom_site_symmetry_multiplicity
 _atom_site_fract_x
 _atom_site_fract_y
 _atom_site_fract_z
 _atom_site_occupancy
  Li  Li0  1  0.99999000  0.99999600  0.50000300  1
  Li  Li1  1  0.50000200  0.50000600  0.99999400  1
  Li  Li2  1  0.59511800  0.09765300  0.30664600  1
  Li  Li3  1  0.09514600  0.59765900  0.80664600  1
  Li  Li4  1  0.40490100  0.90234200  0.69335600  1
  Li  Li5  1  0.90486200  0.40234500  0.19335100  1
  Li  Li6  1  0.70275600  0.19966800  0.58799500  1
  Li  Li7  1  0.20278800  0.69967600  0.08797500  1
  Li  Li8  1  0.29724900  0.80033400  0.41201300  1
  Li  Li9  1  0.79722700  0.30032600  0.91201900  1
  Co  Co10  1  0.79627900  0.79669900  0.89695500  1
  Co  Co11  1  0.20373200  0.20329800  0.10306200  1
  Co  Co12  1  0.29626400  0.29669400  0.39693900  1
  Co  Co13  1  0.70374700  0.70329800  0.60303200  1
  Ni  Ni14  1  0.49998000  0.99999500  0.99999600  1
  Ni  Ni15  1  0.59922400  0.60118000  0.29585100  1
  Ni  Ni16  1  0.40079400  0.39882700  0.70416400  1
  Ni  Ni17  1  0.99995500  0.49999700  0.49999800  1
  Ni  Ni18  1  0.09919900  0.10118100  0.79584600  1
  Ni  Ni19  1  0.90075700  0.89882200  0.20414900  1
  O  O20  1  0.62216400  0.39583200  0.44564300  1
  O  O21  1  0.12217000  0.89582800  0.94564100  1
  O  O22  1  0.37785800  0.60417500  0.55435400  1
  O  O23  1  0.87782700  0.10416800  0.05436000  1
  O  O24  1  0.06287600  0.30335400  0.62971000  1
  O  O25  1  0.56284500  0.80334600  0.12971600  1
  O  O26  1  0.93712400  0.69664300  0.37028900  1
  O  O27  1  0.43715200  0.19664700  0.87028400  1
  O  O28  1  0.99204000  0.20730900  0.33799500  1
  O  O29  1  0.49201000  0.70729100  0.83800800  1
  O  O30  1  0.00796100  0.79269300  0.66200400  1
  O  O31  1  0.50798500  0.29271300  0.16199500  1
  O  O32  1  0.25972900  0.01179700  0.22778000  1
  O  O33  1  0.75975500  0.51179800  0.72780200  1
  O  O34  1  0.74025400  0.98819300  0.77222600  1
  O  O35  1  0.24025800  0.48820800  0.27220300  1
  O  O36  1  0.34512600  0.11714800  0.54118300  1
  O  O37  1  0.84514600  0.61714500  0.04119900  1
  O  O38  1  0.65488400  0.88285800  0.45882800  1
  O  O39  1  0.15486600  0.38285800  0.95879200  1
