# generated using pymatgen
data_Li4MnFe3(BO3)4
_symmetry_space_group_name_H-M   'P 1'
_cell_length_a   5.22555000
_cell_length_b   5.22821483
_cell_length_c   20.86099632
_cell_angle_alpha   89.03816604
_cell_angle_beta   92.08329184
_cell_angle_gamma   119.65883677
_symmetry_Int_Tables_number   1
_chemical_formula_structural   Li4MnFe3(BO3)4
_chemical_formula_sum   'Li8 Mn2 Fe6 B8 O24'
_cell_volume   494.93289202
_cell_formula_units_Z   2
loop_
 _symmetry_equiv_pos_site_id
 _symmetry_equiv_pos_as_xyz
  1  'x, y, z'
loop_
 _atom_site_type_symbol
 _atom_site_label
 _atom_site_symmetry_multiplicity
 _atom_site_fract_x
 _atom_site_fract_y
 _atom_site_fract_z
 _atom_site_occupancy
  Li  Li0  1  0.32910900  0.98404000  0.66640700  1
  Li  Li1  1  0.35171600  0.01811200  0.91408900  1
  Li  Li2  1  0.32583900  0.99223100  0.16687700  1
  Li  Li3  1  0.33865100  0.01507600  0.41776800  1
  Li  Li4  1  0.64107600  0.98435900  0.79091900  1
  Li  Li5  1  0.64925400  0.01652700  0.54199700  1
  Li  Li6  1  0.65381300  0.97509500  0.29338200  1
  Li  Li7  1  0.66767100  0.01614900  0.04160700  1
  Mn  Mn8  1  0.33542300  0.34287600  0.05833000  1
  Mn  Mn9  1  0.66774600  0.66751700  0.43276700  1
  Fe  Fe10  1  0.32597000  0.34689900  0.56032800  1
  Fe  Fe11  1  0.68771100  0.68245800  0.93374800  1
  Fe  Fe12  1  0.00208700  0.31984700  0.68493500  1
  Fe  Fe13  1  0.99382700  0.32627300  0.18372000  1
  Fe  Fe14  1  0.98885200  0.65595400  0.80791000  1
  Fe  Fe15  1  0.99996100  0.65980800  0.30876000  1
  B  B16  1  0.01032100  0.33843400  0.93523700  1
  B  B17  1  0.99827100  0.33312200  0.43708200  1
  B  B18  1  0.32955700  0.33407500  0.81167800  1
  B  B19  1  0.32727000  0.32053000  0.31114700  1
  B  B20  1  0.66992700  0.66483300  0.68702500  1
  B  B21  1  0.66649100  0.67268900  0.18744000  1
  B  B22  1  0.98653100  0.66618000  0.56378300  1
  B  B23  1  0.00101000  0.66956200  0.06192000  1
  O  O24  1  0.06429000  0.31986100  0.79132800  1
  O  O25  1  0.06242300  0.30681000  0.29182500  1
  O  O26  1  0.26661600  0.32506000  0.95069500  1
  O  O27  1  0.02931700  0.60361300  0.91587800  1
  O  O28  1  0.24934100  0.31064600  0.45258200  1
  O  O29  1  0.02853400  0.60286200  0.41689200  1
  O  O30  1  0.57738100  0.60768500  0.82577000  1
  O  O31  1  0.25462700  0.92088500  0.57087900  1
  O  O32  1  0.57672100  0.59141300  0.32529000  1
  O  O33  1  0.27441900  0.91760300  0.06954700  1
  O  O34  1  0.34388200  0.07786500  0.81899000  1
  O  O35  1  0.34564900  0.06576900  0.31860800  1
  O  O36  1  0.64730700  0.91716800  0.69243800  1
  O  O37  1  0.64302300  0.92366100  0.19424400  1
  O  O38  1  0.73735200  0.08813300  0.94142000  1
  O  O39  1  0.42500500  0.39973900  0.66876900  1
  O  O40  1  0.72306600  0.08932200  0.44327400  1
  O  O41  1  0.42189400  0.40952300  0.16744200  1
  O  O42  1  0.96348300  0.39162400  0.57826300  1
  O  O43  1  0.96551100  0.39185900  0.07721700  1
  O  O44  1  0.73518200  0.67732500  0.54259100  1
  O  O45  1  0.75686100  0.69166900  0.04001900  1
  O  O46  1  0.94135100  0.68064900  0.70155000  1
  O  O47  1  0.93748000  0.68660700  0.20183500  1
