# generated using pymatgen
data_Li2Cr(PO3)5
_symmetry_space_group_name_H-M   'P 1'
_cell_length_a   9.59063400
_cell_length_b   5.26929500
_cell_length_c   13.11705135
_cell_angle_alpha   71.30372170
_cell_angle_beta   90.00000000
_cell_angle_gamma   90.00000000
_symmetry_Int_Tables_number   1
_chemical_formula_structural   Li2Cr(PO3)5
_chemical_formula_sum   'Li4 Cr2 P10 O30'
_cell_volume   627.90219146
_cell_formula_units_Z   2
loop_
 _symmetry_equiv_pos_site_id
 _symmetry_equiv_pos_as_xyz
  1  'x, y, z'
loop_
 _atom_site_type_symbol
 _atom_site_label
 _atom_site_symmetry_multiplicity
 _atom_site_fract_x
 _atom_site_fract_y
 _atom_site_fract_z
 _atom_site_occupancy
  Li  Li0  1  0.60558300  0.93550400  0.93689800  1
  Li  Li1  1  0.39867200  0.05480500  0.06829500  1
  Li  Li2  1  0.39441700  0.93550400  0.43689800  1
  Li  Li3  1  0.60132800  0.05480500  0.56829500  1
  Cr  Cr4  1  0.99735800  0.00965000  0.99627200  1
  Cr  Cr5  1  0.00264200  0.00965000  0.49627200  1
  P  P6  1  0.52013500  0.47392500  0.14152500  1
  P  P7  1  0.18158300  0.42208100  0.58192000  1
  P  P8  1  0.82279000  0.59464100  0.41215600  1
  P  P9  1  0.52215100  0.51688700  0.36176900  1
  P  P10  1  0.98332000  0.01346000  0.24635900  1
  P  P11  1  0.47986500  0.47392500  0.64152500  1
  P  P12  1  0.17721000  0.59464100  0.91215600  1
  P  P13  1  0.47784900  0.51688700  0.86176900  1
  P  P14  1  0.01668000  0.01346000  0.74635900  1
  P  P15  1  0.81841700  0.42208100  0.08192000  1
  O  O16  1  0.50070100  0.75424600  0.06771700  1
  O  O17  1  0.14586000  0.29992400  0.93781100  1
  O  O18  1  0.15733000  0.72067600  0.55211800  1
  O  O19  1  0.11651500  0.27275800  0.70003700  1
  O  O20  1  0.66104300  0.64550400  0.39855400  1
  O  O21  1  0.40797500  0.71502200  0.34740800  1
  O  O22  1  0.94079900  0.97271200  0.65204300  1
  O  O23  1  0.59202500  0.71502200  0.84740800  1
  O  O24  1  0.33895700  0.64550400  0.89855400  1
  O  O25  1  0.58230300  0.49368500  0.25159800  1
  O  O26  1  0.49573400  0.23683200  0.93616200  1
  O  O27  1  0.41769700  0.49368500  0.75159800  1
  O  O28  1  0.93738900  0.05093500  0.83982200  1
  O  O29  1  0.84267000  0.72067600  0.05211800  1
  O  O30  1  0.88348500  0.27275800  0.20003700  1
  O  O31  1  0.05920100  0.97271200  0.15204300  1
  O  O32  1  0.40702200  0.27388700  0.15701700  1
  O  O33  1  0.50426600  0.23683200  0.43616200  1
  O  O34  1  0.87005400  0.72806100  0.49220300  1
  O  O35  1  0.59297800  0.27388700  0.65701700  1
  O  O36  1  0.87921400  0.76061900  0.29280300  1
  O  O37  1  0.12994600  0.72806100  0.99220300  1
  O  O38  1  0.34117200  0.35129700  0.60189900  1
  O  O39  1  0.65882800  0.35129700  0.10189900  1
  O  O40  1  0.49929900  0.75424600  0.56771700  1
  O  O41  1  0.85414000  0.29992400  0.43781100  1
  O  O42  1  0.12078600  0.76061900  0.79280300  1
  O  O43  1  0.13556500  0.28749000  0.50201300  1
  O  O44  1  0.06261100  0.05093500  0.33982200  1
  O  O45  1  0.86443500  0.28749000  0.00201300  1
