# generated using pymatgen
data_Li4Mn3Nb2Co3O16
_symmetry_space_group_name_H-M   'P 1'
_cell_length_a   5.87162100
_cell_length_b   5.96553191
_cell_length_c   9.70678808
_cell_angle_alpha   91.31807092
_cell_angle_beta   89.77522648
_cell_angle_gamma   119.28327601
_symmetry_Int_Tables_number   1
_chemical_formula_structural   Li4Mn3Nb2Co3O16
_chemical_formula_sum   'Li4 Mn3 Nb2 Co3 O16'
_cell_volume   296.46577823
_cell_formula_units_Z   1
loop_
 _symmetry_equiv_pos_site_id
 _symmetry_equiv_pos_as_xyz
  1  'x, y, z'
loop_
 _atom_site_type_symbol
 _atom_site_label
 _atom_site_symmetry_multiplicity
 _atom_site_fract_x
 _atom_site_fract_y
 _atom_site_fract_z
 _atom_site_occupancy
  Li  Li0  1  0.33972100  0.68420600  0.10000200  1
  Li  Li1  1  0.00447000  0.00916300  0.00716800  1
  Li  Li2  1  0.99506900  0.98403900  0.51006900  1
  Li  Li3  1  0.66121700  0.32594600  0.59719900  1
  Mn  Mn4  1  0.17450000  0.34597100  0.78463600  1
  Mn  Mn5  1  0.33643600  0.16674200  0.28341200  1
  Mn  Mn6  1  0.83078600  0.16619500  0.28400200  1
  Nb  Nb7  1  0.33114300  0.66269500  0.50875700  1
  Nb  Nb8  1  0.68792200  0.37175700  0.00627900  1
  Co  Co9  1  0.17586800  0.83745400  0.78645300  1
  Co  Co10  1  0.66159400  0.83959200  0.78473800  1
  Co  Co11  1  0.82696800  0.65313400  0.28525200  1
  O  O12  1  0.13602000  0.78973300  0.40763600  1
  O  O13  1  0.46508700  0.95534800  0.64743100  1
  O  O14  1  0.32340700  0.66873000  0.88642600  1
  O  O15  1  0.01463300  0.00743800  0.69965800  1
  O  O16  1  0.99229300  0.98229700  0.19613300  1
  O  O17  1  0.65463400  0.79277000  0.40989000  1
  O  O18  1  0.02890300  0.48984400  0.66194200  1
  O  O19  1  0.46072100  0.49284500  0.66066900  1
  O  O20  1  0.85215700  0.68368100  0.90336500  1
  O  O21  1  0.15301800  0.30726500  0.40497900  1
  O  O22  1  0.53810600  0.50844600  0.15605500  1
  O  O23  1  0.96953100  0.50623300  0.15676500  1
  O  O24  1  0.66690700  0.33503800  0.38458600  1
  O  O25  1  0.33982200  0.19391700  0.90880000  1
  O  O26  1  0.52367800  0.04561400  0.16021300  1
  O  O27  1  0.85509100  0.19391000  0.90964800  1
