# generated using pymatgen
data_Li4Ti2Fe4(CoO6)3
_symmetry_space_group_name_H-M   'P 1'
_cell_length_a   8.79639320
_cell_length_b   25.32644894
_cell_length_c   2.91219070
_cell_angle_alpha   90.07742668
_cell_angle_beta   89.98882977
_cell_angle_gamma   90.09502462
_symmetry_Int_Tables_number   1
_chemical_formula_structural   Li4Ti2Fe4(CoO6)3
_chemical_formula_sum   'Li8 Ti4 Fe8 Co6 O36'
_cell_volume   648.78043354
_cell_formula_units_Z   2
loop_
 _symmetry_equiv_pos_site_id
 _symmetry_equiv_pos_as_xyz
  1  'x, y, z'
loop_
 _atom_site_type_symbol
 _atom_site_label
 _atom_site_symmetry_multiplicity
 _atom_site_fract_x
 _atom_site_fract_y
 _atom_site_fract_z
 _atom_site_occupancy
  Li  Li0  1  0.19442800  0.98701200  0.99995300  1
  Li  Li1  1  0.18813700  0.20547600  0.00006500  1
  Li  Li2  1  0.31134500  0.70609300  0.00006500  1
  Li  Li3  1  0.30395100  0.48607300  0.99988600  1
  Li  Li4  1  0.69593900  0.51333400  0.00010900  1
  Li  Li5  1  0.68942200  0.29370100  0.99997900  1
  Li  Li6  1  0.81091100  0.79346100  0.99986600  1
  Li  Li7  1  0.80554000  0.01428900  0.00004600  1
  Ti  Ti8  1  0.99880900  0.10487900  0.00028900  1
  Ti  Ti9  1  0.50074800  0.60443800  0.00138000  1
  Ti  Ti10  1  0.49982300  0.39557100  0.99985800  1
  Ti  Ti11  1  0.00100600  0.89520700  0.99943800  1
  Fe  Fe12  1  0.02275000  0.30421700  0.99991400  1
  Fe  Fe13  1  0.13664700  0.58815700  0.50030300  1
  Fe  Fe14  1  0.36228000  0.08800700  0.50017000  1
  Fe  Fe15  1  0.47470900  0.80484000  0.99875000  1
  Fe  Fe16  1  0.52557900  0.19549200  0.00007500  1
  Fe  Fe17  1  0.63739000  0.91193500  0.49974900  1
  Fe  Fe18  1  0.86352800  0.41190400  0.49979400  1
  Fe  Fe19  1  0.97608200  0.69584700  0.99987900  1
  Co  Co20  1  0.00005100  0.50012300  0.00001600  1
  Co  Co21  1  0.14751200  0.80455200  0.49738400  1
  Co  Co22  1  0.35266900  0.30436800  0.49977300  1
  Co  Co23  1  0.49983500  0.99989800  0.99997200  1
  Co  Co24  1  0.64643400  0.69580100  0.50184800  1
  Co  Co25  1  0.85288500  0.19540900  0.50094300  1
  O  O26  1  0.00879800  0.42759400  0.99982900  1
  O  O27  1  0.99117500  0.57248500  0.00020900  1
  O  O28  1  0.06605500  0.93889400  0.50018600  1
  O  O29  1  0.04443000  0.16097700  0.49986100  1
  O  O30  1  0.09780100  0.66462100  0.50004700  1
  O  O31  1  0.09696100  0.76056500  0.00275300  1
  O  O32  1  0.14298200  0.50588100  0.49997200  1
  O  O33  1  0.15864100  0.27642000  0.49977900  1
  O  O34  1  0.19938000  0.84980600  0.99686500  1
  O  O35  1  0.20281600  0.08605600  0.99996800  1
  O  O36  1  0.29661900  0.58629900  0.00026900  1
  O  O37  1  0.30212300  0.34929700  0.00000300  1
  O  O38  1  0.34175100  0.77572700  0.50012500  1
  O  O39  1  0.35680500  0.00564800  0.49989900  1
  O  O40  1  0.40268700  0.25995900  0.99993200  1
  O  O41  1  0.40462600  0.16446800  0.49976700  1
  O  O42  1  0.45731500  0.66043900  0.50014100  1
  O  O43  1  0.43355800  0.43897500  0.50052400  1
  O  O44  1  0.50715200  0.07224300  0.00018700  1
  O  O45  1  0.49208700  0.92749500  0.99973900  1
  O  O46  1  0.56654400  0.56093000  0.50041900  1
  O  O47  1  0.54229400  0.33937400  0.50004300  1
  O  O48  1  0.59662800  0.83546000  0.49925800  1
  O  O49  1  0.59595800  0.74024400  0.99796800  1
  O  O50  1  0.64321700  0.99427400  0.50007500  1
  O  O51  1  0.65854000  0.22448000  0.49986700  1
  O  O52  1  0.69776900  0.65080700  0.00318200  1
  O  O53  1  0.70307000  0.41375400  0.00003100  1
  O  O54  1  0.79691900  0.91361200  0.99995200  1
  O  O55  1  0.80137500  0.15006000  0.00095200  1
  O  O56  1  0.84201200  0.72396900  0.49953200  1
  O  O57  1  0.85711400  0.49418100  0.50004600  1
  O  O58  1  0.90361700  0.23941900  0.99900800  1
  O  O59  1  0.90241300  0.33528600  0.50009900  1
  O  O60  1  0.95643800  0.83909100  0.50044600  1
  O  O61  1  0.93392100  0.06113000  0.49956100  1
