# generated using pymatgen
data_LiCrSiO4
_symmetry_space_group_name_H-M   'P 1'
_cell_length_a   5.55907623
_cell_length_b   5.90708096
_cell_length_c   8.19792100
_cell_angle_alpha   89.99938321
_cell_angle_beta   90.00005069
_cell_angle_gamma   90.00081231
_symmetry_Int_Tables_number   1
_chemical_formula_structural   LiCrSiO4
_chemical_formula_sum   'Li4 Cr4 Si4 O16'
_cell_volume   269.20261927
_cell_formula_units_Z   4
loop_
 _symmetry_equiv_pos_site_id
 _symmetry_equiv_pos_as_xyz
  1  'x, y, z'
loop_
 _atom_site_type_symbol
 _atom_site_label
 _atom_site_symmetry_multiplicity
 _atom_site_fract_x
 _atom_site_fract_y
 _atom_site_fract_z
 _atom_site_occupancy
  Li  Li0  1  0.49999300  0.50000400  0.50529300  1
  Li  Li1  1  0.00000000  0.99999700  0.00529300  1
  Li  Li2  1  0.99999900  0.50000100  0.24473500  1
  Li  Li3  1  0.49999100  0.00000000  0.74473200  1
  Cr  Cr4  1  0.99997700  0.25010500  0.62490600  1
  Cr  Cr5  1  0.49994900  0.24998100  0.12501100  1
  Cr  Cr6  1  0.49996600  0.75001700  0.12493400  1
  Cr  Cr7  1  0.00000600  0.74988100  0.62507700  1
  Si  Si8  1  0.75003000  0.49999900  0.87501100  1
  Si  Si9  1  0.25002600  0.99998400  0.37501100  1
  Si  Si10  1  0.24995900  0.50001600  0.87503300  1
  Si  Si11  1  0.74996000  0.00000100  0.37503200  1
  O  O12  1  0.23912500  0.50004000  0.65800000  1
  O  O13  1  0.73916100  0.99997900  0.15799400  1
  O  O14  1  0.76088900  0.50002500  0.65799500  1
  O  O15  1  0.26089000  0.99995000  0.15798300  1
  O  O16  1  0.26091600  0.49997500  0.09201000  1
  O  O17  1  0.76087500  0.00003900  0.59201100  1
  O  O18  1  0.73914000  0.49995200  0.09199300  1
  O  O19  1  0.23914100  0.00002500  0.59200200  1
  O  O20  1  0.99999600  0.29197000  0.87091600  1
  O  O21  1  0.50001500  0.79198400  0.37095300  1
  O  O22  1  0.00000500  0.70803100  0.87093100  1
  O  O23  1  0.49998700  0.20803100  0.37091500  1
  O  O24  1  0.49998000  0.29196800  0.87903700  1
  O  O25  1  0.99999700  0.79199700  0.37906800  1
  O  O26  1  0.50002300  0.70801400  0.87908800  1
  O  O27  1  0.00000200  0.20803300  0.37903800  1
