# generated using pymatgen
data_Li5MnCr3O8
_symmetry_space_group_name_H-M   'P 1'
_cell_length_a   8.68204600
_cell_length_b   8.68204600
_cell_length_c   8.39528000
_cell_angle_alpha   90.00000000
_cell_angle_beta   90.00000000
_cell_angle_gamma   90.00000000
_symmetry_Int_Tables_number   1
_chemical_formula_structural   Li5MnCr3O8
_chemical_formula_sum   'Li20 Mn4 Cr12 O32'
_cell_volume   632.81876727
_cell_formula_units_Z   4
loop_
 _symmetry_equiv_pos_site_id
 _symmetry_equiv_pos_as_xyz
  1  'x, y, z'
loop_
 _atom_site_type_symbol
 _atom_site_label
 _atom_site_symmetry_multiplicity
 _atom_site_fract_x
 _atom_site_fract_y
 _atom_site_fract_z
 _atom_site_occupancy
  Li  Li0  1  0.19784000  0.04882500  0.05681500  1
  Li  Li1  1  0.14719200  0.85280800  0.25000000  1
  Li  Li2  1  0.13301800  0.61037700  0.48303900  1
  Li  Li3  1  0.11037700  0.36698200  0.73303900  1
  Li  Li4  1  0.95117500  0.80216000  0.44318500  1
  Li  Li5  1  0.04882500  0.19784000  0.94318500  1
  Li  Li6  1  0.88962300  0.63301800  0.23303900  1
  Li  Li7  1  0.86698200  0.38962300  0.98303900  1
  Li  Li8  1  0.85280800  0.14719200  0.75000000  1
  Li  Li9  1  0.80216000  0.95117500  0.55681500  1
  Li  Li10  1  0.69784000  0.45117500  0.19318500  1
  Li  Li11  1  0.61037700  0.13301800  0.51696100  1
  Li  Li12  1  0.63301800  0.88962300  0.76696100  1
  Li  Li13  1  0.64719200  0.64719200  0.00000000  1
  Li  Li14  1  0.45117500  0.69784000  0.80681500  1
  Li  Li15  1  0.54882500  0.30216000  0.30681500  1
  Li  Li16  1  0.35280800  0.35280800  0.50000000  1
  Li  Li17  1  0.36698200  0.11037700  0.26696100  1
  Li  Li18  1  0.38962300  0.86698200  0.01696100  1
  Li  Li19  1  0.30216000  0.54882500  0.69318500  1
  Mn  Mn20  1  0.11914900  0.11914900  0.50000000  1
  Mn  Mn21  1  0.88085100  0.88085100  0.00000000  1
  Mn  Mn22  1  0.61914900  0.38085100  0.75000000  1
  Mn  Mn23  1  0.38085100  0.61914900  0.25000000  1
  Cr  Cr24  1  0.12907000  0.87093000  0.75000000  1
  Cr  Cr25  1  0.12096600  0.37365100  0.24728600  1
  Cr  Cr26  1  0.87903400  0.62634900  0.74728600  1
  Cr  Cr27  1  0.87093000  0.12907000  0.25000000  1
  Cr  Cr28  1  0.62096600  0.12634900  0.00271400  1
  Cr  Cr29  1  0.62907000  0.62907000  0.50000000  1
  Cr  Cr30  1  0.37093000  0.37093000  0.00000000  1
  Cr  Cr31  1  0.37903400  0.87365100  0.50271400  1
  Cr  Cr32  1  0.12634900  0.62096600  0.99728600  1
  Cr  Cr33  1  0.87365100  0.37903400  0.49728600  1
  Cr  Cr34  1  0.62634900  0.87903400  0.25271400  1
  Cr  Cr35  1  0.37365100  0.12096600  0.75271400  1
  O  O36  1  0.12216800  0.61371900  0.24028700  1
  O  O37  1  0.13726800  0.10658800  0.75967500  1
  O  O38  1  0.13339100  0.38703700  0.00472700  1
  O  O39  1  0.14568900  0.86652900  0.50601500  1
  O  O40  1  0.11296300  0.63339100  0.75472700  1
  O  O41  1  0.10658800  0.13726800  0.24032500  1
  O  O42  1  0.11371900  0.37783200  0.49028700  1
  O  O43  1  0.13347100  0.85431100  0.99398500  1
  O  O44  1  0.86652900  0.14568900  0.49398500  1
  O  O45  1  0.88628100  0.62216800  0.99028700  1
  O  O46  1  0.89341200  0.86273200  0.74032500  1
  O  O47  1  0.88703700  0.36660900  0.25472700  1
  O  O48  1  0.85431100  0.13347100  0.00601500  1
  O  O49  1  0.86660900  0.61296300  0.50472700  1
  O  O50  1  0.86273200  0.89341200  0.25967500  1
  O  O51  1  0.87783200  0.38628100  0.74028700  1
  O  O52  1  0.62216800  0.88628100  0.00971300  1
  O  O53  1  0.63726800  0.39341200  0.49032500  1
  O  O54  1  0.64568900  0.63347100  0.74398500  1
  O  O55  1  0.63339100  0.11296300  0.24527300  1
  O  O56  1  0.60658800  0.36273200  0.00967500  1
  O  O57  1  0.61296300  0.86660900  0.49527300  1
  O  O58  1  0.61371900  0.12216800  0.75971300  1
  O  O59  1  0.63347100  0.64568900  0.25601500  1
  O  O60  1  0.36652900  0.35431100  0.75601500  1
  O  O61  1  0.38628100  0.87783200  0.25971300  1
  O  O62  1  0.38703700  0.13339100  0.99527300  1
  O  O63  1  0.39341200  0.63726800  0.50967500  1
  O  O64  1  0.36660900  0.88703700  0.74527300  1
  O  O65  1  0.35431100  0.36652900  0.24398500  1
  O  O66  1  0.36273200  0.60658800  0.99032500  1
  O  O67  1  0.37783200  0.11371900  0.50971300  1
