# generated using pymatgen
data_Li2VOF4
_symmetry_space_group_name_H-M   'P 1'
_cell_length_a   3.73525900
_cell_length_b   6.74449200
_cell_length_c   14.70810431
_cell_angle_alpha   89.20066310
_cell_angle_beta   90.00000000
_cell_angle_gamma   90.00000000
_symmetry_Int_Tables_number   1
_chemical_formula_structural   Li2VOF4
_chemical_formula_sum   'Li8 V4 O4 F16'
_cell_volume   370.49674837
_cell_formula_units_Z   4
loop_
 _symmetry_equiv_pos_site_id
 _symmetry_equiv_pos_as_xyz
  1  'x, y, z'
loop_
 _atom_site_type_symbol
 _atom_site_label
 _atom_site_symmetry_multiplicity
 _atom_site_fract_x
 _atom_site_fract_y
 _atom_site_fract_z
 _atom_site_occupancy
  Li  Li0  1  0.00000000  0.94303900  0.12887700  1
  Li  Li1  1  0.00000000  0.82538700  0.73419200  1
  Li  Li2  1  0.50000000  0.67629900  0.22945300  1
  Li  Li3  1  0.50000000  0.57345700  0.64259200  1
  Li  Li4  1  0.00000000  0.43519400  0.36783700  1
  Li  Li5  1  0.00000000  0.31249900  0.75686200  1
  Li  Li6  1  0.50000000  0.18808800  0.25534800  1
  Li  Li7  1  0.50000000  0.05718100  0.86473500  1
  V  V8  1  0.00000000  0.89119300  0.42747900  1
  V  V9  1  0.50000000  0.59754100  0.93317800  1
  V  V10  1  0.00000000  0.40258400  0.06795600  1
  V  V11  1  0.50000000  0.12319500  0.56795900  1
  O  O12  1  0.50000000  0.93023700  0.45147400  1
  O  O13  1  0.00000000  0.55348000  0.95417800  1
  O  O14  1  0.50000000  0.44809600  0.04981600  1
  O  O15  1  0.50000000  0.33301200  0.50920200  1
  F  F16  1  0.50000000  0.94376700  0.18722700  1
  F  F17  1  0.50000000  0.86940100  0.64548800  1
  F  F18  1  0.50000000  0.84599500  0.98322000  1
  F  F19  1  0.00000000  0.76071600  0.31872800  1
  F  F20  1  0.50000000  0.74368200  0.82158700  1
  F  F21  1  0.00000000  0.64157900  0.48136800  1
  F  F22  1  0.00000000  0.63471000  0.14307000  1
  F  F23  1  0.00000000  0.55819300  0.69156900  1
  F  F24  1  0.50000000  0.44737000  0.30695100  1
  F  F25  1  0.50000000  0.36437400  0.86240400  1
  F  F26  1  0.00000000  0.25542500  0.18185100  1
  F  F27  1  0.50000000  0.25224300  0.68563200  1
  F  F28  1  0.00000000  0.15387200  0.01970500  1
  F  F29  1  0.00000000  0.13662600  0.35917600  1
  F  F30  1  0.00000000  0.04587600  0.55880500  1
  F  F31  1  0.00000000  0.05568800  0.81208300  1
