# generated using pymatgen
data_Li4Ti2Mn3Ni3O16
_symmetry_space_group_name_H-M   'P 1'
_cell_length_a   5.87065603
_cell_length_b   5.76947978
_cell_length_c   9.46772308
_cell_angle_alpha   89.99259753
_cell_angle_beta   91.84551263
_cell_angle_gamma   119.43798293
_symmetry_Int_Tables_number   1
_chemical_formula_structural   Li4Ti2Mn3Ni3O16
_chemical_formula_sum   'Li4 Ti2 Mn3 Ni3 O16'
_cell_volume   279.08420764
_cell_formula_units_Z   1
loop_
 _symmetry_equiv_pos_site_id
 _symmetry_equiv_pos_as_xyz
  1  'x, y, z'
loop_
 _atom_site_type_symbol
 _atom_site_label
 _atom_site_symmetry_multiplicity
 _atom_site_fract_x
 _atom_site_fract_y
 _atom_site_fract_z
 _atom_site_occupancy
  Li  Li0  1  0.32102100  0.66051400  0.89468700  1
  Li  Li1  1  0.99000100  0.99504300  0.99263200  1
  Li  Li2  1  0.00489100  0.00244800  0.49627400  1
  Li  Li3  1  0.66468100  0.33233500  0.39458600  1
  Ti  Ti4  1  0.34396200  0.67205100  0.49703900  1
  Ti  Ti5  1  0.66335700  0.33168400  0.99428800  1
  Mn  Mn6  1  0.17456300  0.83186900  0.21571600  1
  Mn  Mn7  1  0.17459100  0.34271200  0.21572500  1
  Mn  Mn8  1  0.34533000  0.17267800  0.71777900  1
  Ni  Ni9  1  0.65985300  0.82995800  0.21304900  1
  Ni  Ni10  1  0.83002800  0.66140400  0.71415000  1
  Ni  Ni11  1  0.83004500  0.16869700  0.71414800  1
  O  O12  1  0.18735900  0.84443300  0.59526700  1
  O  O13  1  0.03841400  0.51914700  0.33279500  1
  O  O14  1  0.31338300  0.65677800  0.10636700  1
  O  O15  1  0.01521900  0.00754000  0.30759700  1
  O  O16  1  0.01096100  0.00563700  0.80418200  1
  O  O17  1  0.18756300  0.34300300  0.59522700  1
  O  O18  1  0.46747700  0.96106100  0.34235200  1
  O  O19  1  0.46756200  0.50653400  0.34229500  1
  O  O20  1  0.32644300  0.16325000  0.10265100  1
  O  O21  1  0.67989200  0.84012100  0.59536500  1
  O  O22  1  0.50234500  0.46887000  0.84493500  1
  O  O23  1  0.50225300  0.03340100  0.84492500  1
  O  O24  1  0.65948900  0.32961600  0.61327700  1
  O  O25  1  0.84450400  0.66527400  0.09164100  1
  O  O26  1  0.95038000  0.47512200  0.83720800  1
  O  O27  1  0.84443700  0.17912000  0.09167900  1
