# generated using pymatgen
data_Li8Mn15NiO32
_symmetry_space_group_name_H-M   'P 1'
_cell_length_a   8.37453504
_cell_length_b   8.37453504
_cell_length_c   8.37453476
_cell_angle_alpha   90.21078602
_cell_angle_beta   90.21078602
_cell_angle_gamma   90.21078259
_symmetry_Int_Tables_number   1
_chemical_formula_structural   Li8Mn15NiO32
_chemical_formula_sum   'Li8 Mn15 Ni1 O32'
_cell_volume   587.31793010
_cell_formula_units_Z   1
loop_
 _symmetry_equiv_pos_site_id
 _symmetry_equiv_pos_as_xyz
  1  'x, y, z'
loop_
 _atom_site_type_symbol
 _atom_site_label
 _atom_site_symmetry_multiplicity
 _atom_site_fract_x
 _atom_site_fract_y
 _atom_site_fract_z
 _atom_site_occupancy
  Li  Li0  1  0.12147400  0.12646300  0.62598900  1
  Li  Li1  1  0.87852600  0.37401100  0.87353700  1
  Li  Li2  1  0.87353700  0.87852600  0.37401100  1
  Li  Li3  1  0.62598900  0.12147400  0.12646300  1
  Li  Li4  1  0.62312400  0.62312400  0.62312400  1
  Li  Li5  1  0.37687600  0.37687600  0.37687600  1
  Li  Li6  1  0.37401100  0.87353700  0.87852600  1
  Li  Li7  1  0.12646300  0.62598900  0.12147400  1
  Mn  Mn8  1  0.00463500  0.24884300  0.25222900  1
  Mn  Mn9  1  0.00000000  0.50406100  0.49593900  1
  Mn  Mn10  1  0.99536500  0.74777100  0.75115700  1
  Mn  Mn11  1  0.75056000  0.50000000  0.24944000  1
  Mn  Mn12  1  0.75660900  0.24339100  0.50000000  1
  Mn  Mn13  1  0.74777100  0.75115700  0.99536500  1
  Mn  Mn14  1  0.75115700  0.99536500  0.74777100  1
  Mn  Mn15  1  0.50406100  0.49593900  0.00000000  1
  Mn  Mn16  1  0.50000000  0.24944000  0.75056000  1
  Mn  Mn17  1  0.50000000  0.75660900  0.24339100  1
  Mn  Mn18  1  0.49593900  0.00000000  0.50406100  1
  Mn  Mn19  1  0.24884300  0.25222900  0.00463500  1
  Mn  Mn20  1  0.24339100  0.50000000  0.75660900  1
  Mn  Mn21  1  0.25222900  0.00463500  0.24884300  1
  Mn  Mn22  1  0.24944000  0.75056000  0.50000000  1
  Ni  Ni23  1  0.00000000  0.00000000  0.00000000  1
  O  O24  1  0.01948800  0.24876200  0.02290400  1
  O  O25  1  0.02290400  0.01948800  0.24876200  1
  O  O26  1  0.01160900  0.73750600  0.51390100  1
  O  O27  1  0.99754400  0.51639000  0.72670100  1
  O  O28  1  0.00245600  0.27329900  0.48361000  1
  O  O29  1  0.98839100  0.48609900  0.26249400  1
  O  O30  1  0.97709600  0.75123800  0.98051200  1
  O  O31  1  0.98051200  0.97709600  0.75123800  1
  O  O32  1  0.77625800  0.24126600  0.26904700  1
  O  O33  1  0.76917900  0.49566800  0.48314100  1
  O  O34  1  0.76087000  0.76087000  0.76087000  1
  O  O35  1  0.75123800  0.98051200  0.97709600  1
  O  O36  1  0.73095300  0.75873400  0.22374200  1
  O  O37  1  0.73750600  0.51390100  0.01160900  1
  O  O38  1  0.75873400  0.22374200  0.73095300  1
  O  O39  1  0.72670100  0.99754400  0.51639000  1
  O  O40  1  0.51685900  0.50433200  0.23082100  1
  O  O41  1  0.51639000  0.72670100  0.99754400  1
  O  O42  1  0.51390100  0.01160900  0.73750600  1
  O  O43  1  0.50433200  0.23082100  0.51685900  1
  O  O44  1  0.49566800  0.48314100  0.76917900  1
  O  O45  1  0.48609900  0.26249400  0.98839100  1
  O  O46  1  0.48361000  0.00245600  0.27329900  1
  O  O47  1  0.48314100  0.76917900  0.49566800  1
  O  O48  1  0.27329900  0.48361000  0.00245600  1
  O  O49  1  0.24126600  0.26904700  0.77625800  1
  O  O50  1  0.26249400  0.98839100  0.48609900  1
  O  O51  1  0.26904700  0.77625800  0.24126600  1
  O  O52  1  0.24876200  0.02290400  0.01948800  1
  O  O53  1  0.23913000  0.23913000  0.23913000  1
  O  O54  1  0.23082100  0.51685900  0.50433200  1
  O  O55  1  0.22374200  0.73095300  0.75873400  1
