# generated using pymatgen
data_Li2MnV(PO4)3
_symmetry_space_group_name_H-M   'P 1'
_cell_length_a   8.98271135
_cell_length_b   8.59002747
_cell_length_c   8.27672094
_cell_angle_alpha   59.38711966
_cell_angle_beta   63.77067366
_cell_angle_gamma   92.28126129
_symmetry_Int_Tables_number   1
_chemical_formula_structural   Li2MnV(PO4)3
_chemical_formula_sum   'Li4 Mn2 V2 P6 O24'
_cell_volume   463.11532578
_cell_formula_units_Z   2
loop_
 _symmetry_equiv_pos_site_id
 _symmetry_equiv_pos_as_xyz
  1  'x, y, z'
loop_
 _atom_site_type_symbol
 _atom_site_label
 _atom_site_symmetry_multiplicity
 _atom_site_fract_x
 _atom_site_fract_y
 _atom_site_fract_z
 _atom_site_occupancy
  Li  Li0  1  0.14127565  0.73950779  0.17858232  1
  Li  Li1  1  0.37198214  0.20676934  0.36383504  1
  Li  Li2  1  0.86162293  0.92763635  0.40317988  1
  Li  Li3  1  0.86471135  0.26199264  0.81527262  1
  Mn  Mn4  1  0.05039310  0.35245601  0.29878377  1
  Mn  Mn5  1  0.95348966  0.64619148  0.70265744  1
  V  V6  1  0.56460510  0.84935384  0.29893223  1
  V  V7  1  0.43931757  0.14555355  0.70637430  1
  P  P8  1  0.25484251  0.03500008  0.21104916  1
  P  P9  1  0.24876628  0.45444530  0.50620160  1
  P  P10  1  0.24960654  0.74722155  0.78604064  1
  P  P11  1  0.75493000  0.24916753  0.21037703  1
  P  P12  1  0.75746687  0.54394723  0.49268583  1
  P  P13  1  0.74866130  0.97115964  0.78162084  1
  O  O14  1  0.08967742  0.84186171  0.37067213  1
  O  O15  1  0.28119285  0.11042622  0.98309095  1
  O  O16  1  0.21593101  0.17216003  0.27649149  1
  O  O17  1  0.21466417  0.49481209  0.32086014  1
  O  O18  1  0.08908424  0.43299477  0.70055428  1
  O  O19  1  0.11376471  0.78638387  0.71760036  1
  O  O20  1  0.42222267  0.99786876  0.20761235  1
  O  O21  1  0.29730547  0.26620156  0.58504202  1
  O  O22  1  0.41266599  0.61956899  0.39563353  1
  O  O23  1  0.20017062  0.53866534  0.97521896  1
  O  O24  1  0.27238376  0.88559323  0.84864626  1
  O  O25  1  0.43157060  0.80409956  0.57844257  1
  O  O26  1  0.57067533  0.19237206  0.40878594  1
  O  O27  1  0.73782828  0.11193186  0.14461301  1
  O  O28  1  0.80635536  0.45892807  0.02316822  1
  O  O29  1  0.58966256  0.38176582  0.60332561  1
  O  O30  1  0.72562691  0.74115501  0.39672920  1
  O  O31  1  0.57641436  0.00809597  0.79065544  1
  O  O32  1  0.89100516  0.20639749  0.28068650  1
  O  O33  1  0.91737297  0.55898321  0.30238327  1
  O  O34  1  0.79304876  0.50388822  0.67709367  1
  O  O35  1  0.79363133  0.84225301  0.70681554  1
  O  O36  1  0.71033368  0.88769592  0.01788914  1
  O  O37  1  0.89781781  0.17144390  0.62808871  1
