# generated using pymatgen
data_Li4Mn3NbCr2(PO4)6
_symmetry_space_group_name_H-M   'P 1'
_cell_length_a   8.55347100
_cell_length_b   8.63033453
_cell_length_c   8.94375610
_cell_angle_alpha   62.20185903
_cell_angle_beta   62.78561068
_cell_angle_gamma   63.08126758
_symmetry_Int_Tables_number   1
_chemical_formula_structural   Li4Mn3NbCr2(PO4)6
_chemical_formula_sum   'Li4 Mn3 Nb1 Cr2 P6 O24'
_cell_volume   494.73370824
_cell_formula_units_Z   1
loop_
 _symmetry_equiv_pos_site_id
 _symmetry_equiv_pos_as_xyz
  1  'x, y, z'
loop_
 _atom_site_type_symbol
 _atom_site_label
 _atom_site_symmetry_multiplicity
 _atom_site_fract_x
 _atom_site_fract_y
 _atom_site_fract_z
 _atom_site_occupancy
  Li  Li0  1  0.25646400  0.64434400  0.84454500  1
  Li  Li1  1  0.70135900  0.35794400  0.16079000  1
  Li  Li2  1  0.36067900  0.14580200  0.69555200  1
  Li  Li3  1  0.14876600  0.70441400  0.35567800  1
  Mn  Mn4  1  0.84779800  0.85092700  0.84691800  1
  Mn  Mn5  1  0.65359100  0.64974700  0.64700400  1
  Mn  Mn6  1  0.34167800  0.34028900  0.34124800  1
  Nb  Nb7  1  0.15217600  0.15140700  0.15277700  1
  Cr  Cr8  1  0.99288500  0.99726000  0.99989900  1
  Cr  Cr9  1  0.50637400  0.49851100  0.49772100  1
  P  P10  1  0.25354200  0.93860400  0.55703700  1
  P  P11  1  0.74987800  0.05941200  0.45284900  1
  P  P12  1  0.43077100  0.74920600  0.04568400  1
  P  P13  1  0.06754000  0.45039300  0.75633200  1
  P  P14  1  0.94017600  0.56369900  0.25496100  1
  P  P15  1  0.56935300  0.25028300  0.95011600  1
  O  O16  1  0.90294100  0.50085300  0.70095500  1
  O  O17  1  0.69445900  0.90401200  0.47623700  1
  O  O18  1  0.94033200  0.74226700  0.09369800  1
  O  O19  1  0.43283100  0.70222500  0.89969500  1
  O  O20  1  0.00350800  0.39770300  0.18722900  1
  O  O21  1  0.74928400  0.56584500  0.39540800  1
  O  O22  1  0.75646600  0.09931800  0.92453300  1
  O  O23  1  0.54931100  0.40930600  0.77733300  1
  O  O24  1  0.81779100  0.02240300  0.59865500  1
  O  O25  1  0.39979700  0.74541400  0.56711300  1
  O  O26  1  0.89970300  0.09861600  0.25870300  1
  O  O27  1  0.59055700  0.81746000  0.99021900  1
  O  O28  1  0.40271500  0.17327700  0.01191100  1
  O  O29  1  0.10463000  0.91438300  0.74064200  1
  O  O30  1  0.59319500  0.25158000  0.43159000  1
  O  O31  1  0.18827300  0.99282400  0.39578700  1
  O  O32  1  0.42311900  0.59343200  0.23014700  1
  O  O33  1  0.23266300  0.90296300  0.09081600  1
  O  O34  1  0.25596900  0.42591300  0.60037000  1
  O  O35  1  0.05430500  0.58675300  0.82703300  1
  O  O36  1  0.54068700  0.31036000  0.09959800  1
  O  O37  1  0.08765100  0.24849900  0.90468700  1
  O  O38  1  0.32332200  0.08840500  0.52869700  1
  O  O39  1  0.08346400  0.53094700  0.33283500  1
