# generated using pymatgen
data_Li4TiV5O12
_symmetry_space_group_name_H-M   'P 1'
_cell_length_a   5.14916746
_cell_length_b   5.14916746
_cell_length_c   10.24840431
_cell_angle_alpha   89.40382995
_cell_angle_beta   89.40382995
_cell_angle_gamma   119.22545414
_symmetry_Int_Tables_number   1
_chemical_formula_structural   Li4TiV5O12
_chemical_formula_sum   'Li4 Ti1 V5 O12'
_cell_volume   237.08603727
_cell_formula_units_Z   1
loop_
 _symmetry_equiv_pos_site_id
 _symmetry_equiv_pos_as_xyz
  1  'x, y, z'
loop_
 _atom_site_type_symbol
 _atom_site_label
 _atom_site_symmetry_multiplicity
 _atom_site_fract_x
 _atom_site_fract_y
 _atom_site_fract_z
 _atom_site_occupancy
  Li  Li0  1  0.85964300  0.35430900  0.24957300  1
  Li  Li1  1  0.64569100  0.14035700  0.75042700  1
  Li  Li2  1  0.35430900  0.85964300  0.24957300  1
  Li  Li3  1  0.14035700  0.64569100  0.75042700  1
  Ti  Ti4  1  0.00000000  0.00000000  0.00000000  1
  V  V5  1  0.50000000  0.50000000  0.50000000  1
  V  V6  1  0.84271200  0.15728800  0.50000000  1
  V  V7  1  0.66224400  0.33775600  0.00000000  1
  V  V8  1  0.33775600  0.66224400  0.00000000  1
  V  V9  1  0.15728800  0.84271200  0.50000000  1
  O  O10  1  0.98929900  0.32550300  0.89324600  1
  O  O11  1  0.67449700  0.01070100  0.10675400  1
  O  O12  1  0.83769700  0.49072900  0.60610200  1
  O  O13  1  0.50927100  0.16230300  0.39389800  1
  O  O14  1  0.83194600  0.83194600  0.39571500  1
  O  O15  1  0.68094600  0.68094600  0.89908900  1
  O  O16  1  0.31905400  0.31905400  0.10091100  1
  O  O17  1  0.16805400  0.16805400  0.60428500  1
  O  O18  1  0.49072900  0.83769700  0.60610200  1
  O  O19  1  0.16230300  0.50927100  0.39389800  1
  O  O20  1  0.32550300  0.98929900  0.89324600  1
  O  O21  1  0.01070100  0.67449700  0.10675400  1
