# generated using pymatgen
data_Li5V3P8O29
_symmetry_space_group_name_H-M   'P 1'
_cell_length_a   9.75795887
_cell_length_b   9.75795887
_cell_length_c   13.99921490
_cell_angle_alpha   89.91849810
_cell_angle_beta   89.91849810
_cell_angle_gamma   60.07601301
_symmetry_Int_Tables_number   1
_chemical_formula_structural   Li5V3P8O29
_chemical_formula_sum   'Li10 V6 P16 O58'
_cell_volume   1155.27090085
_cell_formula_units_Z   2
loop_
 _symmetry_equiv_pos_site_id
 _symmetry_equiv_pos_as_xyz
  1  'x, y, z'
loop_
 _atom_site_type_symbol
 _atom_site_label
 _atom_site_symmetry_multiplicity
 _atom_site_fract_x
 _atom_site_fract_y
 _atom_site_fract_z
 _atom_site_occupancy
  Li  Li0  1  0.10346600  0.66186700  0.94184200  1
  Li  Li1  1  0.66186700  0.10346600  0.44184200  1
  Li  Li2  1  0.09459000  0.23707800  0.43965300  1
  Li  Li3  1  0.76292200  0.90541000  0.06034700  1
  Li  Li4  1  0.23707800  0.09459000  0.93965300  1
  Li  Li5  1  0.90541000  0.76292200  0.56034700  1
  Li  Li6  1  0.33813300  0.89653400  0.55815800  1
  Li  Li7  1  0.89653400  0.33813300  0.05815800  1
  Li  Li8  1  0.00000000  0.00000000  0.50000000  1
  Li  Li9  1  0.00000000  0.00000000  0.00000000  1
  V  V10  1  0.56479000  0.00165600  0.24682700  1
  V  V11  1  0.43521000  0.99834400  0.75317300  1
  V  V12  1  0.00165600  0.56479000  0.74682700  1
  V  V13  1  0.99834400  0.43521000  0.25317300  1
  V  V14  1  0.43449600  0.56550400  0.25000000  1
  V  V15  1  0.56550400  0.43449600  0.75000000  1
  P  P16  1  0.22570100  0.69347800  0.65553000  1
  P  P17  1  0.08832000  0.68694600  0.16099700  1
  P  P18  1  0.69347800  0.22570100  0.15553000  1
  P  P19  1  0.33575100  0.33199600  0.37007900  1
  P  P20  1  0.33199600  0.33575100  0.87007900  1
  P  P21  1  0.68694600  0.08832000  0.66099700  1
  P  P22  1  0.77642600  0.90990800  0.84392800  1
  P  P23  1  0.09009200  0.22357400  0.65607200  1
  P  P24  1  0.90990800  0.77642600  0.34392800  1
  P  P25  1  0.22357400  0.09009200  0.15607200  1
  P  P26  1  0.31305400  0.91168000  0.33900300  1
  P  P27  1  0.66800400  0.66424900  0.12992100  1
  P  P28  1  0.66424900  0.66800400  0.62992100  1
  P  P29  1  0.30652200  0.77429900  0.84447000  1
  P  P30  1  0.91168000  0.31305400  0.83900300  1
  P  P31  1  0.77429900  0.30652200  0.34447000  1
  O  O32  1  0.20578000  0.78558800  0.92823600  1
  O  O33  1  0.25843300  0.65893300  0.16561400  1
  O  O34  1  0.98371500  0.78690500  0.43479100  1
  O  O35  1  0.08443300  0.66192500  0.65697700  1
  O  O36  1  0.38338000  0.53726200  0.66890300  1
  O  O37  1  0.33288000  0.47890000  0.32011000  1
  O  O38  1  0.53726200  0.38338000  0.16890300  1
  O  O39  1  0.78558800  0.20578000  0.42823600  1
  O  O40  1  0.65893300  0.25843300  0.66561400  1
  O  O41  1  0.18619600  0.48887600  0.82941500  1
  O  O42  1  0.08802700  0.53135500  0.17277900  1
  O  O43  1  0.47890000  0.33288000  0.82011000  1
  O  O44  1  0.33868600  0.33392400  0.47622400  1
  O  O45  1  0.33392400  0.33868600  0.97622400  1
  O  O46  1  0.48887600  0.18619600  0.32941600  1
  O  O47  1  0.09093300  0.37994100  0.67061400  1
  O  O48  1  0.18785900  0.32404400  0.33207900  1
  O  O49  1  0.66192500  0.08443300  0.15697700  1
  O  O50  1  0.79697700  0.99914300  0.75245600  1
  O  O51  1  0.78690500  0.98371500  0.93479100  1
  O  O52  1  0.77708000  0.00369100  0.57180600  1
  O  O53  1  0.53135500  0.08802700  0.67277900  1
  O  O54  1  0.32404400  0.18785900  0.83207900  1
  O  O55  1  0.73872500  0.91909500  0.33687300  1
  O  O56  1  0.37994100  0.09093300  0.17061400  1
  O  O57  1  0.08090500  0.26127500  0.16312700  1
  O  O58  1  0.99914300  0.79697700  0.25245600  1
  O  O59  1  0.00369100  0.77708000  0.07180600  1
  O  O60  1  0.99630900  0.22292000  0.92819400  1
  O  O61  1  0.91909500  0.73872500  0.83687300  1
  O  O62  1  0.62005900  0.90906700  0.82938600  1
  O  O63  1  0.26127500  0.08090500  0.66312700  1
  O  O64  1  0.67595600  0.81214100  0.16792100  1
  O  O65  1  0.46864500  0.91197300  0.32722100  1
  O  O66  1  0.22292000  0.99630900  0.42819400  1
  O  O67  1  0.21309500  0.01628500  0.06520900  1
  O  O68  1  0.20302300  0.00085700  0.24754400  1
  O  O69  1  0.33807500  0.91556700  0.84302300  1
  O  O70  1  0.81214100  0.67595600  0.66792100  1
  O  O71  1  0.90906700  0.62005900  0.32938600  1
  O  O72  1  0.51112400  0.81380400  0.67058500  1
  O  O73  1  0.66131400  0.66607600  0.52377600  1
  O  O74  1  0.66607600  0.66131400  0.02377600  1
  O  O75  1  0.52110000  0.66712000  0.17989000  1
  O  O76  1  0.91197300  0.46864500  0.82722100  1
  O  O77  1  0.81380400  0.51112400  0.17058500  1
  O  O78  1  0.34106700  0.74156700  0.33438600  1
  O  O79  1  0.20289700  0.79710300  0.75000000  1
  O  O80  1  0.21441200  0.79422000  0.57176400  1
  O  O81  1  0.46273800  0.61662000  0.83109700  1
  O  O82  1  0.66712000  0.52110000  0.67989000  1
  O  O83  1  0.61662000  0.46273800  0.33109700  1
  O  O84  1  0.91556700  0.33807500  0.34302300  1
  O  O85  1  0.01628500  0.21309500  0.56520900  1
  O  O86  1  0.00085700  0.20302300  0.74754400  1
  O  O87  1  0.74156700  0.34106700  0.83438600  1
  O  O88  1  0.79422000  0.21441200  0.07176400  1
  O  O89  1  0.79710300  0.20289700  0.25000000  1
