# generated using pymatgen
data_Li4Ti3Mn2Co3O16
_symmetry_space_group_name_H-M   'P 1'
_cell_length_a   5.77080760
_cell_length_b   5.77080760
_cell_length_c   9.50576485
_cell_angle_alpha   89.31596558
_cell_angle_beta   89.31596558
_cell_angle_gamma   60.50230574
_symmetry_Int_Tables_number   1
_chemical_formula_structural   Li4Ti3Mn2Co3O16
_chemical_formula_sum   'Li4 Ti3 Mn2 Co3 O16'
_cell_volume   275.50243446
_cell_formula_units_Z   1
loop_
 _symmetry_equiv_pos_site_id
 _symmetry_equiv_pos_as_xyz
  1  'x, y, z'
loop_
 _atom_site_type_symbol
 _atom_site_label
 _atom_site_symmetry_multiplicity
 _atom_site_fract_x
 _atom_site_fract_y
 _atom_site_fract_z
 _atom_site_occupancy
  Li  Li0  1  0.32713100  0.32713100  0.88783600  1
  Li  Li1  1  0.01800600  0.01800600  0.99012200  1
  Li  Li2  1  0.00879100  0.00879100  0.49990200  1
  Li  Li3  1  0.66267200  0.66267200  0.40205900  1
  Ti  Ti4  1  0.16753100  0.66737600  0.21409600  1
  Ti  Ti5  1  0.66737600  0.16753100  0.21409600  1
  Ti  Ti6  1  0.82451300  0.82451300  0.71534600  1
  Mn  Mn7  1  0.33199200  0.33199200  0.49095900  1
  Mn  Mn8  1  0.65994900  0.65994900  0.98224700  1
  Co  Co9  1  0.17585000  0.17585000  0.21729900  1
  Co  Co10  1  0.34002600  0.82379200  0.70981200  1
  Co  Co11  1  0.82379200  0.34002600  0.70981200  1
  O  O12  1  0.16342200  0.66683600  0.59681800  1
  O  O13  1  0.47958300  0.47958300  0.34414400  1
  O  O14  1  0.34009400  0.34009400  0.10277200  1
  O  O15  1  0.00740100  0.00740100  0.31387100  1
  O  O16  1  0.99869000  0.99869000  0.80363500  1
  O  O17  1  0.66683600  0.16342200  0.59681800  1
  O  O18  1  0.04054200  0.47745200  0.34506000  1
  O  O19  1  0.47745200  0.04054200  0.34506000  1
  O  O20  1  0.84174000  0.84174000  0.10778400  1
  O  O21  1  0.16672800  0.16672800  0.60095200  1
  O  O22  1  0.51055600  0.95419600  0.84018600  1
  O  O23  1  0.95419600  0.51055600  0.84018600  1
  O  O24  1  0.66399100  0.66399100  0.60306000  1
  O  O25  1  0.33228900  0.83985800  0.10606000  1
  O  O26  1  0.50816500  0.50816500  0.82171800  1
  O  O27  1  0.83985800  0.33228900  0.10606000  1
