# generated using pymatgen
data_LiH2NO3
_symmetry_space_group_name_H-M   'P 1'
_cell_length_a   14.45597600
_cell_length_b   3.47563600
_cell_length_c   6.48507135
_cell_angle_alpha   73.05582463
_cell_angle_beta   90.00000000
_cell_angle_gamma   90.00000000
_symmetry_Int_Tables_number   1
_chemical_formula_structural   LiH2NO3
_chemical_formula_sum   'Li4 H8 N4 O12'
_cell_volume   311.68932065
_cell_formula_units_Z   4
loop_
 _symmetry_equiv_pos_site_id
 _symmetry_equiv_pos_as_xyz
  1  'x, y, z'
loop_
 _atom_site_type_symbol
 _atom_site_label
 _atom_site_symmetry_multiplicity
 _atom_site_fract_x
 _atom_site_fract_y
 _atom_site_fract_z
 _atom_site_occupancy
  Li  Li0  1  0.33441800  0.64035700  0.14513200  1
  Li  Li1  1  0.83441800  0.35964300  0.35486800  1
  Li  Li2  1  0.66558200  0.35964300  0.85486800  1
  Li  Li3  1  0.16558200  0.64035700  0.64513200  1
  H  H4  1  0.95714500  0.91229000  0.25725200  1
  H  H5  1  0.45714500  0.08771000  0.24274800  1
  H  H6  1  0.04285500  0.08771000  0.74274800  1
  H  H7  1  0.54285500  0.91229000  0.75725200  1
  H  H8  1  0.88164700  0.03345400  0.06702300  1
  H  H9  1  0.38164700  0.96654600  0.43297700  1
  H  H10  1  0.11835300  0.96654600  0.93297700  1
  H  H11  1  0.61835300  0.03345400  0.56702300  1
  N  N12  1  0.86203100  0.20875200  0.77977800  1
  N  N13  1  0.36203100  0.79124800  0.72022200  1
  N  N14  1  0.13796900  0.79124800  0.22022200  1
  N  N15  1  0.63796900  0.20875200  0.27977800  1
  O  O16  1  0.78498600  0.35353200  0.69854200  1
  O  O17  1  0.28498600  0.64646800  0.80145800  1
  O  O18  1  0.21501400  0.64646800  0.30145800  1
  O  O19  1  0.71501400  0.35353200  0.19854200  1
  O  O20  1  0.92200200  0.17746400  0.64376700  1
  O  O21  1  0.42200200  0.82253600  0.85623300  1
  O  O22  1  0.07799800  0.82253600  0.35623300  1
  O  O23  1  0.57799800  0.17746400  0.14376700  1
  O  O24  1  0.88940900  0.93211300  0.22681600  1
  O  O25  1  0.38940900  0.06788700  0.27318400  1
  O  O26  1  0.11059100  0.06788700  0.77318400  1
  O  O27  1  0.61059100  0.93211300  0.72681600  1
