# generated using pymatgen
data_Li3SbS3
_symmetry_space_group_name_H-M   'P 1'
_cell_length_a   11.92475600
_cell_length_b   4.15421200
_cell_length_c   12.73048327
_cell_angle_alpha   73.08823262
_cell_angle_beta   90.00000000
_cell_angle_gamma   90.00000000
_symmetry_Int_Tables_number   1
_chemical_formula_structural   Li3SbS3
_chemical_formula_sum   'Li12 Sb4 S12'
_cell_volume   603.36938546
_cell_formula_units_Z   4
loop_
 _symmetry_equiv_pos_site_id
 _symmetry_equiv_pos_as_xyz
  1  'x, y, z'
loop_
 _atom_site_type_symbol
 _atom_site_label
 _atom_site_symmetry_multiplicity
 _atom_site_fract_x
 _atom_site_fract_y
 _atom_site_fract_z
 _atom_site_occupancy
  Li  Li0  1  0.45050500  0.89027800  0.61332500  1
  Li  Li1  1  0.97333600  0.81443900  0.62538500  1
  Li  Li2  1  0.22330500  0.42551900  0.01725800  1
  Li  Li3  1  0.04949500  0.89027800  0.11332500  1
  Li  Li4  1  0.52666400  0.81443900  0.12538500  1
  Li  Li5  1  0.72330500  0.57448100  0.48274200  1
  Li  Li6  1  0.27669500  0.42551900  0.51725800  1
  Li  Li7  1  0.47333600  0.18556100  0.87461500  1
  Li  Li8  1  0.95050500  0.10972200  0.88667500  1
  Li  Li9  1  0.77669500  0.57448100  0.98274200  1
  Li  Li10  1  0.02666400  0.18556100  0.37461500  1
  Li  Li11  1  0.54949500  0.10972200  0.38667500  1
  Sb  Sb12  1  0.69343000  0.52212000  0.74881800  1
  Sb  Sb13  1  0.80657000  0.52212000  0.24881800  1
  Sb  Sb14  1  0.19343000  0.47788000  0.75118200  1
  Sb  Sb15  1  0.30657000  0.47788000  0.25118200  1
  S  S16  1  0.65479800  0.98242300  0.57550200  1
  S  S17  1  0.58708700  0.66223800  0.89753500  1
  S  S18  1  0.84520200  0.98242300  0.07550200  1
  S  S19  1  0.88158300  0.68201800  0.80320500  1
  S  S20  1  0.91291300  0.66223800  0.39753500  1
  S  S21  1  0.61841700  0.68201800  0.30320500  1
  S  S22  1  0.38158300  0.31798200  0.69679500  1
  S  S23  1  0.08708700  0.33776200  0.60246500  1
  S  S24  1  0.11841700  0.31798200  0.19679500  1
  S  S25  1  0.15479800  0.01757700  0.92449800  1
  S  S26  1  0.41291300  0.33776200  0.10246500  1
  S  S27  1  0.34520200  0.01757700  0.42449800  1
