# generated using pymatgen
data_Li4Mn3Cr3(SbO8)2
_symmetry_space_group_name_H-M   'P 1'
_cell_length_a   5.99294761
_cell_length_b   5.99294761
_cell_length_c   9.75710428
_cell_angle_alpha   88.60550435
_cell_angle_beta   88.60550435
_cell_angle_gamma   59.43137429
_symmetry_Int_Tables_number   1
_chemical_formula_structural   Li4Mn3Cr3(SbO8)2
_chemical_formula_sum   'Li4 Mn3 Cr3 Sb2 O16'
_cell_volume   301.60942253
_cell_formula_units_Z   1
loop_
 _symmetry_equiv_pos_site_id
 _symmetry_equiv_pos_as_xyz
  1  'x, y, z'
loop_
 _atom_site_type_symbol
 _atom_site_label
 _atom_site_symmetry_multiplicity
 _atom_site_fract_x
 _atom_site_fract_y
 _atom_site_fract_z
 _atom_site_occupancy
  Li  Li0  1  0.66327100  0.66327100  0.09299100  1
  Li  Li1  1  0.00069100  0.00069100  0.01134000  1
  Li  Li2  1  0.00379200  0.00379200  0.51143200  1
  Li  Li3  1  0.33403300  0.33403300  0.59863600  1
  Mn  Mn4  1  0.83201600  0.83201600  0.78869500  1
  Mn  Mn5  1  0.17012700  0.66258400  0.28746500  1
  Mn  Mn6  1  0.66258400  0.17012700  0.28746500  1
  Cr  Cr7  1  0.34001600  0.83118000  0.78586400  1
  Cr  Cr8  1  0.83118000  0.34001600  0.78586400  1
  Cr  Cr9  1  0.17062100  0.17062100  0.28500400  1
  Sb  Sb10  1  0.66868100  0.66868100  0.51515600  1
  Sb  Sb11  1  0.32899500  0.32899500  0.01271500  1
  O  O12  1  0.33821500  0.83978000  0.40819300  1
  O  O13  1  0.51863700  0.51863700  0.66043200  1
  O  O14  1  0.67040400  0.67040400  0.88637100  1
  O  O15  1  0.99695200  0.99695200  0.69720800  1
  O  O16  1  0.99968200  0.99968200  0.19922700  1
  O  O17  1  0.83978000  0.33821500  0.40819300  1
  O  O18  1  0.51114700  0.96581400  0.65313300  1
  O  O19  1  0.96581400  0.51114700  0.65313300  1
  O  O20  1  0.16496400  0.16496400  0.90071800  1
  O  O21  1  0.83876600  0.83876600  0.40807800  1
  O  O22  1  0.02849500  0.47064900  0.15045800  1
  O  O23  1  0.47064900  0.02849500  0.15045800  1
  O  O24  1  0.33477900  0.33477900  0.38469500  1
  O  O25  1  0.16897900  0.66851400  0.90839700  1
  O  O26  1  0.47794300  0.47794300  0.15243200  1
  O  O27  1  0.66851400  0.16897900  0.90839700  1
