# generated using pymatgen
data_Li5CoO4
_symmetry_space_group_name_H-M   'P 1'
_cell_length_a   6.45575001
_cell_length_b   6.45575001
_cell_length_c   4.72322800
_cell_angle_alpha   90.00000000
_cell_angle_beta   90.00000000
_cell_angle_gamma   93.98616317
_symmetry_Int_Tables_number   1
_chemical_formula_structural   Li5CoO4
_chemical_formula_sum   'Li10 Co2 O8'
_cell_volume   196.37239247
_cell_formula_units_Z   2
loop_
 _symmetry_equiv_pos_site_id
 _symmetry_equiv_pos_as_xyz
  1  'x, y, z'
loop_
 _atom_site_type_symbol
 _atom_site_label
 _atom_site_symmetry_multiplicity
 _atom_site_fract_x
 _atom_site_fract_y
 _atom_site_fract_z
 _atom_site_occupancy
  Li  Li0  1  0.04931200  0.54117600  0.52623600  1
  Li  Li1  1  0.71981100  0.71554700  0.44146200  1
  Li  Li2  1  0.78445300  0.78018900  0.94146200  1
  Li  Li3  1  0.45882400  0.95068800  0.47376400  1
  Li  Li4  1  0.01782600  0.98217400  0.50000000  1
  Li  Li5  1  0.54931200  0.04117600  0.97376400  1
  Li  Li6  1  0.21981100  0.21554700  0.05853800  1
  Li  Li7  1  0.28445300  0.28018900  0.55853800  1
  Li  Li8  1  0.95882400  0.45068800  0.02623600  1
  Li  Li9  1  0.51782600  0.48217400  0.00000000  1
  Co  Co10  1  0.24337800  0.75662200  0.00000000  1
  Co  Co11  1  0.74337800  0.25662200  0.50000000  1
  O  O12  1  0.76199200  0.49967700  0.72421600  1
  O  O13  1  0.00032300  0.73800800  0.22421600  1
  O  O14  1  0.51369300  0.76593500  0.16040500  1
  O  O15  1  0.73406500  0.98630700  0.66040500  1
  O  O16  1  0.26199200  0.99967700  0.77578400  1
  O  O17  1  0.01369300  0.26593500  0.33959500  1
  O  O18  1  0.50032300  0.23800800  0.27578400  1
  O  O19  1  0.23406500  0.48630700  0.83959500  1
