# generated using pymatgen
data_Li3MnV(PO4)3
_symmetry_space_group_name_H-M   'P 1'
_cell_length_a   9.86210496
_cell_length_b   9.86210496
_cell_length_c   9.77312377
_cell_angle_alpha   87.11581233
_cell_angle_beta   87.11581233
_cell_angle_gamma   84.37120671
_symmetry_Int_Tables_number   1
_chemical_formula_structural   Li3MnV(PO4)3
_chemical_formula_sum   'Li12 Mn4 V4 P12 O48'
_cell_volume   943.77799416
_cell_formula_units_Z   4
loop_
 _symmetry_equiv_pos_site_id
 _symmetry_equiv_pos_as_xyz
  1  'x, y, z'
loop_
 _atom_site_type_symbol
 _atom_site_label
 _atom_site_symmetry_multiplicity
 _atom_site_fract_x
 _atom_site_fract_y
 _atom_site_fract_z
 _atom_site_occupancy
  Li  Li0  1  0.98826000  0.50688700  0.24130900  1
  Li  Li1  1  0.01156400  0.25401800  0.38754500  1
  Li  Li2  1  0.78460900  0.56500100  0.46602400  1
  Li  Li3  1  0.76930100  0.73337500  0.17770100  1
  Li  Li4  1  0.74598200  0.98843600  0.61245500  1
  Li  Li5  1  0.63143000  0.74794300  0.80315100  1
  Li  Li6  1  0.49311300  0.01174000  0.75869100  1
  Li  Li7  1  0.43499900  0.21539100  0.53397600  1
  Li  Li8  1  0.29867900  0.92531400  0.97560800  1
  Li  Li9  1  0.26662500  0.23069900  0.82229900  1
  Li  Li10  1  0.25205700  0.36857000  0.19684900  1
  Li  Li11  1  0.07468600  0.70132100  0.02439200  1
  Mn  Mn12  1  0.75676400  0.24323600  0.00000000  1
  Mn  Mn13  1  0.26113500  0.97405700  0.27769700  1
  Mn  Mn14  1  0.24396200  0.75603800  0.50000000  1
  Mn  Mn15  1  0.02594300  0.73886500  0.72230300  1
  V  V16  1  0.97305000  0.25139000  0.78027300  1
  V  V17  1  0.74861000  0.02695000  0.21972700  1
  V  V18  1  0.53026300  0.46973700  0.00000000  1
  V  V19  1  0.46668000  0.53332000  0.50000000  1
  P  P20  1  0.94588200  0.81605600  0.40613600  1
  P  P21  1  0.82768600  0.94684700  0.90389200  1
  P  P22  1  0.84028500  0.54951200  0.92782400  1
  P  P23  1  0.68051600  0.34095300  0.30143000  1
  P  P24  1  0.65904700  0.31948400  0.69857000  1
  P  P25  1  0.55719600  0.83784600  0.42624400  1
  P  P26  1  0.45048800  0.15971500  0.07217600  1
  P  P27  1  0.34972900  0.68540100  0.80117900  1
  P  P28  1  0.31459900  0.65027100  0.19882100  1
  P  P29  1  0.16215400  0.44280400  0.57375600  1
  P  P30  1  0.18394400  0.05411800  0.59386400  1
  P  P31  1  0.05315300  0.17231400  0.09610800  1
  O  O32  1  0.96893300  0.87100800  0.86954100  1
  O  O33  1  0.90817300  0.82226500  0.56086200  1
  O  O34  1  0.87362200  0.62044200  0.79061200  1
  O  O35  1  0.88855200  0.95380300  0.33823700  1
  O  O36  1  0.89505500  0.69227400  0.34063500  1
  O  O37  1  0.88068100  0.39344200  0.92163600  1
  O  O38  1  0.89979200  0.60444200  0.05411500  1
  O  O39  1  0.89312200  0.15920800  0.12457600  1
  O  O40  1  0.84079200  0.10687800  0.87542400  1
  O  O41  1  0.81526200  0.31211100  0.67239700  1
  O  O42  1  0.79589000  0.91183300  0.05816100  1
  O  O43  1  0.80643100  0.40273000  0.34870800  1
  O  O44  1  0.71373100  0.91491200  0.81367600  1
  O  O45  1  0.67665200  0.57787400  0.94448200  1
  O  O46  1  0.68788900  0.18473800  0.32760300  1
  O  O47  1  0.67126600  0.37533600  0.13806500  1
  O  O48  1  0.63143400  0.87851700  0.28884700  1
  O  O49  1  0.59699800  0.90677700  0.55232700  1
  O  O50  1  0.62466400  0.32873400  0.86193500  1
  O  O51  1  0.60318900  0.45716000  0.63274400  1
  O  O52  1  0.59141200  0.67745500  0.44337400  1
  O  O53  1  0.59727000  0.19356900  0.65129200  1
  O  O54  1  0.60655800  0.11931900  0.07836400  1
  O  O55  1  0.54284000  0.39681100  0.36725600  1
  O  O56  1  0.42549400  0.80511000  0.84080300  1
  O  O57  1  0.45353300  0.58330000  0.13863800  1
  O  O58  1  0.41670000  0.54646700  0.86136200  1
  O  O59  1  0.39995200  0.87401300  0.41016300  1
  O  O60  1  0.37232800  0.67107800  0.63990100  1
  O  O61  1  0.39555800  0.10020800  0.94588500  1
  O  O62  1  0.42212600  0.32334800  0.05551800  1
  O  O63  1  0.37955800  0.12637800  0.20938800  1
  O  O64  1  0.32892200  0.62767200  0.36009900  1
  O  O65  1  0.30166800  0.80184600  0.15149400  1
  O  O66  1  0.32254500  0.40858800  0.55662600  1
  O  O67  1  0.30772600  0.10494500  0.65936500  1
  O  O68  1  0.19815400  0.69833200  0.84850600  1
  O  O69  1  0.18347100  0.89489600  0.62468000  1
  O  O70  1  0.19489000  0.57450600  0.15919700  1
  O  O71  1  0.17773500  0.09182700  0.43913800  1
  O  O72  1  0.12598700  0.60004800  0.58983700  1
  O  O73  1  0.10510400  0.81652900  0.37532000  1
  O  O74  1  0.12148300  0.36856600  0.71115300  1
  O  O75  1  0.08816700  0.20411000  0.94183900  1
  O  O76  1  0.09322300  0.40300200  0.44767300  1
  O  O77  1  0.12899200  0.03106700  0.13045900  1
  O  O78  1  0.08508800  0.28626900  0.18632400  1
  O  O79  1  0.04619700  0.11144800  0.66176300  1
