# generated using pymatgen
data_NaLi5Mn2P2(CO7)2
_symmetry_space_group_name_H-M   'P 1'
_cell_length_a   6.69722300
_cell_length_b   8.63143696
_cell_length_c   10.00968439
_cell_angle_alpha   87.52061895
_cell_angle_beta   89.92033859
_cell_angle_gamma   89.15983365
_symmetry_Int_Tables_number   1
_chemical_formula_structural   NaLi5Mn2P2(CO7)2
_chemical_formula_sum   'Na2 Li10 Mn4 P4 C4 O28'
_cell_volume   578.02240970
_cell_formula_units_Z   2
loop_
 _symmetry_equiv_pos_site_id
 _symmetry_equiv_pos_as_xyz
  1  'x, y, z'
loop_
 _atom_site_type_symbol
 _atom_site_label
 _atom_site_symmetry_multiplicity
 _atom_site_fract_x
 _atom_site_fract_y
 _atom_site_fract_z
 _atom_site_occupancy
  Na  Na0  1  0.49807300  0.75262300  0.37455700  1
  Na  Na1  1  0.50192700  0.24737700  0.62544300  1
  Li  Li2  1  0.76496100  0.91161800  0.12613700  1
  Li  Li3  1  0.76927400  0.91336900  0.62901500  1
  Li  Li4  1  0.97093900  0.72848300  0.38577900  1
  Li  Li5  1  0.97033200  0.73022200  0.88309900  1
  Li  Li6  1  0.52698100  0.73439100  0.88175700  1
  Li  Li7  1  0.47301900  0.26560900  0.11824300  1
  Li  Li8  1  0.02966800  0.26977800  0.11690100  1
  Li  Li9  1  0.02906100  0.27151700  0.61422100  1
  Li  Li10  1  0.23072600  0.08663100  0.37098500  1
  Li  Li11  1  0.23503900  0.08838200  0.87386300  1
  Mn  Mn12  1  0.24682200  0.65019500  0.10941200  1
  Mn  Mn13  1  0.24583900  0.64508900  0.61431800  1
  Mn  Mn14  1  0.75416100  0.35491100  0.38568200  1
  Mn  Mn15  1  0.75317800  0.34980500  0.89058800  1
  P  P16  1  0.75290900  0.59195100  0.14178400  1
  P  P17  1  0.75384600  0.59249800  0.64576300  1
  P  P18  1  0.24615400  0.40750200  0.35423700  1
  P  P19  1  0.24709100  0.40804900  0.85821600  1
  C  C20  1  0.24829200  0.96265100  0.13511600  1
  C  C21  1  0.23970500  0.95680800  0.63991200  1
  C  C22  1  0.76029500  0.04319200  0.36008800  1
  C  C23  1  0.75170800  0.03734900  0.86488400  1
  O  O24  1  0.77838400  0.89964800  0.32647700  1
  O  O25  1  0.74752000  0.89194600  0.83401100  1
  O  O26  1  0.24685300  0.92207800  0.01268700  1
  O  O27  1  0.25030100  0.92136600  0.51532800  1
  O  O28  1  0.24442200  0.85690200  0.23217200  1
  O  O29  1  0.24697000  0.84851000  0.73440200  1
  O  O30  1  0.93050000  0.68748700  0.08309300  1
  O  O31  1  0.56464700  0.68852700  0.09699600  1
  O  O32  1  0.92726200  0.69781800  0.59376600  1
  O  O33  1  0.56086400  0.67920200  0.59969600  1
  O  O34  1  0.76872000  0.58197900  0.29752100  1
  O  O35  1  0.22898800  0.57447700  0.40594100  1
  O  O36  1  0.75854200  0.57935400  0.80253700  1
  O  O37  1  0.25198800  0.57735600  0.90519600  1
  O  O38  1  0.74801200  0.42264400  0.09480400  1
  O  O39  1  0.24145800  0.42064600  0.19746300  1
  O  O40  1  0.77101200  0.42552300  0.59405900  1
  O  O41  1  0.23128000  0.41802100  0.70247900  1
  O  O42  1  0.43913600  0.32079800  0.40030400  1
  O  O43  1  0.07273800  0.30218200  0.40623400  1
  O  O44  1  0.43535300  0.31147300  0.90300400  1
  O  O45  1  0.06950000  0.31251300  0.91690700  1
  O  O46  1  0.75303000  0.15149000  0.26559800  1
  O  O47  1  0.75557800  0.14309800  0.76782800  1
  O  O48  1  0.74969900  0.07863400  0.48467200  1
  O  O49  1  0.75314700  0.07792200  0.98731300  1
  O  O50  1  0.25248000  0.10805400  0.16598900  1
  O  O51  1  0.22161600  0.10035200  0.67352300  1
