# generated using pymatgen
data_Li4CoOF4
_symmetry_space_group_name_H-M   'P 1'
_cell_length_a   2.92037717
_cell_length_b   11.67572527
_cell_length_c   11.49332811
_cell_angle_alpha   112.39901858
_cell_angle_beta   82.70278878
_cell_angle_gamma   89.99892801
_symmetry_Int_Tables_number   1
_chemical_formula_structural   Li4CoOF4
_chemical_formula_sum   'Li16 Co4 O4 F16'
_cell_volume   358.89071595
_cell_formula_units_Z   4
loop_
 _symmetry_equiv_pos_site_id
 _symmetry_equiv_pos_as_xyz
  1  'x, y, z'
loop_
 _atom_site_type_symbol
 _atom_site_label
 _atom_site_symmetry_multiplicity
 _atom_site_fract_x
 _atom_site_fract_y
 _atom_site_fract_z
 _atom_site_occupancy
  Li  Li0  1  0.00327600  0.49752600  0.99343500  1
  Li  Li1  1  0.00324300  0.74756500  0.99349900  1
  Li  Li2  1  0.00327500  0.99755200  0.99343700  1
  Li  Li3  1  0.00323500  0.24756500  0.99351200  1
  Li  Li4  1  0.79671000  0.15247400  0.40656600  1
  Li  Li5  1  0.79674600  0.40243400  0.40648900  1
  Li  Li6  1  0.79670900  0.65244700  0.40656700  1
  Li  Li7  1  0.79673900  0.90243400  0.40650100  1
  Li  Li8  1  0.19776300  0.35168000  0.60447400  1
  Li  Li9  1  0.19776200  0.60167400  0.60447300  1
  Li  Li10  1  0.19775500  0.85167900  0.60449000  1
  Li  Li11  1  0.19775300  0.10168300  0.60449100  1
  Li  Li12  1  0.60223900  0.29831900  0.79552800  1
  Li  Li13  1  0.60224800  0.54831700  0.79551000  1
  Li  Li14  1  0.60224800  0.79831900  0.79551200  1
  Li  Li15  1  0.60223800  0.04832600  0.79552900  1
  Co  Co16  1  0.39999700  0.69946400  0.20000200  1
  Co  Co17  1  0.40000800  0.95053600  0.19999300  1
  Co  Co18  1  0.39999700  0.19957100  0.20000100  1
  Co  Co19  1  0.39999800  0.45043600  0.20001500  1
  O  O20  1  0.90002800  0.07486700  0.19998200  1
  O  O21  1  0.90000600  0.32500000  0.20000200  1
  O  O22  1  0.90001000  0.57513100  0.20000700  1
  O  O23  1  0.90000800  0.82499800  0.20000000  1
  F  F24  1  0.50602300  0.37051600  0.98789400  1
  F  F25  1  0.50599900  0.62046000  0.98795400  1
  F  F26  1  0.50599300  0.87052400  0.98796600  1
  F  F27  1  0.50602500  0.12042000  0.98788900  1
  F  F28  1  0.29393100  0.27949500  0.41211900  1
  F  F29  1  0.29397200  0.52957800  0.41210800  1
  F  F30  1  0.29396200  0.77948800  0.41204400  1
  F  F31  1  0.29399700  0.02954400  0.41204400  1
  F  F32  1  0.69847900  0.22614400  0.60305200  1
  F  F33  1  0.69848700  0.47613600  0.60305400  1
  F  F34  1  0.69848000  0.72614500  0.60305200  1
  F  F35  1  0.69849300  0.97614400  0.60304100  1
  F  F36  1  0.10152800  0.42385300  0.79693900  1
  F  F37  1  0.10155500  0.67384700  0.79695000  1
  F  F38  1  0.10152600  0.92385400  0.79694300  1
  F  F39  1  0.10156100  0.17385300  0.79693800  1
