# generated using pymatgen
data_Li4CrTe2WO12
_symmetry_space_group_name_H-M   'P 1'
_cell_length_a   7.53269800
_cell_length_b   7.53696125
_cell_length_c   7.54239659
_cell_angle_alpha   87.04850089
_cell_angle_beta   86.96132984
_cell_angle_gamma   86.87373528
_symmetry_Int_Tables_number   1
_chemical_formula_structural   Li4CrTe2WO12
_chemical_formula_sum   'Li8 Cr2 Te4 W2 O24'
_cell_volume   426.46349447
_cell_formula_units_Z   2
loop_
 _symmetry_equiv_pos_site_id
 _symmetry_equiv_pos_as_xyz
  1  'x, y, z'
loop_
 _atom_site_type_symbol
 _atom_site_label
 _atom_site_symmetry_multiplicity
 _atom_site_fract_x
 _atom_site_fract_y
 _atom_site_fract_z
 _atom_site_occupancy
  Li  Li0  1  0.30438200  0.28154500  0.27633800  1
  Li  Li1  1  0.30436000  0.78149900  0.77647500  1
  Li  Li2  1  0.76634800  0.29371200  0.79135600  1
  Li  Li3  1  0.76629700  0.79351900  0.29128000  1
  Li  Li4  1  0.74870800  0.75616300  0.76600600  1
  Li  Li5  1  0.74874400  0.25624700  0.26591900  1
  Li  Li6  1  0.30854800  0.79986700  0.29536000  1
  Li  Li7  1  0.30843400  0.29992400  0.79543900  1
  Cr  Cr8  1  0.50001100  0.00388900  0.50473100  1
  Cr  Cr9  1  0.50000900  0.50375000  0.00465600  1
  Te  Te10  1  0.50253000  0.49828500  0.50106100  1
  Te  Te11  1  0.50253500  0.99822900  0.00101500  1
  Te  Te12  1  0.00108300  0.50404800  0.00416500  1
  Te  Te13  1  0.00099700  0.00393500  0.50404000  1
  W  W14  1  0.00434200  0.49981800  0.49916900  1
  W  W15  1  0.00435700  0.99978100  0.99918800  1
  O  O16  1  0.42629500  0.25896700  0.55294100  1
  O  O17  1  0.42624200  0.75899500  0.05292300  1
  O  O18  1  0.75258400  0.42789400  0.55567500  1
  O  O19  1  0.75256900  0.92777700  0.05558600  1
  O  O20  1  0.05956600  0.42398800  0.73656700  1
  O  O21  1  0.05942200  0.92419900  0.23729000  1
  O  O22  1  0.43146700  0.55021600  0.74259400  1
  O  O23  1  0.43161700  0.05026800  0.24277300  1
  O  O24  1  0.93151000  0.23892400  0.06559700  1
  O  O25  1  0.93182800  0.73961000  0.56553200  1
  O  O26  1  0.75262700  0.54470900  0.92441900  1
  O  O27  1  0.75328800  0.04465600  0.42461600  1
  O  O28  1  0.24785300  0.42812700  0.05402800  1
  O  O29  1  0.24721500  0.92834600  0.55385900  1
  O  O30  1  0.05821000  0.75938900  0.91788200  1
  O  O31  1  0.05802000  0.25865900  0.41793900  1
  O  O32  1  0.54974500  0.42966100  0.25842700  1
  O  O33  1  0.54963200  0.92966900  0.75833300  1
  O  O34  1  0.92816900  0.56913100  0.25650800  1
  O  O35  1  0.92832500  0.06907600  0.75588000  1
  O  O36  1  0.24475200  0.56229800  0.43269700  1
  O  O37  1  0.24475200  0.06239800  0.93283800  1
  O  O38  1  0.55246200  0.74071800  0.43568700  1
  O  O39  1  0.55256300  0.24052100  0.93561100  1
