# generated using pymatgen
data_Li3Fe(PO4)2
_symmetry_space_group_name_H-M   'P 1'
_cell_length_a   4.88038600
_cell_length_b   9.08468600
_cell_length_c   14.79660778
_cell_angle_alpha   76.36684589
_cell_angle_beta   90.00000000
_cell_angle_gamma   90.00000000
_symmetry_Int_Tables_number   1
_chemical_formula_structural   Li3Fe(PO4)2
_chemical_formula_sum   'Li12 Fe4 P8 O32'
_cell_volume   637.54995776
_cell_formula_units_Z   4
loop_
 _symmetry_equiv_pos_site_id
 _symmetry_equiv_pos_as_xyz
  1  'x, y, z'
loop_
 _atom_site_type_symbol
 _atom_site_label
 _atom_site_symmetry_multiplicity
 _atom_site_fract_x
 _atom_site_fract_y
 _atom_site_fract_z
 _atom_site_occupancy
  Li  Li0  1  0.74637500  0.89202000  0.92350300  1
  Li  Li1  1  0.75362500  0.89202000  0.42350300  1
  Li  Li2  1  0.34719600  0.73371300  0.50918400  1
  Li  Li3  1  0.15280400  0.73371300  0.00918400  1
  Li  Li4  1  0.86413400  0.60023300  0.65437400  1
  Li  Li5  1  0.63586600  0.60023300  0.15437400  1
  Li  Li6  1  0.36413400  0.39976700  0.84562600  1
  Li  Li7  1  0.13586600  0.39976700  0.34562600  1
  Li  Li8  1  0.65280400  0.26628700  0.49081600  1
  Li  Li9  1  0.84719600  0.26628700  0.99081600  1
  Li  Li10  1  0.24637500  0.10798000  0.57649700  1
  Li  Li11  1  0.25362500  0.10798000  0.07649700  1
  Fe  Fe12  1  0.20859800  0.81067400  0.79273800  1
  Fe  Fe13  1  0.29140200  0.81067400  0.29273800  1
  Fe  Fe14  1  0.70859800  0.18932600  0.70726200  1
  Fe  Fe15  1  0.79140200  0.18932600  0.20726200  1
  P  P16  1  0.75044700  0.93249000  0.62760300  1
  P  P17  1  0.74955300  0.93249000  0.12760300  1
  P  P18  1  0.77390000  0.59385300  0.85661600  1
  P  P19  1  0.72610000  0.59385300  0.35661600  1
  P  P20  1  0.27390000  0.40614700  0.64338400  1
  P  P21  1  0.22610000  0.40614700  0.14338400  1
  P  P22  1  0.25044700  0.06751000  0.87239700  1
  P  P23  1  0.24955300  0.06751000  0.37239700  1
  O  O24  1  0.52602100  0.96723700  0.69672100  1
  O  O25  1  0.97397900  0.96723700  0.19672100  1
  O  O26  1  0.35480900  0.90224900  0.91596800  1
  O  O27  1  0.14519100  0.90224900  0.41596800  1
  O  O28  1  0.63786800  0.84871900  0.55793800  1
  O  O29  1  0.86213200  0.84871900  0.05793800  1
  O  O30  1  0.99774700  0.84039800  0.67678500  1
  O  O31  1  0.50225300  0.84039800  0.17678500  1
  O  O32  1  0.50304200  0.67256900  0.81379600  1
  O  O33  1  0.93085700  0.71665700  0.89799600  1
  O  O34  1  0.99695800  0.67256900  0.31379600  1
  O  O35  1  0.56914300  0.71665700  0.39799600  1
  O  O36  1  0.18790600  0.55100400  0.57359800  1
  O  O37  1  0.31209400  0.55100400  0.07359800  1
  O  O38  1  0.97472200  0.56423100  0.78410200  1
  O  O39  1  0.47472200  0.43576900  0.71589800  1
  O  O40  1  0.52527800  0.56423100  0.28410200  1
  O  O41  1  0.02527800  0.43576900  0.21589800  1
  O  O42  1  0.68790600  0.44899600  0.92640200  1
  O  O43  1  0.81209400  0.44899600  0.42640200  1
  O  O44  1  0.43085700  0.28334300  0.60200400  1
  O  O45  1  0.00304200  0.32743100  0.68620400  1
  O  O46  1  0.06914300  0.28334300  0.10200400  1
  O  O47  1  0.49695800  0.32743100  0.18620400  1
  O  O48  1  0.49774700  0.15960200  0.82321500  1
  O  O49  1  0.00225300  0.15960200  0.32321500  1
  O  O50  1  0.13786800  0.15128100  0.94206200  1
  O  O51  1  0.36213200  0.15128100  0.44206200  1
  O  O52  1  0.85480900  0.09775100  0.58403200  1
  O  O53  1  0.64519100  0.09775100  0.08403200  1
  O  O54  1  0.02602100  0.03276300  0.80327900  1
  O  O55  1  0.47397900  0.03276300  0.30327900  1
