# generated using pymatgen
data_Li7CrO6
_symmetry_space_group_name_H-M   'P 1'
_cell_length_a   5.58863797
_cell_length_b   5.58863797
_cell_length_c   10.73392005
_cell_angle_alpha   89.97812441
_cell_angle_beta   89.97812441
_cell_angle_gamma   60.61512287
_symmetry_Int_Tables_number   1
_chemical_formula_structural   Li7CrO6
_chemical_formula_sum   'Li14 Cr2 O12'
_cell_volume   292.11885458
_cell_formula_units_Z   2
loop_
 _symmetry_equiv_pos_site_id
 _symmetry_equiv_pos_as_xyz
  1  'x, y, z'
loop_
 _atom_site_type_symbol
 _atom_site_label
 _atom_site_symmetry_multiplicity
 _atom_site_fract_x
 _atom_site_fract_y
 _atom_site_fract_z
 _atom_site_occupancy
  Li  Li0  1  0.00101600  0.62181200  0.25890500  1
  Li  Li1  1  0.99958500  0.61333800  0.86191500  1
  Li  Li2  1  0.32011100  0.70735000  0.73831100  1
  Li  Li3  1  0.02657000  0.29156800  0.74163500  1
  Li  Li4  1  0.38695500  0.61452800  0.36325400  1
  Li  Li5  1  0.33441100  0.34802200  0.59292200  1
  Li  Li6  1  0.65080400  0.68838600  0.09198600  1
  Li  Li7  1  0.34802200  0.33441100  0.09292200  1
  Li  Li8  1  0.68838600  0.65080400  0.59198600  1
  Li  Li9  1  0.61452800  0.38695500  0.86325400  1
  Li  Li10  1  0.29156800  0.02657000  0.24163500  1
  Li  Li11  1  0.70735000  0.32011100  0.23831100  1
  Li  Li12  1  0.61333800  0.99958500  0.36191500  1
  Li  Li13  1  0.62181200  0.00101600  0.75890500  1
  Cr  Cr14  1  0.99526100  0.00906600  0.50199100  1
  Cr  Cr15  1  0.00906600  0.99526100  0.00199100  1
  O  O16  1  0.99834100  0.70411700  0.04790700  1
  O  O17  1  0.29717100  0.71290100  0.54849600  1
  O  O18  1  0.01657100  0.28515900  0.55358900  1
  O  O19  1  0.32534800  0.36313300  0.77483400  1
  O  O20  1  0.63751100  0.68944800  0.27373700  1
  O  O21  1  0.98147200  0.99670000  0.83867300  1
  O  O22  1  0.99670000  0.98147200  0.33867300  1
  O  O23  1  0.36313300  0.32534800  0.27483400  1
  O  O24  1  0.68944800  0.63751100  0.77373700  1
  O  O25  1  0.28515900  0.01657100  0.05358900  1
  O  O26  1  0.71290100  0.29717100  0.04849600  1
  O  O27  1  0.70411700  0.99834100  0.54790700  1
