# generated using pymatgen
data_LiSiBiO4
_symmetry_space_group_name_H-M   'P 1'
_cell_length_a   5.24969800
_cell_length_b   7.85119300
_cell_length_c   8.65702200
_cell_angle_alpha   90.00000000
_cell_angle_beta   90.00000000
_cell_angle_gamma   90.00000000
_symmetry_Int_Tables_number   1
_chemical_formula_structural   LiSiBiO4
_chemical_formula_sum   'Li4 Si4 Bi4 O16'
_cell_volume   356.81121395
_cell_formula_units_Z   4
loop_
 _symmetry_equiv_pos_site_id
 _symmetry_equiv_pos_as_xyz
  1  'x, y, z'
loop_
 _atom_site_type_symbol
 _atom_site_label
 _atom_site_symmetry_multiplicity
 _atom_site_fract_x
 _atom_site_fract_y
 _atom_site_fract_z
 _atom_site_occupancy
  Li  Li0  1  0.97468100  0.77918300  0.08153900  1
  Li  Li1  1  0.97468100  0.27918300  0.41846100  1
  Li  Li2  1  0.47468100  0.72081700  0.58153900  1
  Li  Li3  1  0.47468100  0.22081700  0.91846100  1
  Si  Si4  1  0.98634700  0.23651500  0.07921700  1
  Si  Si5  1  0.98634700  0.73651500  0.42078300  1
  Si  Si6  1  0.48634700  0.26348500  0.57921700  1
  Si  Si7  1  0.48634700  0.76348500  0.92078300  1
  Bi  Bi8  1  0.45272900  0.47538000  0.27139700  1
  Bi  Bi9  1  0.45272900  0.97538000  0.22860300  1
  Bi  Bi10  1  0.95272900  0.02462000  0.77139700  1
  Bi  Bi11  1  0.95272900  0.52462000  0.72860300  1
  O  O12  1  0.34575100  0.73146400  0.09133300  1
  O  O13  1  0.25912800  0.34331100  0.08074900  1
  O  O14  1  0.07173600  0.03283400  0.08176300  1
  O  O15  1  0.79296700  0.28038000  0.22105100  1
  O  O16  1  0.79296700  0.78038000  0.27894900  1
  O  O17  1  0.07173600  0.53283400  0.41823700  1
  O  O18  1  0.25912800  0.84331100  0.41925100  1
  O  O19  1  0.34575100  0.23146400  0.40866700  1
  O  O20  1  0.84575100  0.76853600  0.59133300  1
  O  O21  1  0.75912800  0.15668900  0.58074900  1
  O  O22  1  0.57173600  0.46716600  0.58176300  1
  O  O23  1  0.29296700  0.21962000  0.72105100  1
  O  O24  1  0.29296700  0.71962000  0.77894900  1
  O  O25  1  0.57173600  0.96716600  0.91823700  1
  O  O26  1  0.75912800  0.65668900  0.91925100  1
  O  O27  1  0.84575100  0.26853600  0.90866700  1
