# generated using pymatgen
data_Li4V3P8O29
_symmetry_space_group_name_H-M   'P 1'
_cell_length_a   9.77752800
_cell_length_b   9.78691702
_cell_length_c   14.29042363
_cell_angle_alpha   90.46222136
_cell_angle_beta   89.79290691
_cell_angle_gamma   119.93613517
_symmetry_Int_Tables_number   1
_chemical_formula_structural   Li4V3P8O29
_chemical_formula_sum   'Li8 V6 P16 O58'
_cell_volume   1184.99264923
_cell_formula_units_Z   2
loop_
 _symmetry_equiv_pos_site_id
 _symmetry_equiv_pos_as_xyz
  1  'x, y, z'
loop_
 _atom_site_type_symbol
 _atom_site_label
 _atom_site_symmetry_multiplicity
 _atom_site_fract_x
 _atom_site_fract_y
 _atom_site_fract_z
 _atom_site_occupancy
  Li  Li0  1  0.30398400  0.08066500  0.55892700  1
  Li  Li1  1  0.76848700  0.67427500  0.56309200  1
  Li  Li2  1  0.89681600  0.66091800  0.05383000  1
  Li  Li3  1  0.77061300  0.09217000  0.05545800  1
  Li  Li4  1  0.91171700  0.23048900  0.56396200  1
  Li  Li5  1  0.33021400  0.66461000  0.10146700  1
  Li  Li6  1  0.69071300  0.91662900  0.44405100  1
  Li  Li7  1  0.05962900  0.03588300  0.00652500  1
  V  V8  1  0.99564100  0.56828800  0.25532900  1
  V  V9  1  0.00307900  0.43736200  0.75148100  1
  V  V10  1  0.43142100  0.00051900  0.75490500  1
  V  V11  1  0.56763900  0.00202400  0.24637900  1
  V  V12  1  0.43028700  0.42457700  0.24585200  1
  V  V13  1  0.56340200  0.56498500  0.75134300  1
  P  P14  1  0.30570900  0.22695700  0.84372200  1
  P  P15  1  0.31791300  0.08605000  0.34021300  1
  P  P16  1  0.76470500  0.68227200  0.34285700  1
  P  P17  1  0.67346900  0.33938500  0.12757800  1
  P  P18  1  0.66696900  0.32889900  0.63054000  1
  P  P19  1  0.91234700  0.68649200  0.84316600  1
  P  P20  1  0.08615500  0.77494600  0.66297000  1
  P  P21  1  0.77529000  0.08914000  0.84036500  1
  P  P22  1  0.21863700  0.90789500  0.16000000  1
  P  P23  1  0.91320900  0.23124700  0.34559500  1
  P  P24  1  0.08583300  0.30812000  0.16417200  1
  P  P25  1  0.33646400  0.66495800  0.36527000  1
  P  P26  1  0.33390400  0.67054000  0.86727400  1
  P  P27  1  0.22751600  0.31323500  0.66028300  1
  P  P28  1  0.68007300  0.91008100  0.66070800  1
  P  P29  1  0.69014900  0.77477400  0.16083300  1
  O  O30  1  0.22980100  0.22454700  0.57646200  1
  O  O31  1  0.33774300  0.25295700  0.32588400  1
  O  O32  1  0.20222400  0.99555500  0.08149100  1
  O  O33  1  0.34115300  0.08734700  0.82838800  1
  O  O34  1  0.46154900  0.38139600  0.83278600  1
  O  O35  1  0.52248700  0.33533300  0.17185600  1
  O  O36  1  0.61766100  0.52252100  0.31933600  1
  O  O37  1  0.79623600  0.78229200  0.08414800  1
  O  O38  1  0.74402700  0.65709800  0.82839500  1
  O  O39  1  0.51847600  0.18115200  0.67530300  1
  O  O40  1  0.47984500  0.09971200  0.31391200  1
  O  O41  1  0.66781100  0.48096800  0.66592200  1
  O  O42  1  0.69225500  0.36933800  0.02529100  1
  O  O43  1  0.66658500  0.31518400  0.52645400  1
  O  O44  1  0.81646700  0.48719900  0.17852400  1
  O  O45  1  0.61753500  0.08999400  0.82631800  1
  O  O46  1  0.67435800  0.18770500  0.15890500  1
  O  O47  1  0.91447100  0.66506800  0.33459900  1
  O  O48  1  0.01577800  0.80208800  0.76006700  1
  O  O49  1  0.99063500  0.77140300  0.58171400  1
  O  O50  1  0.98265300  0.75879900  0.93517000  1
  O  O51  1  0.90988800  0.52762200  0.82385400  1
  O  O52  1  0.81876500  0.33131600  0.67269700  1
  O  O53  1  0.07639000  0.73324200  0.16283600  1
  O  O54  1  0.90213300  0.38076000  0.32024600  1
  O  O55  1  0.74850100  0.08134000  0.33383200  1
  O  O56  1  0.19902000  0.97973300  0.25904200  1
  O  O57  1  0.25833000  0.01676000  0.43281000  1
  O  O58  1  0.75912900  0.00099700  0.57338600  1
  O  O59  1  0.25718600  0.91744400  0.66126800  1
  O  O60  1  0.09142700  0.62003800  0.67720000  1
  O  O61  1  0.91568700  0.25911400  0.82905900  1
  O  O62  1  0.18378500  0.65917300  0.32045700  1
  O  O63  1  0.09222200  0.46975700  0.16978000  1
  O  O64  1  0.99231000  0.19912800  0.08649500  1
  O  O65  1  0.98325100  0.24117500  0.43857600  1
  O  O66  1  0.02023200  0.22026700  0.26341900  1
  O  O67  1  0.08376800  0.34182000  0.66135200  1
  O  O68  1  0.32762000  0.81708900  0.82523700  1
  O  O69  1  0.37035200  0.89548700  0.16684800  1
  O  O70  1  0.18483500  0.52054700  0.82324800  1
  O  O71  1  0.32293500  0.67005500  0.97154200  1
  O  O72  1  0.33263600  0.65841700  0.46850100  1
  O  O73  1  0.33991400  0.52115400  0.31610800  1
  O  O74  1  0.52184200  0.90312700  0.67996100  1
  O  O75  1  0.48498900  0.81698700  0.32692100  1
  O  O76  1  0.26019600  0.34354800  0.16204900  1
  O  O77  1  0.19905300  0.20916900  0.75304600  1
  O  O78  1  0.21026200  0.20181500  0.92886000  1
  O  O79  1  0.38006100  0.47349000  0.67715600  1
  O  O80  1  0.48246600  0.67671500  0.82693600  1
  O  O81  1  0.52674000  0.62276900  0.16797800  1
  O  O82  1  0.65869500  0.91658800  0.15805400  1
  O  O83  1  0.78169300  0.01803100  0.93064000  1
  O  O84  1  0.79156300  0.99609500  0.75112000  1
  O  O85  1  0.66146000  0.74419400  0.65874900  1
  O  O86  1  0.75471800  0.75167000  0.43459200  1
  O  O87  1  0.78018600  0.80020400  0.26081700  1
