# generated using pymatgen
data_LiCrPO4
_symmetry_space_group_name_H-M   'P 1'
_cell_length_a   4.94110800
_cell_length_b   7.54898900
_cell_length_c   18.36662987
_cell_angle_alpha   87.04564503
_cell_angle_beta   90.00000000
_cell_angle_gamma   90.00000000
_symmetry_Int_Tables_number   1
_chemical_formula_structural   LiCrPO4
_chemical_formula_sum   'Li8 Cr8 P8 O32'
_cell_volume   684.17155422
_cell_formula_units_Z   8
loop_
 _symmetry_equiv_pos_site_id
 _symmetry_equiv_pos_as_xyz
  1  'x, y, z'
loop_
 _atom_site_type_symbol
 _atom_site_label
 _atom_site_symmetry_multiplicity
 _atom_site_fract_x
 _atom_site_fract_y
 _atom_site_fract_z
 _atom_site_occupancy
  Li  Li0  1  0.75856500  0.01944100  0.59402500  1
  Li  Li1  1  0.74143500  0.01944100  0.09402500  1
  Li  Li2  1  0.33819700  0.49942800  0.82729300  1
  Li  Li3  1  0.16180300  0.49942800  0.32729300  1
  Li  Li4  1  0.83819700  0.50057200  0.67270700  1
  Li  Li5  1  0.66180300  0.50057200  0.17270700  1
  Li  Li6  1  0.25856500  0.98055900  0.90597500  1
  Li  Li7  1  0.24143500  0.98055900  0.40597500  1
  Cr  Cr8  1  0.77998300  0.18217100  0.77490100  1
  Cr  Cr9  1  0.72001700  0.18217100  0.27490100  1
  Cr  Cr10  1  0.23729100  0.36163600  0.51083700  1
  Cr  Cr11  1  0.26270900  0.36163600  0.01083700  1
  Cr  Cr12  1  0.73729100  0.63836400  0.98916300  1
  Cr  Cr13  1  0.76270900  0.63836400  0.48916300  1
  Cr  Cr14  1  0.27998300  0.81782900  0.72509900  1
  Cr  Cr15  1  0.22001700  0.81782900  0.22509900  1
  P  P16  1  0.34568900  0.24228700  0.67899400  1
  P  P17  1  0.15431100  0.24228700  0.17899400  1
  P  P18  1  0.70467600  0.24333000  0.93594700  1
  P  P19  1  0.79532400  0.24333000  0.43594700  1
  P  P20  1  0.20467600  0.75667000  0.56405300  1
  P  P21  1  0.29532400  0.75667000  0.06405300  1
  P  P22  1  0.84568900  0.75771300  0.82100600  1
  P  P23  1  0.65431100  0.75771300  0.32100600  1
  O  O24  1  0.45920300  0.05638800  0.70482200  1
  O  O25  1  0.04079700  0.05638800  0.20482200  1
  O  O26  1  0.61945500  0.16475700  0.01033100  1
  O  O27  1  0.57997300  0.14253300  0.87248500  1
  O  O28  1  0.43779300  0.27149700  0.59946200  1
  O  O29  1  0.03620000  0.26111400  0.68869200  1
  O  O30  1  0.88054500  0.16475700  0.51033100  1
  O  O31  1  0.92002700  0.14253300  0.37248500  1
  O  O32  1  0.06220700  0.27149700  0.09946200  1
  O  O33  1  0.46380000  0.26111400  0.18869200  1
  O  O34  1  0.01665100  0.25923700  0.92740000  1
  O  O35  1  0.48334900  0.25923700  0.42740000  1
  O  O36  1  0.49941600  0.37587900  0.72844800  1
  O  O37  1  0.00058400  0.37587900  0.22844800  1
  O  O38  1  0.55972400  0.43534400  0.92963600  1
  O  O39  1  0.94027600  0.43534400  0.42963600  1
  O  O40  1  0.05972400  0.56465600  0.57036400  1
  O  O41  1  0.44027600  0.56465600  0.07036400  1
  O  O42  1  0.99941600  0.62412100  0.77155200  1
  O  O43  1  0.50058400  0.62412100  0.27155200  1
  O  O44  1  0.51665100  0.74076300  0.57260000  1
  O  O45  1  0.98334900  0.74076300  0.07260000  1
  O  O46  1  0.53620000  0.73888600  0.81130800  1
  O  O47  1  0.93779300  0.72850300  0.90053800  1
  O  O48  1  0.07997300  0.85746700  0.62751500  1
  O  O49  1  0.11945500  0.83524300  0.48966900  1
  O  O50  1  0.96380000  0.73888600  0.31130800  1
  O  O51  1  0.56220700  0.72850300  0.40053800  1
  O  O52  1  0.42002700  0.85746700  0.12751500  1
  O  O53  1  0.38054500  0.83524300  0.98966900  1
  O  O54  1  0.95920300  0.94361200  0.79517800  1
  O  O55  1  0.54079700  0.94361200  0.29517800  1
