# generated using pymatgen
data_LiCrO2
_symmetry_space_group_name_H-M   'P 1'
_cell_length_a   5.91869894
_cell_length_b   5.91868855
_cell_length_c   5.91868709
_cell_angle_alpha   119.86643727
_cell_angle_beta   60.13370063
_cell_angle_gamma   89.76838800
_symmetry_Int_Tables_number   1
_chemical_formula_structural   LiCrO2
_chemical_formula_sum   'Li4 Cr4 O8'
_cell_volume   146.90433178
_cell_formula_units_Z   4
loop_
 _symmetry_equiv_pos_site_id
 _symmetry_equiv_pos_as_xyz
  1  'x, y, z'
loop_
 _atom_site_type_symbol
 _atom_site_label
 _atom_site_symmetry_multiplicity
 _atom_site_fract_x
 _atom_site_fract_y
 _atom_site_fract_z
 _atom_site_occupancy
  Li  Li0  1  0.49995300  0.49995500  0.50004100  1
  Li  Li1  1  0.99990200  0.50004300  0.00008100  1
  Li  Li2  1  0.50002200  0.99995100  0.49997200  1
  Li  Li3  1  0.49998600  0.50002700  0.00008300  1
  Cr  Cr4  1  0.50003400  0.00002200  0.99997500  1
  Cr  Cr5  1  0.00005400  0.00031300  0.50032600  1
  Cr  Cr6  1  0.00047500  0.99968100  0.99963000  1
  Cr  Cr7  1  0.99968700  0.50000400  0.49981800  1
  O  O8  1  0.24325500  0.24114100  0.48444400  1
  O  O9  1  0.77228700  0.24325800  0.48439100  1
  O  O10  1  0.24331000  0.77226700  0.01568200  1
  O  O11  1  0.75891800  0.75669300  0.98433400  1
  O  O12  1  0.24109800  0.24334100  0.01551700  1
  O  O13  1  0.75668900  0.22769800  0.98448500  1
  O  O14  1  0.22772100  0.75663900  0.51558100  1
  O  O15  1  0.75661000  0.75896600  0.51564200  1
