# generated using pymatgen
data_Li7Fe7SiO16
_symmetry_space_group_name_H-M   'P 1'
_cell_length_a   5.11247600
_cell_length_b   5.55750613
_cell_length_c   13.08362944
_cell_angle_alpha   89.91953596
_cell_angle_beta   89.92709074
_cell_angle_gamma   89.87543907
_symmetry_Int_Tables_number   1
_chemical_formula_structural   Li7Fe7SiO16
_chemical_formula_sum   'Li7 Fe7 Si1 O16'
_cell_volume   371.73860420
_cell_formula_units_Z   1
loop_
 _symmetry_equiv_pos_site_id
 _symmetry_equiv_pos_as_xyz
  1  'x, y, z'
loop_
 _atom_site_type_symbol
 _atom_site_label
 _atom_site_symmetry_multiplicity
 _atom_site_fract_x
 _atom_site_fract_y
 _atom_site_fract_z
 _atom_site_occupancy
  Li  Li0  1  0.00754500  0.91822900  0.81182700  1
  Li  Li1  1  0.50635400  0.58533900  0.56022300  1
  Li  Li2  1  0.50458800  0.58411100  0.06386100  1
  Li  Li3  1  0.01351100  0.42428000  0.43613400  1
  Li  Li4  1  0.00852900  0.41909900  0.93910600  1
  Li  Li5  1  0.50028400  0.06550900  0.19188500  1
  Li  Li6  1  0.50729500  0.08172700  0.68716700  1
  Fe  Fe7  1  0.00289700  0.92066300  0.06207400  1
  Fe  Fe8  1  0.00649700  0.91976100  0.56326300  1
  Fe  Fe9  1  0.50594500  0.58320400  0.81309600  1
  Fe  Fe10  1  0.00694300  0.41639200  0.68656000  1
  Fe  Fe11  1  0.01012200  0.42116900  0.19038700  1
  Fe  Fe12  1  0.50061300  0.07739800  0.43142600  1
  Fe  Fe13  1  0.50268700  0.08371400  0.93703500  1
  Si  Si14  1  0.50187000  0.57365800  0.31363000  1
  O  O15  1  0.62589000  0.92965600  0.05909100  1
  O  O16  1  0.62911400  0.93336800  0.55392500  1
  O  O17  1  0.57410800  0.86199800  0.31947200  1
  O  O18  1  0.61376000  0.91189700  0.81744400  1
  O  O19  1  0.11359300  0.58941100  0.56645100  1
  O  O20  1  0.11005000  0.59056100  0.06972800  1
  O  O21  1  0.18246900  0.53740000  0.30925600  1
  O  O22  1  0.12994900  0.57202100  0.80780900  1
  O  O23  1  0.62954400  0.42985800  0.69065100  1
  O  O24  1  0.63014700  0.44806900  0.20884100  1
  O  O25  1  0.61248700  0.41936000  0.41500800  1
  O  O26  1  0.61218300  0.41328700  0.93427600  1
  O  O27  1  0.12212800  0.10477200  0.17287100  1
  O  O28  1  0.11234900  0.08713800  0.68464300  1
  O  O29  1  0.13753700  0.09420900  0.45118700  1
  O  O30  1  0.12761000  0.07217200  0.93962100  1
