# generated using pymatgen
data_LiNiF3
_symmetry_space_group_name_H-M   'P 1'
_cell_length_a   5.53483300
_cell_length_b   5.53483300
_cell_length_c   5.53483260
_cell_angle_alpha   55.36599953
_cell_angle_beta   55.36599953
_cell_angle_gamma   55.36600065
_symmetry_Int_Tables_number   1
_chemical_formula_structural   LiNiF3
_chemical_formula_sum   'Li2 Ni2 F6'
_cell_volume   106.98710115
_cell_formula_units_Z   2
loop_
 _symmetry_equiv_pos_site_id
 _symmetry_equiv_pos_as_xyz
  1  'x, y, z'
loop_
 _atom_site_type_symbol
 _atom_site_label
 _atom_site_symmetry_multiplicity
 _atom_site_fract_x
 _atom_site_fract_y
 _atom_site_fract_z
 _atom_site_occupancy
  Li  Li0  1  0.70258400  0.70258400  0.70258400  1
  Li  Li1  1  0.29741600  0.29741600  0.29741600  1
  Ni  Ni2  1  0.00000000  0.00000000  0.00000000  1
  Ni  Ni3  1  0.50000000  0.50000000  0.50000000  1
  F  F4  1  0.72903800  0.10829600  0.39454600  1
  F  F5  1  0.10829600  0.39454600  0.72903800  1
  F  F6  1  0.39454600  0.72903800  0.10829600  1
  F  F7  1  0.60545400  0.27096200  0.89170400  1
  F  F8  1  0.89170400  0.60545400  0.27096200  1
  F  F9  1  0.27096200  0.89170400  0.60545400  1
