# generated using pymatgen
data_LiFeSiO4
_symmetry_space_group_name_H-M   'P 1'
_cell_length_a   5.14610700
_cell_length_b   8.03221300
_cell_length_c   8.41429577
_cell_angle_alpha   74.60631216
_cell_angle_beta   90.00000000
_cell_angle_gamma   90.00000000
_symmetry_Int_Tables_number   1
_chemical_formula_structural   LiFeSiO4
_chemical_formula_sum   'Li4 Fe4 Si4 O16'
_cell_volume   335.32427253
_cell_formula_units_Z   4
loop_
 _symmetry_equiv_pos_site_id
 _symmetry_equiv_pos_as_xyz
  1  'x, y, z'
loop_
 _atom_site_type_symbol
 _atom_site_label
 _atom_site_symmetry_multiplicity
 _atom_site_fract_x
 _atom_site_fract_y
 _atom_site_fract_z
 _atom_site_occupancy
  Li  Li0  1  0.15549100  0.14753200  0.55526400  1
  Li  Li1  1  0.78002700  0.37596400  0.03227400  1
  Li  Li2  1  0.28002700  0.62403600  0.96772600  1
  Li  Li3  1  0.65549100  0.85246800  0.44473600  1
  Fe  Fe4  1  0.07606200  0.04149100  0.24075500  1
  Fe  Fe5  1  0.74375000  0.47111100  0.67715500  1
  Fe  Fe6  1  0.24375000  0.52888900  0.32284500  1
  Fe  Fe7  1  0.57606200  0.95850900  0.75924500  1
  Si  Si8  1  0.69632800  0.24675400  0.41479300  1
  Si  Si9  1  0.27918600  0.26356600  0.87890500  1
  Si  Si10  1  0.77918600  0.73643400  0.12109500  1
  Si  Si11  1  0.19632800  0.75324600  0.58520700  1
  O  O12  1  0.74649300  0.05852900  0.55184100  1
  O  O13  1  0.35741100  0.15392500  0.74649600  1
  O  O14  1  0.83212300  0.21984400  0.24704100  1
  O  O15  1  0.98854300  0.34905300  0.84138400  1
  O  O16  1  0.86121600  0.38947100  0.48719200  1
  O  O17  1  0.38953000  0.30201500  0.38399800  1
  O  O18  1  0.28970000  0.13337100  0.06396100  1
  O  O19  1  0.49162900  0.42274600  0.86242300  1
  O  O20  1  0.99162900  0.57725400  0.13757700  1
  O  O21  1  0.78970000  0.86662900  0.93603900  1
  O  O22  1  0.88953000  0.69798500  0.61600200  1
  O  O23  1  0.36121600  0.61052900  0.51280800  1
  O  O24  1  0.48854300  0.65094700  0.15861600  1
  O  O25  1  0.33212300  0.78015600  0.75295900  1
  O  O26  1  0.85741100  0.84607500  0.25350400  1
  O  O27  1  0.24649300  0.94147100  0.44815900  1
