# generated using pymatgen
data_Li6Ni3P6WO24
_symmetry_space_group_name_H-M   'P 1'
_cell_length_a   8.69906300
_cell_length_b   8.75355709
_cell_length_c   8.75449104
_cell_angle_alpha   60.48115726
_cell_angle_beta   60.29934806
_cell_angle_gamma   60.52766940
_symmetry_Int_Tables_number   1
_chemical_formula_structural   Li6Ni3P6WO24
_chemical_formula_sum   'Li6 Ni3 P6 W1 O24'
_cell_volume   476.02513197
_cell_formula_units_Z   1
loop_
 _symmetry_equiv_pos_site_id
 _symmetry_equiv_pos_as_xyz
  1  'x, y, z'
loop_
 _atom_site_type_symbol
 _atom_site_label
 _atom_site_symmetry_multiplicity
 _atom_site_fract_x
 _atom_site_fract_y
 _atom_site_fract_z
 _atom_site_occupancy
  Li  Li0  1  0.03825500  0.02595300  0.01777000  1
  Li  Li1  1  0.75115000  0.15581000  0.35156600  1
  Li  Li2  1  0.47071600  0.49778900  0.48913100  1
  Li  Li3  1  0.31915800  0.84194300  0.63427900  1
  Li  Li4  1  0.63343800  0.32431900  0.83911000  1
  Li  Li5  1  0.84354900  0.63446400  0.31933400  1
  Ni  Ni6  1  0.14567700  0.14957300  0.14308300  1
  Ni  Ni7  1  0.35533300  0.36243300  0.35163400  1
  Ni  Ni8  1  0.64823900  0.64925900  0.64824800  1
  P  P9  1  0.04733600  0.74730800  0.44153200  1
  P  P10  1  0.44583800  0.04894100  0.74219400  1
  P  P11  1  0.74524800  0.44546100  0.04529500  1
  P  P12  1  0.24925800  0.53766300  0.95976300  1
  P  P13  1  0.54092100  0.96242200  0.25101000  1
  P  P14  1  0.95600600  0.24818700  0.53400500  1
  W  W15  1  0.85258200  0.85044300  0.85310200  1
  O  O16  1  0.13143200  0.26362300  0.51290800  1
  O  O17  1  0.26802300  0.53228600  0.12520100  1
  O  O18  1  0.04798200  0.92201700  0.27056400  1
  O  O19  1  0.54937900  0.12086800  0.27218500  1
  O  O20  1  0.23379200  0.59466700  0.44511900  1
  O  O21  1  0.97612100  0.81227700  0.61846400  1
  O  O22  1  0.26464600  0.08146100  0.90024400  1
  O  O23  1  0.48056500  0.22095900  0.57282600  1
  O  O24  1  0.58984700  0.44886200  0.23306300  1
  O  O25  1  0.19491200  0.38585500  0.98757200  1
  O  O26  1  0.08684500  0.73750400  0.90503300  1
  O  O27  1  0.37924300  0.00362500  0.20250100  1
  O  O28  1  0.61694700  0.97255900  0.81782600  1
  O  O29  1  0.90351900  0.26048100  0.07272400  1
  O  O30  1  0.81686500  0.61356500  0.98040200  1
  O  O31  1  0.41506200  0.56264200  0.77259400  1
  O  O32  1  0.56276200  0.77471600  0.41410000  1
  O  O33  1  0.73732700  0.90567100  0.08538500  1
  O  O34  1  0.96547400  0.19799400  0.38598900  1
  O  O35  1  0.77286900  0.41464200  0.56417700  1
  O  O36  1  0.47514000  0.89358500  0.68766700  1
  O  O37  1  0.90756100  0.08455800  0.73404000  1
  O  O38  1  0.68602800  0.47914300  0.89224500  1
  O  O39  1  0.89495400  0.68347300  0.47711400  1
