# generated using pymatgen
data_Li3Mn4(PO4)6
_symmetry_space_group_name_H-M   'P 1'
_cell_length_a   8.32201900
_cell_length_b   8.65005051
_cell_length_c   11.78881346
_cell_angle_alpha   89.79797823
_cell_angle_beta   89.42453991
_cell_angle_gamma   89.38301880
_symmetry_Int_Tables_number   1
_chemical_formula_structural   Li3Mn4(PO4)6
_chemical_formula_sum   'Li6 Mn8 P12 O48'
_cell_volume   848.53120793
_cell_formula_units_Z   2
loop_
 _symmetry_equiv_pos_site_id
 _symmetry_equiv_pos_as_xyz
  1  'x, y, z'
loop_
 _atom_site_type_symbol
 _atom_site_label
 _atom_site_symmetry_multiplicity
 _atom_site_fract_x
 _atom_site_fract_y
 _atom_site_fract_z
 _atom_site_occupancy
  Li  Li0  1  0.81308400  0.78747800  0.17856500  1
  Li  Li1  1  0.67789600  0.28493700  0.32222300  1
  Li  Li2  1  0.57115200  0.59870300  0.80386400  1
  Li  Li3  1  0.18096600  0.20947600  0.82343900  1
  Li  Li4  1  0.07722700  0.49930200  0.66001700  1
  Li  Li5  1  0.08073900  0.90880400  0.30792700  1
  Mn  Mn6  1  0.74652500  0.02851400  0.88685200  1
  Mn  Mn7  1  0.74663800  0.52792200  0.60545700  1
  Mn  Mn8  1  0.74346900  0.96798200  0.38841400  1
  Mn  Mn9  1  0.75027600  0.46527100  0.11322100  1
  Mn  Mn10  1  0.24773600  0.53324800  0.88811300  1
  Mn  Mn11  1  0.25169800  0.02940700  0.61425200  1
  Mn  Mn12  1  0.24724500  0.47102200  0.38759700  1
  Mn  Mn13  1  0.25555400  0.97271700  0.10692000  1
  P  P14  1  0.96725000  0.25257800  0.49259100  1
  P  P15  1  0.88126800  0.37768600  0.85104000  1
  P  P16  1  0.88735400  0.11140100  0.14039500  1
  P  P17  1  0.60765700  0.88556700  0.64915400  1
  P  P18  1  0.61067700  0.61052900  0.35254100  1
  P  P19  1  0.53942300  0.75274500  0.00950800  1
  P  P20  1  0.46527000  0.24897100  0.99322700  1
  P  P21  1  0.38811500  0.38542600  0.64272600  1
  P  P22  1  0.38613800  0.11958400  0.35302400  1
  P  P23  1  0.11238000  0.88419100  0.85524400  1
  P  P24  1  0.10963500  0.61563000  0.15001100  1
  P  P25  1  0.04077800  0.75279600  0.50879200  1
  O  O26  1  0.93593900  0.88935700  0.89489400  1
  O  O27  1  0.94539200  0.87325700  0.44060000  1
  O  O28  1  0.94218000  0.66906700  0.60342100  1
  O  O29  1  0.93037900  0.57999600  0.18114400  1
  O  O30  1  0.91140300  0.36799300  0.58735300  1
  O  O31  1  0.86077000  0.42602900  0.97587700  1
  O  O32  1  0.87657200  0.19919800  0.84048700  1
  O  O33  1  0.86976100  0.99680800  0.24342500  1
  O  O34  1  0.83005000  0.27314900  0.18277800  1
  O  O35  1  0.81936700  0.18674500  0.43592300  1
  O  O36  1  0.76154500  0.47191800  0.77639100  1
  O  O37  1  0.72552500  0.97454900  0.72465100  1
  O  O38  1  0.72967400  0.55365000  0.44705600  1
  O  O39  1  0.77169800  0.05202600  0.04934800  1
  O  O40  1  0.68656300  0.67607900  0.06995400  1
  O  O41  1  0.66516000  0.76742600  0.30981200  1
  O  O42  1  0.62055900  0.70486100  0.66450800  1
  O  O43  1  0.63813900  0.91972800  0.52393800  1
  O  O44  1  0.60599400  0.86059400  0.91618400  1
  O  O45  1  0.63406500  0.48781500  0.25637100  1
  O  O46  1  0.56290900  0.17079700  0.89613900  1
  O  O47  1  0.56258000  0.38413800  0.59882200  1
  O  O48  1  0.56254200  0.08341000  0.31917000  1
  O  O49  1  0.55827700  0.37394900  0.05737200  1
  O  O50  1  0.45441700  0.62989000  0.94196000  1
  O  O51  1  0.43332900  0.93055000  0.68258500  1
  O  O52  1  0.43570700  0.60818700  0.39442600  1
  O  O53  1  0.43702400  0.83047400  0.10417200  1
  O  O54  1  0.37267800  0.49504800  0.74577300  1
  O  O55  1  0.40367200  0.13740900  0.08641500  1
  O  O56  1  0.35922600  0.07403100  0.47754900  1
  O  O57  1  0.37971700  0.29861200  0.34109200  1
  O  O58  1  0.32975800  0.22374500  0.68345600  1
  O  O59  1  0.31555400  0.32375700  0.93645700  1
  O  O60  1  0.23010800  0.94498400  0.94754600  1
  O  O61  1  0.26469100  0.44565500  0.55359600  1
  O  O62  1  0.26890700  0.02773700  0.27730000  1
  O  O63  1  0.22532700  0.52269000  0.22602500  1
  O  O64  1  0.18700800  0.82788200  0.56535500  1
  O  O65  1  0.16122600  0.72091500  0.81720100  1
  O  O66  1  0.13481100  0.00333300  0.75660600  1
  O  O67  1  0.11865300  0.79683400  0.16592600  1
  O  O68  1  0.14110800  0.57839800  0.02647800  1
  O  O69  1  0.10587000  0.64392600  0.41508800  1
  O  O70  1  0.05499300  0.41253200  0.81134700  1
  O  O71  1  0.06604300  0.33182600  0.39623700  1
  O  O72  1  0.06008000  0.12649300  0.55791000  1
  O  O73  1  0.06477100  0.11222500  0.10340300  1
