# generated using pymatgen
data_LiVSiO4
_symmetry_space_group_name_H-M   'P 1'
_cell_length_a   4.78795100
_cell_length_b   5.80965600
_cell_length_c   10.42502200
_cell_angle_alpha   90.00000000
_cell_angle_beta   90.00000000
_cell_angle_gamma   90.00000000
_symmetry_Int_Tables_number   1
_chemical_formula_structural   LiVSiO4
_chemical_formula_sum   'Li4 V4 Si4 O16'
_cell_volume   289.98604252
_cell_formula_units_Z   4
loop_
 _symmetry_equiv_pos_site_id
 _symmetry_equiv_pos_as_xyz
  1  'x, y, z'
loop_
 _atom_site_type_symbol
 _atom_site_label
 _atom_site_symmetry_multiplicity
 _atom_site_fract_x
 _atom_site_fract_y
 _atom_site_fract_z
 _atom_site_occupancy
  Li  Li0  1  0.50000000  0.50000000  0.50000000  1
  Li  Li1  1  0.50000000  0.00000000  0.50000000  1
  Li  Li2  1  0.00000000  0.00000000  0.00000000  1
  Li  Li3  1  0.00000000  0.50000000  0.00000000  1
  V  V4  1  0.49555600  0.75000000  0.22661600  1
  V  V5  1  0.00444400  0.75000000  0.72661600  1
  V  V6  1  0.99555600  0.25000000  0.27338400  1
  V  V7  1  0.50444400  0.25000000  0.77338400  1
  Si  Si8  1  0.44305600  0.25000000  0.09220400  1
  Si  Si9  1  0.05694400  0.25000000  0.59220400  1
  Si  Si10  1  0.94305600  0.75000000  0.40779600  1
  Si  Si11  1  0.55694400  0.75000000  0.90779600  1
  O  O12  1  0.22030300  0.75000000  0.90079000  1
  O  O13  1  0.69194800  0.75000000  0.05119800  1
  O  O14  1  0.21361200  0.46489500  0.67340900  1
  O  O15  1  0.21361200  0.03510500  0.67340900  1
  O  O16  1  0.28638800  0.46489500  0.17340900  1
  O  O17  1  0.28638800  0.03510500  0.17340900  1
  O  O18  1  0.80805200  0.75000000  0.55119800  1
  O  O19  1  0.27969700  0.75000000  0.40079000  1
  O  O20  1  0.72030300  0.25000000  0.59921000  1
  O  O21  1  0.19194800  0.25000000  0.44880200  1
  O  O22  1  0.78638800  0.96489500  0.32659100  1
  O  O23  1  0.78638800  0.53510500  0.32659100  1
  O  O24  1  0.71361200  0.96489500  0.82659100  1
  O  O25  1  0.71361200  0.53510500  0.82659100  1
  O  O26  1  0.30805200  0.25000000  0.94880200  1
  O  O27  1  0.77969700  0.25000000  0.09921000  1
