# generated using pymatgen
data_Li2CoGeO4
_symmetry_space_group_name_H-M   'P 1'
_cell_length_a   7.54627313
_cell_length_b   7.54624911
_cell_length_c   8.14122726
_cell_angle_alpha   64.94378177
_cell_angle_beta   64.94355212
_cell_angle_gamma   94.94490540
_symmetry_Int_Tables_number   1
_chemical_formula_structural   Li2CoGeO4
_chemical_formula_sum   'Li8 Co4 Ge4 O16'
_cell_volume   359.98686815
_cell_formula_units_Z   4
loop_
 _symmetry_equiv_pos_site_id
 _symmetry_equiv_pos_as_xyz
  1  'x, y, z'
loop_
 _atom_site_type_symbol
 _atom_site_label
 _atom_site_symmetry_multiplicity
 _atom_site_fract_x
 _atom_site_fract_y
 _atom_site_fract_z
 _atom_site_occupancy
  Li  Li0  1  0.53894600  0.20503500  0.25075400  1
  Li  Li1  1  0.03894300  0.70503300  0.25075700  1
  Li  Li2  1  0.45578400  0.78969500  0.24925200  1
  Li  Li3  1  0.95578300  0.28969800  0.24925200  1
  Li  Li4  1  0.28969800  0.95578400  0.74925200  1
  Li  Li5  1  0.78969600  0.45578500  0.74925200  1
  Li  Li6  1  0.20503500  0.53894600  0.75075300  1
  Li  Li7  1  0.70503400  0.03894300  0.75075700  1
  Co  Co8  1  0.41524500  0.58070000  0.00000600  1
  Co  Co9  1  0.58070700  0.41524900  0.50000200  1
  Co  Co10  1  0.91525000  0.08071000  0.00000100  1
  Co  Co11  1  0.08071400  0.91525200  0.49999800  1
  Ge  Ge12  1  0.33463800  0.16585800  0.99999500  1
  Ge  Ge13  1  0.83465400  0.66585900  0.99999500  1
  Ge  Ge14  1  0.16585200  0.33463900  0.50000400  1
  Ge  Ge15  1  0.66586400  0.83465300  0.49999300  1
  O  O16  1  0.50917000  0.34117600  0.99999500  1
  O  O17  1  0.00918200  0.84118800  0.99999800  1
  O  O18  1  0.34117800  0.50917500  0.49999700  1
  O  O19  1  0.84118800  0.00918200  0.49999900  1
  O  O20  1  0.62656100  0.76256600  0.00001100  1
  O  O21  1  0.12654700  0.26256700  0.00001100  1
  O  O22  1  0.26256700  0.12654300  0.50001200  1
  O  O23  1  0.76256300  0.62655600  0.50001500  1
  O  O24  1  0.64687100  0.97001900  0.27039400  1
  O  O25  1  0.14687000  0.47003000  0.27040200  1
  O  O26  1  0.24042900  0.91727000  0.22959400  1
  O  O27  1  0.74044200  0.41727300  0.22958200  1
  O  O28  1  0.97001900  0.64686700  0.77039400  1
  O  O29  1  0.47002600  0.14686700  0.77040000  1
  O  O30  1  0.41727000  0.74044800  0.72958100  1
  O  O31  1  0.91726900  0.24043000  0.72959300  1
