# generated using pymatgen
data_Li2MnH8(SO6)2
_symmetry_space_group_name_H-M   'P 1'
_cell_length_a   9.28265973
_cell_length_b   11.85641502
_cell_length_c   12.52651392
_cell_angle_alpha   61.97008627
_cell_angle_beta   89.98335798
_cell_angle_gamma   113.10800774
_symmetry_Int_Tables_number   1
_chemical_formula_structural   Li2MnH8(SO6)2
_chemical_formula_sum   'Li8 Mn4 H32 S8 O48'
_cell_volume   1089.94709300
_cell_formula_units_Z   4
loop_
 _symmetry_equiv_pos_site_id
 _symmetry_equiv_pos_as_xyz
  1  'x, y, z'
loop_
 _atom_site_type_symbol
 _atom_site_label
 _atom_site_symmetry_multiplicity
 _atom_site_fract_x
 _atom_site_fract_y
 _atom_site_fract_z
 _atom_site_occupancy
  Li  Li0  1  0.00872136  0.24796894  0.30789397  1
  Li  Li1  1  0.63131869  0.27312042  0.33253763  1
  Li  Li2  1  0.36596672  0.73288114  0.16099191  1
  Li  Li3  1  0.75999434  0.75156668  0.19058381  1
  Li  Li4  1  0.24196049  0.25248972  0.80800884  1
  Li  Li5  1  0.63285625  0.26987960  0.83520016  1
  Li  Li6  1  0.36436913  0.72629413  0.66843997  1
  Li  Li7  1  0.98575232  0.74846520  0.69454036  1
  Mn  Mn8  1  0.99895811  0.49864904  0.00151527  1
  Mn  Mn9  1  0.25102145  0.99928923  0.25192005  1
  Mn  Mn10  1  0.49927807  0.49950899  0.50011877  1
  Mn  Mn11  1  0.74655950  0.99847471  0.75002516  1
  H  H12  1  0.01417012  0.25139660  0.03880773  1
  H  H13  1  0.72764886  0.25765151  0.05363845  1
  H  H14  1  0.35718213  0.27950231  0.04451229  1
  H  H15  1  0.97670263  0.03338845  0.17550752  1
  H  H16  1  0.55653889  0.03198581  0.17348945  1
  H  H17  1  0.81388762  0.62735419  0.00478789  1
  H  H18  1  0.31238239  0.61492994  0.00981602  1
  H  H19  1  0.40109321  0.28957330  0.16606070  1
  H  H20  1  0.11292779  0.70735416  0.33674770  1
  H  H21  1  0.69437774  0.38293388  0.49160979  1
  H  H22  1  0.23685449  0.25223351  0.54109369  1
  H  H23  1  0.18192514  0.37141587  0.49548959  1
  H  H24  1  0.52619840  0.25418474  0.55614761  1
  H  H25  1  0.91699926  0.27954288  0.54344913  1
  H  H26  1  0.05647831  0.03239879  0.67569403  1
  H  H27  1  0.47547689  0.03429913  0.67395613  1
  H  H28  1  0.52479533  0.96767561  0.32296749  1
  H  H29  1  0.94347933  0.97087702  0.32475242  1
  H  H30  1  0.07853534  0.71602509  0.45875740  1
  H  H31  1  0.47049594  0.74301737  0.44920396  1
  H  H32  1  0.81391291  0.62534830  0.51090505  1
  H  H33  1  0.76427569  0.74848630  0.45604271  1
  H  H34  1  0.30059486  0.61477799  0.50558302  1
  H  H35  1  0.88809440  0.29087680  0.66492881  1
  H  H36  1  0.59405758  0.70812947  0.83597515  1
  H  H37  1  0.68424517  0.38382745  0.99113294  1
  H  H38  1  0.18744963  0.37285330  0.99365604  1
  H  H39  1  0.44239835  0.96747501  0.82455889  1
  H  H40  1  0.02433316  0.96634125  0.82543282  1
  H  H41  1  0.63706700  0.71538452  0.95841107  1
  H  H42  1  0.27306182  0.74412263  0.94711391  1
  H  H43  1  0.98761263  0.74758997  0.95792588  1
  S  S44  1  0.75561405  0.03624428  0.01882188  1
  S  S45  1  0.52418492  0.53209420  0.20443587  1
  S  S46  1  0.98971120  0.46604140  0.29610276  1
  S  S47  1  0.27627791  0.03491756  0.52108332  1
  S  S48  1  0.72027370  0.96236678  0.47964782  1
  S  S49  1  0.00611758  0.53015921  0.70668224  1
  S  S50  1  0.47885342  0.46991376  0.79578775  1
  S  S51  1  0.24247773  0.96495571  0.98093662  1
  O  O52  1  0.92218552  0.10195314  0.03503500  1
  O  O53  1  0.66750775  0.12015615  0.01731475  1
  O  O54  1  0.08210471  0.33602351  0.04630241  1
  O  O55  1  0.74558684  0.34682657  0.05177649  1
  O  O56  1  0.37367079  0.22881100  0.12898616  1
  O  O57  1  0.02101519  0.00248679  0.25048307  1
  O  O58  1  0.48065642  0.99858354  0.24861076  1
  O  O59  1  0.67451915  0.63219205  0.10176116  1
  O  O60  1  0.99279749  0.43123289  0.19530932  1
  O  O61  1  0.38815693  0.56362192  0.15965786  1
  O  O62  1  0.48770522  0.38176144  0.25017166  1
  O  O63  1  0.26932117  0.03672457  0.40290434  1
  O  O64  1  0.78095637  0.11179982  0.37341619  1
  O  O65  1  0.66794366  0.88643779  0.12599299  1
  O  O66  1  0.23431076  0.96439160  0.09852875  1
  O  O67  1  0.10324404  0.61589086  0.25218867  1
  O  O68  1  0.82169469  0.43261169  0.34115053  1
  O  O69  1  0.56282810  0.56888731  0.30370728  1
  O  O70  1  0.03986267  0.36493803  0.39763235  1
  O  O71  1  0.17772590  0.10304688  0.53618810  1
  O  O72  1  0.44908838  0.11858252  0.51797115  1
  O  O73  1  0.25247063  0.33713135  0.54750510  1
  O  O74  1  0.59581799  0.34523530  0.55213721  1
  O  O75  1  0.14597901  0.76799204  0.37397632  1
  O  O76  1  0.85325273  0.22873443  0.62900580  1
  O  O77  1  0.40311246  0.65392057  0.44880132  1
  O  O78  1  0.74772419  0.66091550  0.45416223  1
  O  O79  1  0.97811632  0.99624594  0.75108585  1
  O  O80  1  0.51848340  0.00235618  0.74884916  1
  O  O81  1  0.54787009  0.87792722  0.48222644  1
  O  O82  1  0.82171121  0.89766329  0.46252117  1
  O  O83  1  0.95619505  0.63103266  0.60469037  1
  O  O84  1  0.44256762  0.43346970  0.69589710  1
  O  O85  1  0.17390669  0.56234698  0.66185488  1
  O  O86  1  0.89198287  0.38020032  0.75130844  1
  O  O87  1  0.76280977  0.03875345  0.90055497  1
  O  O88  1  0.33033639  0.11429098  0.87298340  1
  O  O89  1  0.21382929  0.88594306  0.62866540  1
  O  O90  1  0.72681576  0.95871598  0.59889977  1
  O  O91  1  0.51416356  0.61994210  0.74988947  1
  O  O92  1  0.61376116  0.43793219  0.84161211  1
  O  O93  1  0.00378349  0.56555651  0.80692019  1
  O  O94  1  0.32722427  0.36973140  0.89739939  1
  O  O95  1  0.62080915  0.76792827  0.87405902  1
  O  O96  1  0.25142651  0.65358894  0.95001286  1
  O  O97  1  0.91798891  0.66325964  0.95097364  1
  O  O98  1  0.33175134  0.88148051  0.98354205  1
  O  O99  1  0.07612445  0.89709556  0.96579593  1
