# generated using pymatgen
data_Li5La4TiNb7O28
_symmetry_space_group_name_H-M   'P 1'
_cell_length_a   5.59165700
_cell_length_b   5.59493855
_cell_length_c   19.00613017
_cell_angle_alpha   89.88540377
_cell_angle_beta   89.95384052
_cell_angle_gamma   89.97460320
_symmetry_Int_Tables_number   1
_chemical_formula_structural   Li5La4TiNb7O28
_chemical_formula_sum   'Li5 La4 Ti1 Nb7 O28'
_cell_volume   594.60491077
_cell_formula_units_Z   1
loop_
 _symmetry_equiv_pos_site_id
 _symmetry_equiv_pos_as_xyz
  1  'x, y, z'
loop_
 _atom_site_type_symbol
 _atom_site_label
 _atom_site_symmetry_multiplicity
 _atom_site_fract_x
 _atom_site_fract_y
 _atom_site_fract_z
 _atom_site_occupancy
  Li  Li0  1  0.00570100  0.99683500  0.75470900  1
  Li  Li1  1  0.00099400  0.99864700  0.24341000  1
  Li  Li2  1  0.00261800  0.50307500  0.74203400  1
  Li  Li3  1  0.49298400  0.51011300  0.72942200  1
  Li  Li4  1  0.49818700  0.50146300  0.26704400  1
  La  La5  1  0.23532200  0.76350100  0.00114000  1
  La  La6  1  0.73628300  0.73780500  0.50489500  1
  La  La7  1  0.25948200  0.26471300  0.50483600  1
  La  La8  1  0.76473700  0.23666700  0.00117800  1
  Ti  Ti9  1  0.24514700  0.75208200  0.61704900  1
  Nb  Nb10  1  0.24601400  0.75453600  0.38278200  1
  Nb  Nb11  1  0.74668700  0.74726100  0.88159400  1
  Nb  Nb12  1  0.74588000  0.74587100  0.12040500  1
  Nb  Nb13  1  0.25350500  0.25333000  0.88161700  1
  Nb  Nb14  1  0.25418400  0.25376300  0.12042400  1
  Nb  Nb15  1  0.74977600  0.24452400  0.61742000  1
  Nb  Nb16  1  0.75377700  0.24629600  0.38120400  1
  O  O17  1  0.00081000  0.99976300  0.87855700  1
  O  O18  1  0.50012700  0.00010800  0.90370700  1
  O  O19  1  0.00052300  0.99807500  0.58584600  1
  O  O20  1  0.49838300  0.99719700  0.59733300  1
  O  O21  1  0.99982200  0.00031700  0.41680000  1
  O  O22  1  0.50079500  0.00064300  0.40591000  1
  O  O23  1  0.00003200  0.99974800  0.11925800  1
  O  O24  1  0.50004800  0.99989000  0.09366100  1
  O  O25  1  0.80683800  0.80576700  0.99833100  1
  O  O26  1  0.20669900  0.75726500  0.70966900  1
  O  O27  1  0.22042600  0.78007900  0.28776600  1
  O  O28  1  0.73729500  0.70363300  0.78659500  1
  O  O29  1  0.71789200  0.71783000  0.21373100  1
  O  O30  1  0.30589200  0.69284500  0.50046800  1
  O  O31  1  0.50004800  0.50020800  0.91656400  1
  O  O32  1  0.00005800  0.50015800  0.90550100  1
  O  O33  1  0.00122500  0.49988100  0.59570300  1
  O  O34  1  0.49879500  0.50009900  0.62044500  1
  O  O35  1  0.00005100  0.49985300  0.09398800  1
  O  O36  1  0.50005100  0.49991400  0.08382600  1
  O  O37  1  0.99949300  0.49939900  0.40571300  1
  O  O38  1  0.50097900  0.49922300  0.37779900  1
  O  O39  1  0.69712500  0.30350700  0.50200700  1
  O  O40  1  0.26403400  0.29806500  0.78662100  1
  O  O41  1  0.28207000  0.28156600  0.21371100  1
  O  O42  1  0.79508900  0.24084100  0.71445600  1
  O  O43  1  0.78092600  0.21932900  0.28655900  1
  O  O44  1  0.19319500  0.19431500  0.99830900  1
