# generated using pymatgen
data_Li8Mn7Cr(PO4)12
_symmetry_space_group_name_H-M   'P 1'
_cell_length_a   8.56337500
_cell_length_b   8.79869650
_cell_length_c   11.97180942
_cell_angle_alpha   89.77181721
_cell_angle_beta   89.91714662
_cell_angle_gamma   89.96656166
_symmetry_Int_Tables_number   1
_chemical_formula_structural   Li8Mn7Cr(PO4)12
_chemical_formula_sum   'Li8 Mn7 Cr1 P12 O48'
_cell_volume   902.02614159
_cell_formula_units_Z   1
loop_
 _symmetry_equiv_pos_site_id
 _symmetry_equiv_pos_as_xyz
  1  'x, y, z'
loop_
 _atom_site_type_symbol
 _atom_site_label
 _atom_site_symmetry_multiplicity
 _atom_site_fract_x
 _atom_site_fract_y
 _atom_site_fract_z
 _atom_site_occupancy
  Li  Li0  1  0.21589300  0.72190200  0.18078400  1
  Li  Li1  1  0.21527400  0.77752700  0.81998800  1
  Li  Li2  1  0.28482100  0.22220300  0.31856900  1
  Li  Li3  1  0.28411500  0.27959900  0.68108500  1
  Li  Li4  1  0.71675300  0.72136500  0.32035400  1
  Li  Li5  1  0.71636600  0.77718200  0.68067800  1
  Li  Li6  1  0.78385700  0.22255200  0.18083900  1
  Li  Li7  1  0.78388000  0.27850200  0.81930500  1
  Mn  Mn8  1  0.24659600  0.96262300  0.61293700  1
  Mn  Mn9  1  0.24870400  0.53559100  0.38598100  1
  Mn  Mn10  1  0.25121500  0.03653100  0.11340500  1
  Mn  Mn11  1  0.25050800  0.46460300  0.88617900  1
  Mn  Mn12  1  0.74802100  0.53616700  0.11471700  1
  Mn  Mn13  1  0.74826300  0.96334300  0.88664000  1
  Mn  Mn14  1  0.75137400  0.03663100  0.38564400  1
  Cr  Cr15  1  0.75179200  0.46383900  0.61613400  1
  P  P16  1  0.03636600  0.24741000  0.50015700  1
  P  P17  1  0.46401000  0.75046800  0.99983600  1
  P  P18  1  0.53511300  0.24986900  0.99999100  1
  P  P19  1  0.96465700  0.74895200  0.50057800  1
  P  P20  1  0.10558200  0.39400100  0.14716900  1
  P  P21  1  0.10565700  0.10595700  0.85203400  1
  P  P22  1  0.39347000  0.60814400  0.64583900  1
  P  P23  1  0.39404900  0.89401500  0.35304800  1
  P  P24  1  0.60569700  0.10567600  0.64630700  1
  P  P25  1  0.60538100  0.39418800  0.35264900  1
  P  P26  1  0.89403300  0.60569200  0.85526800  1
  P  P27  1  0.89407400  0.89448800  0.14713500  1
  O  O28  1  0.05922300  0.64219300  0.42514600  1
  O  O29  1  0.05884600  0.85796700  0.57587500  1
  O  O30  1  0.07524800  0.89732700  0.15707800  1
  O  O31  1  0.07466300  0.60477800  0.84401500  1
  O  O32  1  0.14513500  0.15784400  0.58351400  1
  O  O33  1  0.14691800  0.33380000  0.41889200  1
  O  O34  1  0.15595700  0.43808100  0.02895300  1
  O  O35  1  0.15565900  0.06104400  0.97042700  1
  O  O36  1  0.15899100  0.23294400  0.18059100  1
  O  O37  1  0.15812900  0.26577100  0.81824500  1
  O  O38  1  0.17789800  0.51558700  0.22669800  1
  O  O39  1  0.17865800  0.98327300  0.77309800  1
  O  O40  1  0.32153800  0.01579400  0.27407500  1
  O  O41  1  0.32029100  0.48824600  0.72623800  1
  O  O42  1  0.33746100  0.77105500  0.67803400  1
  O  O43  1  0.34075400  0.73298400  0.31985300  1
  O  O44  1  0.34427700  0.56289200  0.52782200  1
  O  O45  1  0.34477400  0.93801700  0.47225400  1
  O  O46  1  0.35736300  0.83654800  0.08331500  1
  O  O47  1  0.35789700  0.66643700  0.91709200  1
  O  O48  1  0.42394600  0.10265000  0.65647800  1
  O  O49  1  0.42442100  0.39685000  0.34128200  1
  O  O50  1  0.44165600  0.14133200  0.07528800  1
  O  O51  1  0.44224500  0.35748800  0.92442700  1
  O  O52  1  0.55704500  0.64305600  0.07595400  1
  O  O53  1  0.55834600  0.85865200  0.92381300  1
  O  O54  1  0.57314500  0.60611600  0.65694600  1
  O  O55  1  0.57454200  0.89591000  0.34306900  1
  O  O56  1  0.64378000  0.33591500  0.08159100  1
  O  O57  1  0.64407500  0.16194300  0.91725500  1
  O  O58  1  0.65594100  0.06118100  0.52842000  1
  O  O59  1  0.65632800  0.43777000  0.46965300  1
  O  O60  1  0.65738700  0.23333500  0.31879900  1
  O  O61  1  0.65855300  0.26720400  0.67894500  1
  O  O62  1  0.67843400  0.51563800  0.27219100  1
  O  O63  1  0.67794500  0.98456300  0.72681700  1
  O  O64  1  0.82171100  0.01592000  0.22642900  1
  O  O65  1  0.82300000  0.48515200  0.77617400  1
  O  O66  1  0.84149000  0.73355700  0.18098600  1
  O  O67  1  0.84021300  0.76806700  0.82053400  1
  O  O68  1  0.84525700  0.56505400  0.97427300  1
  O  O69  1  0.84421800  0.93877800  0.02833100  1
  O  O70  1  0.85552200  0.66165800  0.58172900  1
  O  O71  1  0.85770000  0.83623500  0.41871800  1
  O  O72  1  0.92458900  0.10314000  0.84185100  1
  O  O73  1  0.92530900  0.39543200  0.15793400  1
  O  O74  1  0.94450200  0.14026700  0.42429000  1
  O  O75  1  0.94350700  0.35553300  0.57335300  1
