# generated using pymatgen
data_Li6MnFe3(PO4)6
_symmetry_space_group_name_H-M   'P 1'
_cell_length_a   8.51272200
_cell_length_b   8.53990835
_cell_length_c   8.68836135
_cell_angle_alpha   61.24253060
_cell_angle_beta   62.19147607
_cell_angle_gamma   62.09669554
_symmetry_Int_Tables_number   1
_chemical_formula_structural   Li6MnFe3(PO4)6
_chemical_formula_sum   'Li6 Mn1 Fe3 P6 O24'
_cell_volume   464.99161682
_cell_formula_units_Z   1
loop_
 _symmetry_equiv_pos_site_id
 _symmetry_equiv_pos_as_xyz
  1  'x, y, z'
loop_
 _atom_site_type_symbol
 _atom_site_label
 _atom_site_symmetry_multiplicity
 _atom_site_fract_x
 _atom_site_fract_y
 _atom_site_fract_z
 _atom_site_occupancy
  Li  Li0  1  0.98955500  0.02241900  0.01575600  1
  Li  Li1  1  0.35090400  0.75340900  0.14477600  1
  Li  Li2  1  0.49433600  0.47737800  0.50376100  1
  Li  Li3  1  0.65114400  0.24121300  0.84635600  1
  Li  Li4  1  0.84167200  0.66368000  0.25489400  1
  Li  Li5  1  0.24754100  0.83902900  0.64540900  1
  Mn  Mn6  1  0.85722400  0.85228200  0.84988900  1
  Fe  Fe7  1  0.13706500  0.14536700  0.14796000  1
  Fe  Fe8  1  0.35260100  0.35252400  0.36498300  1
  Fe  Fe9  1  0.64848400  0.64868000  0.64835300  1
  P  P10  1  0.45140500  0.04909900  0.75304600  1
  P  P11  1  0.74818700  0.45274300  0.04831400  1
  P  P12  1  0.05411000  0.74871400  0.44840700  1
  P  P13  1  0.95216000  0.24812000  0.54279900  1
  P  P14  1  0.24992600  0.54641100  0.96023000  1
  P  P15  1  0.53847200  0.95550800  0.25352800  1
  O  O16  1  0.48358400  0.12538100  0.30653500  1
  O  O17  1  0.11291900  0.30481900  0.51176400  1
  O  O18  1  0.27093200  0.04307300  0.92099600  1
  O  O19  1  0.29712900  0.53311000  0.11744300  1
  O  O20  1  0.42978000  0.24094500  0.59619500  1
  O  O21  1  0.61528500  0.01866200  0.80988100  1
  O  O22  1  0.90810600  0.26453100  0.06667700  1
  O  O23  1  0.58204900  0.45021700  0.22943000  1
  O  O24  1  0.24787400  0.59331900  0.42153000  1
  O  O25  1  0.98830900  0.19612200  0.38129100  1
  O  O26  1  0.93554800  0.08201200  0.73413200  1
  O  O27  1  0.20420000  0.37291000  0.00625700  1
  O  O28  1  0.80513900  0.61933000  0.01213100  1
  O  O29  1  0.06819900  0.90589900  0.25486400  1
  O  O30  1  0.03162200  0.80743100  0.60018100  1
  O  O31  1  0.75799500  0.40451300  0.57027300  1
  O  O32  1  0.40757800  0.56701800  0.76969100  1
  O  O33  1  0.08486000  0.73587500  0.93101300  1
  O  O34  1  0.38328500  0.97073900  0.19739100  1
  O  O35  1  0.56307800  0.76361700  0.41692900  1
  O  O36  1  0.69132200  0.48696500  0.88678200  1
  O  O37  1  0.73176700  0.94289000  0.10057800  1
  O  O38  1  0.89108500  0.68608400  0.48887600  1
  O  O39  1  0.49456400  0.88795900  0.68969800  1
