# generated using pymatgen
data_Li5Mn3F14
_symmetry_space_group_name_H-M   'P 1'
_cell_length_a   7.42361300
_cell_length_b   11.27774600
_cell_length_c   12.57355600
_cell_angle_alpha   90.00000000
_cell_angle_beta   90.00000000
_cell_angle_gamma   90.00000000
_symmetry_Int_Tables_number   1
_chemical_formula_structural   Li5Mn3F14
_chemical_formula_sum   'Li20 Mn12 F56'
_cell_volume   1052.67850032
_cell_formula_units_Z   4
loop_
 _symmetry_equiv_pos_site_id
 _symmetry_equiv_pos_as_xyz
  1  'x, y, z'
loop_
 _atom_site_type_symbol
 _atom_site_label
 _atom_site_symmetry_multiplicity
 _atom_site_fract_x
 _atom_site_fract_y
 _atom_site_fract_z
 _atom_site_occupancy
  Li  Li0  1  0.01046200  0.01022900  0.00837300  1
  Li  Li1  1  0.79977700  0.08906600  0.26385100  1
  Li  Li2  1  0.31960300  0.08736100  0.26772600  1
  Li  Li3  1  0.76350700  0.23985100  0.03091400  1
  Li  Li4  1  0.79139500  0.22656600  0.48520700  1
  Li  Li5  1  0.29139500  0.27343400  0.98520700  1
  Li  Li6  1  0.26350700  0.26014900  0.53091400  1
  Li  Li7  1  0.81960300  0.41263900  0.76772600  1
  Li  Li8  1  0.29977700  0.41093400  0.76385100  1
  Li  Li9  1  0.51046200  0.48977100  0.50837300  1
  Li  Li10  1  0.48953800  0.51022900  0.00837300  1
  Li  Li11  1  0.70022300  0.58906600  0.26385100  1
  Li  Li12  1  0.18039700  0.58736100  0.26772600  1
  Li  Li13  1  0.73649300  0.73985100  0.03091400  1
  Li  Li14  1  0.70860500  0.72656600  0.48520700  1
  Li  Li15  1  0.20860500  0.77343400  0.98520700  1
  Li  Li16  1  0.23649300  0.76014900  0.53091400  1
  Li  Li17  1  0.68039700  0.91263900  0.76772600  1
  Li  Li18  1  0.20022300  0.91093400  0.76385100  1
  Li  Li19  1  0.98953800  0.98977100  0.50837300  1
  Mn  Mn20  1  0.50411400  0.99993900  0.49571000  1
  Mn  Mn21  1  0.99969500  0.15442600  0.75087400  1
  Mn  Mn22  1  0.49994900  0.17792600  0.74691400  1
  Mn  Mn23  1  0.99994900  0.32207400  0.24691400  1
  Mn  Mn24  1  0.49969500  0.34557400  0.25087400  1
  Mn  Mn25  1  0.00411400  0.50006100  0.99571000  1
  Mn  Mn26  1  0.99588600  0.49993900  0.49571000  1
  Mn  Mn27  1  0.50030500  0.65442600  0.75087400  1
  Mn  Mn28  1  0.00005100  0.67792600  0.74691400  1
  Mn  Mn29  1  0.50005100  0.82207400  0.24691400  1
  Mn  Mn30  1  0.00030500  0.84557400  0.25087400  1
  Mn  Mn31  1  0.49588600  0.00006100  0.99571000  1
  F  F32  1  0.91946800  0.99672200  0.75053900  1
  F  F33  1  0.72050200  0.06962400  0.44239600  1
  F  F34  1  0.70905900  0.07476700  0.04317600  1
  F  F35  1  0.57605000  0.05703000  0.84298500  1
  F  F36  1  0.58177500  0.07645100  0.63931700  1
  F  F37  1  0.35916500  0.13045300  0.45584300  1
  F  F38  1  0.35018600  0.12622600  0.04034200  1
  F  F39  1  0.25645500  0.08147600  0.74387300  1
  F  F40  1  0.01349700  0.14309000  0.90668100  1
  F  F41  1  0.00386300  0.14522200  0.59020100  1
  F  F42  1  0.58198500  0.18690300  0.24964800  1
  F  F43  1  0.93054400  0.21880600  0.35665100  1
  F  F44  1  0.92481600  0.20669400  0.14746900  1
  F  F45  1  0.75714400  0.24814200  0.75258600  1
  F  F46  1  0.25714400  0.25185800  0.25258600  1
  F  F47  1  0.42481600  0.29330600  0.64746900  1
  F  F48  1  0.43054400  0.28119400  0.85665100  1
  F  F49  1  0.08198500  0.31309700  0.74964800  1
  F  F50  1  0.50386300  0.35477800  0.09020100  1
  F  F51  1  0.51349700  0.35691000  0.40668100  1
  F  F52  1  0.85018600  0.37377400  0.54034200  1
  F  F53  1  0.75645500  0.41852400  0.24387300  1
  F  F54  1  0.85916500  0.36954700  0.95584300  1
  F  F55  1  0.08177500  0.42354900  0.13931700  1
  F  F56  1  0.07605000  0.44297000  0.34298500  1
  F  F57  1  0.20905900  0.42523300  0.54317600  1
  F  F58  1  0.22050200  0.43037600  0.94239600  1
  F  F59  1  0.41946800  0.50327800  0.25053900  1
  F  F60  1  0.58053200  0.49672200  0.75053900  1
  F  F61  1  0.77949800  0.56962400  0.44239600  1
  F  F62  1  0.79094100  0.57476700  0.04317600  1
  F  F63  1  0.92395000  0.55703000  0.84298500  1
  F  F64  1  0.91822500  0.57645100  0.63931700  1
  F  F65  1  0.14083500  0.63045300  0.45584300  1
  F  F66  1  0.14981400  0.62622600  0.04034200  1
  F  F67  1  0.24354500  0.58147600  0.74387300  1
  F  F68  1  0.48650300  0.64309000  0.90668100  1
  F  F69  1  0.49613700  0.64522200  0.59020100  1
  F  F70  1  0.91801500  0.68690300  0.24964800  1
  F  F71  1  0.56945600  0.71880600  0.35665100  1
  F  F72  1  0.57518400  0.70669400  0.14746900  1
  F  F73  1  0.74285600  0.74814200  0.75258600  1
  F  F74  1  0.24285600  0.75185800  0.25258600  1
  F  F75  1  0.07518400  0.79330600  0.64746900  1
  F  F76  1  0.06945600  0.78119400  0.85665100  1
  F  F77  1  0.41801500  0.81309700  0.74964800  1
  F  F78  1  0.99613700  0.85477800  0.09020100  1
  F  F79  1  0.98650300  0.85691000  0.40668100  1
  F  F80  1  0.64981400  0.87377400  0.54034200  1
  F  F81  1  0.74354500  0.91852400  0.24387300  1
  F  F82  1  0.64083500  0.86954700  0.95584300  1
  F  F83  1  0.41822500  0.92354900  0.13931700  1
  F  F84  1  0.42395000  0.94297000  0.34298500  1
  F  F85  1  0.29094100  0.92523300  0.54317600  1
  F  F86  1  0.27949800  0.93037600  0.94239600  1
  F  F87  1  0.08053200  0.00327800  0.25053900  1
