# generated using pymatgen
data_Li3V2(O2F)2
_symmetry_space_group_name_H-M   'P 1'
_cell_length_a   5.95273500
_cell_length_b   5.97683390
_cell_length_c   15.16973261
_cell_angle_alpha   79.61718843
_cell_angle_beta   84.83302882
_cell_angle_gamma   60.73772651
_symmetry_Int_Tables_number   1
_chemical_formula_structural   Li3V2(O2F)2
_chemical_formula_sum   'Li12 V8 O16 F8'
_cell_volume   463.13294379
_cell_formula_units_Z   4
loop_
 _symmetry_equiv_pos_site_id
 _symmetry_equiv_pos_as_xyz
  1  'x, y, z'
loop_
 _atom_site_type_symbol
 _atom_site_label
 _atom_site_symmetry_multiplicity
 _atom_site_fract_x
 _atom_site_fract_y
 _atom_site_fract_z
 _atom_site_occupancy
  Li  Li0  1  0.14096700  0.79521000  0.83572000  1
  Li  Li1  1  0.71067700  0.21598800  0.83634400  1
  Li  Li2  1  0.32984400  0.46647100  0.71263200  1
  Li  Li3  1  0.16599800  0.50093000  0.33626000  1
  Li  Li4  1  0.47551300  0.02287000  0.95632600  1
  Li  Li5  1  0.67307800  0.76083300  0.82422400  1
  Li  Li6  1  0.66508300  0.01098700  0.33346800  1
  Li  Li7  1  0.00078100  0.49711200  0.95453400  1
  Li  Li8  1  0.33033700  0.99876000  0.70050800  1
  Li  Li9  1  0.15083200  0.01347800  0.33339700  1
  Li  Li10  1  0.50281100  0.51474700  0.97390200  1
  Li  Li11  1  0.85575700  0.46683400  0.70453300  1
  V  V12  1  0.50271500  0.25432300  0.50304700  1
  V  V13  1  0.99905300  0.75322700  0.50749600  1
  V  V14  1  0.33109300  0.25211700  0.16490900  1
  V  V15  1  0.50165000  0.75141400  0.49134600  1
  V  V16  1  0.83320800  0.74770100  0.16798400  1
  V  V17  1  0.00117900  0.25174000  0.49785500  1
  V  V18  1  0.33590500  0.74969400  0.16993900  1
  V  V19  1  0.83036000  0.24991300  0.16668900  1
  O  O20  1  0.31789000  0.61664800  0.42767000  1
  O  O21  1  0.17902700  0.59291600  0.10350500  1
  O  O22  1  0.17050800  0.38459200  0.57015500  1
  O  O23  1  0.50398600  0.37252600  0.24059600  1
  O  O24  1  0.83364100  0.10377600  0.42853100  1
  O  O25  1  0.65693800  0.89212600  0.56362200  1
  O  O26  1  0.67197800  0.12471400  0.10071200  1
  O  O27  1  0.99804200  0.88343900  0.24369600  1
  O  O28  1  0.33518400  0.13169800  0.42254200  1
  O  O29  1  0.16092000  0.11957300  0.10078100  1
  O  O30  1  0.16895400  0.87810600  0.56396400  1
  O  O31  1  0.48891700  0.91005400  0.23961300  1
  O  O32  1  0.84905100  0.62432400  0.42844000  1
  O  O33  1  0.65776100  0.38187500  0.56349500  1
  O  O34  1  0.66827300  0.60786300  0.10218600  1
  O  O35  1  0.00458800  0.36789700  0.24004500  1
  F  F36  1  0.34054300  0.37417300  0.92401400  1
  F  F37  1  0.50837000  0.12026800  0.75425300  1
  F  F38  1  0.82226400  0.86396800  0.91081000  1
  F  F39  1  0.99867300  0.63161700  0.75110000  1
  F  F40  1  0.35151100  0.84546300  0.91202700  1
  F  F41  1  0.50487700  0.63097800  0.74474400  1
  F  F42  1  0.80156700  0.39700000  0.90878800  1
  F  F43  1  0.00302800  0.12005700  0.75026600  1
