# generated using pymatgen
data_Li7Ni13O24
_symmetry_space_group_name_H-M   'P 1'
_cell_length_a   7.60634130
_cell_length_b   7.60634130
_cell_length_c   9.69635416
_cell_angle_alpha   58.49016443
_cell_angle_beta   58.49016443
_cell_angle_gamma   69.27226708
_symmetry_Int_Tables_number   1
_chemical_formula_structural   Li7Ni13O24
_chemical_formula_sum   'Li7 Ni13 O24'
_cell_volume   405.23048415
_cell_formula_units_Z   1
loop_
 _symmetry_equiv_pos_site_id
 _symmetry_equiv_pos_as_xyz
  1  'x, y, z'
loop_
 _atom_site_type_symbol
 _atom_site_label
 _atom_site_symmetry_multiplicity
 _atom_site_fract_x
 _atom_site_fract_y
 _atom_site_fract_z
 _atom_site_occupancy
  Li  Li0  1  0.32470600  0.67529400  0.00000000  1
  Li  Li1  1  0.25110500  0.25110500  0.25282600  1
  Li  Li2  1  0.16444800  0.83555200  0.50000000  1
  Li  Li3  1  0.00000000  0.00000000  0.00000000  1
  Li  Li4  1  0.83555200  0.16444800  0.50000000  1
  Li  Li5  1  0.74889500  0.74889500  0.74717400  1
  Li  Li6  1  0.67529400  0.32470600  0.00000000  1
  Ni  Ni7  1  0.29350000  0.96601900  0.12439200  1
  Ni  Ni8  1  0.20931300  0.54093400  0.37307300  1
  Ni  Ni9  1  0.12405100  0.12405100  0.63062300  1
  Ni  Ni10  1  0.87594900  0.87594900  0.36937700  1
  Ni  Ni11  1  0.37534700  0.37534700  0.87054800  1
  Ni  Ni12  1  0.79068700  0.45906600  0.62692700  1
  Ni  Ni13  1  0.03398100  0.70650000  0.87560800  1
  Ni  Ni14  1  0.96601900  0.29350000  0.12439200  1
  Ni  Ni15  1  0.50000000  0.50000000  0.50000000  1
  Ni  Ni16  1  0.70650000  0.03398100  0.87560800  1
  Ni  Ni17  1  0.62465300  0.62465300  0.12945200  1
  Ni  Ni18  1  0.54093400  0.20931300  0.37307300  1
  Ni  Ni19  1  0.45906600  0.79068700  0.62692700  1
  O  O20  1  0.32398400  0.32398400  0.53370100  1
  O  O21  1  0.21371900  0.88537100  0.80383000  1
  O  O22  1  0.34743800  0.03701700  0.45316700  1
  O  O23  1  0.19717300  0.19717300  0.94217200  1
  O  O24  1  0.28821300  0.60405200  0.69394400  1
  O  O25  1  0.96298300  0.65256200  0.54683300  1
  O  O26  1  0.11462900  0.78628100  0.19617000  1
  O  O27  1  0.88537100  0.21371900  0.80383000  1
  O  O28  1  0.03701700  0.34743800  0.45316700  1
  O  O29  1  0.92841100  0.92841100  0.70074900  1
  O  O30  1  0.15653600  0.47046100  0.03894200  1
  O  O31  1  0.07158900  0.07158900  0.29925100  1
  O  O32  1  0.67601600  0.67601600  0.46629900  1
  O  O33  1  0.60405200  0.28821300  0.69394400  1
  O  O34  1  0.80282700  0.80282700  0.05782800  1
  O  O35  1  0.71178700  0.39594800  0.30605600  1
  O  O36  1  0.84346400  0.52953900  0.96105800  1
  O  O37  1  0.65256200  0.96298300  0.54683300  1
  O  O38  1  0.78628100  0.11462900  0.19617000  1
  O  O39  1  0.47046100  0.15653600  0.03894200  1
  O  O40  1  0.54956600  0.54956600  0.81802900  1
  O  O41  1  0.39594800  0.71178700  0.30605600  1
  O  O42  1  0.52953900  0.84346400  0.96105800  1
  O  O43  1  0.45043400  0.45043400  0.18197100  1
