# generated using pymatgen
data_Li2Cr(FeO3)2
_symmetry_space_group_name_H-M   'P 1'
_cell_length_a   6.68527700
_cell_length_b   6.69244148
_cell_length_c   8.37387597
_cell_angle_alpha   71.30169604
_cell_angle_beta   71.23223269
_cell_angle_gamma   82.98596125
_symmetry_Int_Tables_number   1
_chemical_formula_structural   Li2Cr(FeO3)2
_chemical_formula_sum   'Li6 Cr3 Fe6 O18'
_cell_volume   335.93580395
_cell_formula_units_Z   3
loop_
 _symmetry_equiv_pos_site_id
 _symmetry_equiv_pos_as_xyz
  1  'x, y, z'
loop_
 _atom_site_type_symbol
 _atom_site_label
 _atom_site_symmetry_multiplicity
 _atom_site_fract_x
 _atom_site_fract_y
 _atom_site_fract_z
 _atom_site_occupancy
  Li  Li0  1  0.66342700  0.00107000  0.83215800  1
  Li  Li1  1  0.66216200  0.33522500  0.50153000  1
  Li  Li2  1  0.00042000  0.33315900  0.16950900  1
  Li  Li3  1  0.99958000  0.66684100  0.83049100  1
  Li  Li4  1  0.33657300  0.99893000  0.16784200  1
  Li  Li5  1  0.33783800  0.66477500  0.49847000  1
  Cr  Cr6  1  0.00000000  0.00000000  0.00000000  1
  Cr  Cr7  1  0.99959200  0.33163800  0.66651700  1
  Cr  Cr8  1  0.00040800  0.66836200  0.33348300  1
  Fe  Fe9  1  0.33371600  0.66339300  0.99985900  1
  Fe  Fe10  1  0.33201100  0.00066700  0.66500000  1
  Fe  Fe11  1  0.33299200  0.33376300  0.33385000  1
  Fe  Fe12  1  0.66798900  0.99933300  0.33500000  1
  Fe  Fe13  1  0.66628400  0.33660700  0.00014100  1
  Fe  Fe14  1  0.66700800  0.66623700  0.66615000  1
  O  O15  1  0.67731300  0.67593400  0.43514800  1
  O  O16  1  0.68820900  0.01802000  0.07698700  1
  O  O17  1  0.68629300  0.35473900  0.74331000  1
  O  O18  1  0.01875200  0.68378600  0.08215200  1
  O  O19  1  0.01113300  0.01145500  0.76683600  1
  O  O20  1  0.35363000  0.68548000  0.74389500  1
  O  O21  1  0.98886700  0.98854500  0.23316400  1
  O  O22  1  0.98124800  0.31621400  0.91784800  1
  O  O23  1  0.31179100  0.98198000  0.92301300  1
  O  O24  1  0.02038300  0.35377600  0.41354600  1
  O  O25  1  0.35087000  0.01964100  0.41079000  1
  O  O26  1  0.34137300  0.34184400  0.10373700  1
  O  O27  1  0.97961700  0.64622400  0.58645400  1
  O  O28  1  0.32268700  0.32406600  0.56485200  1
  O  O29  1  0.31370700  0.64526100  0.25669000  1
  O  O30  1  0.64913000  0.98035900  0.58921000  1
  O  O31  1  0.64637000  0.31452000  0.25610500  1
  O  O32  1  0.65862700  0.65815600  0.89626300  1
