# generated using pymatgen
data_NaLi5Mn2P2(CO7)2
_symmetry_space_group_name_H-M   'P 1'
_cell_length_a   6.68227100
_cell_length_b   8.63384100
_cell_length_c   9.99739134
_cell_angle_alpha   87.60521582
_cell_angle_beta   90.00000000
_cell_angle_gamma   90.00000000
_symmetry_Int_Tables_number   1
_chemical_formula_structural   NaLi5Mn2P2(CO7)2
_chemical_formula_sum   'Na2 Li10 Mn4 P4 C4 O28'
_cell_volume   576.28240716
_cell_formula_units_Z   2
loop_
 _symmetry_equiv_pos_site_id
 _symmetry_equiv_pos_as_xyz
  1  'x, y, z'
loop_
 _atom_site_type_symbol
 _atom_site_label
 _atom_site_symmetry_multiplicity
 _atom_site_fract_x
 _atom_site_fract_y
 _atom_site_fract_z
 _atom_site_occupancy
  Na  Na0  1  0.99808900  0.24805300  0.87632200  1
  Na  Na1  1  0.49808900  0.75194700  0.12367800  1
  Li  Li2  1  0.25524300  0.08428500  0.61939600  1
  Li  Li3  1  0.25039500  0.09071900  0.12409400  1
  Li  Li4  1  0.02953100  0.26554800  0.36752100  1
  Li  Li5  1  0.46793200  0.26667000  0.36565600  1
  Li  Li6  1  0.47522400  0.26967600  0.86492600  1
  Li  Li7  1  0.52953100  0.73445200  0.63247900  1
  Li  Li8  1  0.96793200  0.73333000  0.63434400  1
  Li  Li9  1  0.97522400  0.73032400  0.13507400  1
  Li  Li10  1  0.75524300  0.91571500  0.38060400  1
  Li  Li11  1  0.75039500  0.90928100  0.87590600  1
  Mn  Mn12  1  0.74619800  0.35077200  0.63276200  1
  Mn  Mn13  1  0.74779000  0.35390600  0.14279700  1
  Mn  Mn14  1  0.24619800  0.64922800  0.36723800  1
  Mn  Mn15  1  0.24779000  0.64609400  0.85720300  1
  P  P16  1  0.24996800  0.40624000  0.60212000  1
  P  P17  1  0.24895600  0.40836900  0.10894000  1
  P  P18  1  0.74996800  0.59376000  0.39788000  1
  P  P19  1  0.74895600  0.59163100  0.89106000  1
  C  C20  1  0.74993500  0.03785000  0.61369600  1
  C  C21  1  0.75865800  0.04301500  0.11190400  1
  C  C22  1  0.24993500  0.96215000  0.38630400  1
  C  C23  1  0.25865800  0.95698500  0.88809600  1
  O  O24  1  0.24850900  0.10818000  0.41532100  1
  O  O25  1  0.28152600  0.09897700  0.92305000  1
  O  O26  1  0.75584900  0.07913200  0.73664400  1
  O  O27  1  0.75189700  0.07850700  0.23692900  1
  O  O28  1  0.74512600  0.14160700  0.51554500  1
  O  O29  1  0.74127800  0.15187400  0.01854100  1
  O  O30  1  0.06227600  0.31373400  0.64850200  1
  O  O31  1  0.42957000  0.30742300  0.65601500  1
  O  O32  1  0.06707300  0.30322800  0.15056600  1
  O  O33  1  0.43244600  0.31810000  0.16801000  1
  O  O34  1  0.25484500  0.41687400  0.44520400  1
  O  O35  1  0.75517400  0.42401300  0.35025500  1
  O  O36  1  0.26728500  0.42198700  0.95300800  1
  O  O37  1  0.72922600  0.42558200  0.83964400  1
  O  O38  1  0.25517400  0.57598700  0.64974500  1
  O  O39  1  0.75484500  0.58312600  0.55479600  1
  O  O40  1  0.22922600  0.57441800  0.16035600  1
  O  O41  1  0.76728500  0.57801300  0.04699200  1
  O  O42  1  0.56227600  0.68626600  0.35149800  1
  O  O43  1  0.92957000  0.69257700  0.34398500  1
  O  O44  1  0.56707300  0.69677200  0.84943400  1
  O  O45  1  0.93244600  0.68190000  0.83199000  1
  O  O46  1  0.24512600  0.85839300  0.48445500  1
  O  O47  1  0.24127800  0.84812600  0.98145900  1
  O  O48  1  0.25584900  0.92086800  0.26335600  1
  O  O49  1  0.25189700  0.92149300  0.76307100  1
  O  O50  1  0.74850900  0.89182000  0.58467900  1
  O  O51  1  0.78152600  0.90102300  0.07695000  1
