# generated using pymatgen
data_LiMnPO4
_symmetry_space_group_name_H-M   'P 1'
_cell_length_a   8.83485040
_cell_length_b   8.83485040
_cell_length_c   8.19649500
_cell_angle_alpha   90.00000000
_cell_angle_beta   90.00000000
_cell_angle_gamma   120.00000299
_symmetry_Int_Tables_number   1
_chemical_formula_structural   LiMnPO4
_chemical_formula_sum   'Li6 Mn6 P6 O24'
_cell_volume   554.06050930
_cell_formula_units_Z   6
loop_
 _symmetry_equiv_pos_site_id
 _symmetry_equiv_pos_as_xyz
  1  'x, y, z'
loop_
 _atom_site_type_symbol
 _atom_site_label
 _atom_site_symmetry_multiplicity
 _atom_site_fract_x
 _atom_site_fract_y
 _atom_site_fract_z
 _atom_site_occupancy
  Li  Li0  1  0.33333300  0.66666700  0.17319700  1
  Li  Li1  1  0.33333300  0.66666700  0.68878900  1
  Li  Li2  1  0.00000000  0.00000000  0.10700600  1
  Li  Li3  1  0.00000000  0.00000000  0.60700600  1
  Li  Li4  1  0.66666700  0.33333300  0.67319700  1
  Li  Li5  1  0.66666700  0.33333300  0.18878900  1
  Mn  Mn6  1  0.02749400  0.68631600  0.40288600  1
  Mn  Mn7  1  0.31368400  0.34117800  0.40288600  1
  Mn  Mn8  1  0.65882200  0.97250600  0.40288600  1
  Mn  Mn9  1  0.34117800  0.02749400  0.90288600  1
  Mn  Mn10  1  0.68631600  0.65882200  0.90288600  1
  Mn  Mn11  1  0.97250600  0.31368400  0.90288600  1
  P  P12  1  0.04017000  0.68497000  0.01484700  1
  P  P13  1  0.31503000  0.35520000  0.01484700  1
  P  P14  1  0.64480000  0.95983000  0.01484700  1
  P  P15  1  0.35520000  0.04017000  0.51484700  1
  P  P16  1  0.68497000  0.64480000  0.51484700  1
  P  P17  1  0.95983000  0.31503000  0.51484700  1
  O  O18  1  0.15114400  0.93060500  0.51604100  1
  O  O19  1  0.14794800  0.72954600  0.17636900  1
  O  O20  1  0.17464100  0.75452200  0.87283800  1
  O  O21  1  0.09139100  0.51384200  0.50534800  1
  O  O22  1  0.42245000  0.90860900  0.50534800  1
  O  O23  1  0.06939500  0.22053900  0.51604100  1
  O  O24  1  0.24547800  0.42011900  0.87283800  1
  O  O25  1  0.27045400  0.41840200  0.17636900  1
  O  O26  1  0.22053900  0.15114400  0.01604100  1
  O  O27  1  0.58159800  0.85205200  0.17636900  1
  O  O28  1  0.57988100  0.82535900  0.87283800  1
  O  O29  1  0.48615800  0.57755000  0.50534800  1
  O  O30  1  0.51384200  0.42245000  0.00534800  1
  O  O31  1  0.42011900  0.17464100  0.37283800  1
  O  O32  1  0.41840200  0.14794800  0.67636900  1
  O  O33  1  0.77946100  0.84885600  0.51604100  1
  O  O34  1  0.72954600  0.58159800  0.67636900  1
  O  O35  1  0.75452200  0.57988100  0.37283800  1
  O  O36  1  0.93060500  0.77946100  0.01604100  1
  O  O37  1  0.57755000  0.09139100  0.00534800  1
  O  O38  1  0.90860900  0.48615800  0.00534800  1
  O  O39  1  0.82535900  0.24547800  0.37283800  1
  O  O40  1  0.85205200  0.27045400  0.67636900  1
  O  O41  1  0.84885600  0.06939500  0.01604100  1
