# generated using pymatgen
data_Li4Mn3V5O16
_symmetry_space_group_name_H-M   'P 1'
_cell_length_a   5.84253800
_cell_length_b   5.89691046
_cell_length_c   9.55766849
_cell_angle_alpha   91.58684124
_cell_angle_beta   90.49850525
_cell_angle_gamma   117.75813423
_symmetry_Int_Tables_number   1
_chemical_formula_structural   Li4Mn3V5O16
_chemical_formula_sum   'Li4 Mn3 V5 O16'
_cell_volume   291.19688942
_cell_formula_units_Z   1
loop_
 _symmetry_equiv_pos_site_id
 _symmetry_equiv_pos_as_xyz
  1  'x, y, z'
loop_
 _atom_site_type_symbol
 _atom_site_label
 _atom_site_symmetry_multiplicity
 _atom_site_fract_x
 _atom_site_fract_y
 _atom_site_fract_z
 _atom_site_occupancy
  Li  Li0  1  0.33919600  0.68316600  0.10404800  1
  Li  Li1  1  0.99913400  0.00370200  0.00690400  1
  Li  Li2  1  0.00363200  0.99325900  0.50645900  1
  Li  Li3  1  0.66911700  0.33259900  0.60145800  1
  Mn  Mn4  1  0.17057600  0.33726100  0.78839800  1
  Mn  Mn5  1  0.34221400  0.17364300  0.28590000  1
  Mn  Mn6  1  0.83246900  0.16792200  0.28823700  1
  V  V7  1  0.17233300  0.82753900  0.78339500  1
  V  V8  1  0.33431900  0.65428900  0.51255700  1
  V  V9  1  0.65776600  0.83259600  0.78840100  1
  V  V10  1  0.83672900  0.65975800  0.28441100  1
  V  V11  1  0.66752900  0.34810500  0.01188100  1
  O  O12  1  0.15839900  0.79631000  0.40911100  1
  O  O13  1  0.46716800  0.96119100  0.65780600  1
  O  O14  1  0.31896900  0.66849000  0.89573700  1
  O  O15  1  0.00433700  0.99844100  0.69448800  1
  O  O16  1  0.00131900  0.99611700  0.19489100  1
  O  O17  1  0.66565400  0.79885500  0.39970600  1
  O  O18  1  0.04032000  0.51801600  0.66035500  1
  O  O19  1  0.49191200  0.53577000  0.64833600  1
  O  O20  1  0.83196800  0.67218200  0.89735900  1
  O  O21  1  0.16542600  0.31557700  0.40753200  1
  O  O22  1  0.53519500  0.49987600  0.14539200  1
  O  O23  1  0.96756900  0.50604800  0.15560900  1
  O  O24  1  0.67063700  0.33662000  0.39060100  1
  O  O25  1  0.32536500  0.16994300  0.90508800  1
  O  O26  1  0.52577100  0.05202200  0.15765600  1
  O  O27  1  0.80467700  0.16070300  0.91044300  1
