# generated using pymatgen
data_Li3Ti(PO4)2
_symmetry_space_group_name_H-M   'P 1'
_cell_length_a   5.26008860
_cell_length_b   5.26008860
_cell_length_c   13.17380321
_cell_angle_alpha   82.50380326
_cell_angle_beta   82.50380326
_cell_angle_gamma   53.94124821
_symmetry_Int_Tables_number   1
_chemical_formula_structural   Li3Ti(PO4)2
_chemical_formula_sum   'Li6 Ti2 P4 O16'
_cell_volume   291.49262255
_cell_formula_units_Z   2
loop_
 _symmetry_equiv_pos_site_id
 _symmetry_equiv_pos_as_xyz
  1  'x, y, z'
loop_
 _atom_site_type_symbol
 _atom_site_label
 _atom_site_symmetry_multiplicity
 _atom_site_fract_x
 _atom_site_fract_y
 _atom_site_fract_z
 _atom_site_occupancy
  Li  Li0  1  0.36081300  0.29911900  0.64806900  1
  Li  Li1  1  0.29911900  0.36081300  0.14806900  1
  Li  Li2  1  0.70088100  0.63918700  0.85193100  1
  Li  Li3  1  0.63918700  0.70088100  0.35193100  1
  Li  Li4  1  0.05416400  0.94583600  0.75000000  1
  Li  Li5  1  0.94583600  0.05416400  0.25000000  1
  Ti  Ti6  1  0.00000000  0.00000000  0.50000000  1
  Ti  Ti7  1  0.00000000  0.00000000  0.00000000  1
  P  P8  1  0.36510200  0.31781700  0.88465900  1
  P  P9  1  0.31781700  0.36510200  0.38465900  1
  P  P10  1  0.68218300  0.63489800  0.61534100  1
  P  P11  1  0.63489800  0.68218300  0.11534100  1
  O  O12  1  0.72669900  0.17150500  0.86792700  1
  O  O13  1  0.17150500  0.72669900  0.36792700  1
  O  O14  1  0.22923500  0.54558900  0.97265800  1
  O  O15  1  0.54558900  0.22923500  0.47265800  1
  O  O16  1  0.18606400  0.49994800  0.78805900  1
  O  O17  1  0.96069300  0.66904600  0.58428100  1
  O  O18  1  0.49994800  0.18606400  0.28805900  1
  O  O19  1  0.66904600  0.96069300  0.08428100  1
  O  O20  1  0.33095400  0.03930700  0.91571900  1
  O  O21  1  0.50005200  0.81393600  0.71194100  1
  O  O22  1  0.03930700  0.33095400  0.41571900  1
  O  O23  1  0.81393600  0.50005200  0.21194100  1
  O  O24  1  0.45441100  0.77076500  0.52734200  1
  O  O25  1  0.77076500  0.45441100  0.02734200  1
  O  O26  1  0.82849500  0.27330100  0.63207300  1
  O  O27  1  0.27330100  0.82849500  0.13207300  1
