# generated using pymatgen
data_Li2MnSiO4
_symmetry_space_group_name_H-M   'P 1'
_cell_length_a   5.13992000
_cell_length_b   6.36519700
_cell_length_c   11.02011800
_cell_angle_alpha   90.00000000
_cell_angle_beta   90.00000000
_cell_angle_gamma   90.00000000
_symmetry_Int_Tables_number   1
_chemical_formula_structural   Li2MnSiO4
_chemical_formula_sum   'Li8 Mn4 Si4 O16'
_cell_volume   360.54082963
_cell_formula_units_Z   4
loop_
 _symmetry_equiv_pos_site_id
 _symmetry_equiv_pos_as_xyz
  1  'x, y, z'
loop_
 _atom_site_type_symbol
 _atom_site_label
 _atom_site_symmetry_multiplicity
 _atom_site_fract_x
 _atom_site_fract_y
 _atom_site_fract_z
 _atom_site_occupancy
  Li  Li0  1  0.29704400  0.86952700  0.07298200  1
  Li  Li1  1  0.68917500  0.11936000  0.15863200  1
  Li  Li2  1  0.18917500  0.61936000  0.34136800  1
  Li  Li3  1  0.79704400  0.36952700  0.42701800  1
  Li  Li4  1  0.20295600  0.86952700  0.57298200  1
  Li  Li5  1  0.81082500  0.11936000  0.65863200  1
  Li  Li6  1  0.31082500  0.61936000  0.84136800  1
  Li  Li7  1  0.70295600  0.36952700  0.92701800  1
  Mn  Mn8  1  0.69461700  0.61561400  0.16742600  1
  Mn  Mn9  1  0.19461700  0.11561400  0.33257400  1
  Mn  Mn10  1  0.80538300  0.61561400  0.66742600  1
  Mn  Mn11  1  0.30538300  0.11561400  0.83257400  1
  Si  Si12  1  0.18977600  0.36819700  0.08601200  1
  Si  Si13  1  0.68977600  0.86819700  0.41398800  1
  Si  Si14  1  0.31022400  0.36819700  0.58601200  1
  Si  Si15  1  0.81022400  0.86819700  0.91398800  1
  O  O16  1  0.69592800  0.87353600  0.05354100  1
  O  O17  1  0.86771200  0.36097300  0.08530200  1
  O  O18  1  0.28338700  0.58097700  0.16207300  1
  O  O19  1  0.29987300  0.15386100  0.15433200  1
  O  O20  1  0.79987300  0.65386100  0.34566800  1
  O  O21  1  0.78338700  0.08097700  0.33792700  1
  O  O22  1  0.36771200  0.86097300  0.41469800  1
  O  O23  1  0.19592800  0.37353600  0.44645900  1
  O  O24  1  0.80407200  0.87353600  0.55354100  1
  O  O25  1  0.63228800  0.36097300  0.58530200  1
  O  O26  1  0.21661300  0.58097700  0.66207300  1
  O  O27  1  0.20012700  0.15386100  0.65433200  1
  O  O28  1  0.70012700  0.65386100  0.84566800  1
  O  O29  1  0.71661300  0.08097700  0.83792700  1
  O  O30  1  0.13228800  0.86097300  0.91469800  1
  O  O31  1  0.30407200  0.37353600  0.94645900  1
