# generated using pymatgen
data_Li2FePCO7
_symmetry_space_group_name_H-M   'P 1'
_cell_length_a   6.49902000
_cell_length_b   9.37369800
_cell_length_c   10.19769850
_cell_angle_alpha   62.46891459
_cell_angle_beta   90.00000000
_cell_angle_gamma   90.00000000
_symmetry_Int_Tables_number   1
_chemical_formula_structural   Li2FePCO7
_chemical_formula_sum   'Li8 Fe4 P4 C4 O28'
_cell_volume   550.89291054
_cell_formula_units_Z   4
loop_
 _symmetry_equiv_pos_site_id
 _symmetry_equiv_pos_as_xyz
  1  'x, y, z'
loop_
 _atom_site_type_symbol
 _atom_site_label
 _atom_site_symmetry_multiplicity
 _atom_site_fract_x
 _atom_site_fract_y
 _atom_site_fract_z
 _atom_site_occupancy
  Li  Li0  1  0.25580900  0.09880500  0.31545600  1
  Li  Li1  1  0.24419100  0.09880500  0.81545600  1
  Li  Li2  1  0.03675400  0.27921800  0.48387700  1
  Li  Li3  1  0.46324600  0.27921800  0.98387700  1
  Li  Li4  1  0.96324600  0.72078200  0.51612300  1
  Li  Li5  1  0.53675400  0.72078200  0.01612300  1
  Li  Li6  1  0.74419100  0.90119500  0.68454400  1
  Li  Li7  1  0.75580900  0.90119500  0.18454400  1
  Fe  Fe8  1  0.74562400  0.32927600  0.68569300  1
  Fe  Fe9  1  0.75437600  0.32927600  0.18569300  1
  Fe  Fe10  1  0.25437600  0.67072400  0.31430700  1
  Fe  Fe11  1  0.24562400  0.67072400  0.81430700  1
  P  P12  1  0.24753700  0.41850500  0.67776300  1
  P  P13  1  0.25246300  0.41850500  0.17776300  1
  P  P14  1  0.75246300  0.58149500  0.32223700  1
  P  P15  1  0.74753700  0.58149500  0.82223700  1
  C  C16  1  0.76364300  0.04231000  0.38228800  1
  C  C17  1  0.73635700  0.04231000  0.88228800  1
  C  C18  1  0.23635700  0.95769000  0.61771200  1
  C  C19  1  0.26364300  0.95769000  0.11771200  1
  O  O20  1  0.74677800  0.07492900  0.74180600  1
  O  O21  1  0.75322200  0.07492900  0.24180600  1
  O  O22  1  0.21379200  0.10105400  0.51108400  1
  O  O23  1  0.76409700  0.16922400  0.40481700  1
  O  O24  1  0.28620800  0.10105400  0.01108400  1
  O  O25  1  0.73590300  0.16922400  0.90481700  1
  O  O26  1  0.06738400  0.29904100  0.69914600  1
  O  O27  1  0.44060400  0.32130300  0.68053600  1
  O  O28  1  0.05939600  0.32130300  0.18053600  1
  O  O29  1  0.43261600  0.29904100  0.19914600  1
  O  O30  1  0.78484200  0.42214400  0.46887800  1
  O  O31  1  0.23333900  0.46296600  0.30697700  1
  O  O32  1  0.71515800  0.42214400  0.96887800  1
  O  O33  1  0.26666100  0.46296600  0.80697700  1
  O  O34  1  0.76666100  0.53703400  0.69302300  1
  O  O35  1  0.21515800  0.57785600  0.53112200  1
  O  O36  1  0.73333900  0.53703400  0.19302300  1
  O  O37  1  0.28484200  0.57785600  0.03112200  1
  O  O38  1  0.55939600  0.67869700  0.31946400  1
  O  O39  1  0.93261600  0.70095900  0.30085400  1
  O  O40  1  0.94060400  0.67869700  0.81946400  1
  O  O41  1  0.56738400  0.70095900  0.80085400  1
  O  O42  1  0.23590300  0.83077600  0.59518300  1
  O  O43  1  0.78620800  0.89894600  0.48891600  1
  O  O44  1  0.26409700  0.83077600  0.09518300  1
  O  O45  1  0.71379200  0.89894600  0.98891600  1
  O  O46  1  0.25322200  0.92507100  0.25819400  1
  O  O47  1  0.24677800  0.92507100  0.75819400  1
