# generated using pymatgen
data_Li2VCrP2(O4F)2
_symmetry_space_group_name_H-M   'P 1'
_cell_length_a   5.37081200
_cell_length_b   7.40905343
_cell_length_c   14.55085536
_cell_angle_alpha   94.23449403
_cell_angle_beta   92.70382709
_cell_angle_gamma   109.78129152
_symmetry_Int_Tables_number   1
_chemical_formula_structural   Li2VCrP2(O4F)2
_chemical_formula_sum   'Li6 V3 Cr3 P6 O24 F6'
_cell_volume   541.75360471
_cell_formula_units_Z   3
loop_
 _symmetry_equiv_pos_site_id
 _symmetry_equiv_pos_as_xyz
  1  'x, y, z'
loop_
 _atom_site_type_symbol
 _atom_site_label
 _atom_site_symmetry_multiplicity
 _atom_site_fract_x
 _atom_site_fract_y
 _atom_site_fract_z
 _atom_site_occupancy
  Li  Li0  1  0.60050800  0.21552500  0.02680500  1
  Li  Li1  1  0.73179600  0.11773500  0.30674600  1
  Li  Li2  1  0.93409100  0.54934600  0.36101100  1
  Li  Li3  1  0.06659900  0.45032400  0.63919400  1
  Li  Li4  1  0.26679300  0.88297800  0.69383300  1
  Li  Li5  1  0.40014900  0.78386500  0.97246600  1
  V  V6  1  0.00005800  0.99947000  0.99933000  1
  V  V7  1  0.66598000  0.66654100  0.16690900  1
  V  V8  1  0.66632800  0.66676700  0.66644500  1
  Cr  Cr9  1  0.33366300  0.33376900  0.33400700  1
  Cr  Cr10  1  0.00054500  0.00020600  0.49993500  1
  Cr  Cr11  1  0.33349600  0.33329800  0.83327800  1
  P  P12  1  0.02571900  0.38355800  0.14708400  1
  P  P13  1  0.30871800  0.95057400  0.18726000  1
  P  P14  1  0.63959800  0.28062800  0.51997800  1
  P  P15  1  0.35942800  0.71867100  0.47928600  1
  P  P16  1  0.69238200  0.05292700  0.81288500  1
  P  P17  1  0.97405900  0.61347600  0.85343800  1
  O  O18  1  0.93247800  0.17940200  0.09416300  1
  O  O19  1  0.29623700  0.51006600  0.11889800  1
  O  O20  1  0.80197700  0.45997900  0.11655900  1
  O  O21  1  0.30405400  0.96818100  0.08024200  1
  O  O22  1  0.40228400  0.15503100  0.23886900  1
  O  O23  1  0.03212500  0.36551600  0.25385000  1
  O  O24  1  0.03702400  0.82351500  0.21454300  1
  O  O25  1  0.53169400  0.87300400  0.21773900  1
  O  O26  1  0.63363100  0.30009200  0.41303800  1
  O  O27  1  0.26387100  0.51313900  0.42778900  1
  O  O28  1  0.13286300  0.79307300  0.44958100  1
  O  O29  1  0.36891800  0.15631200  0.54803800  1
  O  O30  1  0.63095800  0.84381800  0.45186000  1
  O  O31  1  0.86699600  0.20754200  0.54982200  1
  O  O32  1  0.73398600  0.48623800  0.57247900  1
  O  O33  1  0.36441700  0.69853700  0.58643600  1
  O  O34  1  0.46553400  0.12598700  0.78254400  1
  O  O35  1  0.96392700  0.17712400  0.78547700  1
  O  O36  1  0.96945600  0.63521000  0.74670300  1
  O  O37  1  0.59908900  0.84707200  0.76084200  1
  O  O38  1  0.69643200  0.03256600  0.91973700  1
  O  O39  1  0.20076000  0.54029300  0.88382400  1
  O  O40  1  0.70286200  0.48926600  0.88119400  1
  O  O41  1  0.06853800  0.81909500  0.90580700  1
  F  F42  1  0.70834900  0.78107400  0.04414300  1
  F  F43  1  0.04582200  0.11592600  0.37890600  1
  F  F44  1  0.62005300  0.54843100  0.29001700  1
  F  F45  1  0.37366800  0.44552800  0.71308700  1
  F  F46  1  0.95940600  0.88811500  0.62003100  1
  F  F47  1  0.29267900  0.22120700  0.95389700  1
