# generated using pymatgen
data_Li2CoSiO4
_symmetry_space_group_name_H-M   'P 1'
_cell_length_a   7.35990700
_cell_length_b   8.23902824
_cell_length_c   7.63913600
_cell_angle_alpha   62.37900065
_cell_angle_beta   89.99985494
_cell_angle_gamma   116.52907528
_symmetry_Int_Tables_number   1
_chemical_formula_structural   Li2CoSiO4
_chemical_formula_sum   'Li8 Co4 Si4 O16'
_cell_volume   354.46802708
_cell_formula_units_Z   4
loop_
 _symmetry_equiv_pos_site_id
 _symmetry_equiv_pos_as_xyz
  1  'x, y, z'
loop_
 _atom_site_type_symbol
 _atom_site_label
 _atom_site_symmetry_multiplicity
 _atom_site_fract_x
 _atom_site_fract_y
 _atom_site_fract_z
 _atom_site_occupancy
  Li  Li0  1  0.56865100  0.49999000  0.75003200  1
  Li  Li1  1  0.06868600  0.49999100  0.25000400  1
  Li  Li2  1  0.68135200  0.00001700  0.99992800  1
  Li  Li3  1  0.18134900  0.00001000  0.50005600  1
  Li  Li4  1  0.87501700  0.75002800  0.93795600  1
  Li  Li5  1  0.37497800  0.74996500  0.43804900  1
  Li  Li6  1  0.62498000  0.24995500  0.56203600  1
  Li  Li7  1  0.12502400  0.25005500  0.06194400  1
  Co  Co8  1  0.62499000  0.25000400  0.19638600  1
  Co  Co9  1  0.87498900  0.75000100  0.30362300  1
  Co  Co10  1  0.12500700  0.24998100  0.69632000  1
  Co  Co11  1  0.37500600  0.75000700  0.80374700  1
  Si  Si12  1  0.32402400  0.99992600  0.99997100  1
  Si  Si13  1  0.82409300  0.00009200  0.49999900  1
  Si  Si14  1  0.92590900  0.49997200  0.75003200  1
  Si  Si15  1  0.42594600  0.50000500  0.24996900  1
  O  O16  1  0.30480000  0.21589600  0.89346000  1
  O  O17  1  0.80489200  0.21607500  0.39354600  1
  O  O18  1  0.58886300  0.78414600  0.60653700  1
  O  O19  1  0.08886800  0.78393700  0.10636400  1
  O  O20  1  0.16117500  0.71589800  0.64063500  1
  O  O21  1  0.66108700  0.71600800  0.14029100  1
  O  O22  1  0.94529400  0.28407900  0.85943400  1
  O  O23  1  0.44508900  0.28398200  0.35958100  1
  O  O24  1  0.46313400  0.00098600  0.17036700  1
  O  O25  1  0.96306900  0.00102700  0.67051600  1
  O  O26  1  0.96218500  0.99907600  0.32962700  1
  O  O27  1  0.46213700  0.99901200  0.82949000  1
  O  O28  1  0.78687900  0.49908100  0.92139000  1
  O  O29  1  0.28694900  0.49903400  0.42143100  1
  O  O30  1  0.78775800  0.50086100  0.57869900  1
  O  O31  1  0.28781800  0.50090500  0.07858100  1
