# generated using pymatgen
data_Li9Y(NiO4)2
_symmetry_space_group_name_H-M   'P 1'
_cell_length_a   6.50581100
_cell_length_b   7.71254300
_cell_length_c   16.17257200
_cell_angle_alpha   90.00000000
_cell_angle_beta   90.00000000
_cell_angle_gamma   90.00000000
_symmetry_Int_Tables_number   1
_chemical_formula_structural   Li9Y(NiO4)2
_chemical_formula_sum   'Li36 Y4 Ni8 O32'
_cell_volume   811.48058597
_cell_formula_units_Z   4
loop_
 _symmetry_equiv_pos_site_id
 _symmetry_equiv_pos_as_xyz
  1  'x, y, z'
loop_
 _atom_site_type_symbol
 _atom_site_label
 _atom_site_symmetry_multiplicity
 _atom_site_fract_x
 _atom_site_fract_y
 _atom_site_fract_z
 _atom_site_occupancy
  Li  Li0  1  0.00009800  0.04036700  0.56962200  1
  Li  Li1  1  0.49990200  0.04036700  0.56962200  1
  Li  Li2  1  0.75000000  0.86215300  0.64645100  1
  Li  Li3  1  0.99910200  0.62960100  0.62717700  1
  Li  Li4  1  0.50089800  0.62960100  0.62717700  1
  Li  Li5  1  0.25000000  0.84977300  0.64658000  1
  Li  Li6  1  0.75000000  0.33147400  0.69647800  1
  Li  Li7  1  0.50919700  0.08249000  0.71090400  1
  Li  Li8  1  0.99080300  0.08249000  0.71090400  1
  Li  Li9  1  0.00919700  0.58249000  0.78909600  1
  Li  Li10  1  0.49080300  0.58249000  0.78909600  1
  Li  Li11  1  0.25000000  0.83147400  0.80352200  1
  Li  Li12  1  0.75000000  0.34977300  0.85342000  1
  Li  Li13  1  0.00089800  0.12960100  0.87282300  1
  Li  Li14  1  0.49910200  0.12960100  0.87282300  1
  Li  Li15  1  0.25000000  0.36215300  0.85354900  1
  Li  Li16  1  0.50009800  0.54036700  0.93037800  1
  Li  Li17  1  0.99990200  0.54036700  0.93037800  1
  Li  Li18  1  0.00009800  0.45963300  0.06962200  1
  Li  Li19  1  0.49990200  0.45963300  0.06962200  1
  Li  Li20  1  0.75000000  0.63784700  0.14645100  1
  Li  Li21  1  0.50089800  0.87039900  0.12717700  1
  Li  Li22  1  0.99910200  0.87039900  0.12717700  1
  Li  Li23  1  0.25000000  0.65022700  0.14658000  1
  Li  Li24  1  0.75000000  0.16852600  0.19647800  1
  Li  Li25  1  0.50919700  0.41751000  0.21090400  1
  Li  Li26  1  0.99080300  0.41751000  0.21090400  1
  Li  Li27  1  0.00919700  0.91751000  0.28909600  1
  Li  Li28  1  0.49080300  0.91751000  0.28909600  1
  Li  Li29  1  0.25000000  0.66852600  0.30352200  1
  Li  Li30  1  0.75000000  0.15022700  0.35342000  1
  Li  Li31  1  0.00089800  0.37039900  0.37282300  1
  Li  Li32  1  0.49910200  0.37039900  0.37282300  1
  Li  Li33  1  0.25000000  0.13784700  0.35354900  1
  Li  Li34  1  0.50009800  0.95963300  0.43037800  1
  Li  Li35  1  0.99990200  0.95963300  0.43037800  1
  Y  Y36  1  0.25000000  0.32544600  0.52128300  1
  Y  Y37  1  0.75000000  0.82544600  0.97871700  1
  Y  Y38  1  0.25000000  0.17455400  0.02128300  1
  Y  Y39  1  0.75000000  0.67455400  0.47871700  1
  Ni  Ni40  1  0.75000000  0.27899800  0.53399400  1
  Ni  Ni41  1  0.25000000  0.33079800  0.70386900  1
  Ni  Ni42  1  0.75000000  0.83079800  0.79613100  1
  Ni  Ni43  1  0.25000000  0.77899800  0.96600600  1
  Ni  Ni44  1  0.75000000  0.22100200  0.03399400  1
  Ni  Ni45  1  0.25000000  0.16920200  0.20386900  1
  Ni  Ni46  1  0.75000000  0.66920200  0.29613100  1
  Ni  Ni47  1  0.25000000  0.72100200  0.46600600  1
  O  O48  1  0.01197700  0.80830100  0.53233400  1
  O  O49  1  0.48802300  0.80830100  0.53233400  1
  O  O50  1  0.75000000  0.50318300  0.59376200  1
  O  O51  1  0.75000000  0.11046700  0.63156900  1
  O  O52  1  0.25000000  0.11718600  0.63121600  1
  O  O53  1  0.25000000  0.51385700  0.62075800  1
  O  O54  1  0.50651800  0.80785600  0.72192600  1
  O  O55  1  0.99348200  0.80785600  0.72192600  1
  O  O56  1  0.00651800  0.30785600  0.77807400  1
  O  O57  1  0.49348200  0.30785600  0.77807400  1
  O  O58  1  0.75000000  0.01385700  0.87924200  1
  O  O59  1  0.75000000  0.61718600  0.86878400  1
  O  O60  1  0.25000000  0.61046700  0.86843100  1
  O  O61  1  0.25000000  0.00318300  0.90623800  1
  O  O62  1  0.51197700  0.30830100  0.96766600  1
  O  O63  1  0.98802300  0.30830100  0.96766600  1
  O  O64  1  0.01197700  0.69169900  0.03233400  1
  O  O65  1  0.48802300  0.69169900  0.03233400  1
  O  O66  1  0.75000000  0.99681700  0.09376200  1
  O  O67  1  0.75000000  0.38953300  0.13156900  1
  O  O68  1  0.25000000  0.38281400  0.13121600  1
  O  O69  1  0.25000000  0.98614300  0.12075800  1
  O  O70  1  0.50651800  0.69214400  0.22192600  1
  O  O71  1  0.99348200  0.69214400  0.22192600  1
  O  O72  1  0.00651800  0.19214400  0.27807400  1
  O  O73  1  0.49348200  0.19214400  0.27807400  1
  O  O74  1  0.75000000  0.48614300  0.37924200  1
  O  O75  1  0.75000000  0.88281400  0.36878400  1
  O  O76  1  0.25000000  0.88953300  0.36843100  1
  O  O77  1  0.25000000  0.49681700  0.40623800  1
  O  O78  1  0.51197700  0.19169900  0.46766600  1
  O  O79  1  0.98802300  0.19169900  0.46766600  1
