# generated using pymatgen
data_Li2TiV3O8
_symmetry_space_group_name_H-M   'P 1'
_cell_length_a   5.95239948
_cell_length_b   5.95239948
_cell_length_c   5.95239937
_cell_angle_alpha   60.56760522
_cell_angle_beta   60.56760522
_cell_angle_gamma   60.56760554
_symmetry_Int_Tables_number   1
_chemical_formula_structural   Li2TiV3O8
_chemical_formula_sum   'Li2 Ti1 V3 O8'
_cell_volume   151.04083994
_cell_formula_units_Z   1
loop_
 _symmetry_equiv_pos_site_id
 _symmetry_equiv_pos_as_xyz
  1  'x, y, z'
loop_
 _atom_site_type_symbol
 _atom_site_label
 _atom_site_symmetry_multiplicity
 _atom_site_fract_x
 _atom_site_fract_y
 _atom_site_fract_z
 _atom_site_occupancy
  Li  Li0  1  0.87384000  0.87384000  0.87384000  1
  Li  Li1  1  0.12616000  0.12616000  0.12616000  1
  Ti  Ti2  1  0.50000000  0.50000000  0.50000000  1
  V  V3  1  0.00000000  0.50000000  0.50000000  1
  V  V4  1  0.50000000  0.00000000  0.50000000  1
  V  V5  1  0.50000000  0.50000000  0.00000000  1
  O  O6  1  0.73758400  0.73758400  0.73758400  1
  O  O7  1  0.73524500  0.73524500  0.28642000  1
  O  O8  1  0.73524500  0.28642000  0.73524500  1
  O  O9  1  0.28642000  0.73524500  0.73524500  1
  O  O10  1  0.71358000  0.26475500  0.26475500  1
  O  O11  1  0.26475500  0.71358000  0.26475500  1
  O  O12  1  0.26475500  0.26475500  0.71358000  1
  O  O13  1  0.26241600  0.26241600  0.26241600  1
