# generated using pymatgen
data_LiCr2(PO5)2
_symmetry_space_group_name_H-M   'P 1'
_cell_length_a   6.73254742
_cell_length_b   6.97414818
_cell_length_c   8.03872082
_cell_angle_alpha   89.96172990
_cell_angle_beta   90.67257991
_cell_angle_gamma   116.05799534
_symmetry_Int_Tables_number   1
_chemical_formula_structural   LiCr2(PO5)2
_chemical_formula_sum   'Li2 Cr4 P4 O20'
_cell_volume   339.05308395
_cell_formula_units_Z   2
loop_
 _symmetry_equiv_pos_site_id
 _symmetry_equiv_pos_as_xyz
  1  'x, y, z'
loop_
 _atom_site_type_symbol
 _atom_site_label
 _atom_site_symmetry_multiplicity
 _atom_site_fract_x
 _atom_site_fract_y
 _atom_site_fract_z
 _atom_site_occupancy
  Li  Li0  1  0.22165500  0.28035100  0.07236600  1
  Li  Li1  1  0.68985200  0.18432900  0.56858600  1
  Cr  Cr2  1  0.24250700  0.00292600  0.75475900  1
  Cr  Cr3  1  0.24748700  0.50224100  0.73965300  1
  Cr  Cr4  1  0.76019900  0.50260700  0.24891300  1
  Cr  Cr5  1  0.75193100  0.00082500  0.24331700  1
  P  P6  1  0.24016500  0.75602200  0.08392100  1
  P  P7  1  0.26323100  0.24293200  0.41535000  1
  P  P8  1  0.73975400  0.75462600  0.58313400  1
  P  P9  1  0.76026300  0.24737600  0.91405700  1
  O  O10  1  0.14603200  0.88132100  0.97679100  1
  O  O11  1  0.07237700  0.63387600  0.22303600  1
  O  O12  1  0.23505800  0.74140500  0.69649700  1
  O  O13  1  0.28103900  0.58516200  0.98576200  1
  O  O14  1  0.19182000  0.38916100  0.51822200  1
  O  O15  1  0.06554200  0.09030000  0.30767000  1
  O  O16  1  0.45169200  0.91713100  0.17177400  1
  O  O17  1  0.26026000  0.25844700  0.82662700  1
  O  O18  1  0.65708700  0.89084800  0.47568100  1
  O  O19  1  0.43467300  0.37163000  0.28066000  1
  O  O20  1  0.56264700  0.62399800  0.71237400  1
  O  O21  1  0.35921100  0.12726700  0.53162600  1
  O  O22  1  0.73945400  0.75219100  0.19380900  1
  O  O23  1  0.55448500  0.08578500  0.81798000  1
  O  O24  1  0.94274000  0.91201800  0.68274000  1
  O  O25  1  0.79837600  0.59798000  0.48333700  1
  O  O26  1  0.70493900  0.40289200  0.01773400  1
  O  O27  1  0.76295900  0.24856000  0.32373800  1
  O  O28  1  0.92198400  0.35888300  0.76999700  1
  O  O29  1  0.86539700  0.13552800  0.02882400  1
