# generated using pymatgen
data_LiSb(PO3)4
_symmetry_space_group_name_H-M   'P 1'
_cell_length_a   9.28542400
_cell_length_b   10.08406700
_cell_length_c   12.42771754
_cell_angle_alpha   55.59269312
_cell_angle_beta   90.00000000
_cell_angle_gamma   90.00000000
_symmetry_Int_Tables_number   1
_chemical_formula_structural   LiSb(PO3)4
_chemical_formula_sum   'Li4 Sb4 P16 O48'
_cell_volume   960.07375985
_cell_formula_units_Z   4
loop_
 _symmetry_equiv_pos_site_id
 _symmetry_equiv_pos_as_xyz
  1  'x, y, z'
loop_
 _atom_site_type_symbol
 _atom_site_label
 _atom_site_symmetry_multiplicity
 _atom_site_fract_x
 _atom_site_fract_y
 _atom_site_fract_z
 _atom_site_occupancy
  Li  Li0  1  0.31943200  0.75871200  0.51801300  1
  Li  Li1  1  0.81943200  0.24128800  0.98198700  1
  Li  Li2  1  0.18056800  0.75871200  0.01801300  1
  Li  Li3  1  0.68056800  0.24128800  0.48198700  1
  Sb  Sb4  1  0.09287500  0.19885000  0.25375700  1
  Sb  Sb5  1  0.40712500  0.19885000  0.75375700  1
  Sb  Sb6  1  0.59287500  0.80115000  0.24624300  1
  Sb  Sb7  1  0.90712500  0.80115000  0.74624300  1
  P  P8  1  0.68283900  0.77086800  0.54967100  1
  P  P9  1  0.62383600  0.29098100  0.20089300  1
  P  P10  1  0.50582600  0.49369000  0.73872900  1
  P  P11  1  0.00582600  0.50631000  0.76127100  1
  P  P12  1  0.38318400  0.10932600  0.16070000  1
  P  P13  1  0.88318400  0.89067400  0.33930000  1
  P  P14  1  0.18283900  0.22913200  0.95032900  1
  P  P15  1  0.87616400  0.29098100  0.70089300  1
  P  P16  1  0.12383600  0.70901900  0.29910700  1
  P  P17  1  0.81716100  0.77086800  0.04967100  1
  P  P18  1  0.11681600  0.10932600  0.66070000  1
  P  P19  1  0.61681600  0.89067400  0.83930000  1
  P  P20  1  0.99417400  0.49369000  0.23872900  1
  P  P21  1  0.49417400  0.50631000  0.26127100  1
  P  P22  1  0.37616400  0.70901900  0.79910700  1
  P  P23  1  0.31716100  0.22913200  0.45032900  1
  O  O24  1  0.76032100  0.86018800  0.60068100  1
  O  O25  1  0.32263800  0.79236000  0.66355500  1
  O  O26  1  0.46312500  0.54472400  0.83402300  1
  O  O27  1  0.65849400  0.58817700  0.67317500  1
  O  O28  1  0.03736400  0.68765900  0.67151600  1
  O  O29  1  0.71182400  0.33111400  0.08619400  1
  O  O30  1  0.47493200  0.19751200  0.20565100  1
  O  O31  1  0.90037000  0.46770000  0.86614400  1
  O  O32  1  0.40037000  0.53230000  0.63385600  1
  O  O33  1  0.30989200  0.25522100  0.02719300  1
  O  O34  1  0.53736400  0.31234100  0.82848400  1
  O  O35  1  0.97785700  0.98835800  0.37259300  1
  O  O36  1  0.15849400  0.41182300  0.82682500  1
  O  O37  1  0.55253600  0.84425800  0.46791600  1
  O  O38  1  0.96312500  0.45527600  0.66597700  1
  O  O39  1  0.76438400  0.98084900  0.24172300  1
  O  O40  1  0.26438400  0.01915100  0.25827700  1
  O  O41  1  0.05253600  0.15574200  0.03208400  1
  O  O42  1  0.47785700  0.01164200  0.12740700  1
  O  O43  1  0.80989200  0.74477900  0.47280700  1
  O  O44  1  0.82263800  0.20764000  0.83644500  1
  O  O45  1  0.26032100  0.13981200  0.89931900  1
  O  O46  1  0.78817600  0.33111400  0.58619400  1
  O  O47  1  0.97493200  0.80248800  0.29434900  1
  O  O48  1  0.02506800  0.19751200  0.70565100  1
  O  O49  1  0.21182400  0.66888600  0.41380600  1
  O  O50  1  0.73967900  0.86018800  0.10068100  1
  O  O51  1  0.17736200  0.79236000  0.16355500  1
  O  O52  1  0.19010800  0.25522100  0.52719300  1
  O  O53  1  0.52214300  0.98835800  0.87259300  1
  O  O54  1  0.94746400  0.84425800  0.96791600  1
  O  O55  1  0.73561600  0.98084900  0.74172300  1
  O  O56  1  0.23561600  0.01915100  0.75827700  1
  O  O57  1  0.03687500  0.54472400  0.33402300  1
  O  O58  1  0.44746400  0.15574200  0.53208400  1
  O  O59  1  0.84150600  0.58817700  0.17317500  1
  O  O60  1  0.02214300  0.01164200  0.62740700  1
  O  O61  1  0.46263600  0.68765900  0.17151600  1
  O  O62  1  0.69010800  0.74477900  0.97280700  1
  O  O63  1  0.59963000  0.46770000  0.36614400  1
  O  O64  1  0.09963000  0.53230000  0.13385600  1
  O  O65  1  0.52506800  0.80248800  0.79434900  1
  O  O66  1  0.28817600  0.66888600  0.91380600  1
  O  O67  1  0.96263600  0.31234100  0.32848400  1
  O  O68  1  0.34150600  0.41182300  0.32682500  1
  O  O69  1  0.53687500  0.45527600  0.16597700  1
  O  O70  1  0.67736200  0.20764000  0.33644500  1
  O  O71  1  0.23967900  0.13981200  0.39931900  1
