# generated using pymatgen
data_Li5Co7O3F13
_symmetry_space_group_name_H-M   'P 1'
_cell_length_a   6.06719600
_cell_length_b   6.13943477
_cell_length_c   10.51739920
_cell_angle_alpha   90.44944828
_cell_angle_beta   106.65755642
_cell_angle_gamma   119.61028425
_symmetry_Int_Tables_number   1
_chemical_formula_structural   Li5Co7O3F13
_chemical_formula_sum   'Li5 Co7 O3 F13'
_cell_volume   321.01126490
_cell_formula_units_Z   1
loop_
 _symmetry_equiv_pos_site_id
 _symmetry_equiv_pos_as_xyz
  1  'x, y, z'
loop_
 _atom_site_type_symbol
 _atom_site_label
 _atom_site_symmetry_multiplicity
 _atom_site_fract_x
 _atom_site_fract_y
 _atom_site_fract_z
 _atom_site_occupancy
  Li  Li0  1  0.73279400  0.33562800  0.12824000  1
  Li  Li1  1  0.99618700  0.00954900  0.98764400  1
  Li  Li2  1  0.76449600  0.87472700  0.63532300  1
  Li  Li3  1  0.01545900  0.54081600  0.49744000  1
  Li  Li4  1  0.87795000  0.43821800  0.81012700  1
  Co  Co5  1  0.38113500  0.70512500  0.06540600  1
  Co  Co6  1  0.37147100  0.43304900  0.31442700  1
  Co  Co7  1  0.37589600  0.93796700  0.31290900  1
  Co  Co8  1  0.87360500  0.93659500  0.31233600  1
  Co  Co9  1  0.35600600  0.16015700  0.56727300  1
  Co  Co10  1  0.36372700  0.94591300  0.80545300  1
  Co  Co11  1  0.36457100  0.42032600  0.80443200  1
  O  O12  1  0.60485300  0.01016900  0.20175400  1
  O  O13  1  0.14210600  0.86320200  0.42282000  1
  O  O14  1  0.15460400  0.07841400  0.69496400  1
  F  F15  1  0.13035000  0.54907300  0.19003300  1
  F  F16  1  0.60301000  0.54740700  0.18881100  1
  F  F17  1  0.61462400  0.79373100  0.43513100  1
  F  F18  1  0.12773000  0.07430800  0.18571100  1
  F  F19  1  0.61395600  0.32058600  0.43848200  1
  F  F20  1  0.13598900  0.32439200  0.43357000  1
  F  F21  1  0.63597100  0.07576600  0.69946900  1
  F  F22  1  0.62270100  0.53499900  0.69182500  1
  F  F23  1  0.62784500  0.31167300  0.92943800  1
  F  F24  1  0.14691000  0.35229500  0.93861700  1
  F  F25  1  0.13677700  0.57186300  0.69898200  1
  F  F26  1  0.13152200  0.80499800  0.93422400  1
  F  F27  1  0.59775200  0.79905300  0.92515800  1
