# generated using pymatgen
data_Li7Y7ZrS16
_symmetry_space_group_name_H-M   'P 1'
_cell_length_a   15.54117700
_cell_length_b   6.57233300
_cell_length_c   6.75088189
_cell_angle_alpha   70.15200126
_cell_angle_beta   90.00000000
_cell_angle_gamma   90.00000000
_symmetry_Int_Tables_number   1
_chemical_formula_structural   Li7Y7ZrS16
_chemical_formula_sum   'Li7 Y7 Zr1 S16'
_cell_volume   648.58576312
_cell_formula_units_Z   1
loop_
 _symmetry_equiv_pos_site_id
 _symmetry_equiv_pos_as_xyz
  1  'x, y, z'
loop_
 _atom_site_type_symbol
 _atom_site_label
 _atom_site_symmetry_multiplicity
 _atom_site_fract_x
 _atom_site_fract_y
 _atom_site_fract_z
 _atom_site_occupancy
  Li  Li0  1  0.25055200  0.00000000  0.00000000  1
  Li  Li1  1  0.12412500  0.00000000  0.50000000  1
  Li  Li2  1  0.50000000  0.00000000  0.00000000  1
  Li  Li3  1  0.74944800  0.00000000  0.00000000  1
  Li  Li4  1  0.37497900  0.00000000  0.50000000  1
  Li  Li5  1  0.62502100  0.00000000  0.50000000  1
  Li  Li6  1  0.87587500  0.00000000  0.50000000  1
  Y  Y7  1  0.12296300  0.50000000  0.00000000  1
  Y  Y8  1  0.37461900  0.50000000  0.00000000  1
  Y  Y9  1  0.24843700  0.50000000  0.50000000  1
  Y  Y10  1  0.62538100  0.50000000  0.00000000  1
  Y  Y11  1  0.87703700  0.50000000  0.00000000  1
  Y  Y12  1  0.50000000  0.50000000  0.50000000  1
  Y  Y13  1  0.75156300  0.50000000  0.50000000  1
  Zr  Zr14  1  0.00000000  0.50000000  0.50000000  1
  S  S15  1  0.00000000  0.73957000  0.73311300  1
  S  S16  1  0.11997100  0.25988800  0.73816200  1
  S  S17  1  0.24913800  0.75267200  0.75182800  1
  S  S18  1  0.50000000  0.75152400  0.74942800  1
  S  S19  1  0.37455500  0.24795700  0.75057700  1
  S  S20  1  0.00000000  0.26043000  0.26688700  1
  S  S21  1  0.11997100  0.74011200  0.26183800  1
  S  S22  1  0.62544500  0.24795700  0.75057700  1
  S  S23  1  0.37455500  0.75204300  0.24942300  1
  S  S24  1  0.75086200  0.75267200  0.75182800  1
  S  S25  1  0.24913800  0.24732800  0.24817200  1
  S  S26  1  0.88002900  0.25988800  0.73816200  1
  S  S27  1  0.62544500  0.75204300  0.24942300  1
  S  S28  1  0.50000000  0.24847600  0.25057200  1
  S  S29  1  0.88002900  0.74011200  0.26183800  1
  S  S30  1  0.75086200  0.24732800  0.24817200  1
