# generated using pymatgen
data_Li3NbS4
_symmetry_space_group_name_H-M   'P 1'
_cell_length_a   18.43527771
_cell_length_b   13.83108651
_cell_length_c   13.31386000
_cell_angle_alpha   85.53079900
_cell_angle_beta   48.41482154
_cell_angle_gamma   46.05437946
_symmetry_Int_Tables_number   1
_chemical_formula_structural   Li3NbS4
_chemical_formula_sum   'Li24 Nb8 S32'
_cell_volume   1286.29915799
_cell_formula_units_Z   8
loop_
 _symmetry_equiv_pos_site_id
 _symmetry_equiv_pos_as_xyz
  1  'x, y, z'
loop_
 _atom_site_type_symbol
 _atom_site_label
 _atom_site_symmetry_multiplicity
 _atom_site_fract_x
 _atom_site_fract_y
 _atom_site_fract_z
 _atom_site_occupancy
  Li  Li0  1  0.00684400  0.99315600  0.99315600  1
  Li  Li1  1  0.52072300  0.47927700  0.47927700  1
  Li  Li2  1  0.73631900  0.77211500  0.26527500  1
  Li  Li3  1  0.86815100  0.37883100  0.08158800  1
  Li  Li4  1  0.36833300  0.35332200  0.44261900  1
  Li  Li5  1  0.36778500  0.94703400  0.40742600  1
  Li  Li6  1  0.18338100  0.87413600  0.57365900  1
  Li  Li7  1  0.67634100  0.88117500  0.06661900  1
  Li  Li8  1  0.84257400  0.97224600  0.88221500  1
  Li  Li9  1  0.80738100  0.41427500  0.88166700  1
  Li  Li10  1  0.16841200  0.57857000  0.38184900  1
  Li  Li11  1  0.98472500  0.02370800  0.51368100  1
  Li  Li12  1  0.25684400  0.24315600  0.24315600  1
  Li  Li13  1  0.77072300  0.72927700  0.72927700  1
  Li  Li14  1  0.47788500  0.51368100  0.02370800  1
  Li  Li15  1  0.87116900  0.38184900  0.57857000  1
  Li  Li16  1  0.89667800  0.88166700  0.41427500  1
  Li  Li17  1  0.30296600  0.88221500  0.97224600  1
  Li  Li18  1  0.37586400  0.06661900  0.88117500  1
  Li  Li19  1  0.36882500  0.57365900  0.87413600  1
  Li  Li20  1  0.27775400  0.40742600  0.94703400  1
  Li  Li21  1  0.83572500  0.44261900  0.35332200  1
  Li  Li22  1  0.67143000  0.08158800  0.37883100  1
  Li  Li23  1  0.22629200  0.26527500  0.77211500  1
  Nb  Nb24  1  0.07350100  0.69609000  0.90684000  1
  Nb  Nb25  1  0.57418300  0.41355900  0.18141000  1
  Nb  Nb26  1  0.06859000  0.41915200  0.67581700  1
  Nb  Nb27  1  0.34316000  0.92643200  0.17649900  1
  Nb  Nb28  1  0.55391000  0.17649900  0.92643200  1
  Nb  Nb29  1  0.83644100  0.67581700  0.41915200  1
  Nb  Nb30  1  0.83084800  0.18141000  0.41355900  1
  Nb  Nb31  1  0.32356800  0.90684000  0.69609000  1
  S  S32  1  0.61782800  0.69904600  0.38672200  1
  S  S33  1  0.77846100  0.89418000  0.12020800  1
  S  S34  1  0.15071400  0.76261300  0.73576900  1
  S  S35  1  0.64398500  0.24637300  0.25751100  1
  S  S36  1  0.10529200  0.08367400  0.75358500  1
  S  S37  1  0.88621000  0.53755100  0.96987400  1
  S  S38  1  0.37630600  0.12081000  0.46243200  1
  S  S39  1  0.57406200  0.56797900  0.23540300  1
  S  S40  1  0.01459700  0.62744300  0.67593800  1
  S  S41  1  0.78756800  0.20954700  0.87369400  1
  S  S42  1  0.28012600  0.64363500  0.36379000  1
  S  S43  1  0.49641500  0.19255100  0.14470800  1
  S  S44  1  0.99248900  0.39786800  0.60601500  1
  S  S45  1  0.51423100  0.89909500  0.09928600  1
  S  S46  1  0.12979200  0.04284800  0.47153900  1
  S  S47  1  0.86327800  0.95359600  0.63217200  1
  S  S48  1  0.55095400  0.63217200  0.95359600  1
  S  S49  1  0.35582000  0.47153900  0.04284800  1
  S  S50  1  0.48738700  0.09928600  0.89909500  1
  S  S51  1  0.00362700  0.60601500  0.39786800  1
  S  S52  1  0.16632600  0.14470800  0.19255100  1
  S  S53  1  0.71244900  0.36379000  0.64363500  1
  S  S54  1  0.12919000  0.87369400  0.20954700  1
  S  S55  1  0.68202100  0.67593800  0.62744300  1
  S  S56  1  0.62255700  0.23540300  0.56797900  1
  S  S57  1  0.04045300  0.46243200  0.12081000  1
  S  S58  1  0.60636500  0.96987400  0.53755100  1
  S  S59  1  0.05744900  0.75358500  0.08367400  1
  S  S60  1  0.85213200  0.25751100  0.24637300  1
  S  S61  1  0.35090500  0.73576900  0.76261300  1
  S  S62  1  0.20715200  0.12020800  0.89418000  1
  S  S63  1  0.29640400  0.38672200  0.69904600  1
