# generated using pymatgen
data_Li24Ti5Cr7O36
_symmetry_space_group_name_H-M   'P 1'
_cell_length_a   5.07581500
_cell_length_b   9.80184118
_cell_length_c   13.35391068
_cell_angle_alpha   97.13600124
_cell_angle_beta   100.84012501
_cell_angle_gamma   95.07569970
_symmetry_Int_Tables_number   1
_chemical_formula_structural   Li24Ti5Cr7O36
_chemical_formula_sum   'Li24 Ti5 Cr7 O36'
_cell_volume   643.20085874
_cell_formula_units_Z   1
loop_
 _symmetry_equiv_pos_site_id
 _symmetry_equiv_pos_as_xyz
  1  'x, y, z'
loop_
 _atom_site_type_symbol
 _atom_site_label
 _atom_site_symmetry_multiplicity
 _atom_site_fract_x
 _atom_site_fract_y
 _atom_site_fract_z
 _atom_site_occupancy
  Li  Li0  1  0.16735100  0.99995700  0.83342500  1
  Li  Li1  1  0.05320900  0.00037700  0.61536800  1
  Li  Li2  1  0.99821300  0.75086400  0.24969700  1
  Li  Li3  1  0.33383300  0.75020400  0.91705000  1
  Li  Li4  1  0.04551600  0.49653300  0.11055300  1
  Li  Li5  1  0.37975200  0.50054700  0.77805200  1
  Li  Li6  1  0.17090900  0.49940200  0.33361700  1
  Li  Li7  1  0.50060200  0.50023200  0.00019700  1
  Li  Li8  1  0.28470500  0.50100300  0.55469400  1
  Li  Li9  1  0.33390300  0.25004100  0.41774000  1
  Li  Li10  1  0.50651100  0.00011900  0.49838000  1
  Li  Li11  1  0.28110300  0.00071400  0.05167900  1
  Li  Li12  1  0.61269000  0.99802300  0.71837800  1
  Li  Li13  1  0.38293600  0.99909200  0.28018100  1
  Li  Li14  1  0.71974700  0.00132500  0.94826500  1
  Li  Li15  1  0.66586700  0.74965800  0.58286600  1
  Li  Li16  1  0.70994400  0.49984400  0.44501600  1
  Li  Li17  1  0.83320700  0.49993600  0.66666500  1
  Li  Li18  1  0.62305000  0.50189500  0.22227400  1
  Li  Li19  1  0.95288300  0.49973000  0.88873700  1
  Li  Li20  1  0.66571500  0.25019200  0.08234300  1
  Li  Li21  1  0.82970100  0.99985400  0.16768000  1
  Li  Li22  1  0.99917400  0.24978900  0.74924400  1
  Li  Li23  1  0.94740000  0.99954700  0.38628400  1
  Ti  Ti24  1  0.10775200  0.74673300  0.47244400  1
  Ti  Ti25  1  0.22397400  0.25037900  0.19326700  1
  Ti  Ti26  1  0.55636200  0.24975600  0.86056100  1
  Ti  Ti27  1  0.77786000  0.75031900  0.80682100  1
  Ti  Ti28  1  0.77820000  0.24981600  0.30773000  1
  Cr  Cr29  1  0.10819200  0.24988600  0.97017100  1
  Cr  Cr30  1  0.22563000  0.75030900  0.69478800  1
  Cr  Cr31  1  0.44243700  0.24959200  0.63535300  1
  Cr  Cr32  1  0.44430800  0.75143600  0.13501300  1
  Cr  Cr33  1  0.55090900  0.75011600  0.35875800  1
  Cr  Cr34  1  0.89247100  0.25045900  0.53176300  1
  Cr  Cr35  1  0.89223500  0.75021100  0.03137500  1
  O  O36  1  0.00022300  0.86198100  0.93103400  1
  O  O37  1  0.07253800  0.63514700  0.78481600  1
  O  O38  1  0.00156800  0.36219700  0.43151500  1
  O  O39  1  0.13574400  0.36141700  0.64166400  1
  O  O40  1  0.25904100  0.36459800  0.88269600  1
  O  O41  1  0.33376700  0.86294900  0.59764000  1
  O  O42  1  0.06920900  0.13375600  0.28471700  1
  O  O43  1  0.19848000  0.13806500  0.52578400  1
  O  O44  1  0.40428000  0.13446900  0.95129800  1
  O  O45  1  0.13515600  0.86189900  0.14077300  1
  O  O46  1  0.27158000  0.86472800  0.38120100  1
  O  O47  1  0.47507900  0.86268100  0.81053400  1
  O  O48  1  0.33345100  0.13785000  0.73577500  1
  O  O49  1  0.19741500  0.63762100  0.02679500  1
  O  O50  1  0.39962700  0.63370800  0.45179700  1
  O  O51  1  0.51789600  0.63737900  0.68996000  1
  O  O52  1  0.33820500  0.64108600  0.23850200  1
  O  O53  1  0.66775800  0.63688500  0.90618700  1
  O  O54  1  0.33559800  0.36236400  0.09371900  1
  O  O55  1  0.66503900  0.36275600  0.76034500  1
  O  O56  1  0.47645500  0.36400100  0.31024700  1
  O  O57  1  0.59155000  0.36368000  0.55046300  1
  O  O58  1  0.81014200  0.36343600  0.97654500  1
  O  O59  1  0.66571500  0.86192800  0.25930200  1
  O  O60  1  0.52248500  0.13637900  0.19040500  1
  O  O61  1  0.74270300  0.13574900  0.61664600  1
  O  O62  1  0.86124700  0.13762200  0.85719600  1
  O  O63  1  0.59309000  0.86467200  0.05047500  1
  O  O64  1  0.80853100  0.86252300  0.47508600  1
  O  O65  1  0.93210300  0.86501500  0.71483400  1
  O  O66  1  0.66727800  0.13797000  0.40694200  1
  O  O67  1  0.74225000  0.63619000  0.11628400  1
  O  O68  1  0.85144400  0.63787700  0.35576500  1
  O  O69  1  0.99662100  0.63697800  0.57229700  1
  O  O70  1  0.93178300  0.36652300  0.21595500  1
  O  O71  1  0.99669600  0.13803600  0.06838500  1
