# generated using pymatgen
data_Li2FeSiO4
_symmetry_space_group_name_H-M   'P 1'
_cell_length_a   5.03685400
_cell_length_b   6.34104800
_cell_length_c   10.98591249
_cell_angle_alpha   87.58882018
_cell_angle_beta   90.00000000
_cell_angle_gamma   90.00000000
_symmetry_Int_Tables_number   1
_chemical_formula_structural   Li2FeSiO4
_chemical_formula_sum   'Li8 Fe4 Si4 O16'
_cell_volume   350.56766906
_cell_formula_units_Z   4
loop_
 _symmetry_equiv_pos_site_id
 _symmetry_equiv_pos_as_xyz
  1  'x, y, z'
loop_
 _atom_site_type_symbol
 _atom_site_label
 _atom_site_symmetry_multiplicity
 _atom_site_fract_x
 _atom_site_fract_y
 _atom_site_fract_z
 _atom_site_occupancy
  Li  Li0  1  0.31125000  0.00537200  0.58490500  1
  Li  Li1  1  0.18875000  0.00537200  0.08490500  1
  Li  Li2  1  0.80824600  0.77756800  0.67423100  1
  Li  Li3  1  0.69175400  0.77756800  0.17423100  1
  Li  Li4  1  0.30824600  0.22243200  0.82576900  1
  Li  Li5  1  0.19175400  0.22243200  0.32576900  1
  Li  Li6  1  0.81125000  0.99462800  0.91509500  1
  Li  Li7  1  0.68875000  0.99462800  0.41509500  1
  Fe  Fe8  1  0.79186600  0.48093200  0.90639800  1
  Fe  Fe9  1  0.70813400  0.48093200  0.40639800  1
  Fe  Fe10  1  0.29186600  0.51906800  0.59360200  1
  Fe  Fe11  1  0.20813400  0.51906800  0.09360200  1
  Si  Si12  1  0.31312800  0.75559200  0.83889000  1
  Si  Si13  1  0.18687200  0.75559200  0.33889000  1
  Si  Si14  1  0.81312800  0.24440800  0.66111000  1
  Si  Si15  1  0.68687200  0.24440800  0.16111000  1
  O  O16  1  0.20085700  0.95667400  0.90970400  1
  O  O17  1  0.29914300  0.95667400  0.40970400  1
  O  O18  1  0.64147000  0.75337200  0.83862500  1
  O  O19  1  0.85853000  0.75337200  0.33862500  1
  O  O20  1  0.20554300  0.75814200  0.69590200  1
  O  O21  1  0.29445700  0.75814200  0.19590200  1
  O  O22  1  0.21514500  0.52305200  0.90604700  1
  O  O23  1  0.28485500  0.52305200  0.40604700  1
  O  O24  1  0.71514500  0.47694800  0.59395300  1
  O  O25  1  0.78485500  0.47694800  0.09395300  1
  O  O26  1  0.70554300  0.24185800  0.80409800  1
  O  O27  1  0.79445700  0.24185800  0.30409800  1
  O  O28  1  0.14147000  0.24662800  0.66137500  1
  O  O29  1  0.35853000  0.24662800  0.16137500  1
  O  O30  1  0.70085700  0.04332600  0.59029600  1
  O  O31  1  0.79914300  0.04332600  0.09029600  1
