# generated using pymatgen
data_Li2MnF4
_symmetry_space_group_name_H-M   'P 1'
_cell_length_a   7.34957500
_cell_length_b   9.94308500
_cell_length_c   10.12079550
_cell_angle_alpha   63.17735124
_cell_angle_beta   90.00000000
_cell_angle_gamma   90.00000000
_symmetry_Int_Tables_number   1
_chemical_formula_structural   Li2MnF4
_chemical_formula_sum   'Li16 Mn8 F32'
_cell_volume   660.02631106
_cell_formula_units_Z   8
loop_
 _symmetry_equiv_pos_site_id
 _symmetry_equiv_pos_as_xyz
  1  'x, y, z'
loop_
 _atom_site_type_symbol
 _atom_site_label
 _atom_site_symmetry_multiplicity
 _atom_site_fract_x
 _atom_site_fract_y
 _atom_site_fract_z
 _atom_site_occupancy
  Li  Li0  1  0.98070300  0.34088700  0.07913300  1
  Li  Li1  1  0.63653500  0.12435700  0.43927200  1
  Li  Li2  1  0.59226000  0.35442400  0.05617200  1
  Li  Li3  1  0.00479700  0.15515700  0.41466400  1
  Li  Li4  1  0.51929700  0.34088700  0.57913300  1
  Li  Li5  1  0.86346500  0.12435700  0.93927200  1
  Li  Li6  1  0.90774000  0.35442400  0.55617200  1
  Li  Li7  1  0.49520300  0.15515700  0.91466400  1
  Li  Li8  1  0.50479700  0.84484300  0.08533600  1
  Li  Li9  1  0.09226000  0.64557600  0.44382800  1
  Li  Li10  1  0.13653500  0.87564300  0.06072800  1
  Li  Li11  1  0.48070300  0.65911300  0.42086700  1
  Li  Li12  1  0.99520300  0.84484300  0.58533600  1
  Li  Li13  1  0.40774000  0.64557600  0.94382800  1
  Li  Li14  1  0.36346500  0.87564300  0.56072800  1
  Li  Li15  1  0.01929700  0.65911300  0.92086700  1
  Mn  Mn16  1  0.27948900  0.03836900  0.23286000  1
  Mn  Mn17  1  0.22051100  0.03836900  0.73286000  1
  Mn  Mn18  1  0.22013600  0.48071100  0.24979500  1
  Mn  Mn19  1  0.72013600  0.51928900  0.25020500  1
  Mn  Mn20  1  0.27986400  0.48071100  0.74979500  1
  Mn  Mn21  1  0.77986400  0.51928900  0.75020500  1
  Mn  Mn22  1  0.77948900  0.96163100  0.26714000  1
  Mn  Mn23  1  0.72051100  0.96163100  0.76714000  1
  F  F24  1  0.02576500  0.03707700  0.12130000  1
  F  F25  1  0.16468700  0.99170700  0.43690000  1
  F  F26  1  0.41470200  0.21088900  0.06539800  1
  F  F27  1  0.79133800  0.17792600  0.26168100  1
  F  F28  1  0.47423500  0.03707700  0.62130000  1
  F  F29  1  0.33531300  0.99170700  0.93690000  1
  F  F30  1  0.14220700  0.28605800  0.24365200  1
  F  F31  1  0.08529800  0.21088900  0.56539800  1
  F  F32  1  0.85701500  0.51143000  0.07843800  1
  F  F33  1  0.70866200  0.17792600  0.76168100  1
  F  F34  1  0.69190100  0.31611400  0.44480800  1
  F  F35  1  0.48226200  0.47481000  0.14996400  1
  F  F36  1  0.98226200  0.52519000  0.35003600  1
  F  F37  1  0.35779300  0.28605800  0.74365200  1
  F  F38  1  0.19190100  0.68388600  0.05519200  1
  F  F39  1  0.35701500  0.48857000  0.42156200  1
  F  F40  1  0.64298500  0.51143000  0.57843800  1
  F  F41  1  0.80809900  0.31611400  0.94480800  1
  F  F42  1  0.64220700  0.71394200  0.25634800  1
  F  F43  1  0.01773800  0.47481000  0.64996400  1
  F  F44  1  0.51773800  0.52519000  0.85003600  1
  F  F45  1  0.30809900  0.68388600  0.55519200  1
  F  F46  1  0.29133800  0.82207400  0.23831900  1
  F  F47  1  0.14298500  0.48857000  0.92156200  1
  F  F48  1  0.91470200  0.78911100  0.43460200  1
  F  F49  1  0.85779300  0.71394200  0.75634800  1
  F  F50  1  0.66468700  0.00829300  0.06310000  1
  F  F51  1  0.52576500  0.96292300  0.37870000  1
  F  F52  1  0.20866200  0.82207400  0.73831900  1
  F  F53  1  0.58529800  0.78911100  0.93460200  1
  F  F54  1  0.83531300  0.00829300  0.56310000  1
  F  F55  1  0.97423500  0.96292300  0.87870000  1
