# generated using pymatgen
data_Li2Ni2(SO4)3
_symmetry_space_group_name_H-M   'P 1'
_cell_length_a   8.56775600
_cell_length_b   8.67255000
_cell_length_c   23.74973800
_cell_angle_alpha   90.00000000
_cell_angle_beta   90.00000000
_cell_angle_gamma   90.00000000
_symmetry_Int_Tables_number   1
_chemical_formula_structural   Li2Ni2(SO4)3
_chemical_formula_sum   'Li16 Ni16 S24 O96'
_cell_volume   1764.70747435
_cell_formula_units_Z   8
loop_
 _symmetry_equiv_pos_site_id
 _symmetry_equiv_pos_as_xyz
  1  'x, y, z'
loop_
 _atom_site_type_symbol
 _atom_site_label
 _atom_site_symmetry_multiplicity
 _atom_site_fract_x
 _atom_site_fract_y
 _atom_site_fract_z
 _atom_site_occupancy
  Li  Li0  1  0.03706300  0.62251000  0.29061800  1
  Li  Li1  1  0.03706300  0.87749000  0.79061800  1
  Li  Li2  1  0.14623600  0.93134800  0.00906000  1
  Li  Li3  1  0.14623600  0.56865200  0.50906000  1
  Li  Li4  1  0.35376400  0.06865200  0.50906000  1
  Li  Li5  1  0.35376400  0.43134800  0.00906000  1
  Li  Li6  1  0.46293700  0.12251000  0.29061800  1
  Li  Li7  1  0.46293700  0.37749000  0.79061800  1
  Li  Li8  1  0.53706300  0.62251000  0.20938200  1
  Li  Li9  1  0.53706300  0.87749000  0.70938200  1
  Li  Li10  1  0.64623600  0.56865200  0.99094000  1
  Li  Li11  1  0.64623600  0.93134800  0.49094000  1
  Li  Li12  1  0.85376400  0.43134800  0.49094000  1
  Li  Li13  1  0.85376400  0.06865200  0.99094000  1
  Li  Li14  1  0.96293700  0.12251000  0.20938200  1
  Li  Li15  1  0.96293700  0.37749000  0.70938200  1
  Ni  Ni16  1  0.00494600  0.39966000  0.06290500  1
  Ni  Ni17  1  0.00494600  0.10034000  0.56290500  1
  Ni  Ni18  1  0.99806800  0.79695400  0.17911600  1
  Ni  Ni19  1  0.99806800  0.70304600  0.67911600  1
  Ni  Ni20  1  0.50193200  0.29695400  0.17911600  1
  Ni  Ni21  1  0.50193200  0.20304600  0.67911600  1
  Ni  Ni22  1  0.49505400  0.60034000  0.56290500  1
  Ni  Ni23  1  0.49505400  0.89966000  0.06290500  1
  Ni  Ni24  1  0.50494600  0.39966000  0.43709500  1
  Ni  Ni25  1  0.50494600  0.10034000  0.93709500  1
  Ni  Ni26  1  0.49806800  0.70304600  0.82088400  1
  Ni  Ni27  1  0.49806800  0.79695400  0.32088400  1
  Ni  Ni28  1  0.00193200  0.29695400  0.32088400  1
  Ni  Ni29  1  0.00193200  0.20304600  0.82088400  1
  Ni  Ni30  1  0.99505400  0.89966000  0.43709500  1
  Ni  Ni31  1  0.99505400  0.60034000  0.93709500  1
  S  S32  1  0.14336100  0.94725300  0.30004200  1
  S  S33  1  0.14336100  0.55274700  0.80004200  1
  S  S34  1  0.14856100  0.25388800  0.44663200  1
  S  S35  1  0.14856100  0.24611200  0.94663200  1
  S  S36  1  0.19717700  0.09387700  0.11650600  1
  S  S37  1  0.19717700  0.40612300  0.61650600  1
  S  S38  1  0.30282300  0.59387700  0.11650600  1
  S  S39  1  0.30282300  0.90612300  0.61650600  1
  S  S40  1  0.35143900  0.75388800  0.44663200  1
  S  S41  1  0.35143900  0.74611200  0.94663200  1
  S  S42  1  0.35663900  0.44725300  0.30004200  1
  S  S43  1  0.35663900  0.05274700  0.80004200  1
  S  S44  1  0.64336100  0.55274700  0.69995800  1
  S  S45  1  0.64336100  0.94725300  0.19995800  1
  S  S46  1  0.64856100  0.25388800  0.05336800  1
  S  S47  1  0.64856100  0.24611200  0.55336800  1
  S  S48  1  0.69717700  0.09387700  0.38349400  1
  S  S49  1  0.69717700  0.40612300  0.88349400  1
  S  S50  1  0.80282300  0.59387700  0.38349400  1
  S  S51  1  0.80282300  0.90612300  0.88349400  1
  S  S52  1  0.85143900  0.75388800  0.05336800  1
  S  S53  1  0.85143900  0.74611200  0.55336800  1
  S  S54  1  0.85663900  0.44725300  0.19995800  1
  S  S55  1  0.85663900  0.05274700  0.69995800  1
  O  O56  1  0.06331600  0.39173700  0.46494500  1
  O  O57  1  0.06331600  0.10826300  0.96494500  1
  O  O58  1  0.08293100  0.09818000  0.27948700  1
  O  O59  1  0.08293100  0.40182000  0.77948700  1
  O  O60  1  0.08367400  0.10954500  0.47531000  1
  O  O61  1  0.08367400  0.39045500  0.97531000  1
  O  O62  1  0.08629200  0.91099600  0.35649900  1
  O  O63  1  0.08629200  0.58900400  0.85649900  1
  O  O64  1  0.09355800  0.19023100  0.08200100  1
  O  O65  1  0.09355800  0.30976900  0.58200100  1
  O  O66  1  0.09067500  0.82292400  0.26083600  1
  O  O67  1  0.09067500  0.67707600  0.76083600  1
  O  O68  1  0.09802600  0.00684200  0.15728300  1
  O  O69  1  0.09802600  0.49315800  0.65728300  1
  O  O70  1  0.13886400  0.23139500  0.38582600  1
  O  O71  1  0.13886400  0.26860500  0.88582600  1
  O  O72  1  0.18282100  0.45337300  0.29815800  1
  O  O73  1  0.18282100  0.04662700  0.79815800  1
  O  O74  1  0.18737000  0.68261100  0.14796400  1
  O  O75  1  0.18737000  0.81738900  0.64796400  1
  O  O76  1  0.18574300  0.76456700  0.46548400  1
  O  O77  1  0.18574300  0.73543300  0.96548400  1
  O  O78  1  0.22572300  0.01731400  0.57682100  1
  O  O79  1  0.22572300  0.48268600  0.07682100  1
  O  O80  1  0.27427700  0.98268600  0.07682100  1
  O  O81  1  0.27427700  0.51731400  0.57682100  1
  O  O82  1  0.31425700  0.23543300  0.96548400  1
  O  O83  1  0.31425700  0.26456700  0.46548400  1
  O  O84  1  0.31263000  0.18261100  0.14796400  1
  O  O85  1  0.31263000  0.31738900  0.64796400  1
  O  O86  1  0.31717900  0.95337300  0.29815800  1
  O  O87  1  0.31717900  0.54662700  0.79815800  1
  O  O88  1  0.36113600  0.73139500  0.38582600  1
  O  O89  1  0.36113600  0.76860500  0.88582600  1
  O  O90  1  0.40197400  0.99315800  0.65728300  1
  O  O91  1  0.40197400  0.50684200  0.15728300  1
  O  O92  1  0.40932500  0.32292400  0.26083600  1
  O  O93  1  0.40932500  0.17707600  0.76083600  1
  O  O94  1  0.40644200  0.69023100  0.08200100  1
  O  O95  1  0.40644200  0.80976900  0.58200100  1
  O  O96  1  0.41370800  0.08900400  0.85649900  1
  O  O97  1  0.41370800  0.41099600  0.35649900  1
  O  O98  1  0.41632600  0.89045500  0.97531000  1
  O  O99  1  0.41632600  0.60954500  0.47531000  1
  O  O100  1  0.41706900  0.59818000  0.27948700  1
  O  O101  1  0.41706900  0.90182000  0.77948700  1
  O  O102  1  0.43668400  0.60826300  0.96494500  1
  O  O103  1  0.43668400  0.89173700  0.46494500  1
  O  O104  1  0.56331600  0.39173700  0.03505500  1
  O  O105  1  0.56331600  0.10826300  0.53505500  1
  O  O106  1  0.58293100  0.09818000  0.22051300  1
  O  O107  1  0.58293100  0.40182000  0.72051300  1
  O  O108  1  0.58367400  0.10954500  0.02469000  1
  O  O109  1  0.58367400  0.39045500  0.52469000  1
  O  O110  1  0.58629200  0.58900400  0.64350100  1
  O  O111  1  0.58629200  0.91099600  0.14350100  1
  O  O112  1  0.59355800  0.19023100  0.41799900  1
  O  O113  1  0.59355800  0.30976900  0.91799900  1
  O  O114  1  0.59067500  0.82292400  0.23916400  1
  O  O115  1  0.59067500  0.67707600  0.73916400  1
  O  O116  1  0.59802600  0.00684200  0.34271700  1
  O  O117  1  0.59802600  0.49315800  0.84271700  1
  O  O118  1  0.63886400  0.23139500  0.11417400  1
  O  O119  1  0.63886400  0.26860500  0.61417400  1
  O  O120  1  0.68282100  0.45337300  0.20184200  1
  O  O121  1  0.68282100  0.04662700  0.70184200  1
  O  O122  1  0.68737000  0.68261100  0.35203600  1
  O  O123  1  0.68737000  0.81738900  0.85203600  1
  O  O124  1  0.68574300  0.76456700  0.03451600  1
  O  O125  1  0.68574300  0.73543300  0.53451600  1
  O  O126  1  0.72572300  0.48268600  0.42317900  1
  O  O127  1  0.72572300  0.01731400  0.92317900  1
  O  O128  1  0.77427700  0.98268600  0.42317900  1
  O  O129  1  0.77427700  0.51731400  0.92317900  1
  O  O130  1  0.81425700  0.26456700  0.03451600  1
  O  O131  1  0.81425700  0.23543300  0.53451600  1
  O  O132  1  0.81263000  0.18261100  0.35203600  1
  O  O133  1  0.81263000  0.31738900  0.85203600  1
  O  O134  1  0.81717900  0.54662700  0.70184200  1
  O  O135  1  0.81717900  0.95337300  0.20184200  1
  O  O136  1  0.86113600  0.73139500  0.11417400  1
  O  O137  1  0.86113600  0.76860500  0.61417400  1
  O  O138  1  0.90197400  0.50684200  0.34271700  1
  O  O139  1  0.90197400  0.99315800  0.84271700  1
  O  O140  1  0.90932500  0.32292400  0.23916400  1
  O  O141  1  0.90932500  0.17707600  0.73916400  1
  O  O142  1  0.90644200  0.69023100  0.41799900  1
  O  O143  1  0.90644200  0.80976900  0.91799900  1
  O  O144  1  0.91370800  0.41099600  0.14350100  1
  O  O145  1  0.91370800  0.08900400  0.64350100  1
  O  O146  1  0.91632600  0.60954500  0.02469000  1
  O  O147  1  0.91632600  0.89045500  0.52469000  1
  O  O148  1  0.91706900  0.59818000  0.22051300  1
  O  O149  1  0.91706900  0.90182000  0.72051300  1
  O  O150  1  0.93668400  0.60826300  0.53505500  1
  O  O151  1  0.93668400  0.89173700  0.03505500  1
