# generated using pymatgen
data_Li2Cr4O13
_symmetry_space_group_name_H-M   'P 1'
_cell_length_a   9.55412800
_cell_length_b   8.75157000
_cell_length_c   14.96579032
_cell_angle_alpha   76.31783444
_cell_angle_beta   90.00000000
_cell_angle_gamma   90.00000000
_symmetry_Int_Tables_number   1
_chemical_formula_structural   Li2Cr4O13
_chemical_formula_sum   'Li8 Cr16 O52'
_cell_volume   1215.83426035
_cell_formula_units_Z   4
loop_
 _symmetry_equiv_pos_site_id
 _symmetry_equiv_pos_as_xyz
  1  'x, y, z'
loop_
 _atom_site_type_symbol
 _atom_site_label
 _atom_site_symmetry_multiplicity
 _atom_site_fract_x
 _atom_site_fract_y
 _atom_site_fract_z
 _atom_site_occupancy
  Li  Li0  1  0.00378800  0.95112000  0.72746200  1
  Li  Li1  1  0.49621200  0.95112000  0.22746200  1
  Li  Li2  1  0.00647400  0.56653600  0.74639800  1
  Li  Li3  1  0.50647400  0.43346400  0.75360200  1
  Li  Li4  1  0.49352600  0.56653600  0.24639800  1
  Li  Li5  1  0.99352600  0.43346400  0.25360200  1
  Li  Li6  1  0.50378800  0.04888000  0.77253800  1
  Li  Li7  1  0.99621200  0.04888000  0.27253800  1
  Cr  Cr8  1  0.75419700  0.86425800  0.93589800  1
  Cr  Cr9  1  0.74580300  0.86425800  0.43589800  1
  Cr  Cr10  1  0.70869300  0.78576100  0.66121300  1
  Cr  Cr11  1  0.27744600  0.72182300  0.84092500  1
  Cr  Cr12  1  0.79130700  0.78576100  0.16121300  1
  Cr  Cr13  1  0.22255400  0.72182300  0.34092500  1
  Cr  Cr14  1  0.74110300  0.48267500  0.93382300  1
  Cr  Cr15  1  0.24110300  0.51732500  0.56617700  1
  Cr  Cr16  1  0.75889700  0.48267500  0.43382300  1
  Cr  Cr17  1  0.25889700  0.51732500  0.06617700  1
  Cr  Cr18  1  0.77744600  0.27817700  0.65907500  1
  Cr  Cr19  1  0.20869300  0.21423900  0.83878700  1
  Cr  Cr20  1  0.72255400  0.27817700  0.15907500  1
  Cr  Cr21  1  0.29130700  0.21423900  0.33878700  1
  Cr  Cr22  1  0.25419700  0.13574200  0.56410200  1
  Cr  Cr23  1  0.24580300  0.13574200  0.06410200  1
  O  O24  1  0.62644200  0.98270200  0.90111800  1
  O  O25  1  0.87885000  0.89915900  0.86200200  1
  O  O26  1  0.35203600  0.88981500  0.83602200  1
  O  O27  1  0.61733300  0.87719700  0.72371800  1
  O  O28  1  0.87355800  0.98270200  0.40111800  1
  O  O29  1  0.68353300  0.88678500  0.54029700  1
  O  O30  1  0.87512100  0.77743500  0.69027900  1
  O  O31  1  0.13139900  0.74820500  0.78099300  1
  O  O32  1  0.62115000  0.89915900  0.36200200  1
  O  O33  1  0.69152300  0.66972400  0.94902700  1
  O  O34  1  0.14796400  0.88981500  0.33602200  1
  O  O35  1  0.22633500  0.63871300  0.96053200  1
  O  O36  1  0.88266700  0.87719700  0.22371800  1
  O  O37  1  0.38444000  0.60710900  0.80394000  1
  O  O38  1  0.81646700  0.88678500  0.04029700  1
  O  O39  1  0.62487900  0.77743500  0.19027900  1
  O  O40  1  0.36860100  0.74820500  0.28099300  1
  O  O41  1  0.65124100  0.60719800  0.67553700  1
  O  O42  1  0.80847700  0.66972400  0.44902700  1
  O  O43  1  0.11572600  0.58288800  0.61861300  1
  O  O44  1  0.88021200  0.50222800  0.87231800  1
  O  O45  1  0.27366500  0.63871300  0.46053200  1
  O  O46  1  0.38021200  0.49777200  0.62768200  1
  O  O47  1  0.61572600  0.41711200  0.88138700  1
  O  O48  1  0.11556000  0.60710900  0.30394000  1
  O  O49  1  0.15124100  0.39280200  0.82446300  1
  O  O50  1  0.84875900  0.60719800  0.17553700  1
  O  O51  1  0.88444000  0.39289100  0.69606000  1
  O  O52  1  0.38427400  0.58288800  0.11861300  1
  O  O53  1  0.61978800  0.50222800  0.37231800  1
  O  O54  1  0.72633500  0.36128700  0.53946800  1
  O  O55  1  0.11978800  0.49777200  0.12768200  1
  O  O56  1  0.88427400  0.41711200  0.38138700  1
  O  O57  1  0.19152300  0.33027600  0.55097300  1
  O  O58  1  0.34875900  0.39280200  0.32446300  1
  O  O59  1  0.63139900  0.25179500  0.71900700  1
  O  O60  1  0.37512100  0.22256500  0.80972100  1
  O  O61  1  0.18353300  0.11321500  0.95970300  1
  O  O62  1  0.61556000  0.39289100  0.19606000  1
  O  O63  1  0.11733300  0.12280300  0.77628200  1
  O  O64  1  0.77366500  0.36128700  0.03946800  1
  O  O65  1  0.85203600  0.11018500  0.66397800  1
  O  O66  1  0.30847700  0.33027600  0.05097300  1
  O  O67  1  0.37885000  0.10084100  0.63799800  1
  O  O68  1  0.86860100  0.25179500  0.21900700  1
  O  O69  1  0.12487900  0.22256500  0.30972100  1
  O  O70  1  0.31646700  0.11321500  0.45970300  1
  O  O71  1  0.12644200  0.01729800  0.59888200  1
  O  O72  1  0.38266700  0.12280300  0.27628200  1
  O  O73  1  0.64796400  0.11018500  0.16397800  1
  O  O74  1  0.12115000  0.10084100  0.13799800  1
  O  O75  1  0.37355800  0.01729800  0.09888200  1
