# generated using pymatgen
data_LiMn2F5
_symmetry_space_group_name_H-M   'P 1'
_cell_length_a   6.50413100
_cell_length_b   8.00511049
_cell_length_c   8.95652254
_cell_angle_alpha   106.35033010
_cell_angle_beta   91.06066794
_cell_angle_gamma   101.27277983
_symmetry_Int_Tables_number   1
_chemical_formula_structural   LiMn2F5
_chemical_formula_sum   'Li4 Mn8 F20'
_cell_volume   437.49872506
_cell_formula_units_Z   4
loop_
 _symmetry_equiv_pos_site_id
 _symmetry_equiv_pos_as_xyz
  1  'x, y, z'
loop_
 _atom_site_type_symbol
 _atom_site_label
 _atom_site_symmetry_multiplicity
 _atom_site_fract_x
 _atom_site_fract_y
 _atom_site_fract_z
 _atom_site_occupancy
  Li  Li0  1  0.78610400  0.21151700  0.44596300  1
  Li  Li1  1  0.31816300  0.21522000  0.15921500  1
  Li  Li2  1  0.68183700  0.78478000  0.84078500  1
  Li  Li3  1  0.21389600  0.78848300  0.55403700  1
  Mn  Mn4  1  0.54207300  0.18625500  0.79371600  1
  Mn  Mn5  1  0.03345200  0.15191100  0.78660300  1
  Mn  Mn6  1  0.32523100  0.37994000  0.56722600  1
  Mn  Mn7  1  0.86022100  0.38667300  0.11974500  1
  Mn  Mn8  1  0.13977900  0.61332700  0.88025500  1
  Mn  Mn9  1  0.67476900  0.62006000  0.43277400  1
  Mn  Mn10  1  0.96654800  0.84808900  0.21339700  1
  Mn  Mn11  1  0.45792700  0.81374500  0.20628400  1
  F  F12  1  0.73432600  0.99465400  0.76783800  1
  F  F13  1  0.25645700  0.99518100  0.73247300  1
  F  F14  1  0.74354300  0.00481900  0.26752700  1
  F  F15  1  0.26567400  0.00534600  0.23216200  1
  F  F16  1  0.55191900  0.21836400  0.57159700  1
  F  F17  1  0.86649100  0.38031600  0.86940200  1
  F  F18  1  0.03114700  0.20636500  0.56358300  1
  F  F19  1  0.30888600  0.37580900  0.81613200  1
  F  F20  1  0.55464100  0.23193600  0.03560200  1
  F  F21  1  0.83347400  0.40126500  0.35168500  1
  F  F22  1  0.06577400  0.21341800  0.04058900  1
  F  F23  1  0.39123300  0.40233300  0.34863900  1
  F  F24  1  0.60876700  0.59766700  0.65136100  1
  F  F25  1  0.93422600  0.78658200  0.95941100  1
  F  F26  1  0.16652600  0.59873500  0.64831500  1
  F  F27  1  0.44535900  0.76806400  0.96439800  1
  F  F28  1  0.69111400  0.62419100  0.18386800  1
  F  F29  1  0.96885300  0.79363500  0.43641700  1
  F  F30  1  0.13350900  0.61968400  0.13059800  1
  F  F31  1  0.44808100  0.78163600  0.42840300  1
