# generated using pymatgen
data_Na5LiFe2P2(CO7)2
_symmetry_space_group_name_H-M   'P 1'
_cell_length_a   6.60255100
_cell_length_b   8.98842294
_cell_length_c   10.38355686
_cell_angle_alpha   90.97070026
_cell_angle_beta   90.19428682
_cell_angle_gamma   90.56235836
_symmetry_Int_Tables_number   1
_chemical_formula_structural   Na5LiFe2P2(CO7)2
_chemical_formula_sum   'Na10 Li2 Fe4 P4 C4 O28'
_cell_volume   616.10596199
_cell_formula_units_Z   2
loop_
 _symmetry_equiv_pos_site_id
 _symmetry_equiv_pos_as_xyz
  1  'x, y, z'
loop_
 _atom_site_type_symbol
 _atom_site_label
 _atom_site_symmetry_multiplicity
 _atom_site_fract_x
 _atom_site_fract_y
 _atom_site_fract_z
 _atom_site_occupancy
  Na  Na0  1  0.24609200  0.91756100  0.62946400  1
  Na  Na1  1  0.24860800  0.91684500  0.13098500  1
  Na  Na2  1  0.49865600  0.73997100  0.37427800  1
  Na  Na3  1  0.00106500  0.73949200  0.87466200  1
  Na  Na4  1  0.49928100  0.73893700  0.87424300  1
  Na  Na5  1  0.50134400  0.26002900  0.62572200  1
  Na  Na6  1  0.50071900  0.26106300  0.12575700  1
  Na  Na7  1  0.99893500  0.26050800  0.12533800  1
  Na  Na8  1  0.75390800  0.08243900  0.37053600  1
  Na  Na9  1  0.75139200  0.08315500  0.86901500  1
  Li  Li10  1  0.00403200  0.73171000  0.37258800  1
  Li  Li11  1  0.99596900  0.26829000  0.62741200  1
  Fe  Fe12  1  0.75009000  0.64441200  0.64117800  1
  Fe  Fe13  1  0.75193800  0.64493800  0.14377200  1
  Fe  Fe14  1  0.24991000  0.35558800  0.35882200  1
  Fe  Fe15  1  0.24806200  0.35506200  0.85622800  1
  P  P16  1  0.24332300  0.58525700  0.59827900  1
  P  P17  1  0.24988100  0.58644800  0.10140600  1
  P  P18  1  0.75667700  0.41474300  0.40172100  1
  P  P19  1  0.75011900  0.41355200  0.89859400  1
  C  C20  1  0.75712400  0.94265900  0.61544100  1
  C  C21  1  0.75071100  0.93968900  0.11657300  1
  C  C22  1  0.24287600  0.05734100  0.38455900  1
  C  C23  1  0.24928900  0.06031100  0.88342700  1
  O  O24  1  0.23484900  0.91277200  0.39144000  1
  O  O25  1  0.25158600  0.91663600  0.89126900  1
  O  O26  1  0.75018100  0.87901900  0.72702500  1
  O  O27  1  0.75188200  0.87692000  0.22886700  1
  O  O28  1  0.75512600  0.85971400  0.51137900  1
  O  O29  1  0.75184000  0.85673200  0.01287100  1
  O  O30  1  0.06138500  0.68205100  0.64356400  1
  O  O31  1  0.43685800  0.67550700  0.64064000  1
  O  O32  1  0.06432300  0.68143700  0.14526800  1
  O  O33  1  0.44008000  0.68114600  0.14202100  1
  O  O34  1  0.23847900  0.57169300  0.44815500  1
  O  O35  1  0.76391700  0.57170400  0.34225800  1
  O  O36  1  0.24721300  0.56704400  0.95191700  1
  O  O37  1  0.74996600  0.56726400  0.83541700  1
  O  O38  1  0.23608300  0.42829600  0.65774200  1
  O  O39  1  0.76152100  0.42830700  0.55184500  1
  O  O40  1  0.25003400  0.43273600  0.16458300  1
  O  O41  1  0.75278700  0.43295600  0.04808300  1
  O  O42  1  0.56314200  0.32449300  0.35936000  1
  O  O43  1  0.93861500  0.31794900  0.35643600  1
  O  O44  1  0.55992000  0.31885400  0.85797900  1
  O  O45  1  0.93567700  0.31856300  0.85473200  1
  O  O46  1  0.24487400  0.14028600  0.48862100  1
  O  O47  1  0.24816000  0.14326800  0.98712900  1
  O  O48  1  0.24981900  0.12098100  0.27297500  1
  O  O49  1  0.24811800  0.12308000  0.77113300  1
  O  O50  1  0.76515100  0.08722800  0.60856000  1
  O  O51  1  0.74841400  0.08336400  0.10873100  1
