# generated using pymatgen
data_LiMnVP2(HO5)2
_symmetry_space_group_name_H-M   'P 1'
_cell_length_a   6.78567400
_cell_length_b   7.43211375
_cell_length_c   7.99028129
_cell_angle_alpha   116.45600696
_cell_angle_beta   89.98428186
_cell_angle_gamma   91.11162323
_symmetry_Int_Tables_number   1
_chemical_formula_structural   LiMnVP2(HO5)2
_chemical_formula_sum   'Li2 Mn2 V2 P4 H4 O20'
_cell_volume   360.68158019
_cell_formula_units_Z   2
loop_
 _symmetry_equiv_pos_site_id
 _symmetry_equiv_pos_as_xyz
  1  'x, y, z'
loop_
 _atom_site_type_symbol
 _atom_site_label
 _atom_site_symmetry_multiplicity
 _atom_site_fract_x
 _atom_site_fract_y
 _atom_site_fract_z
 _atom_site_occupancy
  Li  Li0  1  0.17333900  0.61682800  0.76166800  1
  Li  Li1  1  0.82666100  0.38317200  0.23833200  1
  Mn  Mn2  1  0.00000000  0.00000000  0.00000000  1
  Mn  Mn3  1  0.50000000  0.50000000  0.50000000  1
  V  V4  1  0.25489900  0.74956000  0.24999800  1
  V  V5  1  0.74510100  0.25044000  0.75000200  1
  P  P6  1  0.60035100  0.72520600  0.95107800  1
  P  P7  1  0.09966300  0.22316300  0.45441800  1
  P  P8  1  0.90033700  0.77683700  0.54558200  1
  P  P9  1  0.39964900  0.27479400  0.04892200  1
  H  H10  1  0.03524100  0.31941500  0.97489100  1
  H  H11  1  0.51607200  0.83393000  0.49743400  1
  H  H12  1  0.48392800  0.16607000  0.50256600  1
  H  H13  1  0.96475900  0.68058500  0.02510900  1
  O  O14  1  0.04446500  0.82056200  0.70470800  1
  O  O15  1  0.00809800  0.70871600  0.35330800  1
  O  O16  1  0.45328500  0.66594300  0.79097900  1
  O  O17  1  0.73104700  0.90572300  0.97224900  1
  O  O18  1  0.08779400  0.76179400  0.04024600  1
  O  O19  1  0.23122200  0.41155600  0.48963400  1
  O  O20  1  0.41032900  0.72919700  0.44495800  1
  O  O21  1  0.73868300  0.54671600  0.92266100  1
  O  O22  1  0.51415100  0.21287500  0.86165000  1
  O  O23  1  0.76297600  0.95591700  0.58109700  1
  O  O24  1  0.23702400  0.04408300  0.41890300  1
  O  O25  1  0.48584900  0.78712500  0.13835000  1
  O  O26  1  0.26131700  0.45328400  0.07733900  1
  O  O27  1  0.58967100  0.27080300  0.55504200  1
  O  O28  1  0.76877800  0.58844400  0.51036600  1
  O  O29  1  0.91220600  0.23820600  0.95975400  1
  O  O30  1  0.26895300  0.09427700  0.02775100  1
  O  O31  1  0.54671500  0.33405700  0.20902100  1
  O  O32  1  0.99190200  0.29128400  0.64669200  1
  O  O33  1  0.95553500  0.17943800  0.29529200  1
