# generated using pymatgen
data_Li3Co2(PO4)3
_symmetry_space_group_name_H-M   'P 1'
_cell_length_a   8.48855442
_cell_length_b   8.48855442
_cell_length_c   8.41007114
_cell_angle_alpha   62.38991057
_cell_angle_beta   62.38991057
_cell_angle_gamma   62.27185302
_symmetry_Int_Tables_number   1
_chemical_formula_structural   Li3Co2(PO4)3
_chemical_formula_sum   'Li6 Co4 P6 O24'
_cell_volume   450.97124840
_cell_formula_units_Z   2
loop_
 _symmetry_equiv_pos_site_id
 _symmetry_equiv_pos_as_xyz
  1  'x, y, z'
loop_
 _atom_site_type_symbol
 _atom_site_label
 _atom_site_symmetry_multiplicity
 _atom_site_fract_x
 _atom_site_fract_y
 _atom_site_fract_z
 _atom_site_occupancy
  Li  Li0  1  0.49492200  0.00719900  0.22836500  1
  Li  Li1  1  0.35000200  0.64999800  0.50000000  1
  Li  Li2  1  0.99280100  0.50507800  0.77163500  1
  Li  Li3  1  0.65271400  0.34728600  0.00000000  1
  Li  Li4  1  0.24747900  0.15545800  0.59484200  1
  Li  Li5  1  0.84454200  0.75252100  0.40515800  1
  Co  Co6  1  0.35314300  0.86292800  0.10481100  1
  Co  Co7  1  0.13707200  0.64685700  0.89518900  1
  Co  Co8  1  0.85166900  0.35224900  0.60295700  1
  Co  Co9  1  0.64775100  0.14833100  0.39704300  1
  P  P10  1  0.74847200  0.55018400  0.20039900  1
  P  P11  1  0.44981600  0.25152800  0.79960100  1
  P  P12  1  0.04678500  0.95321500  0.50000000  1
  P  P13  1  0.95678300  0.04321700  0.00000000  1
  P  P14  1  0.54013700  0.74952700  0.70528100  1
  P  P15  1  0.25047300  0.45986300  0.29471900  1
  O  O16  1  0.20056700  0.50550000  0.12200400  1
  O  O17  1  0.99365400  0.88210200  0.93885700  1
  O  O18  1  0.57920700  0.73270200  0.20484500  1
  O  O19  1  0.38211500  0.69709600  0.71994900  1
  O  O20  1  0.90499200  0.56923400  0.00931300  1
  O  O21  1  0.68945400  0.38654300  0.23325200  1
  O  O22  1  0.43076600  0.09500800  0.99068700  1
  O  O23  1  0.26729800  0.42079300  0.79515500  1
  O  O24  1  0.06670000  0.75888900  0.65565200  1
  O  O25  1  0.11789800  0.00634600  0.06114300  1
  O  O26  1  0.76267000  0.06319100  0.15875700  1
  O  O27  1  0.49450000  0.79943300  0.87799600  1
  O  O28  1  0.48721800  0.18644500  0.63682600  1
  O  O29  1  0.24111100  0.93330000  0.34434800  1
  O  O30  1  0.88738000  0.98637200  0.43619900  1
  O  O31  1  0.93680900  0.23733000  0.84124300  1
  O  O32  1  0.73374600  0.58992400  0.68903400  1
  O  O33  1  0.56773300  0.91100400  0.51338900  1
  O  O34  1  0.30290400  0.61788500  0.28005100  1
  O  O35  1  0.08899600  0.43226700  0.48661100  1
  O  O36  1  0.61345700  0.31054600  0.76674800  1
  O  O37  1  0.41007600  0.26625400  0.31096600  1
  O  O38  1  0.01362800  0.11262000  0.56380100  1
  O  O39  1  0.81355500  0.51278200  0.36317400  1
