# generated using pymatgen
data_Li2CrSi7O16
_symmetry_space_group_name_H-M   'P 1'
_cell_length_a   7.74080072
_cell_length_b   7.67186400
_cell_length_c   7.26285936
_cell_angle_alpha   77.22598255
_cell_angle_beta   103.84845697
_cell_angle_gamma   63.04142133
_symmetry_Int_Tables_number   1
_chemical_formula_structural   Li2CrSi7O16
_chemical_formula_sum   'Li2 Cr1 Si7 O16'
_cell_volume   345.13647007
_cell_formula_units_Z   1
loop_
 _symmetry_equiv_pos_site_id
 _symmetry_equiv_pos_as_xyz
  1  'x, y, z'
loop_
 _atom_site_type_symbol
 _atom_site_label
 _atom_site_symmetry_multiplicity
 _atom_site_fract_x
 _atom_site_fract_y
 _atom_site_fract_z
 _atom_site_occupancy
  Li  Li0  1  0.45747786  0.70684592  0.72090468  1
  Li  Li1  1  0.77134793  0.38343252  0.36366550  1
  Cr  Cr2  1  0.85979297  0.35844045  0.87130050  1
  Si  Si3  1  0.40438322  0.81327651  0.13763738  1
  Si  Si4  1  0.17300568  0.58701136  0.15522185  1
  Si  Si5  1  0.81552404  0.82473901  0.72127468  1
  Si  Si6  1  0.20060831  0.12549898  0.70619933  1
  Si  Si7  1  0.16111921  0.19337240  0.27502798  1
  Si  Si8  1  0.79450320  0.83979188  0.28233261  1
  Si  Si9  1  0.54694213  0.20698750  0.84046337  1
  O  O10  1  0.05177393  0.70764675  0.90751066  1
  O  O11  1  0.34214404  0.88247665  0.89038598  1
  O  O12  1  0.23992055  0.02178823  0.16473768  1
  O  O13  1  0.01954586  0.68680918  0.27239908  1
  O  O14  1  0.30440382  0.25806790  0.76690425  1
  O  O15  1  0.71952146  0.67958025  0.74705452  1
  O  O16  1  0.37917623  0.61288939  0.22313971  1
  O  O17  1  0.25509775  0.05135244  0.51967202  1
  O  O18  1  0.84193879  0.87073983  0.49886737  1
  O  O19  1  0.54710643  0.41917186  0.78979824  1
  O  O20  1  0.65217084  0.72688873  0.26428738  1
  O  O21  1  0.26867963  0.33310093  0.23603239  1
  O  O22  1  0.95230547  0.25732809  0.65160362  1
  O  O23  1  0.67057870  0.05629576  0.72803684  1
  O  O24  1  0.66223548  0.06486846  0.09128563  1
  O  O25  1  0.90869746  0.33160001  0.17425775  1
