# generated using pymatgen
data_Li3V2(O2F)2
_symmetry_space_group_name_H-M   'P 1'
_cell_length_a   5.92425300
_cell_length_b   5.19685800
_cell_length_c   14.92245299
_cell_angle_alpha   89.68397504
_cell_angle_beta   90.00000000
_cell_angle_gamma   90.00000000
_symmetry_Int_Tables_number   1
_chemical_formula_structural   Li3V2(O2F)2
_chemical_formula_sum   'Li12 V8 O16 F8'
_cell_volume   459.41805681
_cell_formula_units_Z   4
loop_
 _symmetry_equiv_pos_site_id
 _symmetry_equiv_pos_as_xyz
  1  'x, y, z'
loop_
 _atom_site_type_symbol
 _atom_site_label
 _atom_site_symmetry_multiplicity
 _atom_site_fract_x
 _atom_site_fract_y
 _atom_site_fract_z
 _atom_site_occupancy
  Li  Li0  1  0.22866600  0.50000000  0.00000000  1
  Li  Li1  1  0.24209100  0.50000000  0.50000000  1
  Li  Li2  1  0.25281600  0.15388000  0.87223500  1
  Li  Li3  1  0.25281600  0.84612000  0.12776500  1
  Li  Li4  1  0.00000000  0.00000000  0.00000000  1
  Li  Li5  1  0.77133400  0.50000000  0.00000000  1
  Li  Li6  1  0.75790900  0.50000000  0.50000000  1
  Li  Li7  1  0.74718400  0.15388000  0.87223500  1
  Li  Li8  1  0.74718400  0.84612000  0.12776500  1
  Li  Li9  1  0.50000000  0.00000000  0.50000000  1
  Li  Li10  1  0.50000000  0.69345000  0.87051000  1
  Li  Li11  1  0.50000000  0.30655000  0.12949000  1
  V  V12  1  0.23972700  0.16535500  0.33416200  1
  V  V13  1  0.23972700  0.83464500  0.66583800  1
  V  V14  1  0.00000000  0.67291800  0.33573200  1
  V  V15  1  0.00000000  0.32708200  0.66426800  1
  V  V16  1  0.76027300  0.16535500  0.33416200  1
  V  V17  1  0.76027300  0.83464500  0.66583800  1
  V  V18  1  0.50000000  0.66814800  0.33039700  1
  V  V19  1  0.50000000  0.33185200  0.66960300  1
  O  O20  1  0.25757900  0.50152000  0.27055500  1
  O  O21  1  0.25757900  0.49848000  0.72944500  1
  O  O22  1  0.26410000  0.16999300  0.59353500  1
  O  O23  1  0.26410000  0.83000700  0.40646500  1
  O  O24  1  0.00000000  0.00202500  0.26608300  1
  O  O25  1  0.00000000  0.99797500  0.73391700  1
  O  O26  1  0.00000000  0.65442700  0.59034900  1
  O  O27  1  0.00000000  0.34557300  0.40965100  1
  O  O28  1  0.74242100  0.50152000  0.27055500  1
  O  O29  1  0.74242100  0.49848000  0.72944500  1
  O  O30  1  0.73590000  0.16999300  0.59353500  1
  O  O31  1  0.73590000  0.83000700  0.40646500  1
  O  O32  1  0.50000000  0.99788600  0.26620200  1
  O  O33  1  0.50000000  0.00211400  0.73379800  1
  O  O34  1  0.50000000  0.67306900  0.59208500  1
  O  O35  1  0.50000000  0.32693100  0.40791500  1
  F  F36  1  0.24536400  0.17189500  0.08009400  1
  F  F37  1  0.24536400  0.82810500  0.91990600  1
  F  F38  1  0.00000000  0.68934200  0.07645000  1
  F  F39  1  0.00000000  0.31065800  0.92355000  1
  F  F40  1  0.75463600  0.17189500  0.08009400  1
  F  F41  1  0.75463600  0.82810500  0.91990600  1
  F  F42  1  0.50000000  0.64617300  0.09145500  1
  F  F43  1  0.50000000  0.35382700  0.90854500  1
