# generated using pymatgen
data_Li2Nb4O11
_symmetry_space_group_name_H-M   'P 1'
_cell_length_a   6.35359011
_cell_length_b   6.35359011
_cell_length_c   12.92980225
_cell_angle_alpha   75.68196075
_cell_angle_beta   75.68196075
_cell_angle_gamma   59.24899708
_symmetry_Int_Tables_number   1
_chemical_formula_structural   Li2Nb4O11
_chemical_formula_sum   'Li4 Nb8 O22'
_cell_volume   430.02856906
_cell_formula_units_Z   2
loop_
 _symmetry_equiv_pos_site_id
 _symmetry_equiv_pos_as_xyz
  1  'x, y, z'
loop_
 _atom_site_type_symbol
 _atom_site_label
 _atom_site_symmetry_multiplicity
 _atom_site_fract_x
 _atom_site_fract_y
 _atom_site_fract_z
 _atom_site_occupancy
  Li  Li0  1  0.85515900  0.35719600  0.93989600  1
  Li  Li1  1  0.64280400  0.14484100  0.56010400  1
  Li  Li2  1  0.35719600  0.85515900  0.43989600  1
  Li  Li3  1  0.14484100  0.64280400  0.06010400  1
  Nb  Nb4  1  0.75110300  0.60366900  0.24988800  1
  Nb  Nb5  1  0.60366900  0.75110300  0.74988800  1
  Nb  Nb6  1  0.00000000  0.50000000  0.50000000  1
  Nb  Nb7  1  0.11335300  0.88664700  0.25000000  1
  Nb  Nb8  1  0.88664700  0.11335300  0.75000000  1
  Nb  Nb9  1  0.39633100  0.24889700  0.25011200  1
  Nb  Nb10  1  0.50000000  0.00000000  0.00000000  1
  Nb  Nb11  1  0.24889700  0.39633100  0.75011200  1
  O  O12  1  0.75095300  0.01177500  0.24862300  1
  O  O13  1  0.01177500  0.75095300  0.74862300  1
  O  O14  1  0.74602900  0.58976300  0.40591600  1
  O  O15  1  0.75684900  0.73498400  0.09285400  1
  O  O16  1  0.40634000  0.90754700  0.28048600  1
  O  O17  1  0.58976300  0.74602900  0.90591600  1
  O  O18  1  0.24013600  0.91279700  0.09281400  1
  O  O19  1  0.73498400  0.75684900  0.59285400  1
  O  O20  1  0.90754700  0.40634000  0.78048600  1
  O  O21  1  0.49838600  0.50161400  0.25000000  1
  O  O22  1  0.08720300  0.75986400  0.40718600  1
  O  O23  1  0.91279700  0.24013600  0.59281400  1
  O  O24  1  0.50161400  0.49838600  0.75000000  1
  O  O25  1  0.09245300  0.59366000  0.21951400  1
  O  O26  1  0.26501600  0.24315100  0.40714600  1
  O  O27  1  0.75986400  0.08720300  0.90718600  1
  O  O28  1  0.41023700  0.25397100  0.09408400  1
  O  O29  1  0.59366000  0.09245300  0.71951400  1
  O  O30  1  0.24315100  0.26501600  0.90714600  1
  O  O31  1  0.25397100  0.41023700  0.59408400  1
  O  O32  1  0.98822500  0.24904700  0.25137700  1
  O  O33  1  0.24904700  0.98822500  0.75137700  1
