# generated using pymatgen
data_Li9V4(PO4)6
_symmetry_space_group_name_H-M   'P 1'
_cell_length_a   8.48713100
_cell_length_b   8.49595156
_cell_length_c   9.29914560
_cell_angle_alpha   63.04177483
_cell_angle_beta   62.97548854
_cell_angle_gamma   60.07637669
_symmetry_Int_Tables_number   1
_chemical_formula_structural   Li9V4(PO4)6
_chemical_formula_sum   'Li9 V4 P6 O24'
_cell_volume   494.87018958
_cell_formula_units_Z   1
loop_
 _symmetry_equiv_pos_site_id
 _symmetry_equiv_pos_as_xyz
  1  'x, y, z'
loop_
 _atom_site_type_symbol
 _atom_site_label
 _atom_site_symmetry_multiplicity
 _atom_site_fract_x
 _atom_site_fract_y
 _atom_site_fract_z
 _atom_site_occupancy
  Li  Li0  1  0.72914900  0.33946500  0.86150900  1
  Li  Li1  1  0.69402300  0.93002800  0.10721400  1
  Li  Li2  1  0.46801700  0.90308300  0.41313000  1
  Li  Li3  1  0.92301100  0.27262400  0.14081800  1
  Li  Li4  1  0.44445800  0.45809300  0.64780800  1
  Li  Li5  1  0.07044100  0.72818400  0.86807200  1
  Li  Li6  1  0.53731900  0.09188400  0.57735100  1
  Li  Li7  1  0.30122400  0.06525600  0.89593500  1
  Li  Li8  1  0.27394000  0.65570200  0.14696600  1
  V  V9  1  0.34084300  0.34256300  0.97247400  1
  V  V10  1  0.65321600  0.65324600  0.04393900  1
  V  V11  1  0.12971800  0.16243300  0.56227700  1
  V  V12  1  0.87222700  0.83796100  0.43379200  1
  P  P13  1  0.95509700  0.54896300  0.24727800  1
  P  P14  1  0.44576400  0.75315900  0.75447100  1
  P  P15  1  0.74765300  0.04788400  0.74568300  1
  P  P16  1  0.25195800  0.95535800  0.25241400  1
  P  P17  1  0.55409900  0.24573600  0.24383700  1
  P  P18  1  0.04727200  0.45186600  0.75082600  1
  O  O19  1  0.40858100  0.17581700  0.40879900  1
  O  O20  1  0.56136800  0.20088800  0.09396600  1
  O  O21  1  0.14259600  0.55925900  0.09699800  1
  O  O22  1  0.00096100  0.40576800  0.40979400  1
  O  O23  1  0.19562800  0.00256700  0.41394700  1
  O  O24  1  0.83981300  0.75367900  0.26878900  1
  O  O25  1  0.20352800  0.14013000  0.10185300  1
  O  O26  1  0.85480600  0.16371600  0.72429500  1
  O  O27  1  0.83930400  0.50015000  0.19657600  1
  O  O28  1  0.49581400  0.53770900  0.78979300  1
  O  O29  1  0.24577100  0.87051700  0.72697600  1
  O  O30  1  0.52681900  0.17431300  0.78197600  1
  O  O31  1  0.47169200  0.84310800  0.20823900  1
  O  O32  1  0.75279600  0.12718400  0.27443100  1
  O  O33  1  0.50414900  0.45905000  0.20024100  1
  O  O34  1  0.17619700  0.49888900  0.79245400  1
  O  O35  1  0.14698600  0.83770900  0.27353100  1
  O  O36  1  0.78738600  0.86590900  0.89858700  1
  O  O37  1  0.16162600  0.24706100  0.72915400  1
  O  O38  1  0.80111100  0.99851400  0.58656100  1
  O  O39  1  0.00089500  0.59599300  0.59007000  1
  O  O40  1  0.86414900  0.44331600  0.90426600  1
  O  O41  1  0.44248300  0.79059400  0.90553000  1
  O  O42  1  0.59054000  0.82179400  0.58913900  1
