# generated using pymatgen
data_Li4Mn2V3Sn3O16
_symmetry_space_group_name_H-M   'P 1'
_cell_length_a   6.12509100
_cell_length_b   6.13301773
_cell_length_c   10.00356427
_cell_angle_alpha   89.92085029
_cell_angle_beta   89.85949766
_cell_angle_gamma   60.38835483
_symmetry_Int_Tables_number   1
_chemical_formula_structural   Li4Mn2V3Sn3O16
_chemical_formula_sum   'Li4 Mn2 V3 Sn3 O16'
_cell_volume   326.70600424
_cell_formula_units_Z   1
loop_
 _symmetry_equiv_pos_site_id
 _symmetry_equiv_pos_as_xyz
  1  'x, y, z'
loop_
 _atom_site_type_symbol
 _atom_site_label
 _atom_site_symmetry_multiplicity
 _atom_site_fract_x
 _atom_site_fract_y
 _atom_site_fract_z
 _atom_site_occupancy
  Li  Li0  1  0.67309400  0.65028000  0.88814900  1
  Li  Li1  1  0.98973900  0.02737300  0.99505100  1
  Li  Li2  1  0.98882100  0.01625100  0.50079100  1
  Li  Li3  1  0.33848300  0.32694400  0.39346200  1
  Mn  Mn4  1  0.66502200  0.66380200  0.50109400  1
  Mn  Mn5  1  0.33583400  0.33335800  0.99699700  1
  V  V6  1  0.83234300  0.33897800  0.21698500  1
  V  V7  1  0.17785000  0.16041400  0.71736500  1
  V  V8  1  0.66604100  0.16687200  0.71321700  1
  Sn  Sn9  1  0.83156000  0.83296700  0.21477200  1
  Sn  Sn10  1  0.33703000  0.83216500  0.21515600  1
  Sn  Sn11  1  0.16831500  0.65841800  0.71497900  1
  O  O12  1  0.84039000  0.84794100  0.60382200  1
  O  O13  1  0.51941600  0.96934200  0.33549400  1
  O  O14  1  0.67116900  0.65865200  0.10016700  1
  O  O15  1  0.99496800  0.01090400  0.31954400  1
  O  O16  1  0.99610000  0.00497300  0.81467400  1
  O  O17  1  0.30301000  0.86624100  0.60410500  1
  O  O18  1  0.96762500  0.49723200  0.32753600  1
  O  O19  1  0.52270700  0.50758600  0.32987400  1
  O  O20  1  0.14844800  0.69728400  0.09625300  1
  O  O21  1  0.83294600  0.30867900  0.61330000  1
  O  O22  1  0.48901600  0.47362000  0.82976200  1
  O  O23  1  0.03737900  0.45412100  0.82824600  1
  O  O24  1  0.34205400  0.31872100  0.60456900  1
  O  O25  1  0.68950800  0.17655100  0.10726000  1
  O  O26  1  0.49258000  0.03262800  0.81949900  1
  O  O27  1  0.14885200  0.16770300  0.10571600  1
