# generated using pymatgen
data_LiFe(PO3)4
_symmetry_space_group_name_H-M   'P 1'
_cell_length_a   9.02893800
_cell_length_b   7.16728300
_cell_length_c   15.68532338
_cell_angle_alpha   64.47112379
_cell_angle_beta   90.00000000
_cell_angle_gamma   90.00000000
_symmetry_Int_Tables_number   1
_chemical_formula_structural   LiFe(PO3)4
_chemical_formula_sum   'Li4 Fe4 P16 O48'
_cell_volume   915.94307167
_cell_formula_units_Z   4
loop_
 _symmetry_equiv_pos_site_id
 _symmetry_equiv_pos_as_xyz
  1  'x, y, z'
loop_
 _atom_site_type_symbol
 _atom_site_label
 _atom_site_symmetry_multiplicity
 _atom_site_fract_x
 _atom_site_fract_y
 _atom_site_fract_z
 _atom_site_occupancy
  Li  Li0  1  0.47607400  0.41176300  0.11799500  1
  Li  Li1  1  0.97607400  0.58823700  0.38200500  1
  Li  Li2  1  0.02392600  0.41176300  0.61799500  1
  Li  Li3  1  0.52392600  0.58823700  0.88200500  1
  Fe  Fe4  1  0.24173300  0.84977100  0.15898500  1
  Fe  Fe5  1  0.74173300  0.15022900  0.34101500  1
  Fe  Fe6  1  0.25826700  0.84977100  0.65898500  1
  Fe  Fe7  1  0.75826700  0.15022900  0.84101500  1
  P  P8  1  0.74326000  0.21147800  0.04022000  1
  P  P9  1  0.67179500  0.80379700  0.05765100  1
  P  P10  1  0.92113200  0.57323900  0.18176100  1
  P  P11  1  0.98994900  0.18205000  0.17724800  1
  P  P12  1  0.42113200  0.42676100  0.31823900  1
  P  P13  1  0.48994900  0.81795000  0.32275200  1
  P  P14  1  0.17179500  0.19620300  0.44234900  1
  P  P15  1  0.24326000  0.78852200  0.45978000  1
  P  P16  1  0.75674000  0.21147800  0.54022000  1
  P  P17  1  0.82820500  0.80379700  0.55765100  1
  P  P18  1  0.51005100  0.18205000  0.67724800  1
  P  P19  1  0.57886800  0.57323900  0.68176100  1
  P  P20  1  0.01005100  0.81795000  0.82275200  1
  P  P21  1  0.07886800  0.42676100  0.81823900  1
  P  P22  1  0.32820500  0.19620300  0.94234900  1
  P  P23  1  0.25674000  0.78852200  0.95978000  1
  O  O24  1  0.33700300  0.09605000  0.04907600  1
  O  O25  1  0.22453400  0.74439900  0.06123600  1
  O  O26  1  0.64357400  0.35461400  0.05867500  1
  O  O27  1  0.83536500  0.69849800  0.08318100  1
  O  O28  1  0.90569300  0.20082200  0.08428400  1
  O  O29  1  0.68365400  0.97910700  0.09654500  1
  O  O30  1  0.54996000  0.66427800  0.11117400  1
  O  O31  1  0.02130400  0.41954800  0.15540300  1
  O  O32  1  0.13708900  0.08501800  0.17772400  1
  O  O33  1  0.02247100  0.72006200  0.20025400  1
  O  O34  1  0.31064400  0.54577400  0.24200200  1
  O  O35  1  0.39423000  0.91540500  0.23624900  1
  O  O36  1  0.81064400  0.45422600  0.25799800  1
  O  O37  1  0.89423000  0.08459500  0.26375100  1
  O  O38  1  0.52247100  0.27993800  0.29974600  1
  O  O39  1  0.52130400  0.58045200  0.34459700  1
  O  O40  1  0.63708900  0.91498200  0.32227600  1
  O  O41  1  0.04996000  0.33572200  0.38882600  1
  O  O42  1  0.18365400  0.02089300  0.40345500  1
  O  O43  1  0.33536500  0.30150200  0.41681900  1
  O  O44  1  0.40569300  0.79917800  0.41571600  1
  O  O45  1  0.14357400  0.64538600  0.44132500  1
  O  O46  1  0.72453400  0.25560100  0.43876400  1
  O  O47  1  0.83700300  0.90395000  0.45092400  1
  O  O48  1  0.16299700  0.09605000  0.54907600  1
  O  O49  1  0.27546600  0.74439900  0.56123600  1
  O  O50  1  0.85642600  0.35461400  0.55867500  1
  O  O51  1  0.59430700  0.20082200  0.58428400  1
  O  O52  1  0.66463500  0.69849800  0.58318100  1
  O  O53  1  0.81634600  0.97910700  0.59654500  1
  O  O54  1  0.95004000  0.66427800  0.61117400  1
  O  O55  1  0.36291100  0.08501800  0.67772400  1
  O  O56  1  0.47869600  0.41954800  0.65540300  1
  O  O57  1  0.47752900  0.72006200  0.70025400  1
  O  O58  1  0.10577000  0.91540500  0.73624900  1
  O  O59  1  0.18935600  0.54577400  0.74200200  1
  O  O60  1  0.60577000  0.08459500  0.76375100  1
  O  O61  1  0.68935600  0.45422600  0.75799800  1
  O  O62  1  0.97752900  0.27993800  0.79974600  1
  O  O63  1  0.86291100  0.91498200  0.82227600  1
  O  O64  1  0.97869600  0.58045200  0.84459700  1
  O  O65  1  0.45004000  0.33572200  0.88882600  1
  O  O66  1  0.31634600  0.02089300  0.90345500  1
  O  O67  1  0.09430700  0.79917800  0.91571600  1
  O  O68  1  0.16463500  0.30150200  0.91681900  1
  O  O69  1  0.35642600  0.64538600  0.94132500  1
  O  O70  1  0.77546600  0.25560100  0.93876400  1
  O  O71  1  0.66299700  0.90395000  0.95092400  1
