# generated using pymatgen
data_LiTi2V3O12
_symmetry_space_group_name_H-M   'P 1'
_cell_length_a   9.14654800
_cell_length_b   9.00573100
_cell_length_c   15.47050351
_cell_angle_alpha   54.83301191
_cell_angle_beta   90.00000000
_cell_angle_gamma   90.00000000
_symmetry_Int_Tables_number   1
_chemical_formula_structural   LiTi2V3O12
_chemical_formula_sum   'Li4 Ti8 V12 O48'
_cell_volume   1041.73227034
_cell_formula_units_Z   4
loop_
 _symmetry_equiv_pos_site_id
 _symmetry_equiv_pos_as_xyz
  1  'x, y, z'
loop_
 _atom_site_type_symbol
 _atom_site_label
 _atom_site_symmetry_multiplicity
 _atom_site_fract_x
 _atom_site_fract_y
 _atom_site_fract_z
 _atom_site_occupancy
  Li  Li0  1  0.22226900  0.00213900  0.18882100  1
  Li  Li1  1  0.72226900  0.99786100  0.31117900  1
  Li  Li2  1  0.27773100  0.00213900  0.68882100  1
  Li  Li3  1  0.77773100  0.99786100  0.81117900  1
  Ti  Ti4  1  0.48062700  0.62868900  0.61944900  1
  Ti  Ti5  1  0.98062700  0.37131100  0.88055100  1
  Ti  Ti6  1  0.53392000  0.13583800  0.11561800  1
  Ti  Ti7  1  0.03392000  0.86416200  0.38438200  1
  Ti  Ti8  1  0.96608000  0.13583800  0.61561800  1
  Ti  Ti9  1  0.46608000  0.86416200  0.88438200  1
  Ti  Ti10  1  0.01937300  0.62868900  0.11944900  1
  Ti  Ti11  1  0.51937300  0.37131100  0.38055100  1
  V  V12  1  0.75120500  0.54298100  0.48710100  1
  V  V13  1  0.61915400  0.25222600  0.85542900  1
  V  V14  1  0.89066100  0.97190800  0.14105700  1
  V  V15  1  0.11915400  0.74777400  0.64457100  1
  V  V16  1  0.39066100  0.02809200  0.35894300  1
  V  V17  1  0.25120500  0.45701900  0.01289900  1
  V  V18  1  0.74879500  0.54298100  0.98710100  1
  V  V19  1  0.60933900  0.97190800  0.64105700  1
  V  V20  1  0.88084600  0.25222600  0.35542900  1
  V  V21  1  0.10933900  0.02809200  0.85894300  1
  V  V22  1  0.38084600  0.74777400  0.14457100  1
  V  V23  1  0.24879500  0.45701900  0.51289900  1
  O  O24  1  0.12209400  0.63336400  0.44240100  1
  O  O25  1  0.10346600  0.18552300  0.89035800  1
  O  O26  1  0.33729200  0.47608100  0.60416200  1
  O  O27  1  0.41616000  0.90616500  0.17264800  1
  O  O28  1  0.63075700  0.53244200  0.57735200  1
  O  O29  1  0.80632100  0.28273500  0.84508500  1
  O  O30  1  0.56552900  0.16316100  0.98479700  1
  O  O31  1  0.01779700  0.90900200  0.24102200  1
  O  O32  1  0.71562400  0.99502200  0.17993400  1
  O  O33  1  0.83475100  0.75845600  0.41743600  1
  O  O34  1  0.52548700  0.45518200  0.76544500  1
  O  O35  1  0.02548700  0.54481800  0.73455500  1
  O  O36  1  0.44131700  0.81755800  0.46503300  1
  O  O37  1  0.94131700  0.18244200  0.03496700  1
  O  O38  1  0.33475100  0.24154400  0.08256400  1
  O  O39  1  0.21562400  0.00497800  0.32006600  1
  O  O40  1  0.06552900  0.83683900  0.51520300  1
  O  O41  1  0.51779700  0.09099800  0.25897800  1
  O  O42  1  0.30632100  0.71726500  0.65491500  1
  O  O43  1  0.13075700  0.46755800  0.92264800  1
  O  O44  1  0.83729200  0.52391900  0.89583800  1
  O  O45  1  0.60346600  0.81447700  0.60964200  1
  O  O46  1  0.91616000  0.09383500  0.32735200  1
  O  O47  1  0.62209400  0.36663600  0.05759900  1
  O  O48  1  0.37790600  0.63336400  0.94240100  1
  O  O49  1  0.08384000  0.90616500  0.67264800  1
  O  O50  1  0.39653400  0.18552300  0.39035800  1
  O  O51  1  0.16270800  0.47608100  0.10416200  1
  O  O52  1  0.86924300  0.53244200  0.07735200  1
  O  O53  1  0.69367900  0.28273500  0.34508500  1
  O  O54  1  0.48220300  0.90900200  0.74102200  1
  O  O55  1  0.93447100  0.16316100  0.48479700  1
  O  O56  1  0.78437600  0.99502200  0.67993400  1
  O  O57  1  0.66524900  0.75845600  0.91743600  1
  O  O58  1  0.05868300  0.81755800  0.96503300  1
  O  O59  1  0.55868300  0.18244200  0.53496700  1
  O  O60  1  0.97451300  0.45518200  0.26544500  1
  O  O61  1  0.47451300  0.54481800  0.23455500  1
  O  O62  1  0.16524900  0.24154400  0.58256400  1
  O  O63  1  0.28437600  0.00497800  0.82006600  1
  O  O64  1  0.98220300  0.09099800  0.75897800  1
  O  O65  1  0.43447100  0.83683900  0.01520300  1
  O  O66  1  0.19367900  0.71726500  0.15491500  1
  O  O67  1  0.36924300  0.46755800  0.42264800  1
  O  O68  1  0.58384000  0.09383500  0.82735200  1
  O  O69  1  0.66270800  0.52391900  0.39583800  1
  O  O70  1  0.89653400  0.81447700  0.10964200  1
  O  O71  1  0.87790600  0.36663600  0.55759900  1
