# generated using pymatgen
data_Li2CoP2O7
_symmetry_space_group_name_H-M   'P 1'
_cell_length_a   18.12743400
_cell_length_b   7.89689400
_cell_length_c   8.25535941
_cell_angle_alpha   87.22201620
_cell_angle_beta   90.00000000
_cell_angle_gamma   90.00000000
_symmetry_Int_Tables_number   1
_chemical_formula_structural   Li2CoP2O7
_chemical_formula_sum   'Li16 Co8 P16 O56'
_cell_volume   1180.36944537
_cell_formula_units_Z   8
loop_
 _symmetry_equiv_pos_site_id
 _symmetry_equiv_pos_as_xyz
  1  'x, y, z'
loop_
 _atom_site_type_symbol
 _atom_site_label
 _atom_site_symmetry_multiplicity
 _atom_site_fract_x
 _atom_site_fract_y
 _atom_site_fract_z
 _atom_site_occupancy
  Li  Li0  1  0.54288500  0.35233700  0.01075900  1
  Li  Li1  1  0.30315600  0.84499200  0.00754300  1
  Li  Li2  1  0.78363000  0.61786500  0.05893100  1
  Li  Li3  1  0.10308500  0.33179700  0.11017400  1
  Li  Li4  1  0.57519900  0.90679800  0.12626300  1
  Li  Li5  1  0.36785400  0.61394600  0.25634200  1
  Li  Li6  1  0.94393700  0.88577600  0.26654600  1
  Li  Li7  1  0.18494500  0.18715700  0.51910500  1
  Li  Li8  1  0.68494500  0.81284300  0.48089500  1
  Li  Li9  1  0.44393700  0.11422400  0.73345400  1
  Li  Li10  1  0.86785400  0.38605400  0.74365800  1
  Li  Li11  1  0.07519900  0.09320200  0.87373700  1
  Li  Li12  1  0.60308500  0.66820300  0.88982600  1
  Li  Li13  1  0.28363000  0.38213500  0.94106800  1
  Li  Li14  1  0.80315600  0.15500800  0.99245700  1
  Li  Li15  1  0.04288500  0.64766300  0.98924100  1
  Co  Co16  1  0.53578000  0.11121800  0.42452300  1
  Co  Co17  1  0.79088500  0.42192600  0.41622700  1
  Co  Co18  1  0.29263900  0.90706600  0.40643600  1
  Co  Co19  1  0.04162700  0.58264000  0.39390300  1
  Co  Co20  1  0.54162700  0.41736000  0.60609700  1
  Co  Co21  1  0.79263900  0.09293400  0.59356400  1
  Co  Co22  1  0.29088500  0.57807400  0.58377300  1
  Co  Co23  1  0.03578000  0.88878200  0.57547700  1
  P  P24  1  0.41279800  0.06529500  0.13959900  1
  P  P25  1  0.91982600  0.44685500  0.13520900  1
  P  P26  1  0.63220200  0.44604800  0.25134400  1
  P  P27  1  0.20060900  0.61854100  0.21225600  1
  P  P28  1  0.69845600  0.10206700  0.24608400  1
  P  P29  1  0.13067800  0.95097200  0.23277100  1
  P  P30  1  0.37207300  0.26247200  0.42730100  1
  P  P31  1  0.95260600  0.23398200  0.42531700  1
  P  P32  1  0.45260600  0.76601800  0.57468300  1
  P  P33  1  0.87207300  0.73752800  0.57269900  1
  P  P34  1  0.63067800  0.04902800  0.76722900  1
  P  P35  1  0.19845600  0.89793300  0.75391600  1
  P  P36  1  0.70060900  0.38145900  0.78774400  1
  P  P37  1  0.13220200  0.55395200  0.74865600  1
  P  P38  1  0.41982600  0.55314500  0.86479100  1
  P  P39  1  0.91279800  0.93470500  0.86040100  1
  O  O40  1  0.40970800  0.11429700  0.96056300  1
  O  O41  1  0.91095200  0.40875700  0.95926900  1
  O  O42  1  0.59284300  0.54398600  0.11152600  1
  O  O43  1  0.24823200  0.54956000  0.08073700  1
  O  O44  1  0.09748500  0.07662800  0.10594100  1
  O  O45  1  0.65866200  0.27329500  0.16555000  1
  O  O46  1  0.73739300  0.01317400  0.11325800  1
  O  O47  1  0.16605800  0.79669500  0.13363600  1
  O  O48  1  0.49291100  0.03552800  0.20213300  1
  O  O49  1  0.84902800  0.51436400  0.21431100  1
  O  O50  1  0.98783500  0.55943800  0.16854000  1
  O  O51  1  0.35766100  0.92238100  0.19070300  1
  O  O52  1  0.38541800  0.22935200  0.23585400  1
  O  O53  1  0.93679000  0.26521000  0.23080800  1
  O  O54  1  0.19118700  0.03508400  0.33121000  1
  O  O55  1  0.13590700  0.50089400  0.26388500  1
  O  O56  1  0.63568900  0.98929300  0.32234200  1
  O  O57  1  0.69736000  0.54564900  0.31748200  1
  O  O58  1  0.57994400  0.36692500  0.38181400  1
  O  O59  1  0.24547800  0.68020400  0.35489700  1
  O  O60  1  0.75098800  0.17549200  0.37028300  1
  O  O61  1  0.07242500  0.85145300  0.33745700  1
  O  O62  1  0.33114700  0.42990200  0.41291400  1
  O  O63  1  0.97105200  0.04745200  0.43775100  1
  O  O64  1  0.51678200  0.65412700  0.52688200  1
  O  O65  1  0.44794000  0.27519400  0.51046200  1
  O  O66  1  0.38006800  0.72975900  0.48559400  1
  O  O67  1  0.32455300  0.12235000  0.50635100  1
  O  O68  1  0.82455300  0.87765000  0.49364900  1
  O  O69  1  0.88006800  0.27024100  0.51440600  1
  O  O70  1  0.94794000  0.72480600  0.48953800  1
  O  O71  1  0.01678200  0.34587300  0.47311800  1
  O  O72  1  0.47105200  0.95254800  0.56224900  1
  O  O73  1  0.83114700  0.57009800  0.58708600  1
  O  O74  1  0.57242500  0.14854700  0.66254300  1
  O  O75  1  0.25098800  0.82450800  0.62971700  1
  O  O76  1  0.74547800  0.31979600  0.64510300  1
  O  O77  1  0.07994400  0.63307500  0.61818600  1
  O  O78  1  0.19736000  0.45435100  0.68251800  1
  O  O79  1  0.13568900  0.01070700  0.67765800  1
  O  O80  1  0.63590700  0.49910600  0.73611500  1
  O  O81  1  0.69118700  0.96491600  0.66879000  1
  O  O82  1  0.43679000  0.73479000  0.76919200  1
  O  O83  1  0.88541800  0.77064800  0.76414600  1
  O  O84  1  0.85766100  0.07761900  0.80929700  1
  O  O85  1  0.48783500  0.44056200  0.83146000  1
  O  O86  1  0.34902800  0.48563600  0.78568900  1
  O  O87  1  0.99291100  0.96447200  0.79786700  1
  O  O88  1  0.66605800  0.20330500  0.86636400  1
  O  O89  1  0.23739300  0.98682600  0.88674200  1
  O  O90  1  0.15866200  0.72670500  0.83445000  1
  O  O91  1  0.59748500  0.92337200  0.89405900  1
  O  O92  1  0.74823200  0.45044000  0.91926300  1
  O  O93  1  0.09284300  0.45601400  0.88847400  1
  O  O94  1  0.41095200  0.59124300  0.04073100  1
  O  O95  1  0.90970800  0.88570300  0.03943700  1
