# generated using pymatgen
data_Li3Fe2(SiO4)2
_symmetry_space_group_name_H-M   'P 1'
_cell_length_a   5.46798000
_cell_length_b   8.33730900
_cell_length_c   8.65698912
_cell_angle_alpha   76.46365031
_cell_angle_beta   90.00000000
_cell_angle_gamma   90.00000000
_symmetry_Int_Tables_number   1
_chemical_formula_structural   Li3Fe2(SiO4)2
_chemical_formula_sum   'Li6 Fe4 Si4 O16'
_cell_volume   383.69395947
_cell_formula_units_Z   2
loop_
 _symmetry_equiv_pos_site_id
 _symmetry_equiv_pos_as_xyz
  1  'x, y, z'
loop_
 _atom_site_type_symbol
 _atom_site_label
 _atom_site_symmetry_multiplicity
 _atom_site_fract_x
 _atom_site_fract_y
 _atom_site_fract_z
 _atom_site_occupancy
  Li  Li0  1  0.84547400  0.96290500  0.93174000  1
  Li  Li1  1  0.32761300  0.54952900  0.64576500  1
  Li  Li2  1  0.15452600  0.96290500  0.43174000  1
  Li  Li3  1  0.67432100  0.04807500  0.59890500  1
  Li  Li4  1  0.67238700  0.54952900  0.14576500  1
  Li  Li5  1  0.32567900  0.04807500  0.09890500  1
  Fe  Fe6  1  0.31762200  0.85706400  0.79792600  1
  Fe  Fe7  1  0.82406600  0.37964900  0.62221200  1
  Fe  Fe8  1  0.68237800  0.85706400  0.29792600  1
  Fe  Fe9  1  0.17593400  0.37964900  0.12221200  1
  Si  Si10  1  0.68080900  0.24342300  0.99358900  1
  Si  Si11  1  0.83371600  0.74647400  0.66800300  1
  Si  Si12  1  0.31919100  0.24342300  0.49358900  1
  Si  Si13  1  0.16628400  0.74647400  0.16800300  1
  O  O14  1  0.17461000  0.88919700  0.99762000  1
  O  O15  1  0.38662100  0.29410300  0.98663200  1
  O  O16  1  0.69700800  0.83881300  0.79211900  1
  O  O17  1  0.11748000  0.69554300  0.71542800  1
  O  O18  1  0.78281800  0.22384900  0.81877100  1
  O  O19  1  0.68187600  0.58064300  0.64573800  1
  O  O20  1  0.82539000  0.88919700  0.49762000  1
  O  O21  1  0.16026400  0.38091600  0.56106900  1
  O  O22  1  0.30712500  0.05520100  0.60214900  1
  O  O23  1  0.61337900  0.29410300  0.48663200  1
  O  O24  1  0.30299200  0.83881300  0.29211900  1
  O  O25  1  0.88252000  0.69554300  0.21542800  1
  O  O26  1  0.21718200  0.22384900  0.31877100  1
  O  O27  1  0.31812400  0.58064300  0.14573800  1
  O  O28  1  0.83973600  0.38091600  0.06106900  1
  O  O29  1  0.69287500  0.05520100  0.10214900  1
