# generated using pymatgen
data_Li2Mn(BO3)2
_symmetry_space_group_name_H-M   'P 1'
_cell_length_a   8.49218700
_cell_length_b   5.22209500
_cell_length_c   10.83249509
_cell_angle_alpha   65.43920581
_cell_angle_beta   90.00000000
_cell_angle_gamma   90.00000000
_symmetry_Int_Tables_number   1
_chemical_formula_structural   Li2Mn(BO3)2
_chemical_formula_sum   'Li8 Mn4 B8 O24'
_cell_volume   436.92352316
_cell_formula_units_Z   4
loop_
 _symmetry_equiv_pos_site_id
 _symmetry_equiv_pos_as_xyz
  1  'x, y, z'
loop_
 _atom_site_type_symbol
 _atom_site_label
 _atom_site_symmetry_multiplicity
 _atom_site_fract_x
 _atom_site_fract_y
 _atom_site_fract_z
 _atom_site_occupancy
  Li  Li0  1  0.67010900  0.43638300  0.37618500  1
  Li  Li1  1  0.96240200  0.94495500  0.87648000  1
  Li  Li2  1  0.17010900  0.56361700  0.12381500  1
  Li  Li3  1  0.46240200  0.05504500  0.62352000  1
  Li  Li4  1  0.53759800  0.94495500  0.37648000  1
  Li  Li5  1  0.82989100  0.43638300  0.87618500  1
  Li  Li6  1  0.03759800  0.05504500  0.12352000  1
  Li  Li7  1  0.32989100  0.56361700  0.62381500  1
  Mn  Mn8  1  0.28623300  0.03677500  0.87137200  1
  Mn  Mn9  1  0.78623300  0.96322500  0.62862800  1
  Mn  Mn10  1  0.21376700  0.03677500  0.37137200  1
  Mn  Mn11  1  0.71376700  0.96322500  0.12862800  1
  B  B12  1  0.30629200  0.46289700  0.38011200  1
  B  B13  1  0.63357700  0.95440700  0.86945400  1
  B  B14  1  0.80629200  0.53710300  0.11988800  1
  B  B15  1  0.13357700  0.04559300  0.63054600  1
  B  B16  1  0.86642300  0.95440700  0.36945400  1
  B  B17  1  0.19370800  0.46289700  0.88011200  1
  B  B18  1  0.36642300  0.04559300  0.13054600  1
  B  B19  1  0.69370800  0.53710300  0.61988800  1
  O  O20  1  0.32001700  0.88546500  0.06213900  1
  O  O21  1  0.65740700  0.30825200  0.59455300  1
  O  O22  1  0.90928400  0.76051200  0.09671900  1
  O  O23  1  0.65978600  0.58525000  0.16357600  1
  O  O24  1  0.25414600  0.16808200  0.67607200  1
  O  O25  1  0.98396800  0.07957300  0.66519000  1
  O  O26  1  0.15978600  0.41475000  0.33642400  1
  O  O27  1  0.40928400  0.23948800  0.40328100  1
  O  O28  1  0.48396800  0.92042700  0.83481000  1
  O  O29  1  0.75414600  0.83191800  0.82392800  1
  O  O30  1  0.82001700  0.11453500  0.43786100  1
  O  O31  1  0.15740700  0.69174800  0.90544700  1
  O  O32  1  0.84259300  0.30825200  0.09455300  1
  O  O33  1  0.17998300  0.88546500  0.56213900  1
  O  O34  1  0.24585400  0.16808200  0.17607200  1
  O  O35  1  0.51603200  0.07957300  0.16519000  1
  O  O36  1  0.59071600  0.76051200  0.59671900  1
  O  O37  1  0.84021400  0.58525000  0.66357600  1
  O  O38  1  0.01603200  0.92042700  0.33481000  1
  O  O39  1  0.74585400  0.83191800  0.32392800  1
  O  O40  1  0.34021400  0.41475000  0.83642400  1
  O  O41  1  0.09071600  0.23948800  0.90328100  1
  O  O42  1  0.34259300  0.69174800  0.40544700  1
  O  O43  1  0.67998300  0.11453500  0.93786100  1
