# generated using pymatgen
data_Ba6Li2Ti7(Sb3O14)3
_symmetry_space_group_name_H-M   'P 1'
_cell_length_a   9.26628173
_cell_length_b   9.26628173
_cell_length_c   11.99199568
_cell_angle_alpha   89.93722500
_cell_angle_beta   89.93722500
_cell_angle_gamma   119.86982521
_symmetry_Int_Tables_number   1
_chemical_formula_structural   Ba6Li2Ti7(Sb3O14)3
_chemical_formula_sum   'Ba6 Li2 Ti7 Sb9 O42'
_cell_volume   892.89468864
_cell_formula_units_Z   1
loop_
 _symmetry_equiv_pos_site_id
 _symmetry_equiv_pos_as_xyz
  1  'x, y, z'
loop_
 _atom_site_type_symbol
 _atom_site_label
 _atom_site_symmetry_multiplicity
 _atom_site_fract_x
 _atom_site_fract_y
 _atom_site_fract_z
 _atom_site_occupancy
  Ba  Ba0  1  0.40380900  0.40380900  0.24525800  1
  Ba  Ba1  1  0.58962600  0.58962600  0.75202500  1
  Ba  Ba2  1  0.00134900  0.59537800  0.24539400  1
  Ba  Ba3  1  0.00295700  0.40324100  0.75046800  1
  Ba  Ba4  1  0.40324100  0.00295700  0.75046800  1
  Ba  Ba5  1  0.59537800  0.00134900  0.24539400  1
  Li  Li6  1  0.99907100  0.99907100  0.22825600  1
  Li  Li7  1  0.00526600  0.00526600  0.73643100  1
  Ti  Ti8  1  0.25302400  0.25302400  0.91523800  1
  Ti  Ti9  1  0.25584500  0.25584500  0.60099000  1
  Ti  Ti10  1  0.74209300  0.74209300  0.09748400  1
  Ti  Ti11  1  0.99923900  0.74209600  0.59792000  1
  Ti  Ti12  1  0.25985500  0.00721000  0.09181600  1
  Ti  Ti13  1  0.00721000  0.25985500  0.09181600  1
  Ti  Ti14  1  0.74209600  0.99923900  0.59792000  1
  Sb  Sb15  1  0.75325500  0.75325500  0.41555800  1
  Sb  Sb16  1  0.66650300  0.33342800  0.99953700  1
  Sb  Sb17  1  0.66645600  0.33315900  0.49962700  1
  Sb  Sb18  1  0.00175200  0.75585300  0.91587000  1
  Sb  Sb19  1  0.24550900  0.00063800  0.41361900  1
  Sb  Sb20  1  0.00063800  0.24550900  0.41361900  1
  Sb  Sb21  1  0.33342800  0.66650300  0.99953700  1
  Sb  Sb22  1  0.33315900  0.66645600  0.49962700  1
  Sb  Sb23  1  0.75585300  0.00175200  0.91587000  1
  O  O24  1  0.20488200  0.20488200  0.07249500  1
  O  O25  1  0.20445400  0.20445400  0.42609900  1
  O  O26  1  0.20862400  0.20862400  0.75168300  1
  O  O27  1  0.48238500  0.31259100  0.60213300  1
  O  O28  1  0.47838900  0.31078700  0.89934300  1
  O  O29  1  0.79652400  0.79652400  0.24977400  1
  O  O30  1  0.48675400  0.17090000  0.10488800  1
  O  O31  1  0.48801200  0.17134600  0.39383600  1
  O  O32  1  0.79836600  0.79836600  0.58040800  1
  O  O33  1  0.79409100  0.79409100  0.92740200  1
  O  O34  1  0.68601500  0.51659500  0.10198400  1
  O  O35  1  0.68225000  0.51149900  0.39358100  1
  O  O36  1  0.82696500  0.51264500  0.89273800  1
  O  O37  1  0.83039500  0.51710000  0.60129300  1
  O  O38  1  0.99734700  0.79884400  0.08054900  1
  O  O39  1  0.99990600  0.79526900  0.42719600  1
  O  O40  1  0.68686200  0.16922600  0.60130100  1
  O  O41  1  0.67961500  0.16964700  0.89261100  1
  O  O42  1  0.00157200  0.79909000  0.74928200  1
  O  O43  1  0.82950800  0.31753200  0.39338200  1
  O  O44  1  0.83490600  0.31471800  0.09729000  1
  O  O45  1  0.19865700  0.00039200  0.57934100  1
  O  O46  1  0.20220000  0.99629400  0.92821400  1
  O  O47  1  0.20188900  0.99904600  0.24740200  1
  O  O48  1  0.16922600  0.68686200  0.60130100  1
  O  O49  1  0.16964700  0.67961500  0.89261100  1
  O  O50  1  0.99904600  0.20188900  0.24740200  1
  O  O51  1  0.31471800  0.83490600  0.09729000  1
  O  O52  1  0.31753200  0.82950800  0.39338200  1
  O  O53  1  0.00039200  0.19865700  0.57934100  1
  O  O54  1  0.99629400  0.20220000  0.92821400  1
  O  O55  1  0.17090000  0.48675400  0.10488800  1
  O  O56  1  0.17134600  0.48801200  0.39383600  1
  O  O57  1  0.31259100  0.48238500  0.60213300  1
  O  O58  1  0.31078700  0.47838900  0.89934300  1
  O  O59  1  0.51710000  0.83039500  0.60129300  1
  O  O60  1  0.51264500  0.82696500  0.89273800  1
  O  O61  1  0.51149900  0.68225000  0.39358100  1
  O  O62  1  0.51659500  0.68601500  0.10198400  1
  O  O63  1  0.79909000  0.00157200  0.74928200  1
  O  O64  1  0.79526900  0.99990600  0.42719600  1
  O  O65  1  0.79884400  0.99734700  0.08054900  1
