# generated using pymatgen
data_Li3Bi2(BO3)3
_symmetry_space_group_name_H-M   'P 1'
_cell_length_a   14.14903700
_cell_length_b   5.88216300
_cell_length_c   9.47604871
_cell_angle_alpha   67.14649256
_cell_angle_beta   90.00000000
_cell_angle_gamma   90.00000000
_symmetry_Int_Tables_number   1
_chemical_formula_structural   Li3Bi2(BO3)3
_chemical_formula_sum   'Li12 Bi8 B12 O36'
_cell_volume   726.75322034
_cell_formula_units_Z   4
loop_
 _symmetry_equiv_pos_site_id
 _symmetry_equiv_pos_as_xyz
  1  'x, y, z'
loop_
 _atom_site_type_symbol
 _atom_site_label
 _atom_site_symmetry_multiplicity
 _atom_site_fract_x
 _atom_site_fract_y
 _atom_site_fract_z
 _atom_site_occupancy
  Li  Li0  1  0.66499700  0.41946000  0.50567400  1
  Li  Li1  1  0.71487500  0.56354600  0.71563300  1
  Li  Li2  1  0.21487500  0.43645400  0.78436700  1
  Li  Li3  1  0.61164600  0.93952000  0.70516000  1
  Li  Li4  1  0.11164600  0.06048000  0.79484000  1
  Li  Li5  1  0.83500300  0.41946000  0.00567400  1
  Li  Li6  1  0.16499700  0.58054000  0.99432600  1
  Li  Li7  1  0.88835400  0.93952000  0.20516000  1
  Li  Li8  1  0.38835400  0.06048000  0.29484000  1
  Li  Li9  1  0.78512500  0.56354600  0.21563300  1
  Li  Li10  1  0.28512500  0.43645400  0.28436700  1
  Li  Li11  1  0.33500300  0.58054000  0.49432600  1
  Bi  Bi12  1  0.99180300  0.65032200  0.65462400  1
  Bi  Bi13  1  0.33864100  0.95004500  0.69063000  1
  Bi  Bi14  1  0.49180300  0.34967800  0.84537600  1
  Bi  Bi15  1  0.83864100  0.04995500  0.80937000  1
  Bi  Bi16  1  0.16135900  0.95004500  0.19063000  1
  Bi  Bi17  1  0.50819700  0.65032200  0.15462400  1
  Bi  Bi18  1  0.66135900  0.04995500  0.30937000  1
  Bi  Bi19  1  0.00819700  0.34967800  0.34537600  1
  B  B20  1  0.17860700  0.88873000  0.51701700  1
  B  B21  1  0.51688400  0.73388800  0.51965600  1
  B  B22  1  0.16412600  0.38738500  0.53007700  1
  B  B23  1  0.01688400  0.26611200  0.98034400  1
  B  B24  1  0.67860700  0.11127000  0.98298300  1
  B  B25  1  0.33587400  0.38738500  0.03007700  1
  B  B26  1  0.66412600  0.61261500  0.96992300  1
  B  B27  1  0.32139300  0.88873000  0.01701700  1
  B  B28  1  0.98311600  0.73388800  0.01965600  1
  B  B29  1  0.83587400  0.61261500  0.46992300  1
  B  B30  1  0.48311600  0.26611200  0.48034400  1
  B  B31  1  0.82139300  0.11127000  0.48298300  1
  O  O32  1  0.60504700  0.68432700  0.58535300  1
  O  O33  1  0.43584100  0.65852400  0.61084900  1
  O  O34  1  0.16905600  0.79723700  0.67449100  1
  O  O35  1  0.07353800  0.33885000  0.59416700  1
  O  O36  1  0.83231400  0.51265100  0.62892400  1
  O  O37  1  0.73494100  0.09358000  0.55395900  1
  O  O38  1  0.90335400  0.04397700  0.57400200  1
  O  O39  1  0.24347000  0.33003600  0.62157500  1
  O  O40  1  0.49253900  0.13978600  0.63761700  1
  O  O41  1  0.33231400  0.48734900  0.87107600  1
  O  O42  1  0.66905600  0.20276300  0.82550900  1
  O  O43  1  0.93584100  0.34147600  0.88915100  1
  O  O44  1  0.10504700  0.31567300  0.91464700  1
  O  O45  1  0.99253900  0.86021400  0.86238300  1
  O  O46  1  0.74347000  0.66996400  0.87842500  1
  O  O47  1  0.40335400  0.95602300  0.92599800  1
  O  O48  1  0.23494100  0.90642000  0.94604100  1
  O  O49  1  0.57353800  0.66115000  0.90583300  1
  O  O50  1  0.42646200  0.33885000  0.09416700  1
  O  O51  1  0.76505900  0.09358000  0.05395900  1
  O  O52  1  0.59664600  0.04397700  0.07400200  1
  O  O53  1  0.25653000  0.33003600  0.12157500  1
  O  O54  1  0.00746100  0.13978600  0.13761700  1
  O  O55  1  0.89495300  0.68432700  0.08535300  1
  O  O56  1  0.06415900  0.65852400  0.11084900  1
  O  O57  1  0.33094400  0.79723700  0.17449100  1
  O  O58  1  0.66768600  0.51265100  0.12892400  1
  O  O59  1  0.50746100  0.86021400  0.36238300  1
  O  O60  1  0.75653000  0.66996400  0.37842500  1
  O  O61  1  0.09664600  0.95602300  0.42599800  1
  O  O62  1  0.26505900  0.90642000  0.44604100  1
  O  O63  1  0.16768600  0.48734900  0.37107600  1
  O  O64  1  0.92646200  0.66115000  0.40583300  1
  O  O65  1  0.83094400  0.20276300  0.32550900  1
  O  O66  1  0.56415900  0.34147600  0.38915100  1
  O  O67  1  0.39495300  0.31567300  0.41464700  1
