# generated using pymatgen
data_Li2CoSiO4
_symmetry_space_group_name_H-M   'P 1'
_cell_length_a   5.08836000
_cell_length_b   6.31137400
_cell_length_c   10.77889100
_cell_angle_alpha   90.00000000
_cell_angle_beta   90.00000000
_cell_angle_gamma   90.00000000
_symmetry_Int_Tables_number   1
_chemical_formula_structural   Li2CoSiO4
_chemical_formula_sum   'Li8 Co4 Si4 O16'
_cell_volume   346.15915858
_cell_formula_units_Z   4
loop_
 _symmetry_equiv_pos_site_id
 _symmetry_equiv_pos_as_xyz
  1  'x, y, z'
loop_
 _atom_site_type_symbol
 _atom_site_label
 _atom_site_symmetry_multiplicity
 _atom_site_fract_x
 _atom_site_fract_y
 _atom_site_fract_z
 _atom_site_occupancy
  Li  Li0  1  0.79652200  0.87081400  0.57446200  1
  Li  Li1  1  0.19103400  0.12052800  0.66211000  1
  Li  Li2  1  0.69103400  0.62052800  0.83789000  1
  Li  Li3  1  0.29652200  0.37081400  0.92553800  1
  Li  Li4  1  0.70347800  0.87081400  0.07446200  1
  Li  Li5  1  0.30896600  0.12052800  0.16211000  1
  Li  Li6  1  0.80896600  0.62052800  0.33789000  1
  Li  Li7  1  0.20347800  0.37081400  0.42553800  1
  Co  Co8  1  0.68961400  0.11764500  0.83430100  1
  Co  Co9  1  0.81038600  0.11764500  0.33430100  1
  Co  Co10  1  0.18961400  0.61764500  0.66569900  1
  Co  Co11  1  0.31038600  0.61764500  0.16569900  1
  Si  Si12  1  0.68930800  0.36901600  0.58769200  1
  Si  Si13  1  0.18930800  0.86901600  0.91230800  1
  Si  Si14  1  0.81069200  0.36901600  0.08769200  1
  Si  Si15  1  0.31069200  0.86901600  0.41230800  1
  O  O16  1  0.19798400  0.86926800  0.55580900  1
  O  O17  1  0.36366100  0.36824200  0.58916200  1
  O  O18  1  0.79273000  0.58416800  0.66100900  1
  O  O19  1  0.79718300  0.15365800  0.65954600  1
  O  O20  1  0.29718300  0.65365800  0.84045400  1
  O  O21  1  0.29273000  0.08416800  0.83899100  1
  O  O22  1  0.86366100  0.86824200  0.91083800  1
  O  O23  1  0.69798400  0.36926800  0.94419100  1
  O  O24  1  0.30201600  0.86926800  0.05580900  1
  O  O25  1  0.13633900  0.36824200  0.08916200  1
  O  O26  1  0.70727000  0.58416800  0.16100900  1
  O  O27  1  0.70281700  0.15365800  0.15954600  1
  O  O28  1  0.20281700  0.65365800  0.34045400  1
  O  O29  1  0.20727000  0.08416800  0.33899100  1
  O  O30  1  0.63633900  0.86824200  0.41083800  1
  O  O31  1  0.80201600  0.36926800  0.44419100  1
