# generated using pymatgen
data_Li3B5(HO5)2
_symmetry_space_group_name_H-M   'P 1'
_cell_length_a   6.92498400
_cell_length_b   6.92498400
_cell_length_c   14.68827500
_cell_angle_alpha   90.00000000
_cell_angle_beta   90.00000000
_cell_angle_gamma   90.00000000
_symmetry_Int_Tables_number   1
_chemical_formula_structural   Li3B5(HO5)2
_chemical_formula_sum   'Li12 B20 H8 O40'
_cell_volume   704.38215288
_cell_formula_units_Z   4
loop_
 _symmetry_equiv_pos_site_id
 _symmetry_equiv_pos_as_xyz
  1  'x, y, z'
loop_
 _atom_site_type_symbol
 _atom_site_label
 _atom_site_symmetry_multiplicity
 _atom_site_fract_x
 _atom_site_fract_y
 _atom_site_fract_z
 _atom_site_occupancy
  Li  Li0  1  0.63211000  0.34935100  0.34360300  1
  Li  Li1  1  0.36789000  0.65064900  0.84360300  1
  Li  Li2  1  0.84935100  0.86789000  0.09360300  1
  Li  Li3  1  0.15064900  0.13211000  0.59360300  1
  Li  Li4  1  0.65064900  0.36789000  0.15639700  1
  Li  Li5  1  0.34935100  0.63211000  0.65639700  1
  Li  Li6  1  0.86789000  0.84935100  0.90639700  1
  Li  Li7  1  0.13211000  0.15064900  0.40639700  1
  Li  Li8  1  0.80484900  0.19515100  0.75000000  1
  Li  Li9  1  0.19515100  0.80484900  0.25000000  1
  Li  Li10  1  0.69515100  0.69515100  0.50000000  1
  Li  Li11  1  0.30484900  0.30484900  0.00000000  1
  B  B12  1  0.74542200  0.23822300  0.52215600  1
  B  B13  1  0.25457800  0.76177700  0.02215600  1
  B  B14  1  0.73822300  0.75457800  0.27215600  1
  B  B15  1  0.26177700  0.24542200  0.77215600  1
  B  B16  1  0.76177700  0.25457800  0.97784400  1
  B  B17  1  0.23822300  0.74542200  0.47784400  1
  B  B18  1  0.75457800  0.73822300  0.72784400  1
  B  B19  1  0.24542200  0.26177700  0.22784400  1
  B  B20  1  0.50571900  0.24473200  0.64264300  1
  B  B21  1  0.49428100  0.75526800  0.14264300  1
  B  B22  1  0.74473200  0.99428100  0.39264300  1
  B  B23  1  0.25526800  0.00571900  0.89264300  1
  B  B24  1  0.75526800  0.49428100  0.85735700  1
  B  B25  1  0.24473200  0.50571900  0.35735700  1
  B  B26  1  0.99428100  0.74473200  0.60735700  1
  B  B27  1  0.00571900  0.25526800  0.10735700  1
  B  B28  1  0.06286700  0.93713300  0.75000000  1
  B  B29  1  0.93713300  0.06286700  0.25000000  1
  B  B30  1  0.43713300  0.43713300  0.50000000  1
  B  B31  1  0.56286700  0.56286700  0.00000000  1
  H  H32  1  0.90047500  0.50903100  0.26724600  1
  H  H33  1  0.09952500  0.49096900  0.76724600  1
  H  H34  1  0.00903100  0.59952500  0.01724600  1
  H  H35  1  0.99096900  0.40047500  0.51724600  1
  H  H36  1  0.49096900  0.09952500  0.23275400  1
  H  H37  1  0.50903100  0.90047500  0.73275400  1
  H  H38  1  0.59952500  0.00903100  0.98275400  1
  H  H39  1  0.40047500  0.99096900  0.48275400  1
  O  O40  1  0.64298500  0.40324400  0.48062300  1
  O  O41  1  0.35701500  0.59675600  0.98062300  1
  O  O42  1  0.90324400  0.85701500  0.23062300  1
  O  O43  1  0.09675600  0.14298500  0.73062300  1
  O  O44  1  0.59675600  0.35701500  0.01937700  1
  O  O45  1  0.40324400  0.64298500  0.51937700  1
  O  O46  1  0.85701500  0.90324400  0.76937700  1
  O  O47  1  0.14298500  0.09675600  0.26937700  1
  O  O48  1  0.68759600  0.05067400  0.47803300  1
  O  O49  1  0.31240400  0.94932600  0.97803300  1
  O  O50  1  0.55067400  0.81240400  0.22803300  1
  O  O51  1  0.44932600  0.18759600  0.72803300  1
  O  O52  1  0.94932600  0.31240400  0.02196700  1
  O  O53  1  0.05067400  0.68759600  0.52196700  1
  O  O54  1  0.81240400  0.55067400  0.77196700  1
  O  O55  1  0.18759600  0.44932600  0.27196700  1
  O  O56  1  0.95703800  0.26263200  0.51232700  1
  O  O57  1  0.04296200  0.73736800  0.01232700  1
  O  O58  1  0.76263200  0.54296200  0.26232700  1
  O  O59  1  0.23736800  0.45703800  0.76232700  1
  O  O60  1  0.73736800  0.04296200  0.98767300  1
  O  O61  1  0.26263200  0.95703800  0.48767300  1
  O  O62  1  0.54296200  0.76263200  0.73767300  1
  O  O63  1  0.45703800  0.23736800  0.23767300  1
  O  O64  1  0.82450700  0.12655400  0.33211700  1
  O  O65  1  0.17549300  0.87344600  0.83211700  1
  O  O66  1  0.62655400  0.67549300  0.08211700  1
  O  O67  1  0.37344600  0.32450700  0.58211700  1
  O  O68  1  0.87344600  0.17549300  0.16788300  1
  O  O69  1  0.12655400  0.82450700  0.66788300  1
  O  O70  1  0.67549300  0.62655400  0.91788300  1
  O  O71  1  0.32450700  0.37344600  0.41788300  1
  O  O72  1  0.69510000  0.21918700  0.61991200  1
  O  O73  1  0.30490000  0.78081300  0.11991200  1
  O  O74  1  0.71918700  0.80490000  0.36991200  1
  O  O75  1  0.28081300  0.19510000  0.86991200  1
  O  O76  1  0.78081300  0.30490000  0.88008800  1
  O  O77  1  0.21918700  0.69510000  0.38008800  1
  O  O78  1  0.80490000  0.71918700  0.63008800  1
  O  O79  1  0.19510000  0.28081300  0.13008800  1
