# generated using pymatgen
data_Li4CrGa3O8
_symmetry_space_group_name_H-M   'P 1'
_cell_length_a   5.55319037
_cell_length_b   8.23816382
_cell_length_c   8.20963463
_cell_angle_alpha   104.59526245
_cell_angle_beta   91.56232347
_cell_angle_gamma   88.52521273
_symmetry_Int_Tables_number   1
_chemical_formula_structural   Li4CrGa3O8
_chemical_formula_sum   'Li8 Cr2 Ga6 O16'
_cell_volume   363.25109924
_cell_formula_units_Z   2
loop_
 _symmetry_equiv_pos_site_id
 _symmetry_equiv_pos_as_xyz
  1  'x, y, z'
loop_
 _atom_site_type_symbol
 _atom_site_label
 _atom_site_symmetry_multiplicity
 _atom_site_fract_x
 _atom_site_fract_y
 _atom_site_fract_z
 _atom_site_occupancy
  Li  Li0  1  0.08001900  0.80781400  0.18314700  1
  Li  Li1  1  0.08010600  0.30780600  0.68320400  1
  Li  Li2  1  0.41795600  0.30924600  0.18695600  1
  Li  Li3  1  0.41812200  0.80927500  0.68702400  1
  Li  Li4  1  0.58007300  0.93079000  0.05953500  1
  Li  Li5  1  0.58002000  0.43090200  0.55966000  1
  Li  Li6  1  0.91734600  0.43801600  0.05781500  1
  Li  Li7  1  0.91731900  0.93805900  0.55785100  1
  Cr  Cr8  1  0.91373600  0.18626100  0.30490100  1
  Cr  Cr9  1  0.91422400  0.68625500  0.80475800  1
  Ga  Ga10  1  0.09079300  0.06688600  0.93440900  1
  Ga  Ga11  1  0.09084500  0.56697100  0.43444200  1
  Ga  Ga12  1  0.41134100  0.55863200  0.93911000  1
  Ga  Ga13  1  0.41117100  0.05854900  0.43891600  1
  Ga  Ga14  1  0.58268800  0.18514400  0.81446900  1
  Ga  Ga15  1  0.58272800  0.68512000  0.31453600  1
  O  O16  1  0.08478600  0.24796600  0.12749700  1
  O  O17  1  0.08498200  0.74806400  0.62749000  1
  O  O18  1  0.08706800  0.51349700  0.87899100  1
  O  O19  1  0.08688300  0.01353400  0.37897700  1
  O  O20  1  0.41243400  0.51597600  0.37651800  1
  O  O21  1  0.41242700  0.01599000  0.87651200  1
  O  O22  1  0.42663900  0.74058100  0.13055200  1
  O  O23  1  0.42664000  0.24051400  0.63041700  1
  O  O24  1  0.57065000  0.37643900  0.99597200  1
  O  O25  1  0.57061600  0.87646600  0.49598000  1
  O  O26  1  0.58178900  0.62009600  0.77285200  1
  O  O27  1  0.58168600  0.12000400  0.27277600  1
  O  O28  1  0.90611800  0.62982000  0.26434500  1
  O  O29  1  0.90608700  0.12980100  0.76433000  1
  O  O30  1  0.93633300  0.88589200  0.98617400  1
  O  O31  1  0.93638100  0.38603700  0.48629400  1
