# generated using pymatgen
data_Li4Mn3Fe(BO3)4
_symmetry_space_group_name_H-M   'P 1'
_cell_length_a   5.24608500
_cell_length_b   5.24863047
_cell_length_c   20.97367561
_cell_angle_alpha   90.63465419
_cell_angle_beta   90.99490413
_cell_angle_gamma   119.79723658
_symmetry_Int_Tables_number   1
_chemical_formula_structural   Li4Mn3Fe(BO3)4
_chemical_formula_sum   'Li8 Mn6 Fe2 B8 O24'
_cell_volume   500.94807714
_cell_formula_units_Z   2
loop_
 _symmetry_equiv_pos_site_id
 _symmetry_equiv_pos_as_xyz
  1  'x, y, z'
loop_
 _atom_site_type_symbol
 _atom_site_label
 _atom_site_symmetry_multiplicity
 _atom_site_fract_x
 _atom_site_fract_y
 _atom_site_fract_z
 _atom_site_occupancy
  Li  Li0  1  0.67881100  0.65101700  0.33328500  1
  Li  Li1  1  0.65238300  0.67585500  0.08437000  1
  Li  Li2  1  0.67903900  0.65164800  0.83431700  1
  Li  Li3  1  0.65093400  0.67856400  0.58402700  1
  Li  Li4  1  0.35199200  0.34116200  0.20847900  1
  Li  Li5  1  0.33766700  0.34836000  0.45876300  1
  Li  Li6  1  0.34790000  0.33774300  0.70889600  1
  Li  Li7  1  0.33680200  0.34476300  0.95912700  1
  Mn  Mn8  1  0.67019300  0.00344000  0.44157800  1
  Mn  Mn9  1  0.66731800  0.00333400  0.94322500  1
  Mn  Mn10  1  0.32311600  0.00310500  0.56673000  1
  Mn  Mn11  1  0.00263600  0.32551300  0.31623600  1
  Mn  Mn12  1  0.00296200  0.32254400  0.81720000  1
  Mn  Mn13  1  0.00344500  0.67084900  0.69190700  1
  Fe  Fe14  1  0.31557000  0.99778800  0.06820700  1
  Fe  Fe15  1  0.01092900  0.67039200  0.18978900  1
  B  B16  1  0.99511400  0.33477900  0.06385400  1
  B  B17  1  0.99743000  0.34203000  0.56278400  1
  B  B18  1  0.66939500  0.00928900  0.18692800  1
  B  B19  1  0.66589400  0.00475100  0.68785000  1
  B  B20  1  0.33947200  0.99657400  0.31156200  1
  B  B21  1  0.34187500  0.99761100  0.81294100  1
  B  B22  1  0.00467200  0.66594700  0.43767300  1
  B  B23  1  0.00314100  0.66587500  0.93879100  1
  O  O24  1  0.93143500  0.26083400  0.20619700  1
  O  O25  1  0.92941000  0.24714400  0.70907000  1
  O  O26  1  0.73845600  0.06930900  0.05012700  1
  O  O27  1  0.97761600  0.58223600  0.08208600  1
  O  O28  1  0.74625300  0.07119800  0.54785200  1
  O  O29  1  0.96758600  0.57944800  0.58351100  1
  O  O30  1  0.41784100  0.03216100  0.17322600  1
  O  O31  1  0.73139700  0.64299800  0.43020800  1
  O  O32  1  0.42169400  0.03697900  0.67276000  1
  O  O33  1  0.72991300  0.64331300  0.93121900  1
  O  O34  1  0.65746200  0.74172200  0.18020200  1
  O  O35  1  0.64262500  0.73148500  0.68027200  1
  O  O36  1  0.36721800  0.27203600  0.30449600  1
  O  O37  1  0.37032500  0.27280500  0.80551100  1
  O  O38  1  0.26805300  0.35356700  0.05750200  1
  O  O39  1  0.57878000  0.96873600  0.33250600  1
  O  O40  1  0.27233300  0.37063600  0.55528300  1
  O  O41  1  0.57952300  0.96783900  0.83383300  1
  O  O42  1  0.03658000  0.42212900  0.42235700  1
  O  O43  1  0.03481800  0.42135600  0.92370900  1
  O  O44  1  0.24751100  0.92918500  0.45890200  1
  O  O45  1  0.24563200  0.92866500  0.95992500  1
  O  O46  1  0.06914700  0.74612900  0.29649800  1
  O  O47  1  0.07090400  0.74635300  0.79802800  1
