# generated using pymatgen
data_Li2MgCr3(SO4)6
_symmetry_space_group_name_H-M   'P 1'
_cell_length_a   9.03371434
_cell_length_b   9.05692420
_cell_length_c   8.97672351
_cell_angle_alpha   56.15010455
_cell_angle_beta   55.79668333
_cell_angle_gamma   54.91501649
_symmetry_Int_Tables_number   1
_chemical_formula_structural   Li2MgCr3(SO4)6
_chemical_formula_sum   'Li2 Mg1 Cr3 S6 O24'
_cell_volume   466.42678640
_cell_formula_units_Z   1
loop_
 _symmetry_equiv_pos_site_id
 _symmetry_equiv_pos_as_xyz
  1  'x, y, z'
loop_
 _atom_site_type_symbol
 _atom_site_label
 _atom_site_symmetry_multiplicity
 _atom_site_fract_x
 _atom_site_fract_y
 _atom_site_fract_z
 _atom_site_occupancy
  Li  Li0  1  0.18173690  0.42661187  0.76224827  1
  Li  Li1  1  0.76434717  0.17955426  0.42794527  1
  Mg  Mg2  1  0.35500498  0.35449059  0.34761601  1
  Cr  Cr3  1  0.16311704  0.14363438  0.15580868  1
  Cr  Cr4  1  0.64262874  0.64429749  0.64569756  1
  Cr  Cr5  1  0.84718761  0.84799252  0.85517502  1
  S  S6  1  0.03197431  0.74342526  0.47164366  1
  S  S7  1  0.54567693  0.95210436  0.25617964  1
  S  S8  1  0.25251173  0.55222353  0.94708729  1
  S  S9  1  0.75306675  0.46655317  0.03598802  1
  S  S10  1  0.46383783  0.03657664  0.75014607  1
  S  S11  1  0.95295142  0.24670021  0.55043992  1
  O  O12  1  0.99281672  0.94832487  0.35421305  1
  O  O13  1  0.02249806  0.70537738  0.66533609  1
  O  O14  1  0.35853216  0.96470772  0.29019672  1
  O  O15  1  0.04641884  0.68963801  0.97625300  1
  O  O16  1  0.49222510  0.89669722  0.69279463  1
  O  O17  1  0.22652719  0.61511148  0.38782878  1
  O  O18  1  0.67560168  0.97502076  0.05113468  1
  O  O19  1  0.37952863  0.64348463  0.75760748  1
  O  O20  1  0.29666249  0.50763720  0.10397166  1
  O  O21  1  0.10817647  0.28709597  0.51165229  1
  O  O22  1  0.63840291  0.75745095  0.38134314  1
  O  O23  1  0.27909775  0.37780409  0.93973073  1
  O  O24  1  0.71909496  0.65433797  0.02396937  1
  O  O25  1  0.37754638  0.23528675  0.62450489  1
  O  O26  1  0.88648850  0.69188015  0.50303874  1
  O  O27  1  0.69387570  0.49461410  0.89614182  1
  O  O28  1  0.63616963  0.37365229  0.23281837  1
  O  O29  1  0.34142503  0.00779474  0.95266188  1
  O  O30  1  0.75835277  0.38119893  0.63570771  1
  O  O31  1  0.52045367  0.10267330  0.29674569  1
  O  O32  1  0.96303317  0.33748211  0.99890686  1
  O  O33  1  0.65876798  0.02220043  0.70996168  1
  O  O34  1  0.95573196  0.27014103  0.36854016  1
  O  O35  1  0.97303086  0.04622365  0.68526519  1
