# generated using pymatgen
data_Li4Cu5F17
_symmetry_space_group_name_H-M   'P 1'
_cell_length_a   6.45307400
_cell_length_b   9.49745902
_cell_length_c   11.37776213
_cell_angle_alpha   103.38800900
_cell_angle_beta   94.93763275
_cell_angle_gamma   109.50856341
_symmetry_Int_Tables_number   1
_chemical_formula_structural   Li4Cu5F17
_chemical_formula_sum   'Li8 Cu10 F34'
_cell_volume   629.19082267
_cell_formula_units_Z   2
loop_
 _symmetry_equiv_pos_site_id
 _symmetry_equiv_pos_as_xyz
  1  'x, y, z'
loop_
 _atom_site_type_symbol
 _atom_site_label
 _atom_site_symmetry_multiplicity
 _atom_site_fract_x
 _atom_site_fract_y
 _atom_site_fract_z
 _atom_site_occupancy
  Li  Li0  1  0.74363600  0.76497000  0.03188900  1
  Li  Li1  1  0.68581500  0.93146300  0.35684800  1
  Li  Li2  1  0.20895200  0.41745800  0.32466700  1
  Li  Li3  1  0.07736000  0.27966700  0.55164900  1
  Li  Li4  1  0.92264000  0.72033300  0.44835100  1
  Li  Li5  1  0.79104800  0.58254200  0.67533300  1
  Li  Li6  1  0.31418500  0.06853700  0.64315200  1
  Li  Li7  1  0.25636400  0.23503000  0.96811100  1
  Cu  Cu8  1  0.77326000  0.95826200  0.65616400  1
  Cu  Cu9  1  0.33488300  0.68563000  0.62066400  1
  Cu  Cu10  1  0.24752600  0.54943300  0.84007500  1
  Cu  Cu11  1  0.19117500  0.71484000  0.19426600  1
  Cu  Cu12  1  0.27920400  0.87392200  0.98531100  1
  Cu  Cu13  1  0.72079600  0.12607800  0.01468900  1
  Cu  Cu14  1  0.80882500  0.28516000  0.80573400  1
  Cu  Cu15  1  0.75247400  0.45056700  0.15992500  1
  Cu  Cu16  1  0.66511700  0.31437000  0.37933600  1
  Cu  Cu17  1  0.22674000  0.04173800  0.34383600  1
  F  F18  1  0.93072800  0.00082700  0.28034400  1
  F  F19  1  0.79170800  0.86963700  0.49016400  1
  F  F20  1  0.65975200  0.74479300  0.67834900  1
  F  F21  1  0.54572500  0.59402800  0.89639200  1
  F  F22  1  0.59876800  0.91717200  0.03422800  1
  F  F23  1  0.49082800  0.75404800  0.23926100  1
  F  F24  1  0.35534200  0.60362800  0.45714600  1
  F  F25  1  0.26809000  0.48481400  0.65715000  1
  F  F26  1  0.02058700  0.16739600  0.05502600  1
  F  F27  1  0.44349200  0.90285700  0.61025500  1
  F  F28  1  0.21627700  0.66082500  0.00845800  1
  F  F29  1  0.13214700  0.33893800  0.85934100  1
  F  F30  1  0.30981800  0.75014500  0.80119100  1
  F  F31  1  0.07816300  0.50488300  0.21370300  1
  F  F32  1  0.25863000  0.92881500  0.17807100  1
  F  F33  1  0.96696900  0.33402000  0.41558600  1
  F  F34  1  0.15808100  0.83681000  0.37078700  1
  F  F35  1  0.84191900  0.16319000  0.62921300  1
  F  F36  1  0.03303100  0.66598000  0.58441400  1
  F  F37  1  0.74137000  0.07118500  0.82192900  1
  F  F38  1  0.92183700  0.49511700  0.78629700  1
  F  F39  1  0.69018200  0.24985500  0.19880900  1
  F  F40  1  0.86785300  0.66106200  0.14065900  1
  F  F41  1  0.78372300  0.33917500  0.99154200  1
  F  F42  1  0.55650800  0.09714300  0.38974500  1
  F  F43  1  0.97941300  0.83260400  0.94497400  1
  F  F44  1  0.73191000  0.51518600  0.34285000  1
  F  F45  1  0.64465800  0.39637200  0.54285400  1
  F  F46  1  0.50917200  0.24595200  0.76073900  1
  F  F47  1  0.40123200  0.08282800  0.96577200  1
  F  F48  1  0.45427500  0.40597200  0.10360800  1
  F  F49  1  0.34024800  0.25520700  0.32165100  1
  F  F50  1  0.20829200  0.13036300  0.50983600  1
  F  F51  1  0.06927200  0.99917300  0.71965600  1
