# generated using pymatgen
data_Li2Cr3BiO8
_symmetry_space_group_name_H-M   'P 1'
_cell_length_a   8.65059900
_cell_length_b   8.67136817
_cell_length_c   8.70228301
_cell_angle_alpha   90.25237633
_cell_angle_beta   90.63629026
_cell_angle_gamma   90.39509662
_symmetry_Int_Tables_number   1
_chemical_formula_structural   Li2Cr3BiO8
_chemical_formula_sum   'Li8 Cr12 Bi4 O32'
_cell_volume   652.71792716
_cell_formula_units_Z   4
loop_
 _symmetry_equiv_pos_site_id
 _symmetry_equiv_pos_as_xyz
  1  'x, y, z'
loop_
 _atom_site_type_symbol
 _atom_site_label
 _atom_site_symmetry_multiplicity
 _atom_site_fract_x
 _atom_site_fract_y
 _atom_site_fract_z
 _atom_site_occupancy
  Li  Li0  1  0.99975800  0.00239900  0.00100700  1
  Li  Li1  1  0.75169500  0.75003800  0.75007000  1
  Li  Li2  1  0.24834500  0.24795500  0.74950200  1
  Li  Li3  1  0.50028100  0.00153800  0.49924600  1
  Li  Li4  1  0.00026700  0.50123700  0.49942500  1
  Li  Li5  1  0.24978800  0.74970700  0.24832600  1
  Li  Li6  1  0.75124000  0.24707200  0.24971100  1
  Li  Li7  1  0.49993800  0.50153200  0.00226800  1
  Cr  Cr8  1  0.37440900  0.85981900  0.89023700  1
  Cr  Cr9  1  0.14216600  0.60767600  0.87499400  1
  Cr  Cr10  1  0.88906300  0.37630000  0.86119200  1
  Cr  Cr11  1  0.38650800  0.62323500  0.63947900  1
  Cr  Cr12  1  0.64501600  0.39052100  0.62552300  1
  Cr  Cr13  1  0.87393200  0.13853700  0.60849100  1
  Cr  Cr14  1  0.62534900  0.63704500  0.38598100  1
  Cr  Cr15  1  0.86084100  0.89111600  0.37359600  1
  Cr  Cr16  1  0.11024300  0.12485600  0.36150200  1
  Cr  Cr17  1  0.60791900  0.87473200  0.14310000  1
  Cr  Cr18  1  0.36181000  0.11187800  0.12563300  1
  Cr  Cr19  1  0.12574600  0.36203800  0.11212400  1
  Bi  Bi20  1  0.62585300  0.12444400  0.87702300  1
  Bi  Bi21  1  0.12337900  0.87585300  0.62410400  1
  Bi  Bi22  1  0.37528800  0.37368100  0.37540600  1
  Bi  Bi23  1  0.87665800  0.62571000  0.12523500  1
  O  O24  1  0.60774600  0.86289600  0.91473200  1
  O  O25  1  0.36409800  0.09182100  0.89536200  1
  O  O26  1  0.12291900  0.38852500  0.88221100  1
  O  O27  1  0.14082400  0.83443600  0.88585700  1
  O  O28  1  0.91520500  0.61008600  0.86386700  1
  O  O29  1  0.36204800  0.62651600  0.86779400  1
  O  O30  1  0.65623800  0.38741400  0.85302200  1
  O  O31  1  0.88411000  0.14578100  0.84167200  1
  O  O32  1  0.38611000  0.85374500  0.65824700  1
  O  O33  1  0.15663600  0.61283400  0.64521200  1
  O  O34  1  0.86074500  0.37418700  0.63069000  1
  O  O35  1  0.40804800  0.38679100  0.62540500  1
  O  O36  1  0.63791500  0.16592000  0.61439400  1
  O  O37  1  0.61992200  0.60860500  0.61678100  1
  O  O38  1  0.86199800  0.90799700  0.60507000  1
  O  O39  1  0.10562600  0.13521800  0.59425100  1
  O  O40  1  0.38919100  0.62317100  0.40343100  1
  O  O41  1  0.62658800  0.40180100  0.39076700  1
  O  O42  1  0.88139000  0.11961900  0.38068600  1
  O  O43  1  0.85566400  0.65560200  0.38313000  1
  O  O44  1  0.09352000  0.89279100  0.36451400  1
  O  O45  1  0.62608000  0.86720500  0.36119700  1
  O  O46  1  0.34927900  0.12543800  0.36149800  1
  O  O47  1  0.12564000  0.36205300  0.34823200  1
  O  O48  1  0.61388600  0.64469000  0.15646500  1
  O  O49  1  0.83375100  0.88636600  0.13965500  1
  O  O50  1  0.13247800  0.13276100  0.13230700  1
  O  O51  1  0.59451600  0.10495000  0.13507000  1
  O  O52  1  0.36265800  0.34841000  0.12659800  1
  O  O53  1  0.38840300  0.88182700  0.12233300  1
  O  O54  1  0.13717700  0.59483500  0.10397900  1
  O  O55  1  0.89396300  0.36664800  0.09239100  1
