# generated using pymatgen
data_Li6V2O5F2
_symmetry_space_group_name_H-M   'P 1'
_cell_length_a   5.95996500
_cell_length_b   5.20524600
_cell_length_c   10.11934469
_cell_angle_alpha   70.30715719
_cell_angle_beta   90.00000000
_cell_angle_gamma   90.00000000
_symmetry_Int_Tables_number   1
_chemical_formula_structural   Li6V2O5F2
_chemical_formula_sum   'Li12 V4 O10 F4'
_cell_volume   295.57215338
_cell_formula_units_Z   2
loop_
 _symmetry_equiv_pos_site_id
 _symmetry_equiv_pos_as_xyz
  1  'x, y, z'
loop_
 _atom_site_type_symbol
 _atom_site_label
 _atom_site_symmetry_multiplicity
 _atom_site_fract_x
 _atom_site_fract_y
 _atom_site_fract_z
 _atom_site_occupancy
  Li  Li0  1  0.03672300  0.19963100  0.13513100  1
  Li  Li1  1  0.48671700  0.23615200  0.14768000  1
  Li  Li2  1  0.76118300  0.82527800  0.13071900  1
  Li  Li3  1  0.97744100  0.79179600  0.36847700  1
  Li  Li4  1  0.53600300  0.76875400  0.34746200  1
  Li  Li5  1  0.23564300  0.16640600  0.37120300  1
  Li  Li6  1  0.23881700  0.82527800  0.63071900  1
  Li  Li7  1  0.96327700  0.19963100  0.63513100  1
  Li  Li8  1  0.51328300  0.23615200  0.64768000  1
  Li  Li9  1  0.76435700  0.16640600  0.87120300  1
  Li  Li10  1  0.02255900  0.79179600  0.86847700  1
  Li  Li11  1  0.46399700  0.76875400  0.84746200  1
  V  V12  1  0.26736900  0.73446200  0.12885900  1
  V  V13  1  0.75202400  0.26715300  0.37058300  1
  V  V14  1  0.73263100  0.73446200  0.62885900  1
  V  V15  1  0.24797600  0.26715300  0.87058300  1
  O  O16  1  0.25434400  0.49981500  0.99980900  1
  O  O17  1  0.02760400  0.99171400  0.00378600  1
  O  O18  1  0.26014800  0.94849100  0.25425600  1
  O  O19  1  0.76063900  0.05057300  0.24668000  1
  O  O20  1  0.53452500  0.52330600  0.23393700  1
  O  O21  1  0.97239600  0.99171400  0.50378600  1
  O  O22  1  0.74565600  0.49981500  0.49980900  1
  O  O23  1  0.46547500  0.52330600  0.73393700  1
  O  O24  1  0.73985200  0.94849100  0.75425600  1
  O  O25  1  0.23936100  0.05057300  0.74668000  1
  F  F26  1  0.03494000  0.47857600  0.26565500  1
  F  F27  1  0.49053600  0.01789100  0.49576100  1
  F  F28  1  0.96506000  0.47857600  0.76565500  1
  F  F29  1  0.50946400  0.01789100  0.99576100  1
