# generated using pymatgen
data_Li4Co7O3F13
_symmetry_space_group_name_H-M   'P 1'
_cell_length_a   6.17185571
_cell_length_b   6.09317773
_cell_length_c   10.53983591
_cell_angle_alpha   105.48486193
_cell_angle_beta   73.19646053
_cell_angle_gamma   120.72935933
_symmetry_Int_Tables_number   1
_chemical_formula_structural   Li4Co7O3F13
_chemical_formula_sum   'Li4 Co7 O3 F13'
_cell_volume   322.71863188
_cell_formula_units_Z   1
loop_
 _symmetry_equiv_pos_site_id
 _symmetry_equiv_pos_as_xyz
  1  'x, y, z'
loop_
 _atom_site_type_symbol
 _atom_site_label
 _atom_site_symmetry_multiplicity
 _atom_site_fract_x
 _atom_site_fract_y
 _atom_site_fract_z
 _atom_site_occupancy
  Li  Li0  1  0.84033316  0.71809832  0.06116814  1
  Li  Li1  1  0.68946248  0.77967092  0.44099986  1
  Li  Li2  1  0.31376529  0.20811977  0.55949627  1
  Li  Li3  1  0.17384388  0.29515006  0.94241706  1
  Co  Co4  1  0.22824621  0.73722325  0.24984409  1
  Co  Co5  1  0.23442747  0.23537868  0.22884579  1
  Co  Co6  1  0.98111088  0.48829202  0.49956560  1
  Co  Co7  1  0.49785228  0.00878313  -0.00129360  1
  Co  Co8  1  0.77039885  0.27308836  0.25298829  1
  Co  Co9  1  0.24643467  0.75315375  0.74851764  1
  Co  Co10  1  0.74157045  0.74466076  0.75085954  1
  O  O11  1  0.17272845  0.90916867  0.13297203  1
  O  O12  1  0.13226342  0.37825902  0.14165731  1
  O  O13  1  0.89481650  0.60303148  0.37378324  1
  F  F14  1  0.62200724  0.90268872  0.13569576  1
  F  F15  1  0.62227916  0.37318249  0.12692233  1
  F  F16  1  0.11344674  0.86968893  0.62902933  1
  F  F17  1  0.36014945  0.58910269  0.36606348  1
  F  F18  1  0.60396513  0.84874668  0.63647601  1
  F  F19  1  0.13817817  0.41763560  0.61601271  1
  F  F20  1  0.38569470  0.13332632  0.36005855  1
  F  F21  1  0.63468464  0.40314876  0.62463291  1
  F  F22  1  0.89324081  0.11944310  0.37231402  1
  F  F23  1  0.37036268  0.63272148  0.87279559  1
  F  F24  1  0.35729880  0.09248185  0.87742908  1
  F  F25  1  0.88959410  0.65208815  0.86626677  1
  F  F26  1  0.84184338  0.08366504  0.88448016  1
