# generated using pymatgen
data_LiMn3(P3O10)2
_symmetry_space_group_name_H-M   'P 1'
_cell_length_a   8.39785220
_cell_length_b   8.39785220
_cell_length_c   12.01263800
_cell_angle_alpha   90.00000000
_cell_angle_beta   90.00000000
_cell_angle_gamma   105.12841714
_symmetry_Int_Tables_number   1
_chemical_formula_structural   LiMn3(P3O10)2
_chemical_formula_sum   'Li2 Mn6 P12 O40'
_cell_volume   817.81794213
_cell_formula_units_Z   2
loop_
 _symmetry_equiv_pos_site_id
 _symmetry_equiv_pos_as_xyz
  1  'x, y, z'
loop_
 _atom_site_type_symbol
 _atom_site_label
 _atom_site_symmetry_multiplicity
 _atom_site_fract_x
 _atom_site_fract_y
 _atom_site_fract_z
 _atom_site_occupancy
  Li  Li0  1  0.56904800  0.56904800  0.00000000  1
  Li  Li1  1  0.43095200  0.43095200  0.50000000  1
  Mn  Mn2  1  0.14135000  0.14135000  0.50000000  1
  Mn  Mn3  1  0.70636300  0.29363700  0.25000000  1
  Mn  Mn4  1  0.76173000  0.23827000  0.75000000  1
  Mn  Mn5  1  0.29363700  0.70636300  0.75000000  1
  Mn  Mn6  1  0.23827000  0.76173000  0.25000000  1
  Mn  Mn7  1  0.85865000  0.85865000  0.00000000  1
  P  P8  1  0.09454500  0.36824300  0.17970900  1
  P  P9  1  0.36824300  0.09454500  0.82029100  1
  P  P10  1  0.19012700  0.31563600  0.72310600  1
  P  P11  1  0.31563600  0.19012700  0.27689400  1
  P  P12  1  0.15164100  0.73586200  0.51266300  1
  P  P13  1  0.73586200  0.15164100  0.48733700  1
  P  P14  1  0.84835900  0.26413800  0.01266300  1
  P  P15  1  0.26413800  0.84835900  0.98733700  1
  P  P16  1  0.80987300  0.68436400  0.22310600  1
  P  P17  1  0.68436400  0.80987300  0.77689400  1
  P  P18  1  0.90545500  0.63175700  0.67970900  1
  P  P19  1  0.63175700  0.90545500  0.32029100  1
  O  O20  1  0.17565600  0.21465300  0.18748600  1
  O  O21  1  0.21465300  0.17565600  0.81251400  1
  O  O22  1  0.03460600  0.36560300  0.05293900  1
  O  O23  1  0.36560300  0.03460600  0.94706100  1
  O  O24  1  0.28617400  0.30022200  0.61661000  1
  O  O25  1  0.30022200  0.28617400  0.38339000  1
  O  O26  1  0.67120800  0.05534700  0.24309100  1
  O  O27  1  0.05534700  0.67120800  0.75690900  1
  O  O28  1  0.47792800  0.26895300  0.21576000  1
  O  O29  1  0.26895300  0.47792800  0.78424000  1
  O  O30  1  0.99331500  0.72526900  0.20199000  1
  O  O31  1  0.72526900  0.99331500  0.79801000  1
  O  O32  1  0.22863400  0.52239000  0.19844900  1
  O  O33  1  0.52239000  0.22863400  0.80155100  1
  O  O34  1  0.16550400  0.67234500  0.39527500  1
  O  O35  1  0.67234500  0.16550400  0.60472500  1
  O  O36  1  0.08522600  0.83814500  0.97368800  1
  O  O37  1  0.83814500  0.08522600  0.02631200  1
  O  O38  1  0.27115000  0.67228800  0.58903400  1
  O  O39  1  0.67228800  0.27115000  0.41096600  1
  O  O40  1  0.72885000  0.32771200  0.08903400  1
  O  O41  1  0.32771200  0.72885000  0.91096600  1
  O  O42  1  0.91477400  0.16185500  0.47368800  1
  O  O43  1  0.16185500  0.91477400  0.52631200  1
  O  O44  1  0.83449600  0.32765500  0.89527500  1
  O  O45  1  0.32765500  0.83449600  0.10472500  1
  O  O46  1  0.77136600  0.47761000  0.69844900  1
  O  O47  1  0.47761000  0.77136600  0.30155100  1
  O  O48  1  0.00668500  0.27473100  0.70199000  1
  O  O49  1  0.27473100  0.00668500  0.29801000  1
  O  O50  1  0.52207200  0.73104700  0.71576000  1
  O  O51  1  0.73104700  0.52207200  0.28424000  1
  O  O52  1  0.94465300  0.32879200  0.25690900  1
  O  O53  1  0.32879200  0.94465300  0.74309100  1
  O  O54  1  0.71382600  0.69977800  0.11661000  1
  O  O55  1  0.69977800  0.71382600  0.88339000  1
  O  O56  1  0.96539400  0.63439700  0.55293900  1
  O  O57  1  0.63439700  0.96539400  0.44706100  1
  O  O58  1  0.82434400  0.78534700  0.68748600  1
  O  O59  1  0.78534700  0.82434400  0.31251400  1
