# generated using pymatgen
data_Li6MnNi7O16
_symmetry_space_group_name_H-M   'P 1'
_cell_length_a   6.41620800
_cell_length_b   7.57615552
_cell_length_c   12.71086746
_cell_angle_alpha   95.33240488
_cell_angle_beta   99.12609389
_cell_angle_gamma   114.14664302
_symmetry_Int_Tables_number   1
_chemical_formula_structural   Li6MnNi7O16
_chemical_formula_sum   'Li12 Mn2 Ni14 O32'
_cell_volume   548.07050398
_cell_formula_units_Z   2
loop_
 _symmetry_equiv_pos_site_id
 _symmetry_equiv_pos_as_xyz
  1  'x, y, z'
loop_
 _atom_site_type_symbol
 _atom_site_label
 _atom_site_symmetry_multiplicity
 _atom_site_fract_x
 _atom_site_fract_y
 _atom_site_fract_z
 _atom_site_occupancy
  Li  Li0  1  0.39943400  0.95199500  0.09667100  1
  Li  Li1  1  0.21225300  0.81351200  0.27823900  1
  Li  Li2  1  0.02933500  0.67574400  0.46906400  1
  Li  Li3  1  0.90096800  0.93569700  0.59651600  1
  Li  Li4  1  0.35184700  0.54681300  0.15203500  1
  Li  Li5  1  0.53397800  0.68450000  0.96688400  1
  Li  Li6  1  0.16092200  0.42640600  0.34280200  1
  Li  Li7  1  0.84352300  0.56919800  0.65508800  1
  Li  Li8  1  0.65488000  0.44447600  0.84714400  1
  Li  Li9  1  0.10006700  0.06986000  0.40621000  1
  Li  Li10  1  0.77938800  0.18531100  0.71551200  1
  Li  Li11  1  0.59969400  0.05892100  0.90573000  1
  Mn  Mn12  1  0.18783300  0.12297500  0.81433700  1
  Mn  Mn13  1  0.68817400  0.12484200  0.31325700  1
  Ni  Ni14  1  0.32083100  0.87724200  0.68939200  1
  Ni  Ni15  1  0.11951900  0.74779800  0.87447000  1
  Ni  Ni16  1  0.81672400  0.87644300  0.18897700  1
  Ni  Ni17  1  0.62547800  0.75049600  0.37449200  1
  Ni  Ni18  1  0.43992500  0.62750900  0.56285000  1
  Ni  Ni19  1  0.24907300  0.49818800  0.74937200  1
  Ni  Ni20  1  0.93783100  0.62364500  0.06300800  1
  Ni  Ni21  1  0.06530800  0.37757500  0.93756300  1
  Ni  Ni22  1  0.74525400  0.49852600  0.24901700  1
  Ni  Ni23  1  0.56725100  0.37719100  0.43905000  1
  Ni  Ni24  1  0.36645400  0.24666700  0.62297800  1
  Ni  Ni25  1  0.87157300  0.24881800  0.12406900  1
  Ni  Ni26  1  0.99907500  0.00112800  0.99958300  1
  Ni  Ni27  1  0.49785300  0.00111000  0.49885000  1
  O  O28  1  0.23073400  0.98487400  0.54702200  1
  O  O29  1  0.08361700  0.88353200  0.13654900  1
  O  O30  1  0.04286700  0.85862200  0.73452300  1
  O  O31  1  0.72957100  0.98603300  0.04887300  1
  O  O32  1  0.53573800  0.86030900  0.23486000  1
  O  O33  1  0.58313000  0.90592700  0.62332600  1
  O  O34  1  0.21386600  0.63653700  0.01324800  1
  O  O35  1  0.35304700  0.73950400  0.42339700  1
  O  O36  1  0.38794300  0.76501100  0.82677200  1
  O  O37  1  0.01357700  0.51060300  0.20093300  1
  O  O38  1  0.17446600  0.61926100  0.61452400  1
  O  O39  1  0.89955400  0.77004500  0.32783100  1
  O  O40  1  0.66987700  0.61769600  0.11630900  1
  O  O41  1  0.71315200  0.64774700  0.51608100  1
  O  O42  1  0.85829500  0.73281500  0.93046000  1
  O  O43  1  0.48464700  0.49020800  0.30199600  1
  O  O44  1  0.51294300  0.50562800  0.69865400  1
  O  O45  1  0.30115500  0.36298600  0.48498400  1
  O  O46  1  0.13144300  0.27706200  0.06106300  1
  O  O47  1  0.33260300  0.39093900  0.88687500  1
  O  O48  1  0.10243900  0.21783800  0.68494100  1
  O  O49  1  0.83180200  0.39215600  0.38615200  1
  O  O50  1  0.98269300  0.47418900  0.80749100  1
  O  O51  1  0.60895600  0.21802800  0.18534400  1
  O  O52  1  0.79998100  0.36353800  0.98298700  1
  O  O53  1  0.63654100  0.26108300  0.57576800  1
  O  O54  1  0.41610800  0.09535200  0.37377000  1
  O  O55  1  0.46410900  0.13903900  0.76726700  1
  O  O56  1  0.26382000  0.01781900  0.94241700  1
  O  O57  1  0.95879900  0.13978200  0.26786600  1
  O  O58  1  0.76222700  0.01692700  0.44448800  1
  O  O59  1  0.91781000  0.12070200  0.86101900  1
