# generated using pymatgen
data_Li2V2F7
_symmetry_space_group_name_H-M   'P 1'
_cell_length_a   4.90819000
_cell_length_b   7.88246500
_cell_length_c   13.01164415
_cell_angle_alpha   86.74727155
_cell_angle_beta   90.00000000
_cell_angle_gamma   90.00000000
_symmetry_Int_Tables_number   1
_chemical_formula_structural   Li2V2F7
_chemical_formula_sum   'Li8 V8 F28'
_cell_volume   502.59176584
_cell_formula_units_Z   4
loop_
 _symmetry_equiv_pos_site_id
 _symmetry_equiv_pos_as_xyz
  1  'x, y, z'
loop_
 _atom_site_type_symbol
 _atom_site_label
 _atom_site_symmetry_multiplicity
 _atom_site_fract_x
 _atom_site_fract_y
 _atom_site_fract_z
 _atom_site_occupancy
  Li  Li0  1  0.28968700  0.98421900  0.84454100  1
  Li  Li1  1  0.26771400  0.93697900  0.31266000  1
  Li  Li2  1  0.75649400  0.71390600  0.73375400  1
  Li  Li3  1  0.27569600  0.55996300  0.90883400  1
  Li  Li4  1  0.77569600  0.44003700  0.09116600  1
  Li  Li5  1  0.25649400  0.28609400  0.26624600  1
  Li  Li6  1  0.76771400  0.06302100  0.68734000  1
  Li  Li7  1  0.78968700  0.01578100  0.15545900  1
  V  V8  1  0.78811100  0.82872300  0.95164500  1
  V  V9  1  0.26949000  0.82768400  0.54177300  1
  V  V10  1  0.26341700  0.65869900  0.16850500  1
  V  V11  1  0.76714500  0.57231900  0.38728600  1
  V  V12  1  0.26714500  0.42768100  0.61271400  1
  V  V13  1  0.76341700  0.34130100  0.83149500  1
  V  V14  1  0.76949000  0.17231600  0.45822700  1
  V  V15  1  0.28811100  0.17127700  0.04835500  1
  F  F16  1  0.50316100  0.97648900  0.43774000  1
  F  F17  1  0.93908200  0.91416900  0.80559500  1
  F  F18  1  0.11901500  0.94261100  0.01681800  1
  F  F19  1  0.52364900  0.87263700  0.65319100  1
  F  F20  1  0.03618300  0.84403700  0.20919600  1
  F  F21  1  0.45256500  0.76340200  0.87128100  1
  F  F22  1  0.03362600  0.77323100  0.42398800  1
  F  F23  1  0.57504400  0.74798800  0.08991600  1
  F  F24  1  0.48837100  0.71434900  0.29318000  1
  F  F25  1  0.05250000  0.66078700  0.63262100  1
  F  F26  1  0.93106500  0.56866700  0.84480600  1
  F  F27  1  0.49606500  0.61277900  0.51567700  1
  F  F28  1  0.05030800  0.60044100  0.04032200  1
  F  F29  1  0.51410500  0.48793200  0.74083000  1
  F  F30  1  0.01410500  0.51206800  0.25917000  1
  F  F31  1  0.55030800  0.39955900  0.95967800  1
  F  F32  1  0.99606500  0.38722100  0.48432300  1
  F  F33  1  0.43106500  0.43133300  0.15519400  1
  F  F34  1  0.55250000  0.33921300  0.36737900  1
  F  F35  1  0.98837100  0.28565100  0.70682000  1
  F  F36  1  0.07504400  0.25201200  0.91008400  1
  F  F37  1  0.53362600  0.22676900  0.57601200  1
  F  F38  1  0.95256500  0.23659800  0.12871900  1
  F  F39  1  0.53618300  0.15596300  0.79080400  1
  F  F40  1  0.02364900  0.12736300  0.34680900  1
  F  F41  1  0.61901500  0.05738900  0.98318200  1
  F  F42  1  0.43908200  0.08583100  0.19440500  1
  F  F43  1  0.00316100  0.02351100  0.56226000  1
