# generated using pymatgen
data_Li4Fe3Ni(PO4)4
_symmetry_space_group_name_H-M   'P 1'
_cell_length_a   6.06380000
_cell_length_b   4.74194400
_cell_length_c   10.37245300
_cell_angle_alpha   89.68175885
_cell_angle_beta   90.00000000
_cell_angle_gamma   90.00000000
_symmetry_Int_Tables_number   1
_chemical_formula_structural   Li4Fe3Ni(PO4)4
_chemical_formula_sum   'Li4 Fe3 Ni1 P4 O16'
_cell_volume   298.24698766
_cell_formula_units_Z   1
loop_
 _symmetry_equiv_pos_site_id
 _symmetry_equiv_pos_as_xyz
  1  'x, y, z'
loop_
 _atom_site_type_symbol
 _atom_site_label
 _atom_site_symmetry_multiplicity
 _atom_site_fract_x
 _atom_site_fract_y
 _atom_site_fract_z
 _atom_site_occupancy
  Li  Li0  1  0.25056900  0.99931300  0.00248300  1
  Li  Li1  1  0.74943100  0.99931300  0.00248300  1
  Li  Li2  1  0.75141500  0.49989700  0.49708800  1
  Li  Li3  1  0.24858500  0.49989700  0.49708800  1
  Fe  Fe4  1  0.00000000  0.47569300  0.78054400  1
  Fe  Fe5  1  0.50000000  0.52360900  0.22017500  1
  Fe  Fe6  1  0.50000000  0.97385900  0.71830100  1
  Ni  Ni7  1  0.00000000  0.01718900  0.27834000  1
  P  P8  1  0.50000000  0.08322700  0.40473400  1
  P  P9  1  0.50000000  0.41615600  0.90566700  1
  P  P10  1  0.00000000  0.58129600  0.09700300  1
  P  P11  1  0.00000000  0.92040300  0.59184400  1
  O  O12  1  0.50000000  0.20662500  0.54339200  1
  O  O13  1  0.29397600  0.21746300  0.33495500  1
  O  O14  1  0.70602400  0.21746300  0.33495500  1
  O  O15  1  0.00000000  0.24404400  0.59575500  1
  O  O16  1  0.00000000  0.25664600  0.10175400  1
  O  O17  1  0.29609800  0.28289900  0.83530000  1
  O  O18  1  0.70390200  0.28289900  0.83530000  1
  O  O19  1  0.50000000  0.29260400  0.04481100  1
  O  O20  1  0.00000000  0.70280200  0.95767100  1
  O  O21  1  0.79768100  0.71937300  0.16749900  1
  O  O22  1  0.20231900  0.71937300  0.16749900  1
  O  O23  1  0.50000000  0.74026100  0.90306700  1
  O  O24  1  0.50000000  0.75875200  0.40313200  1
  O  O25  1  0.79704000  0.78398800  0.66331600  1
  O  O26  1  0.20296000  0.78398800  0.66331600  1
  O  O27  1  0.00000000  0.80096800  0.45252800  1
