# generated using pymatgen
data_LiCrPO5
_symmetry_space_group_name_H-M   'P 1'
_cell_length_a   9.58103600
_cell_length_b   5.32279500
_cell_length_c   7.44425076
_cell_angle_alpha   70.83922757
_cell_angle_beta   90.00000000
_cell_angle_gamma   90.00000000
_symmetry_Int_Tables_number   1
_chemical_formula_structural   LiCrPO5
_chemical_formula_sum   'Li4 Cr4 P4 O20'
_cell_volume   358.60946542
_cell_formula_units_Z   4
loop_
 _symmetry_equiv_pos_site_id
 _symmetry_equiv_pos_as_xyz
  1  'x, y, z'
loop_
 _atom_site_type_symbol
 _atom_site_label
 _atom_site_symmetry_multiplicity
 _atom_site_fract_x
 _atom_site_fract_y
 _atom_site_fract_z
 _atom_site_occupancy
  Li  Li0  1  0.59516300  0.44757100  0.70428900  1
  Li  Li1  1  0.09516300  0.55242900  0.79571100  1
  Li  Li2  1  0.90483700  0.44757100  0.20428900  1
  Li  Li3  1  0.40483700  0.55242900  0.29571100  1
  Cr  Cr4  1  0.41609700  0.00195400  0.65579600  1
  Cr  Cr5  1  0.91609700  0.99804600  0.84420400  1
  Cr  Cr6  1  0.08390300  0.00195400  0.15579600  1
  Cr  Cr7  1  0.58390300  0.99804600  0.34420400  1
  P  P8  1  0.15160000  0.15707900  0.54387500  1
  P  P9  1  0.34840000  0.15707900  0.04387500  1
  P  P10  1  0.65160000  0.84292100  0.95612500  1
  P  P11  1  0.84840000  0.84292100  0.45612500  1
  O  O12  1  0.71123400  0.68090100  0.49502300  1
  O  O13  1  0.21346300  0.87726000  0.66039300  1
  O  O14  1  0.54875600  0.20364800  0.51240400  1
  O  O15  1  0.91959600  0.82214700  0.64555900  1
  O  O16  1  0.04646200  0.25673100  0.66717700  1
  O  O17  1  0.41959600  0.17785300  0.85444100  1
  O  O18  1  0.71346300  0.12274000  0.83960700  1
  O  O19  1  0.21123400  0.31909900  0.00497700  1
  O  O20  1  0.54646200  0.74326900  0.83282300  1
  O  O21  1  0.95124400  0.20364800  0.01240400  1
  O  O22  1  0.04875600  0.79635200  0.98759600  1
  O  O23  1  0.45353800  0.25673100  0.16717700  1
  O  O24  1  0.78876600  0.68090100  0.99502300  1
  O  O25  1  0.28653700  0.87726000  0.16039300  1
  O  O26  1  0.58040400  0.82214700  0.14555900  1
  O  O27  1  0.95353800  0.74326900  0.33282300  1
  O  O28  1  0.08040400  0.17785300  0.35444100  1
  O  O29  1  0.45124400  0.79635200  0.48759600  1
  O  O30  1  0.78653700  0.12274000  0.33960700  1
  O  O31  1  0.28876600  0.31909900  0.50497700  1
