# generated using pymatgen
data_SrLiLa7(CoO8)2
_symmetry_space_group_name_H-M   'P 1'
_cell_length_a   6.89290600
_cell_length_b   7.57074884
_cell_length_c   7.57322261
_cell_angle_alpha   90.30466310
_cell_angle_beta   105.83193331
_cell_angle_gamma   105.83761206
_symmetry_Int_Tables_number   1
_chemical_formula_structural   SrLiLa7(CoO8)2
_chemical_formula_sum   'Sr1 Li1 La7 Co2 O16'
_cell_volume   364.41848637
_cell_formula_units_Z   1
loop_
 _symmetry_equiv_pos_site_id
 _symmetry_equiv_pos_as_xyz
  1  'x, y, z'
loop_
 _atom_site_type_symbol
 _atom_site_label
 _atom_site_symmetry_multiplicity
 _atom_site_fract_x
 _atom_site_fract_y
 _atom_site_fract_z
 _atom_site_occupancy
  Sr  Sr0  1  0.72195800  0.93450300  0.42718700  1
  Li  Li1  1  0.99503900  0.74962700  0.74804800  1
  La  La2  1  0.72579600  0.42666300  0.93572400  1
  La  La3  1  0.26098200  0.07073800  0.55844200  1
  La  La4  1  0.72323500  0.93620000  0.93719200  1
  La  La5  1  0.28007500  0.56609100  0.56727200  1
  La  La6  1  0.73482400  0.42718500  0.42816800  1
  La  La7  1  0.26789400  0.07156100  0.06980700  1
  La  La8  1  0.27181600  0.56353000  0.07384200  1
  Co  Co9  1  0.00183900  0.25097700  0.75103100  1
  Co  Co10  1  0.00103200  0.74959000  0.24997800  1
  O  O11  1  0.00132700  0.25543300  0.99311500  1
  O  O12  1  0.00436800  0.00859300  0.75135100  1
  O  O13  1  0.32193800  0.33154500  0.83148400  1
  O  O14  1  0.67560300  0.17366100  0.67356300  1
  O  O15  1  0.00434200  0.49469800  0.75512300  1
  O  O16  1  0.00738000  0.25135200  0.51068100  1
  O  O17  1  0.36349800  0.83865400  0.84259000  1
  O  O18  1  0.63804700  0.64877700  0.67106100  1
  O  O19  1  0.37765400  0.34585500  0.34355200  1
  O  O20  1  0.62233700  0.16799900  0.14136600  1
  O  O21  1  0.00501700  0.75056200  0.49400500  1
  O  O22  1  0.00229700  0.50751400  0.24554500  1
  O  O23  1  0.31575300  0.82748400  0.32818200  1
  O  O24  1  0.67277100  0.66348500  0.16358000  1
  O  O25  1  0.00261900  0.99185400  0.25149600  1
  O  O26  1  0.00055800  0.74587500  0.00661800  1
