# generated using pymatgen
data_Li3Fe(Si2O5)3
_symmetry_space_group_name_H-M   'P 1'
_cell_length_a   11.14834433
_cell_length_b   11.14834433
_cell_length_c   10.15298900
_cell_angle_alpha   90.00000000
_cell_angle_beta   90.00000000
_cell_angle_gamma   99.86793776
_symmetry_Int_Tables_number   1
_chemical_formula_structural   Li3Fe(Si2O5)3
_chemical_formula_sum   'Li12 Fe4 Si24 O60'
_cell_volume   1243.20125244
_cell_formula_units_Z   4
loop_
 _symmetry_equiv_pos_site_id
 _symmetry_equiv_pos_as_xyz
  1  'x, y, z'
loop_
 _atom_site_type_symbol
 _atom_site_label
 _atom_site_symmetry_multiplicity
 _atom_site_fract_x
 _atom_site_fract_y
 _atom_site_fract_z
 _atom_site_occupancy
  Li  Li0  1  0.24058700  0.24058700  0.00000000  1
  Li  Li1  1  0.01297500  0.48702500  0.25000000  1
  Li  Li2  1  0.48702500  0.01297500  0.75000000  1
  Li  Li3  1  0.25941300  0.25941300  0.50000000  1
  Li  Li4  1  0.56782500  0.43217500  0.28327100  1
  Li  Li5  1  0.43217500  0.56782500  0.71672900  1
  Li  Li6  1  0.93217500  0.06782500  0.78327100  1
  Li  Li7  1  0.06782500  0.93217500  0.21672900  1
  Li  Li8  1  0.74058700  0.74058700  0.50000000  1
  Li  Li9  1  0.98702500  0.51297500  0.75000000  1
  Li  Li10  1  0.51297500  0.98702500  0.25000000  1
  Li  Li11  1  0.75941300  0.75941300  0.00000000  1
  Fe  Fe12  1  0.34137700  0.15862300  0.25000000  1
  Fe  Fe13  1  0.15862300  0.34137700  0.75000000  1
  Fe  Fe14  1  0.65862300  0.84137700  0.75000000  1
  Fe  Fe15  1  0.84137700  0.65862300  0.25000000  1
  Si  Si16  1  0.04143700  0.18431400  0.19428400  1
  Si  Si17  1  0.18431400  0.04143700  0.80571600  1
  Si  Si18  1  0.45856300  0.31568600  0.69428400  1
  Si  Si19  1  0.31568600  0.45856300  0.30571600  1
  Si  Si20  1  0.01990800  0.76367900  0.51377100  1
  Si  Si21  1  0.76367900  0.01990800  0.48622900  1
  Si  Si22  1  0.51990800  0.26367900  0.98622900  1
  Si  Si23  1  0.26367900  0.51990800  0.01377100  1
  Si  Si24  1  0.08077800  0.70340100  0.04686300  1
  Si  Si25  1  0.58077800  0.20340100  0.45313700  1
  Si  Si26  1  0.70340100  0.08077800  0.95313700  1
  Si  Si27  1  0.20340100  0.58077800  0.54686300  1
  Si  Si28  1  0.79659900  0.41922200  0.45313700  1
  Si  Si29  1  0.29659900  0.91922200  0.04686300  1
  Si  Si30  1  0.91922200  0.29659900  0.95313700  1
  Si  Si31  1  0.41922200  0.79659900  0.54686300  1
  Si  Si32  1  0.48009200  0.73632100  0.01377100  1
  Si  Si33  1  0.98009200  0.23632100  0.48622900  1
  Si  Si34  1  0.23632100  0.98009200  0.51377100  1
  Si  Si35  1  0.73632100  0.48009200  0.98622900  1
  Si  Si36  1  0.68431400  0.54143700  0.69428400  1
  Si  Si37  1  0.54143700  0.68431400  0.30571600  1
  Si  Si38  1  0.81568600  0.95856300  0.19428400  1
  Si  Si39  1  0.95856300  0.81568600  0.80571600  1
  O  O40  1  0.00555400  0.27237400  0.07754800  1
  O  O41  1  0.27237400  0.00555400  0.92245200  1
  O  O42  1  0.02535100  0.25831000  0.33095200  1
  O  O43  1  0.25831000  0.02535100  0.66904800  1
  O  O44  1  0.17294800  0.14967100  0.16582900  1
  O  O45  1  0.14967100  0.17294800  0.83417100  1
  O  O46  1  0.25650000  0.09542500  0.41784600  1
  O  O47  1  0.09542500  0.25650000  0.58215400  1
  O  O48  1  0.00763500  0.64503100  0.17358800  1
  O  O49  1  0.50763500  0.14503100  0.32641200  1
  O  O50  1  0.64503100  0.00763500  0.82641200  1
  O  O51  1  0.14503100  0.50763500  0.67358800  1
  O  O52  1  0.40457500  0.24350000  0.08215400  1
  O  O53  1  0.24350000  0.40457500  0.91784600  1
  O  O54  1  0.32705200  0.35032900  0.66582900  1
  O  O55  1  0.35032900  0.32705200  0.33417100  1
  O  O56  1  0.24169000  0.47464900  0.16904800  1
  O  O57  1  0.47464900  0.24169000  0.83095200  1
  O  O58  1  0.49444600  0.22762600  0.57754800  1
  O  O59  1  0.22762600  0.49444600  0.42245200  1
  O  O60  1  0.66851700  0.11401500  0.51296500  1
  O  O61  1  0.61401500  0.16851700  0.01296500  1
  O  O62  1  0.11401500  0.66851700  0.48703500  1
  O  O63  1  0.16851700  0.61401500  0.98703500  1
  O  O64  1  0.40203800  0.59796200  0.99296500  1
  O  O65  1  0.66139000  0.33861000  0.41042300  1
  O  O66  1  0.05232500  0.94767500  0.80124300  1
  O  O67  1  0.44767500  0.55232500  0.30124300  1
  O  O68  1  0.94767500  0.05232500  0.19875700  1
  O  O69  1  0.90203800  0.09796200  0.50703500  1
  O  O70  1  0.09796200  0.90203800  0.49296500  1
  O  O71  1  0.83861000  0.16139000  0.91042300  1
  O  O72  1  0.55232500  0.44767500  0.69875700  1
  O  O73  1  0.59796200  0.40203800  0.00703500  1
  O  O74  1  0.16139000  0.83861000  0.08957700  1
  O  O75  1  0.33861000  0.66139000  0.58957700  1
  O  O76  1  0.33148300  0.88598500  0.48703500  1
  O  O77  1  0.88598500  0.33148300  0.51296500  1
  O  O78  1  0.83148300  0.38598500  0.01296500  1
  O  O79  1  0.38598500  0.83148300  0.98703500  1
  O  O80  1  0.50555400  0.77237400  0.42245200  1
  O  O81  1  0.77237400  0.50555400  0.57754800  1
  O  O82  1  0.75831000  0.52535100  0.83095200  1
  O  O83  1  0.52535100  0.75831000  0.16904800  1
  O  O84  1  0.67294800  0.64967100  0.33417100  1
  O  O85  1  0.64967100  0.67294800  0.66582900  1
  O  O86  1  0.59542500  0.75650000  0.91784600  1
  O  O87  1  0.75650000  0.59542500  0.08215400  1
  O  O88  1  0.35496900  0.99236500  0.17358800  1
  O  O89  1  0.99236500  0.35496900  0.82641200  1
  O  O90  1  0.85496900  0.49236500  0.32641200  1
  O  O91  1  0.49236500  0.85496900  0.67358800  1
  O  O92  1  0.90457500  0.74350000  0.41784600  1
  O  O93  1  0.74350000  0.90457500  0.58215400  1
  O  O94  1  0.85032900  0.82705200  0.16582900  1
  O  O95  1  0.82705200  0.85032900  0.83417100  1
  O  O96  1  0.74169000  0.97464900  0.33095200  1
  O  O97  1  0.97464900  0.74169000  0.66904800  1
  O  O98  1  0.99444600  0.72762600  0.92245200  1
  O  O99  1  0.72762600  0.99444600  0.07754800  1
