# generated using pymatgen
data_Li4TiCrO6
_symmetry_space_group_name_H-M   'P 1'
_cell_length_a   5.07002419
_cell_length_b   8.76763056
_cell_length_c   9.81108159
_cell_angle_alpha   81.54033241
_cell_angle_beta   94.84840014
_cell_angle_gamma   89.86349445
_symmetry_Int_Tables_number   1
_chemical_formula_structural   Li4TiCrO6
_chemical_formula_sum   'Li16 Ti4 Cr4 O24'
_cell_volume   429.78588248
_cell_formula_units_Z   4
loop_
 _symmetry_equiv_pos_site_id
 _symmetry_equiv_pos_as_xyz
  1  'x, y, z'
loop_
 _atom_site_type_symbol
 _atom_site_label
 _atom_site_symmetry_multiplicity
 _atom_site_fract_x
 _atom_site_fract_y
 _atom_site_fract_z
 _atom_site_occupancy
  Li  Li0  1  0.24853900  0.25193400  0.00025300  1
  Li  Li1  1  0.74786300  0.75113100  0.00036500  1
  Li  Li2  1  0.49834200  0.00157500  0.50046200  1
  Li  Li3  1  0.99880300  0.50164900  0.50012300  1
  Li  Li4  1  0.37443900  0.12333900  0.74976800  1
  Li  Li5  1  0.87510300  0.62324900  0.75039200  1
  Li  Li6  1  0.12815700  0.37402600  0.25003800  1
  Li  Li7  1  0.62807900  0.87390400  0.25006300  1
  Li  Li8  1  0.48654600  0.33520800  0.49900000  1
  Li  Li9  1  0.98775600  0.83519600  0.49911100  1
  Li  Li10  1  0.75267400  0.42391800  0.99854900  1
  Li  Li11  1  0.25361700  0.92384600  0.99899900  1
  Li  Li12  1  0.74736700  0.07402900  0.00141100  1
  Li  Li13  1  0.24771800  0.57391100  0.00124500  1
  Li  Li14  1  0.01652100  0.16335400  0.50127100  1
  Li  Li15  1  0.51560200  0.66331800  0.50096300  1
  Ti  Ti16  1  0.62305000  0.20984800  0.24960100  1
  Ti  Ti17  1  0.12346400  0.70998400  0.24947000  1
  Ti  Ti18  1  0.86973600  0.29318400  0.74879700  1
  Ti  Ti19  1  0.37595800  0.79335800  0.75049600  1
  Cr  Cr20  1  0.62763000  0.54054000  0.25060800  1
  Cr  Cr21  1  0.37236300  0.45684000  0.74964000  1
  Cr  Cr22  1  0.12716200  0.04087000  0.25029000  1
  Cr  Cr23  1  0.87683800  0.95674000  0.75068700  1
  O  O24  1  0.32566500  0.17940400  0.36654200  1
  O  O25  1  0.82579600  0.67929200  0.36660000  1
  O  O26  1  0.41910600  0.07119700  0.13568300  1
  O  O27  1  0.91904300  0.57096200  0.13588400  1
  O  O28  1  0.06831900  0.42668000  0.86582400  1
  O  O29  1  0.56776300  0.92728400  0.86688800  1
  O  O30  1  0.18323200  0.32557000  0.63559200  1
  O  O31  1  0.68440200  0.82622300  0.63574000  1
  O  O32  1  0.56475600  0.28834200  0.86231000  1
  O  O33  1  0.06389600  0.78764700  0.86209700  1
  O  O34  1  0.71478400  0.14109600  0.63788400  1
  O  O35  1  0.21637800  0.64074600  0.63825100  1
  O  O36  1  0.78617400  0.36169200  0.36236100  1
  O  O37  1  0.28617500  0.86184800  0.36210200  1
  O  O38  1  0.93112600  0.21289900  0.13819100  1
  O  O39  1  0.43113600  0.71268000  0.13831800  1
  O  O40  1  0.46103300  0.39216900  0.13565800  1
  O  O41  1  0.96102500  0.89228900  0.13548700  1
  O  O42  1  0.68052300  0.46592200  0.63519400  1
  O  O43  1  0.18163200  0.96550900  0.63563200  1
  O  O44  1  0.82730800  0.03424600  0.36146100  1
  O  O45  1  0.32730100  0.53410100  0.36151800  1
  O  O46  1  0.03468900  0.10329900  0.86133400  1
  O  O47  1  0.53541200  0.60395300  0.86184900  1
