# generated using pymatgen
data_Li4Co7(OF7)2
_symmetry_space_group_name_H-M   'P 1'
_cell_length_a   6.20193554
_cell_length_b   6.19164764
_cell_length_c   10.58859414
_cell_angle_alpha   91.01050725
_cell_angle_beta   71.79392711
_cell_angle_gamma   121.49368461
_symmetry_Int_Tables_number   1
_chemical_formula_structural   Li4Co7(OF7)2
_chemical_formula_sum   'Li4 Co7 O2 F14'
_cell_volume   323.99062151
_cell_formula_units_Z   1
loop_
 _symmetry_equiv_pos_site_id
 _symmetry_equiv_pos_as_xyz
  1  'x, y, z'
loop_
 _atom_site_type_symbol
 _atom_site_label
 _atom_site_symmetry_multiplicity
 _atom_site_fract_x
 _atom_site_fract_y
 _atom_site_fract_z
 _atom_site_occupancy
  Li  Li0  1  0.98433335  0.00709879  0.99132463  1
  Li  Li1  1  0.28295306  0.60842381  0.12435765  1
  Li  Li2  1  0.26566665  0.11790121  0.63367537  1
  Li  Li3  1  0.96704694  0.51657619  0.50064235  1
  Co  Co4  1  0.62500000  0.06250000  0.31250000  1
  Co  Co5  1  0.62966114  0.32878356  0.06656367  1
  Co  Co6  1  0.12500000  0.06250000  0.31250000  1
  Co  Co7  1  0.62500000  0.06250000  0.81250000  1
  Co  Co8  1  0.62500000  0.56250000  0.31250000  1
  Co  Co9  1  0.62500000  0.56250000  0.81250000  1
  Co  Co10  1  0.62033886  0.79621644  0.55843633  1
  O  O11  1  0.85328665  0.71734970  0.42221184  1
  O  O12  1  0.39671335  0.40765030  0.20278816  1
  F  F13  1  0.85727766  0.18026608  0.43369261  1
  F  F14  1  0.87488400  0.42117095  0.19091489  1
  F  F15  1  0.83336611  0.41989885  0.69778168  1
  F  F16  1  0.82874890  0.18366461  0.94380167  1
  F  F17  1  0.38561604  0.17708315  0.43486293  1
  F  F18  1  0.86438396  0.94791685  0.19013707  1
  F  F19  1  0.83874009  0.67317094  0.94032214  1
  F  F20  1  0.38281768  0.19272245  0.93580361  1
  F  F21  1  0.37511600  0.70382905  0.43408511  1
  F  F22  1  0.86718232  0.93227755  0.68919639  1
  F  F23  1  0.41125991  0.45182906  0.68467786  1
  F  F24  1  0.39272234  0.94473392  0.19130739  1
  F  F25  1  0.42125110  0.94133539  0.68119833  1
  F  F26  1  0.41663389  0.70510115  0.92721832  1
