# generated using pymatgen
data_Li7Cr2P7O24
_symmetry_space_group_name_H-M   'P 1'
_cell_length_a   5.05855500
_cell_length_b   12.13068100
_cell_length_c   15.07091415
_cell_angle_alpha   83.68058619
_cell_angle_beta   90.00000000
_cell_angle_gamma   90.00000000
_symmetry_Int_Tables_number   1
_chemical_formula_structural   Li7Cr2P7O24
_chemical_formula_sum   'Li14 Cr4 P14 O48'
_cell_volume   919.18791963
_cell_formula_units_Z   2
loop_
 _symmetry_equiv_pos_site_id
 _symmetry_equiv_pos_as_xyz
  1  'x, y, z'
loop_
 _atom_site_type_symbol
 _atom_site_label
 _atom_site_symmetry_multiplicity
 _atom_site_fract_x
 _atom_site_fract_y
 _atom_site_fract_z
 _atom_site_occupancy
  Li  Li0  1  0.26516300  0.48220500  0.05493000  1
  Li  Li1  1  0.17902200  0.10964700  0.13297200  1
  Li  Li2  1  0.73483700  0.98220500  0.05493000  1
  Li  Li3  1  0.82097800  0.60964700  0.13297200  1
  Li  Li4  1  0.83382500  0.43422700  0.40423100  1
  Li  Li5  1  0.16617500  0.93422700  0.40423100  1
  Li  Li6  1  0.28979800  0.25000000  0.50000000  1
  Li  Li7  1  0.71020200  0.75000000  0.50000000  1
  Li  Li8  1  0.83382500  0.06577300  0.59576900  1
  Li  Li9  1  0.16617500  0.56577300  0.59576900  1
  Li  Li10  1  0.17902200  0.39035300  0.86702800  1
  Li  Li11  1  0.26516300  0.01779500  0.94507000  1
  Li  Li12  1  0.82097800  0.89035300  0.86702800  1
  Li  Li13  1  0.73483700  0.51779500  0.94507000  1
  Cr  Cr14  1  0.37333200  0.29323600  0.28557400  1
  Cr  Cr15  1  0.62666800  0.79323600  0.28557400  1
  Cr  Cr16  1  0.37333200  0.20676400  0.71442600  1
  Cr  Cr17  1  0.62666800  0.70676400  0.71442600  1
  P  P18  1  0.56444300  0.25000000  0.00000000  1
  P  P19  1  0.43555700  0.75000000  0.00000000  1
  P  P20  1  0.87472900  0.34365100  0.14081700  1
  P  P21  1  0.12527100  0.84365100  0.14081700  1
  P  P22  1  0.62203600  0.05029200  0.26756600  1
  P  P23  1  0.37796400  0.55029200  0.26756600  1
  P  P24  1  0.86013400  0.19041500  0.39438700  1
  P  P25  1  0.13986600  0.69041500  0.39438700  1
  P  P26  1  0.86013400  0.30958500  0.60561300  1
  P  P27  1  0.13986600  0.80958500  0.60561300  1
  P  P28  1  0.62203600  0.44970800  0.73243400  1
  P  P29  1  0.37796400  0.94970800  0.73243400  1
  P  P30  1  0.87472900  0.15634900  0.85918300  1
  P  P31  1  0.12527100  0.65634900  0.85918300  1
  O  O32  1  0.41377700  0.14210300  0.01544200  1
  O  O33  1  0.58622300  0.64210300  0.01544200  1
  O  O34  1  0.77078000  0.24762300  0.08152800  1
  O  O35  1  0.87334400  0.45264000  0.08034200  1
  O  O36  1  0.22922000  0.74762300  0.08152800  1
  O  O37  1  0.12665600  0.95264000  0.08034200  1
  O  O38  1  0.14891400  0.29977700  0.17081800  1
  O  O39  1  0.73590500  0.02570900  0.18063500  1
  O  O40  1  0.68786100  0.34236400  0.21924200  1
  O  O41  1  0.85108600  0.79977700  0.17081800  1
  O  O42  1  0.26409500  0.52570900  0.18063500  1
  O  O43  1  0.38867900  0.13284500  0.25818500  1
  O  O44  1  0.31213900  0.84236400  0.21924200  1
  O  O45  1  0.61132100  0.63284500  0.25818500  1
  O  O46  1  0.86247800  0.10854900  0.31778700  1
  O  O47  1  0.13752200  0.60854900  0.31778700  1
  O  O48  1  0.05189400  0.28580300  0.36301400  1
  O  O49  1  0.44739900  0.44705700  0.33379900  1
  O  O50  1  0.57691600  0.23709300  0.40076600  1
  O  O51  1  0.94810600  0.78580300  0.36301400  1
  O  O52  1  0.55260100  0.94705700  0.33379900  1
  O  O53  1  0.42308400  0.73709300  0.40076600  1
  O  O54  1  0.96064300  0.12445600  0.47870300  1
  O  O55  1  0.03935700  0.62445600  0.47870300  1
  O  O56  1  0.96064300  0.37554400  0.52129700  1
  O  O57  1  0.03935700  0.87554400  0.52129700  1
  O  O58  1  0.57691600  0.26290700  0.59923400  1
  O  O59  1  0.44739900  0.05294300  0.66620100  1
  O  O60  1  0.05189400  0.21419700  0.63698600  1
  O  O61  1  0.42308400  0.76290700  0.59923400  1
  O  O62  1  0.55260100  0.55294300  0.66620100  1
  O  O63  1  0.94810600  0.71419700  0.63698600  1
  O  O64  1  0.86247800  0.39145100  0.68221300  1
  O  O65  1  0.13752200  0.89145100  0.68221300  1
  O  O66  1  0.38867900  0.36715500  0.74181500  1
  O  O67  1  0.68786100  0.15763600  0.78075800  1
  O  O68  1  0.61132100  0.86715500  0.74181500  1
  O  O69  1  0.73590500  0.47429100  0.81936500  1
  O  O70  1  0.14891400  0.20022300  0.82918200  1
  O  O71  1  0.31213900  0.65763600  0.78075800  1
  O  O72  1  0.26409500  0.97429100  0.81936500  1
  O  O73  1  0.85108600  0.70022300  0.82918200  1
  O  O74  1  0.87334400  0.04736000  0.91965800  1
  O  O75  1  0.77078000  0.25237700  0.91847200  1
  O  O76  1  0.12665600  0.54736000  0.91965800  1
  O  O77  1  0.22922000  0.75237700  0.91847200  1
  O  O78  1  0.41377700  0.35789700  0.98455800  1
  O  O79  1  0.58622300  0.85789700  0.98455800  1
