# generated using pymatgen
data_LiMnPO5
_symmetry_space_group_name_H-M   'P 1'
_cell_length_a   10.24925300
_cell_length_b   4.96714400
_cell_length_c   7.21242949
_cell_angle_alpha   67.60427224
_cell_angle_beta   90.00000000
_cell_angle_gamma   90.00000000
_symmetry_Int_Tables_number   1
_chemical_formula_structural   LiMnPO5
_chemical_formula_sum   'Li4 Mn4 P4 O20'
_cell_volume   339.48643892
_cell_formula_units_Z   4
loop_
 _symmetry_equiv_pos_site_id
 _symmetry_equiv_pos_as_xyz
  1  'x, y, z'
loop_
 _atom_site_type_symbol
 _atom_site_label
 _atom_site_symmetry_multiplicity
 _atom_site_fract_x
 _atom_site_fract_y
 _atom_site_fract_z
 _atom_site_occupancy
  Li  Li0  1  0.40321800  0.96045500  0.66626800  1
  Li  Li1  1  0.90321800  0.03954500  0.83373200  1
  Li  Li2  1  0.09678200  0.96045500  0.16626800  1
  Li  Li3  1  0.59678200  0.03954500  0.33373200  1
  Mn  Mn4  1  0.57145700  0.44632900  0.68065500  1
  Mn  Mn5  1  0.07145700  0.55367100  0.81934500  1
  Mn  Mn6  1  0.92854300  0.44632900  0.18065500  1
  Mn  Mn7  1  0.42854300  0.55367100  0.31934500  1
  P  P8  1  0.15078300  0.19120900  0.52951500  1
  P  P9  1  0.34921700  0.19120900  0.02951500  1
  P  P10  1  0.65078300  0.80879100  0.97048500  1
  P  P11  1  0.84921700  0.80879100  0.47048500  1
  O  O12  1  0.71908400  0.64656900  0.52405000  1
  O  O13  1  0.18852500  0.86477800  0.64432300  1
  O  O14  1  0.53842300  0.26751400  0.50007800  1
  O  O15  1  0.92570700  0.78251500  0.66340500  1
  O  O16  1  0.06719700  0.30297000  0.66312300  1
  O  O17  1  0.42570700  0.21748500  0.83659500  1
  O  O18  1  0.68852500  0.13522200  0.85567700  1
  O  O19  1  0.21908400  0.35343100  0.97595000  1
  O  O20  1  0.56719700  0.69703000  0.83687700  1
  O  O21  1  0.96157700  0.26751400  0.00007800  1
  O  O22  1  0.03842300  0.73248600  0.99992200  1
  O  O23  1  0.43280300  0.30297000  0.16312300  1
  O  O24  1  0.78091600  0.64656900  0.02405000  1
  O  O25  1  0.31147500  0.86477800  0.14432300  1
  O  O26  1  0.57429300  0.78251500  0.16340500  1
  O  O27  1  0.93280300  0.69703000  0.33687700  1
  O  O28  1  0.07429300  0.21748500  0.33659500  1
  O  O29  1  0.46157700  0.73248600  0.49992200  1
  O  O30  1  0.81147500  0.13522200  0.35567700  1
  O  O31  1  0.28091600  0.35343100  0.47595000  1
