# generated using pymatgen
data_LiCr(PO3)4
_symmetry_space_group_name_H-M   'P 1'
_cell_length_a   12.97676200
_cell_length_b   7.64657500
_cell_length_c   11.32013109
_cell_angle_alpha   55.72704428
_cell_angle_beta   90.00000000
_cell_angle_gamma   90.00000000
_symmetry_Int_Tables_number   1
_chemical_formula_structural   LiCr(PO3)4
_chemical_formula_sum   'Li4 Cr4 P16 O48'
_cell_volume   928.23136502
_cell_formula_units_Z   4
loop_
 _symmetry_equiv_pos_site_id
 _symmetry_equiv_pos_as_xyz
  1  'x, y, z'
loop_
 _atom_site_type_symbol
 _atom_site_label
 _atom_site_symmetry_multiplicity
 _atom_site_fract_x
 _atom_site_fract_y
 _atom_site_fract_z
 _atom_site_occupancy
  Li  Li0  1  0.21497700  0.67934700  0.91848900  1
  Li  Li1  1  0.71497700  0.32065300  0.58151100  1
  Li  Li2  1  0.28502300  0.67934700  0.41848900  1
  Li  Li3  1  0.78502300  0.32065300  0.08151100  1
  Cr  Cr4  1  0.29101900  0.09630100  0.50087800  1
  Cr  Cr5  1  0.79101900  0.90369900  0.99912200  1
  Cr  Cr6  1  0.20898100  0.09630100  0.00087800  1
  Cr  Cr7  1  0.70898100  0.90369900  0.49912200  1
  P  P8  1  0.89295100  0.64591000  0.76517500  1
  P  P9  1  0.36292800  0.18534400  0.21070900  1
  P  P10  1  0.58455700  0.06781300  0.22206200  1
  P  P11  1  0.61150700  0.47818800  0.74071100  1
  P  P12  1  0.11150700  0.52181200  0.75928900  1
  P  P13  1  0.08455700  0.93218700  0.27793800  1
  P  P14  1  0.86292800  0.81465600  0.28929100  1
  P  P15  1  0.39295100  0.35409000  0.73482500  1
  P  P16  1  0.60704900  0.64591000  0.26517500  1
  P  P17  1  0.13707200  0.18534400  0.71070900  1
  P  P18  1  0.91544300  0.06781300  0.72206200  1
  P  P19  1  0.88849300  0.47818800  0.24071100  1
  P  P20  1  0.38849300  0.52181200  0.25928900  1
  P  P21  1  0.41544300  0.93218700  0.77793800  1
  P  P22  1  0.63707200  0.81465600  0.78929100  1
  P  P23  1  0.10704900  0.35409000  0.23482500  1
  O  O24  1  0.63878400  0.57508000  0.83278500  1
  O  O25  1  0.60398600  0.07741700  0.35101500  1
  O  O26  1  0.05976400  0.17422100  0.21809700  1
  O  O27  1  0.17552700  0.70907300  0.72096500  1
  O  O28  1  0.82215300  0.75001500  0.63751700  1
  O  O29  1  0.35579500  0.02699500  0.37170700  1
  O  O30  1  0.85706700  0.46375000  0.90507800  1
  O  O31  1  0.61651400  0.66143500  0.58255800  1
  O  O32  1  0.99362500  0.58262500  0.71238000  1
  O  O33  1  0.47249000  0.17002100  0.15487800  1
  O  O34  1  0.28068200  0.16954300  0.12443000  1
  O  O35  1  0.15915800  0.82779000  0.39741200  1
  O  O36  1  0.65915800  0.17221000  0.10258800  1
  O  O37  1  0.49362500  0.41737500  0.78762000  1
  O  O38  1  0.78068200  0.83045700  0.37557000  1
  O  O39  1  0.11651400  0.33856500  0.91744200  1
  O  O40  1  0.97249000  0.82997900  0.34512200  1
  O  O41  1  0.35706700  0.53625000  0.59492200  1
  O  O42  1  0.85579500  0.97300500  0.12829300  1
  O  O43  1  0.32215300  0.24998500  0.86248300  1
  O  O44  1  0.67552700  0.29092700  0.77903500  1
  O  O45  1  0.55976400  0.82577900  0.28190300  1
  O  O46  1  0.13878400  0.42492000  0.66721500  1
  O  O47  1  0.10398600  0.92258300  0.14898500  1
  O  O48  1  0.89601400  0.07741700  0.85101500  1
  O  O49  1  0.86121600  0.57508000  0.33278500  1
  O  O50  1  0.44023600  0.17422100  0.71809700  1
  O  O51  1  0.32447300  0.70907300  0.22096500  1
  O  O52  1  0.67784700  0.75001500  0.13751700  1
  O  O53  1  0.14420500  0.02699500  0.87170700  1
  O  O54  1  0.64293300  0.46375000  0.40507800  1
  O  O55  1  0.02751000  0.17002100  0.65487800  1
  O  O56  1  0.88348600  0.66143500  0.08255800  1
  O  O57  1  0.21931800  0.16954300  0.62443000  1
  O  O58  1  0.50637500  0.58262500  0.21238000  1
  O  O59  1  0.34084200  0.82779000  0.89741200  1
  O  O60  1  0.84084200  0.17221000  0.60258800  1
  O  O61  1  0.71931800  0.83045700  0.87557000  1
  O  O62  1  0.52751000  0.82997900  0.84512200  1
  O  O63  1  0.00637500  0.41737500  0.28762000  1
  O  O64  1  0.38348600  0.33856500  0.41744200  1
  O  O65  1  0.14293300  0.53625000  0.09492200  1
  O  O66  1  0.64420500  0.97300500  0.62829300  1
  O  O67  1  0.17784700  0.24998500  0.36248300  1
  O  O68  1  0.82447300  0.29092700  0.27903500  1
  O  O69  1  0.94023600  0.82577900  0.78190300  1
  O  O70  1  0.39601400  0.92258300  0.64898500  1
  O  O71  1  0.36121600  0.42492000  0.16721500  1
