# generated using pymatgen
data_Li7Sc9Fe(SiO3)20
_symmetry_space_group_name_H-M   'P 1'
_cell_length_a   11.17835305
_cell_length_b   11.17835305
_cell_length_c   12.90077026
_cell_angle_alpha   75.28565241
_cell_angle_beta   75.28565241
_cell_angle_gamma   47.75604242
_symmetry_Int_Tables_number   1
_chemical_formula_structural   Li7Sc9Fe(SiO3)20
_chemical_formula_sum   'Li7 Sc9 Fe1 Si20 O60'
_cell_volume   1146.39962782
_cell_formula_units_Z   1
loop_
 _symmetry_equiv_pos_site_id
 _symmetry_equiv_pos_as_xyz
  1  'x, y, z'
loop_
 _atom_site_type_symbol
 _atom_site_label
 _atom_site_symmetry_multiplicity
 _atom_site_fract_x
 _atom_site_fract_y
 _atom_site_fract_z
 _atom_site_occupancy
  Li  Li0  1  0.20108100  0.59929300  0.89995800  1
  Li  Li1  1  0.60098400  0.99947300  0.79924000  1
  Li  Li2  1  0.99903900  0.39973300  0.69954600  1
  Li  Li3  1  0.79652400  0.20347600  0.50000000  1
  Li  Li4  1  0.60026700  0.00096100  0.30045400  1
  Li  Li5  1  0.00052700  0.39901600  0.20076000  1
  Li  Li6  1  0.40070700  0.79891900  0.10004200  1
  Sc  Sc7  1  0.84242700  0.96316300  0.90038700  1
  Sc  Sc8  1  0.95469700  0.64636400  0.79935000  1
  Sc  Sc9  1  0.63791400  0.75812500  0.69791100  1
  Sc  Sc10  1  0.74684900  0.45016700  0.59936900  1
  Sc  Sc11  1  0.54983300  0.25315100  0.40063100  1
  Sc  Sc12  1  0.24187500  0.36208600  0.30208900  1
  Sc  Sc13  1  0.35363600  0.04530300  0.20065000  1
  Sc  Sc14  1  0.03683700  0.15757300  0.09961300  1
  Sc  Sc15  1  0.15230700  0.84769300  0.00000000  1
  Fe  Fe16  1  0.44111800  0.55888200  0.50000000  1
  Si  Si17  1  0.77228400  0.49966100  0.93155600  1
  Si  Si18  1  0.30060000  0.02946000  0.86717900  1
  Si  Si19  1  0.56926400  0.30039200  0.73233600  1
  Si  Si20  1  0.50077100  0.56907400  0.83431400  1
  Si  Si21  1  0.03400900  0.09624300  0.76371600  1
  Si  Si22  1  0.29816900  0.37718200  0.63215100  1
  Si  Si23  1  0.82783400  0.90087900  0.56594000  1
  Si  Si24  1  0.10451100  0.82454800  0.66443800  1
  Si  Si25  1  0.37160700  0.10305800  0.53035800  1
  Si  Si26  1  0.89694200  0.62839300  0.46964200  1
  Si  Si27  1  0.09912100  0.17216600  0.43406000  1
  Si  Si28  1  0.62281800  0.70183100  0.36784900  1
  Si  Si29  1  0.90375700  0.96599100  0.23628400  1
  Si  Si30  1  0.17545200  0.89548900  0.33556200  1
  Si  Si31  1  0.69960800  0.43073600  0.26766400  1
  Si  Si32  1  0.97054000  0.69940000  0.13282100  1
  Si  Si33  1  0.50033900  0.22771600  0.06844400  1
  Si  Si34  1  0.43092600  0.49922900  0.16568600  1
  Si  Si35  1  0.69773900  0.77431800  0.03163400  1
  Si  Si36  1  0.22568200  0.30226100  0.96836600  1
  O  O37  1  0.09327400  0.49206000  0.92191800  1
  O  O38  1  0.76007100  0.83052100  0.91439100  1
  O  O39  1  0.27773200  0.18703700  0.87955900  1
  O  O40  1  0.04310100  0.76882200  0.78277300  1
  O  O41  1  0.70656700  0.11081800  0.77643100  1
  O  O42  1  0.61215100  0.52515000  0.92313000  1
  O  O43  1  0.49036800  0.89623200  0.82129400  1
  O  O44  1  0.82742800  0.56219200  0.81376700  1
  O  O45  1  0.41035400  0.32229300  0.72491000  1
  O  O46  1  0.98383300  0.02814700  0.87973900  1
  O  O47  1  0.31104900  0.70329800  0.87989800  1
  O  O48  1  0.18611300  0.08179700  0.77753500  1
  O  O49  1  0.77086000  0.84111300  0.68423400  1
  O  O50  1  0.10768900  0.50783700  0.67754800  1
  O  O51  1  0.52031500  0.41381800  0.82112400  1
  O  O52  1  0.98566800  0.87896600  0.57733600  1
  O  O53  1  0.89669600  0.28534800  0.71749500  1
  O  O54  1  0.56882100  0.61959600  0.71854000  1
  O  O55  1  0.32253600  0.21972900  0.61699200  1
  O  O56  1  0.69614900  0.09143800  0.52016900  1
  O  O57  1  0.37055700  0.42591800  0.51743900  1
  O  O58  1  0.08326800  0.98137700  0.67513500  1
  O  O59  1  0.83652300  0.57181600  0.58762100  1
  O  O60  1  0.51489200  0.91635500  0.57400200  1
  O  O61  1  0.87114400  0.78846100  0.47858100  1
  O  O62  1  0.29231000  0.67975400  0.62006900  1
  O  O63  1  0.62428600  0.36244600  0.61420000  1
  O  O64  1  0.21153900  0.12885600  0.52141900  1
  O  O65  1  0.08364500  0.48510800  0.42599800  1
  O  O66  1  0.42818400  0.16347700  0.41237900  1
  O  O67  1  0.57408200  0.62944300  0.48256100  1
  O  O68  1  0.90856200  0.30385100  0.47983100  1
  O  O69  1  0.78027100  0.67746400  0.38300800  1
  O  O70  1  0.38040400  0.43117900  0.28146000  1
  O  O71  1  0.71465200  0.10330400  0.28250500  1
  O  O72  1  0.12103400  0.01433200  0.42266400  1
  O  O73  1  0.49216300  0.89231100  0.32245200  1
  O  O74  1  0.15888700  0.22914000  0.31576600  1
  O  O75  1  0.63755400  0.37571400  0.38580000  1
  O  O76  1  0.91820300  0.81388700  0.22246500  1
  O  O77  1  0.32024600  0.70769000  0.37993100  1
  O  O78  1  0.67770700  0.58964600  0.27509000  1
  O  O79  1  0.43780800  0.17257200  0.18623300  1
  O  O80  1  0.10376800  0.50963200  0.17870600  1
  O  O81  1  0.01862300  0.91673200  0.32486500  1
  O  O82  1  0.47485000  0.38784900  0.07687000  1
  O  O83  1  0.88918200  0.29343300  0.22356900  1
  O  O84  1  0.23117800  0.95689900  0.21722700  1
  O  O85  1  0.81296300  0.72226800  0.12044100  1
  O  O86  1  0.68661800  0.08295900  0.02535500  1
  O  O87  1  0.58618200  0.47968500  0.17887600  1
  O  O88  1  0.02854200  0.75977100  0.01561800  1
  O  O89  1  0.16947900  0.23992900  0.08560900  1
  O  O90  1  0.50794000  0.90672600  0.07808200  1
  O  O91  1  0.38390100  0.27920500  0.98010800  1
  O  O92  1  0.29670200  0.68895100  0.12010200  1
  O  O93  1  0.97185300  0.01616700  0.12026100  1
  O  O94  1  0.72079500  0.61609900  0.01989200  1
  O  O95  1  0.24022900  0.97145800  0.98438200  1
  O  O96  1  0.91704100  0.31338200  0.97464500  1
