# generated using pymatgen
data_Li3MnFeCo(PO4)3
_symmetry_space_group_name_H-M   'P 1'
_cell_length_a   6.09919900
_cell_length_b   10.44457200
_cell_length_c   14.30946319
_cell_angle_alpha   89.90139626
_cell_angle_beta   90.00000000
_cell_angle_gamma   90.00000000
_symmetry_Int_Tables_number   1
_chemical_formula_structural   Li3MnFeCo(PO4)3
_chemical_formula_sum   'Li12 Mn4 Fe4 Co4 P12 O48'
_cell_volume   911.56186896
_cell_formula_units_Z   4
loop_
 _symmetry_equiv_pos_site_id
 _symmetry_equiv_pos_as_xyz
  1  'x, y, z'
loop_
 _atom_site_type_symbol
 _atom_site_label
 _atom_site_symmetry_multiplicity
 _atom_site_fract_x
 _atom_site_fract_y
 _atom_site_fract_z
 _atom_site_occupancy
  Li  Li0  1  0.75033300  0.00340900  0.66752800  1
  Li  Li1  1  0.24854700  0.00136100  0.99931000  1
  Li  Li2  1  0.75145300  0.00136100  0.99931000  1
  Li  Li3  1  0.24966800  0.00045000  0.33311600  1
  Li  Li4  1  0.75033200  0.00045000  0.33311600  1
  Li  Li5  1  0.24966700  0.00340900  0.66752800  1
  Li  Li6  1  0.24952200  0.49837800  0.50057000  1
  Li  Li7  1  0.75047800  0.49837800  0.50057000  1
  Li  Li8  1  0.24951800  0.49903200  0.16679100  1
  Li  Li9  1  0.75048200  0.49903200  0.16679100  1
  Li  Li10  1  0.25071800  0.49690900  0.83304400  1
  Li  Li11  1  0.74928200  0.49690900  0.83304400  1
  Mn  Mn12  1  0.50000000  0.78180700  0.49291600  1
  Mn  Mn13  1  0.50000000  0.78168300  0.82575900  1
  Mn  Mn14  1  0.00000000  0.71848000  0.65982200  1
  Mn  Mn15  1  0.50000000  0.28083800  0.00730500  1
  Fe  Fe16  1  0.50000000  0.78197100  0.15857200  1
  Fe  Fe17  1  0.00000000  0.71817300  0.99275900  1
  Fe  Fe18  1  0.00000000  0.71810200  0.32503900  1
  Fe  Fe19  1  0.50000000  0.28092600  0.34128700  1
  Co  Co20  1  0.50000000  0.27648000  0.67089100  1
  Co  Co21  1  0.00000000  0.22230000  0.84034600  1
  Co  Co22  1  0.00000000  0.22173700  0.50468800  1
  Co  Co23  1  0.00000000  0.21836700  0.17320700  1
  P  P24  1  0.00000000  0.90870000  0.80624300  1
  P  P25  1  0.00000000  0.90590700  0.13974000  1
  P  P26  1  0.00000000  0.90847200  0.47131200  1
  P  P27  1  0.50000000  0.59345000  0.30573700  1
  P  P28  1  0.50000000  0.58929700  0.63938400  1
  P  P29  1  0.50000000  0.59467500  0.97360200  1
  P  P30  1  0.00000000  0.40465900  0.36021300  1
  P  P31  1  0.00000000  0.40557000  0.02793200  1
  P  P32  1  0.00000000  0.40220600  0.69460900  1
  P  P33  1  0.50000000  0.09566300  0.85910900  1
  P  P34  1  0.50000000  0.09469900  0.19431200  1
  P  P35  1  0.50000000  0.09733700  0.52822600  1
  O  O36  1  0.50000000  0.95696100  0.23635000  1
  O  O37  1  0.50000000  0.95937100  0.56942300  1
  O  O38  1  0.50000000  0.95862600  0.90221600  1
  O  O39  1  0.00000000  0.90378000  0.57853800  1
  O  O40  1  0.00000000  0.90292300  0.91390800  1
  O  O41  1  0.00000000  0.90248800  0.24712500  1
  O  O42  1  0.20249000  0.83532300  0.09498000  1
  O  O43  1  0.79751000  0.83532300  0.09498000  1
  O  O44  1  0.20122600  0.83811200  0.42607100  1
  O  O45  1  0.79877400  0.83811200  0.42607100  1
  O  O46  1  0.20136200  0.83859500  0.76079700  1
  O  O47  1  0.79863800  0.83859500  0.76079700  1
  O  O48  1  0.70132500  0.65980900  0.59437900  1
  O  O49  1  0.29867500  0.65980900  0.59437900  1
  O  O50  1  0.70274800  0.66481000  0.26174400  1
  O  O51  1  0.29725200  0.66481000  0.26174400  1
  O  O52  1  0.70287100  0.66541400  0.92964400  1
  O  O53  1  0.29712900  0.66541400  0.92964400  1
  O  O54  1  0.50000000  0.59557200  0.41300900  1
  O  O55  1  0.50000000  0.59631200  0.08127300  1
  O  O56  1  0.50000000  0.59435000  0.74669300  1
  O  O57  1  0.00000000  0.54229000  0.40178600  1
  O  O58  1  0.00000000  0.54419400  0.06769600  1
  O  O59  1  0.00000000  0.54032600  0.73592000  1
  O  O60  1  0.50000000  0.45605300  0.26397800  1
  O  O61  1  0.50000000  0.45783900  0.93141100  1
  O  O62  1  0.50000000  0.45082400  0.59898400  1
  O  O63  1  0.00000000  0.40114600  0.25288500  1
  O  O64  1  0.00000000  0.40069600  0.92049600  1
  O  O65  1  0.00000000  0.39999300  0.58667800  1
  O  O66  1  0.20023400  0.33545900  0.07408800  1
  O  O67  1  0.20171100  0.33325700  0.40530200  1
  O  O68  1  0.20261200  0.33233900  0.73961100  1
  O  O69  1  0.79738800  0.33233900  0.73961100  1
  O  O70  1  0.79976600  0.33545900  0.07408800  1
  O  O71  1  0.79828900  0.33325700  0.40530200  1
  O  O72  1  0.70410000  0.16533600  0.90258900  1
  O  O73  1  0.29590000  0.16533600  0.90258900  1
  O  O74  1  0.70394500  0.16540000  0.23822400  1
  O  O75  1  0.70292100  0.16814500  0.57323700  1
  O  O76  1  0.29605500  0.16540000  0.23822400  1
  O  O77  1  0.29707900  0.16814500  0.57323700  1
  O  O78  1  0.50000000  0.09801800  0.75158500  1
  O  O79  1  0.50000000  0.09847100  0.42055900  1
  O  O80  1  0.50000000  0.09599100  0.08695500  1
  O  O81  1  0.00000000  0.04699600  0.76638300  1
  O  O82  1  0.00000000  0.04444800  0.09926000  1
  O  O83  1  0.00000000  0.04776200  0.43183000  1
