# generated using pymatgen
data_Li4Mn3Cr3(FeO8)2
_symmetry_space_group_name_H-M   'P 1'
_cell_length_a   5.86174100
_cell_length_b   5.86671070
_cell_length_c   9.51301648
_cell_angle_alpha   90.21955144
_cell_angle_beta   90.29096670
_cell_angle_gamma   119.94580182
_symmetry_Int_Tables_number   1
_chemical_formula_structural   Li4Mn3Cr3(FeO8)2
_chemical_formula_sum   'Li4 Mn3 Cr3 Fe2 O16'
_cell_volume   283.45869258
_cell_formula_units_Z   1
loop_
 _symmetry_equiv_pos_site_id
 _symmetry_equiv_pos_as_xyz
  1  'x, y, z'
loop_
 _atom_site_type_symbol
 _atom_site_label
 _atom_site_symmetry_multiplicity
 _atom_site_fract_x
 _atom_site_fract_y
 _atom_site_fract_z
 _atom_site_occupancy
  Li  Li0  1  0.67039500  0.34173300  0.10721600  1
  Li  Li1  1  0.99769200  0.99381800  0.00274600  1
  Li  Li2  1  0.99817100  0.99777300  0.50367300  1
  Li  Li3  1  0.33848100  0.67084400  0.60714600  1
  Mn  Mn4  1  0.83213600  0.65997900  0.78434400  1
  Mn  Mn5  1  0.66149300  0.83145500  0.28509200  1
  Mn  Mn6  1  0.16891900  0.83130400  0.28519100  1
  Cr  Cr7  1  0.83052100  0.16595500  0.78767900  1
  Cr  Cr8  1  0.33895500  0.16916100  0.78584400  1
  Cr  Cr9  1  0.16877700  0.33866500  0.28591200  1
  Fe  Fe10  1  0.66167600  0.32524700  0.50902500  1
  Fe  Fe11  1  0.32609500  0.66311100  0.01024300  1
  O  O12  1  0.83153400  0.15529400  0.39996100  1
  O  O13  1  0.52941700  0.03878900  0.66549600  1
  O  O14  1  0.67515500  0.34471000  0.89407700  1
  O  O15  1  0.99310300  0.98935800  0.68923600  1
  O  O16  1  0.99411900  0.99069600  0.18968000  1
  O  O17  1  0.32274600  0.15405100  0.40038900  1
  O  O18  1  0.96420000  0.48062600  0.66634400  1
  O  O19  1  0.52678000  0.48678800  0.66091400  1
  O  O20  1  0.15135000  0.32300200  0.89852300  1
  O  O21  1  0.83851700  0.67572800  0.39556000  1
  O  O22  1  0.48814100  0.52795200  0.16239900  1
  O  O23  1  0.03770800  0.52768500  0.16329500  1
  O  O24  1  0.33956400  0.67871100  0.39146300  1
  O  O25  1  0.67498000  0.84046600  0.89517600  1
  O  O26  1  0.48195800  0.96560600  0.16583500  1
  O  O27  1  0.15771900  0.83148900  0.89970200  1
