# generated using pymatgen
data_Li3V5O8
_symmetry_space_group_name_H-M   'P 1'
_cell_length_a   6.07204913
_cell_length_b   6.07204913
_cell_length_c   6.07204930
_cell_angle_alpha   60.00776054
_cell_angle_beta   60.00776054
_cell_angle_gamma   60.00776736
_symmetry_Int_Tables_number   1
_chemical_formula_structural   Li3V5O8
_chemical_formula_sum   'Li3 V5 O8'
_cell_volume   158.33148015
_cell_formula_units_Z   1
loop_
 _symmetry_equiv_pos_site_id
 _symmetry_equiv_pos_as_xyz
  1  'x, y, z'
loop_
 _atom_site_type_symbol
 _atom_site_label
 _atom_site_symmetry_multiplicity
 _atom_site_fract_x
 _atom_site_fract_y
 _atom_site_fract_z
 _atom_site_occupancy
  Li  Li0  1  0.00000000  0.50000000  0.00000000  1
  Li  Li1  1  0.00000000  0.00000000  0.50000000  1
  Li  Li2  1  0.50000000  0.00000000  0.00000000  1
  V  V3  1  0.00000000  0.00000000  0.00000000  1
  V  V4  1  0.50000000  0.00000000  0.50000000  1
  V  V5  1  0.50000000  0.50000000  0.00000000  1
  V  V6  1  0.00000000  0.50000000  0.50000000  1
  V  V7  1  0.50000000  0.50000000  0.50000000  1
  O  O8  1  0.25721100  0.25721100  0.25721100  1
  O  O9  1  0.75022300  0.26980200  0.75022300  1
  O  O10  1  0.75022300  0.75022300  0.26980200  1
  O  O11  1  0.74278900  0.74278900  0.74278900  1
  O  O12  1  0.26980200  0.75022300  0.75022300  1
  O  O13  1  0.24977700  0.73019800  0.24977700  1
  O  O14  1  0.24977700  0.24977700  0.73019800  1
  O  O15  1  0.73019800  0.24977700  0.24977700  1
