# generated using pymatgen
data_Li2MnF5
_symmetry_space_group_name_H-M   'P 1'
_cell_length_a   5.48487200
_cell_length_b   7.58064900
_cell_length_c   9.47166600
_cell_angle_alpha   90.00000000
_cell_angle_beta   90.00000000
_cell_angle_gamma   90.00000000
_symmetry_Int_Tables_number   1
_chemical_formula_structural   Li2MnF5
_chemical_formula_sum   'Li8 Mn4 F20'
_cell_volume   393.82135344
_cell_formula_units_Z   4
loop_
 _symmetry_equiv_pos_site_id
 _symmetry_equiv_pos_as_xyz
  1  'x, y, z'
loop_
 _atom_site_type_symbol
 _atom_site_label
 _atom_site_symmetry_multiplicity
 _atom_site_fract_x
 _atom_site_fract_y
 _atom_site_fract_z
 _atom_site_occupancy
  Li  Li0  1  0.75000000  0.92726200  0.27702700  1
  Li  Li1  1  0.25000000  0.07693200  0.43382800  1
  Li  Li2  1  0.75000000  0.42306800  0.93382800  1
  Li  Li3  1  0.25000000  0.57273800  0.77702700  1
  Li  Li4  1  0.75000000  0.42726200  0.22297300  1
  Li  Li5  1  0.25000000  0.57693200  0.06617200  1
  Li  Li6  1  0.75000000  0.92306800  0.56617200  1
  Li  Li7  1  0.25000000  0.07273800  0.72297300  1
  Mn  Mn8  1  0.25000000  0.18335300  0.05052900  1
  Mn  Mn9  1  0.75000000  0.31664700  0.55052900  1
  Mn  Mn10  1  0.25000000  0.68335300  0.44947100  1
  Mn  Mn11  1  0.75000000  0.81664700  0.94947100  1
  F  F12  1  0.00000000  0.00000000  0.00000000  1
  F  F13  1  0.50000000  0.00000000  0.00000000  1
  F  F14  1  0.25000000  0.11655800  0.23589900  1
  F  F15  1  0.00504500  0.13055300  0.58779800  1
  F  F16  1  0.49495500  0.13055300  0.58779800  1
  F  F17  1  0.75000000  0.24151600  0.36160700  1
  F  F18  1  0.25000000  0.25848400  0.86160700  1
  F  F19  1  0.99495500  0.36944700  0.08779800  1
  F  F20  1  0.50504500  0.36944700  0.08779800  1
  F  F21  1  0.75000000  0.38344200  0.73589900  1
  F  F22  1  0.00000000  0.50000000  0.50000000  1
  F  F23  1  0.50000000  0.50000000  0.50000000  1
  F  F24  1  0.25000000  0.61655800  0.26410100  1
  F  F25  1  0.49495500  0.63055300  0.91220200  1
  F  F26  1  0.00504500  0.63055300  0.91220200  1
  F  F27  1  0.75000000  0.74151600  0.13839300  1
  F  F28  1  0.25000000  0.75848400  0.63839300  1
  F  F29  1  0.99495500  0.86944700  0.41220200  1
  F  F30  1  0.50504500  0.86944700  0.41220200  1
  F  F31  1  0.75000000  0.88344200  0.76410100  1
