# generated using pymatgen
data_Li4Ti2V3Ni3O16
_symmetry_space_group_name_H-M   'P 1'
_cell_length_a   5.86395700
_cell_length_b   5.89264118
_cell_length_c   9.60855606
_cell_angle_alpha   90.50351088
_cell_angle_beta   90.03819299
_cell_angle_gamma   119.74600411
_symmetry_Int_Tables_number   1
_chemical_formula_structural   Li4Ti2V3Ni3O16
_chemical_formula_sum   'Li4 Ti2 V3 Ni3 O16'
_cell_volume   288.25135066
_cell_formula_units_Z   1
loop_
 _symmetry_equiv_pos_site_id
 _symmetry_equiv_pos_as_xyz
  1  'x, y, z'
loop_
 _atom_site_type_symbol
 _atom_site_label
 _atom_site_symmetry_multiplicity
 _atom_site_fract_x
 _atom_site_fract_y
 _atom_site_fract_z
 _atom_site_occupancy
  Li  Li0  1  0.34123800  0.68276900  0.10399200  1
  Li  Li1  1  0.00560400  0.00168000  0.01126500  1
  Li  Li2  1  0.99788600  0.99548000  0.50200600  1
  Li  Li3  1  0.66037400  0.33688200  0.59554900  1
  Ti  Ti4  1  0.33481400  0.66437200  0.48972300  1
  Ti  Ti5  1  0.64037900  0.28719900  0.00997600  1
  V  V6  1  0.16762300  0.81140000  0.77312500  1
  V  V7  1  0.66063400  0.81283900  0.78754500  1
  V  V8  1  0.82288600  0.63907900  0.26509900  1
  Ni  Ni9  1  0.16949000  0.33616200  0.79426500  1
  Ni  Ni10  1  0.33859300  0.16880600  0.29178000  1
  Ni  Ni11  1  0.83036200  0.16849700  0.29200700  1
  O  O12  1  0.16320900  0.81990300  0.40503100  1
  O  O13  1  0.46853600  0.97079900  0.66934500  1
  O  O14  1  0.33122500  0.69278100  0.89741400  1
  O  O15  1  0.00571000  0.98677400  0.69482400  1
  O  O16  1  0.98652300  0.97285700  0.20036000  1
  O  O17  1  0.65763000  0.82291500  0.40552800  1
  O  O18  1  0.03248000  0.53143100  0.66468000  1
  O  O19  1  0.49911500  0.54536400  0.66552200  1
  O  O20  1  0.84379600  0.67344700  0.89583800  1
  O  O21  1  0.16980400  0.33779100  0.41371500  1
  O  O22  1  0.53515800  0.50433000  0.15499500  1
  O  O23  1  0.97149600  0.50251900  0.15604300  1
  O  O24  1  0.68771000  0.37601000  0.39366500  1
  O  O25  1  0.33452000  0.16213100  0.90701700  1
  O  O26  1  0.52464900  0.04841800  0.14973600  1
  O  O27  1  0.81825900  0.14736400  0.90211300  1
