# generated using pymatgen
data_Li2V(PO3)5
_symmetry_space_group_name_H-M   'P 1'
_cell_length_a   9.63395500
_cell_length_b   5.30764200
_cell_length_c   13.31917534
_cell_angle_alpha   71.06522577
_cell_angle_beta   90.00000000
_cell_angle_gamma   90.00000000
_symmetry_Int_Tables_number   1
_chemical_formula_structural   Li2V(PO3)5
_chemical_formula_sum   'Li4 V2 P10 O30'
_cell_volume   644.20421047
_cell_formula_units_Z   2
loop_
 _symmetry_equiv_pos_site_id
 _symmetry_equiv_pos_as_xyz
  1  'x, y, z'
loop_
 _atom_site_type_symbol
 _atom_site_label
 _atom_site_symmetry_multiplicity
 _atom_site_fract_x
 _atom_site_fract_y
 _atom_site_fract_z
 _atom_site_occupancy
  Li  Li0  1  0.60218200  0.93561300  0.93667600  1
  Li  Li1  1  0.39781800  0.93561300  0.43667600  1
  Li  Li2  1  0.59714400  0.05620500  0.57121400  1
  Li  Li3  1  0.40285600  0.05620500  0.07121400  1
  V  V4  1  0.00482900  0.00881800  0.49520500  1
  V  V5  1  0.99517100  0.00881800  0.99520500  1
  P  P6  1  0.47628900  0.51631900  0.86219000  1
  P  P7  1  0.52371100  0.51631900  0.36219000  1
  P  P8  1  0.81631700  0.41518900  0.08465400  1
  P  P9  1  0.51985100  0.47309100  0.14368300  1
  P  P10  1  0.48014900  0.47309100  0.64368300  1
  P  P11  1  0.82420400  0.60127700  0.40805800  1
  P  P12  1  0.01398700  0.01509200  0.74483200  1
  P  P13  1  0.17579600  0.60127700  0.90805800  1
  P  P14  1  0.18368300  0.41518900  0.58465400  1
  P  P15  1  0.98601300  0.01509200  0.24483200  1
  O  O16  1  0.06475300  0.05029100  0.33660200  1
  O  O17  1  0.34255600  0.34703400  0.60612600  1
  O  O18  1  0.41025900  0.71427200  0.34900200  1
  O  O19  1  0.86061800  0.31091500  0.43539900  1
  O  O20  1  0.87927000  0.76554300  0.29065600  1
  O  O21  1  0.05990500  0.97495400  0.15204800  1
  O  O22  1  0.13058200  0.73674500  0.98715300  1
  O  O23  1  0.58974100  0.71427200  0.84900200  1
  O  O24  1  0.50178300  0.75076200  0.06883000  1
  O  O25  1  0.14162500  0.27605600  0.50620600  1
  O  O26  1  0.85837500  0.27605600  0.00620600  1
  O  O27  1  0.65744400  0.34703400  0.10612600  1
  O  O28  1  0.41950300  0.49429000  0.75246300  1
  O  O29  1  0.93524700  0.05029100  0.83660200  1
  O  O30  1  0.66262000  0.64542500  0.39661500  1
  O  O31  1  0.11589300  0.27231200  0.69987900  1
  O  O32  1  0.59328900  0.27467400  0.65882100  1
  O  O33  1  0.88410700  0.27231200  0.19987900  1
  O  O34  1  0.94009500  0.97495400  0.65204800  1
  O  O35  1  0.58049700  0.49429000  0.25246300  1
  O  O36  1  0.15674000  0.71106400  0.55121500  1
  O  O37  1  0.49821700  0.75076200  0.56883000  1
  O  O38  1  0.50660600  0.23865600  0.43687400  1
  O  O39  1  0.86941800  0.73674500  0.48715300  1
  O  O40  1  0.13938200  0.31091500  0.93539900  1
  O  O41  1  0.33738000  0.64542500  0.89661500  1
  O  O42  1  0.40671100  0.27467400  0.15882100  1
  O  O43  1  0.12073000  0.76554300  0.79065600  1
  O  O44  1  0.84326000  0.71106400  0.05121500  1
  O  O45  1  0.49339400  0.23865600  0.93687400  1
