# generated using pymatgen
data_Li9Cr5(SiO8)2
_symmetry_space_group_name_H-M   'P 1'
_cell_length_a   11.54926400
_cell_length_b   5.05063000
_cell_length_c   5.06861850
_cell_angle_alpha   70.71546612
_cell_angle_beta   90.00000000
_cell_angle_gamma   90.00000000
_symmetry_Int_Tables_number   1
_chemical_formula_structural   Li9Cr5(SiO8)2
_chemical_formula_sum   'Li9 Cr5 Si2 O16'
_cell_volume   279.06856189
_cell_formula_units_Z   1
loop_
 _symmetry_equiv_pos_site_id
 _symmetry_equiv_pos_as_xyz
  1  'x, y, z'
loop_
 _atom_site_type_symbol
 _atom_site_label
 _atom_site_symmetry_multiplicity
 _atom_site_fract_x
 _atom_site_fract_y
 _atom_site_fract_z
 _atom_site_occupancy
  Li  Li0  1  0.38251500  0.00000000  0.00000000  1
  Li  Li1  1  0.12392000  0.00000000  0.00000000  1
  Li  Li2  1  0.25738700  0.50000000  0.00000000  1
  Li  Li3  1  0.87608000  0.00000000  0.00000000  1
  Li  Li4  1  0.00000000  0.50000000  0.00000000  1
  Li  Li5  1  0.61748500  0.00000000  0.00000000  1
  Li  Li6  1  0.74261300  0.50000000  0.00000000  1
  Li  Li7  1  0.50000000  0.00000000  0.50000000  1
  Li  Li8  1  0.50000000  0.50000000  0.00000000  1
  Cr  Cr9  1  0.25926700  0.00000000  0.50000000  1
  Cr  Cr10  1  0.00000000  0.00000000  0.50000000  1
  Cr  Cr11  1  0.12993200  0.50000000  0.50000000  1
  Cr  Cr12  1  0.74073300  0.00000000  0.50000000  1
  Cr  Cr13  1  0.87006800  0.50000000  0.50000000  1
  Si  Si14  1  0.38298400  0.50000000  0.50000000  1
  Si  Si15  1  0.61701600  0.50000000  0.50000000  1
  O  O16  1  0.37458800  0.72229200  0.71229400  1
  O  O17  1  0.12774000  0.75892200  0.72843700  1
  O  O18  1  0.26516700  0.73033100  0.28136300  1
  O  O19  1  0.00000000  0.73905100  0.27239700  1
  O  O20  1  0.26516700  0.26966900  0.71863700  1
  O  O21  1  0.87226000  0.75892200  0.72843700  1
  O  O22  1  0.37458800  0.27770800  0.28770600  1
  O  O23  1  0.00000000  0.26094900  0.72760300  1
  O  O24  1  0.62541200  0.72229200  0.71229400  1
  O  O25  1  0.73483300  0.73033100  0.28136300  1
  O  O26  1  0.12774000  0.24107800  0.27156300  1
  O  O27  1  0.87226000  0.24107800  0.27156300  1
  O  O28  1  0.73483300  0.26966900  0.71863700  1
  O  O29  1  0.50000000  0.70655000  0.28595200  1
  O  O30  1  0.62541200  0.27770800  0.28770600  1
  O  O31  1  0.50000000  0.29345000  0.71404800  1
