# generated using pymatgen
data_Li2MnOF3
_symmetry_space_group_name_H-M   'P 1'
_cell_length_a   5.27460452
_cell_length_b   5.82611500
_cell_length_c   9.84699626
_cell_angle_alpha   90.00007472
_cell_angle_beta   90.75391744
_cell_angle_gamma   89.99991717
_symmetry_Int_Tables_number   1
_chemical_formula_structural   Li2MnOF3
_chemical_formula_sum   'Li8 Mn4 O4 F12'
_cell_volume   302.57645501
_cell_formula_units_Z   4
loop_
 _symmetry_equiv_pos_site_id
 _symmetry_equiv_pos_as_xyz
  1  'x, y, z'
loop_
 _atom_site_type_symbol
 _atom_site_label
 _atom_site_symmetry_multiplicity
 _atom_site_fract_x
 _atom_site_fract_y
 _atom_site_fract_z
 _atom_site_occupancy
  Li  Li0  1  0.75630500  0.64994600  0.31583500  1
  Li  Li1  1  0.75630200  0.14994600  0.81583300  1
  Li  Li2  1  0.74369400  0.64994700  0.68416400  1
  Li  Li3  1  0.74369700  0.14994600  0.18416700  1
  Li  Li4  1  0.27720400  0.36577100  0.29350500  1
  Li  Li5  1  0.27720900  0.86577700  0.79350400  1
  Li  Li6  1  0.22279600  0.36577100  0.70649500  1
  Li  Li7  1  0.22279000  0.86577600  0.20649500  1
  Mn  Mn8  1  0.75000000  0.11372700  0.50000000  1
  Mn  Mn9  1  0.24999100  0.86667900  0.50000100  1
  Mn  Mn10  1  0.75000700  0.61370500  0.99999800  1
  Mn  Mn11  1  0.25001100  0.36668000  0.00000700  1
  O  O12  1  0.94254800  0.39099900  0.09697100  1
  O  O13  1  0.94255800  0.89101900  0.59697400  1
  O  O14  1  0.55745300  0.39099900  0.90302900  1
  O  O15  1  0.55744400  0.89101700  0.40302700  1
  F  F16  1  0.87539900  0.85227800  0.13115900  1
  F  F17  1  0.87537600  0.35225700  0.63118500  1
  F  F18  1  0.62459900  0.85228000  0.86883900  1
  F  F19  1  0.62462200  0.35225500  0.36881500  1
  F  F20  1  0.38665800  0.63998900  0.64033100  1
  F  F21  1  0.38665400  0.13996000  0.14030300  1
  F  F22  1  0.11334100  0.63998900  0.35966700  1
  F  F23  1  0.11334600  0.13995800  0.85969500  1
  F  F24  1  0.41664200  0.61084500  0.13478600  1
  F  F25  1  0.41665800  0.11081900  0.63480600  1
  F  F26  1  0.08335500  0.61084300  0.86521400  1
  F  F27  1  0.08334000  0.11081600  0.36519400  1
