# generated using pymatgen
data_Li4Ti4V4NiO18
_symmetry_space_group_name_H-M   'P 1'
_cell_length_a   2.96811600
_cell_length_b   9.20960300
_cell_length_c   24.55182200
_cell_angle_alpha   90.00000000
_cell_angle_beta   90.00000000
_cell_angle_gamma   90.00000000
_symmetry_Int_Tables_number   1
_chemical_formula_structural   Li4Ti4V4NiO18
_chemical_formula_sum   'Li8 Ti8 V8 Ni2 O36'
_cell_volume   671.12822862
_cell_formula_units_Z   2
loop_
 _symmetry_equiv_pos_site_id
 _symmetry_equiv_pos_as_xyz
  1  'x, y, z'
loop_
 _atom_site_type_symbol
 _atom_site_label
 _atom_site_symmetry_multiplicity
 _atom_site_fract_x
 _atom_site_fract_y
 _atom_site_fract_z
 _atom_site_occupancy
  Li  Li0  1  0.00000000  0.69786000  0.99038300  1
  Li  Li1  1  0.00000000  0.69469700  0.18950900  1
  Li  Li2  1  0.00000000  0.80530300  0.68950900  1
  Li  Li3  1  0.00000000  0.80214000  0.49038300  1
  Li  Li4  1  0.00000000  0.19786000  0.50961700  1
  Li  Li5  1  0.00000000  0.19469700  0.31049100  1
  Li  Li6  1  0.00000000  0.30530300  0.81049100  1
  Li  Li7  1  0.00000000  0.30214000  0.00961700  1
  Ti  Ti8  1  0.00000000  0.49688900  0.10079700  1
  Ti  Ti9  1  0.50000000  0.66172900  0.80604500  1
  Ti  Ti10  1  0.50000000  0.83827100  0.30604500  1
  Ti  Ti11  1  0.00000000  0.00311100  0.60079700  1
  Ti  Ti12  1  0.00000000  0.99688900  0.39920300  1
  Ti  Ti13  1  0.50000000  0.16172900  0.69395500  1
  Ti  Ti14  1  0.50000000  0.33827100  0.19395500  1
  Ti  Ti15  1  0.00000000  0.50311100  0.89920300  1
  V  V16  1  0.00000000  0.49458500  0.31513000  1
  V  V17  1  0.50000000  0.65118200  0.58705800  1
  V  V18  1  0.50000000  0.84881800  0.08705800  1
  V  V19  1  0.00000000  0.00541500  0.81513000  1
  V  V20  1  0.00000000  0.99458500  0.18487000  1
  V  V21  1  0.50000000  0.15118200  0.91294200  1
  V  V22  1  0.50000000  0.34881800  0.41294200  1
  V  V23  1  0.00000000  0.50541500  0.68487000  1
  Ni  Ni24  1  0.00000000  0.50000000  0.50000000  1
  Ni  Ni25  1  0.00000000  0.00000000  0.00000000  1
  O  O26  1  0.00000000  0.49127000  0.40439000  1
  O  O27  1  0.00000000  0.50873000  0.59561000  1
  O  O28  1  0.50000000  0.56006700  0.94411100  1
  O  O29  1  0.50000000  0.54108200  0.15777900  1
  O  O30  1  0.50000000  0.65451200  0.66598400  1
  O  O31  1  0.00000000  0.61322000  0.75689000  1
  O  O32  1  0.50000000  0.64939900  0.50977800  1
  O  O33  1  0.50000000  0.63305100  0.29458900  1
  O  O34  1  0.00000000  0.68772300  0.85845100  1
  O  O35  1  0.00000000  0.70413000  0.08373000  1
  O  O36  1  0.00000000  0.79587000  0.58373000  1
  O  O37  1  0.00000000  0.81227700  0.35845100  1
  O  O38  1  0.50000000  0.86694900  0.79458900  1
  O  O39  1  0.50000000  0.85060100  0.00977800  1
  O  O40  1  0.00000000  0.88678000  0.25689000  1
  O  O41  1  0.50000000  0.84548800  0.16598400  1
  O  O42  1  0.50000000  0.95891800  0.65777900  1
  O  O43  1  0.50000000  0.93993300  0.44411100  1
  O  O44  1  0.00000000  0.99127000  0.09561000  1
  O  O45  1  0.00000000  0.00873000  0.90439000  1
  O  O46  1  0.50000000  0.06006700  0.55588900  1
  O  O47  1  0.50000000  0.04108200  0.34222100  1
  O  O48  1  0.50000000  0.15451200  0.83401600  1
  O  O49  1  0.00000000  0.11322000  0.74311000  1
  O  O50  1  0.50000000  0.14939900  0.99022200  1
  O  O51  1  0.50000000  0.13305100  0.20541100  1
  O  O52  1  0.00000000  0.18772300  0.64154900  1
  O  O53  1  0.00000000  0.20413000  0.41627000  1
  O  O54  1  0.00000000  0.29587000  0.91627000  1
  O  O55  1  0.00000000  0.31227700  0.14154900  1
  O  O56  1  0.50000000  0.36694900  0.70541100  1
  O  O57  1  0.50000000  0.35060100  0.49022200  1
  O  O58  1  0.00000000  0.38678000  0.24311000  1
  O  O59  1  0.50000000  0.34548800  0.33401600  1
  O  O60  1  0.50000000  0.45891800  0.84222100  1
  O  O61  1  0.50000000  0.43993300  0.05588900  1
