# generated using pymatgen
data_LiV(PO3)3
_symmetry_space_group_name_H-M   'P 1'
_cell_length_a   7.36934100
_cell_length_b   9.24190900
_cell_length_c   12.06562800
_cell_angle_alpha   90.00000000
_cell_angle_beta   90.00000000
_cell_angle_gamma   90.00000000
_symmetry_Int_Tables_number   1
_chemical_formula_structural   LiV(PO3)3
_chemical_formula_sum   'Li4 V4 P12 O36'
_cell_volume   821.75105863
_cell_formula_units_Z   4
loop_
 _symmetry_equiv_pos_site_id
 _symmetry_equiv_pos_as_xyz
  1  'x, y, z'
loop_
 _atom_site_type_symbol
 _atom_site_label
 _atom_site_symmetry_multiplicity
 _atom_site_fract_x
 _atom_site_fract_y
 _atom_site_fract_z
 _atom_site_occupancy
  Li  Li0  1  0.75000000  0.96824200  0.03224200  1
  Li  Li1  1  0.75000000  0.46824200  0.46775800  1
  Li  Li2  1  0.25000000  0.53175800  0.53224200  1
  Li  Li3  1  0.25000000  0.03175800  0.96775800  1
  V  V4  1  0.75000000  0.51940700  0.70956000  1
  V  V5  1  0.75000000  0.01940700  0.79044000  1
  V  V6  1  0.25000000  0.98059300  0.20956000  1
  V  V7  1  0.25000000  0.48059300  0.29044000  1
  P  P8  1  0.95338500  0.75080100  0.34838300  1
  P  P9  1  0.95338500  0.25080100  0.15161700  1
  P  P10  1  0.75000000  0.30474900  0.95822300  1
  P  P11  1  0.75000000  0.80474900  0.54177700  1
  P  P12  1  0.54661500  0.25080100  0.15161700  1
  P  P13  1  0.54661500  0.75080100  0.34838300  1
  P  P14  1  0.45338500  0.24919900  0.65161700  1
  P  P15  1  0.45338500  0.74919900  0.84838300  1
  P  P16  1  0.25000000  0.19525100  0.45822300  1
  P  P17  1  0.25000000  0.69525100  0.04177700  1
  P  P18  1  0.04661500  0.24919900  0.65161700  1
  P  P19  1  0.04661500  0.74919900  0.84838300  1
  O  O20  1  0.97755300  0.65129800  0.75986200  1
  O  O21  1  0.97755300  0.15129800  0.74013800  1
  O  O22  1  0.94436100  0.88398100  0.88153400  1
  O  O23  1  0.94436100  0.38398100  0.61846600  1
  O  O24  1  0.91879300  0.34454900  0.03941200  1
  O  O25  1  0.91879300  0.84454900  0.46058800  1
  O  O26  1  0.75000000  0.69620800  0.31444900  1
  O  O27  1  0.75000000  0.40236100  0.86134100  1
  O  O28  1  0.75000000  0.90236100  0.63865900  1
  O  O29  1  0.75000000  0.14225500  0.94337500  1
  O  O30  1  0.75000000  0.19620800  0.18555100  1
  O  O31  1  0.75000000  0.64225500  0.55662500  1
  O  O32  1  0.58120700  0.34454900  0.03941200  1
  O  O33  1  0.58120700  0.84454900  0.46058800  1
  O  O34  1  0.55563900  0.88398100  0.88153400  1
  O  O35  1  0.55563900  0.38398100  0.61846600  1
  O  O36  1  0.52244700  0.65129800  0.75986200  1
  O  O37  1  0.52244700  0.15129800  0.74013800  1
  O  O38  1  0.47755300  0.84870200  0.25986200  1
  O  O39  1  0.47755300  0.34870200  0.24013800  1
  O  O40  1  0.44436100  0.11601900  0.11846600  1
  O  O41  1  0.44436100  0.61601900  0.38153400  1
  O  O42  1  0.41879300  0.15545100  0.53941200  1
  O  O43  1  0.41879300  0.65545100  0.96058800  1
  O  O44  1  0.25000000  0.85774500  0.05662500  1
  O  O45  1  0.25000000  0.59763900  0.13865900  1
  O  O46  1  0.25000000  0.35774500  0.44337500  1
  O  O47  1  0.25000000  0.09763900  0.36134100  1
  O  O48  1  0.25000000  0.30379200  0.68555100  1
  O  O49  1  0.25000000  0.80379200  0.81444900  1
  O  O50  1  0.08120700  0.15545100  0.53941200  1
  O  O51  1  0.08120700  0.65545100  0.96058800  1
  O  O52  1  0.05563900  0.61601900  0.38153400  1
  O  O53  1  0.05563900  0.11601900  0.11846600  1
  O  O54  1  0.02244700  0.34870200  0.24013800  1
  O  O55  1  0.02244700  0.84870200  0.25986200  1
