# generated using pymatgen
data_LiVF5
_symmetry_space_group_name_H-M   'P 1'
_cell_length_a   6.76892700
_cell_length_b   7.31356800
_cell_length_c   7.63146704
_cell_angle_alpha   89.12887012
_cell_angle_beta   90.00000000
_cell_angle_gamma   90.00000000
_symmetry_Int_Tables_number   1
_chemical_formula_structural   LiVF5
_chemical_formula_sum   'Li4 V4 F20'
_cell_volume   377.75217072
_cell_formula_units_Z   4
loop_
 _symmetry_equiv_pos_site_id
 _symmetry_equiv_pos_as_xyz
  1  'x, y, z'
loop_
 _atom_site_type_symbol
 _atom_site_label
 _atom_site_symmetry_multiplicity
 _atom_site_fract_x
 _atom_site_fract_y
 _atom_site_fract_z
 _atom_site_occupancy
  Li  Li0  1  0.25859800  0.74880300  0.96291100  1
  Li  Li1  1  0.24140200  0.74880300  0.46291100  1
  Li  Li2  1  0.75859800  0.25119700  0.53708900  1
  Li  Li3  1  0.74140200  0.25119700  0.03708900  1
  V  V4  1  0.76449500  0.74530100  0.60944200  1
  V  V5  1  0.73550500  0.74530100  0.10944200  1
  V  V6  1  0.26449500  0.25469900  0.89055800  1
  V  V7  1  0.23550500  0.25469900  0.39055800  1
  F  F8  1  0.24872600  0.00492800  0.89546000  1
  F  F9  1  0.25127400  0.00492800  0.39546000  1
  F  F10  1  0.68280700  0.74801300  0.85740000  1
  F  F11  1  0.81719300  0.74801300  0.35740000  1
  F  F12  1  0.03693400  0.76000300  0.64762400  1
  F  F13  1  0.46306600  0.76000300  0.14762400  1
  F  F14  1  0.49760900  0.72718000  0.55670400  1
  F  F15  1  0.00239100  0.72718000  0.05670400  1
  F  F16  1  0.29436800  0.50333300  0.87596100  1
  F  F17  1  0.20563200  0.50333300  0.37596100  1
  F  F18  1  0.79436800  0.49666700  0.62403900  1
  F  F19  1  0.70563200  0.49666700  0.12403900  1
  F  F20  1  0.99760900  0.27282000  0.94329600  1
  F  F21  1  0.50239100  0.27282000  0.44329600  1
  F  F22  1  0.53693400  0.23999700  0.85237600  1
  F  F23  1  0.96306600  0.23999700  0.35237600  1
  F  F24  1  0.18280700  0.25198700  0.64260000  1
  F  F25  1  0.31719300  0.25198700  0.14260000  1
  F  F26  1  0.74872600  0.99507200  0.60454000  1
  F  F27  1  0.75127400  0.99507200  0.10454000  1
