# generated using pymatgen
data_Li3MnF6
_symmetry_space_group_name_H-M   'P 1'
_cell_length_a   5.57390900
_cell_length_b   8.71309500
_cell_length_c   9.80693379
_cell_angle_alpha   80.06868628
_cell_angle_beta   90.00000000
_cell_angle_gamma   90.00000000
_symmetry_Int_Tables_number   1
_chemical_formula_structural   Li3MnF6
_chemical_formula_sum   'Li12 Mn4 F24'
_cell_volume   469.14652696
_cell_formula_units_Z   4
loop_
 _symmetry_equiv_pos_site_id
 _symmetry_equiv_pos_as_xyz
  1  'x, y, z'
loop_
 _atom_site_type_symbol
 _atom_site_label
 _atom_site_symmetry_multiplicity
 _atom_site_fract_x
 _atom_site_fract_y
 _atom_site_fract_z
 _atom_site_occupancy
  Li  Li0  1  0.01049700  0.87603300  0.81971100  1
  Li  Li1  1  0.48950300  0.87603300  0.31971100  1
  Li  Li2  1  0.63703000  0.75812300  0.64421200  1
  Li  Li3  1  0.86297000  0.75812300  0.14421200  1
  Li  Li4  1  0.08343900  0.57482100  0.63702100  1
  Li  Li5  1  0.41656100  0.57482100  0.13702100  1
  Li  Li6  1  0.58343900  0.42517900  0.86297900  1
  Li  Li7  1  0.91656100  0.42517900  0.36297900  1
  Li  Li8  1  0.13703000  0.24187700  0.85578800  1
  Li  Li9  1  0.36297000  0.24187700  0.35578800  1
  Li  Li10  1  0.51049700  0.12396700  0.68028900  1
  Li  Li11  1  0.98950300  0.12396700  0.18028900  1
  Mn  Mn12  1  0.00000000  0.00000000  0.50000000  1
  Mn  Mn13  1  0.50000000  0.00000000  0.00000000  1
  Mn  Mn14  1  0.50000000  0.50000000  0.50000000  1
  Mn  Mn15  1  0.00000000  0.50000000  0.00000000  1
  F  F16  1  0.63886000  0.92276500  0.84958500  1
  F  F17  1  0.86114000  0.92276500  0.34958500  1
  F  F18  1  0.51323100  0.77814200  0.15835100  1
  F  F19  1  0.81169500  0.99038300  0.07888200  1
  F  F20  1  0.37847300  0.70527600  0.45622300  1
  F  F21  1  0.98676900  0.77814200  0.65835100  1
  F  F22  1  0.68830500  0.99038300  0.57888200  1
  F  F23  1  0.69014900  0.58332700  0.98028800  1
  F  F24  1  0.12152700  0.70527600  0.95622300  1
  F  F25  1  0.47585400  0.56289000  0.70196000  1
  F  F26  1  0.80985100  0.58332700  0.48028800  1
  F  F27  1  0.02414600  0.56289000  0.20196000  1
  F  F28  1  0.97585400  0.43711000  0.79804000  1
  F  F29  1  0.19014900  0.41667300  0.51971200  1
  F  F30  1  0.52414600  0.43711000  0.29804000  1
  F  F31  1  0.87847300  0.29472400  0.04377700  1
  F  F32  1  0.30985100  0.41667300  0.01971200  1
  F  F33  1  0.31169500  0.00961700  0.42111800  1
  F  F34  1  0.01323100  0.22185800  0.34164900  1
  F  F35  1  0.62152700  0.29472400  0.54377700  1
  F  F36  1  0.18830500  0.00961700  0.92111800  1
  F  F37  1  0.48676900  0.22185800  0.84164900  1
  F  F38  1  0.13886000  0.07723500  0.65041500  1
  F  F39  1  0.36114000  0.07723500  0.15041500  1
