# generated using pymatgen
data_Li2Mn(PO3)5
_symmetry_space_group_name_H-M   'P 1'
_cell_length_a   13.51719900
_cell_length_b   5.21204100
_cell_length_c   8.67130387
_cell_angle_alpha   78.40178585
_cell_angle_beta   90.00000000
_cell_angle_gamma   90.00000000
_symmetry_Int_Tables_number   1
_chemical_formula_structural   Li2Mn(PO3)5
_chemical_formula_sum   'Li4 Mn2 P10 O30'
_cell_volume   598.43849027
_cell_formula_units_Z   2
loop_
 _symmetry_equiv_pos_site_id
 _symmetry_equiv_pos_as_xyz
  1  'x, y, z'
loop_
 _atom_site_type_symbol
 _atom_site_label
 _atom_site_symmetry_multiplicity
 _atom_site_fract_x
 _atom_site_fract_y
 _atom_site_fract_z
 _atom_site_occupancy
  Li  Li0  1  0.61549400  0.93801800  0.10640200  1
  Li  Li1  1  0.88450600  0.93801800  0.10640200  1
  Li  Li2  1  0.11549400  0.06198200  0.89359800  1
  Li  Li3  1  0.38450600  0.06198200  0.89359800  1
  Mn  Mn4  1  0.50000000  0.50000000  0.50000000  1
  Mn  Mn5  1  0.00000000  0.50000000  0.50000000  1
  P  P6  1  0.42301200  0.33774900  0.18681900  1
  P  P7  1  0.13966400  0.98284300  0.48914800  1
  P  P8  1  0.25000000  0.54177000  0.98906300  1
  P  P9  1  0.57698800  0.66225100  0.81318100  1
  P  P10  1  0.07698800  0.33774900  0.18681900  1
  P  P11  1  0.75000000  0.45823000  0.01093700  1
  P  P12  1  0.92301200  0.66225100  0.81318100  1
  P  P13  1  0.86033600  0.01715700  0.51085200  1
  P  P14  1  0.36033600  0.98284300  0.48914800  1
  P  P15  1  0.63966400  0.01715700  0.51085200  1
  O  O16  1  0.53169000  0.80413400  0.92839000  1
  O  O17  1  0.14367100  0.13550800  0.31013900  1
  O  O18  1  0.87598200  0.30567100  0.50932000  1
  O  O19  1  0.75000000  0.98431100  0.45544900  1
  O  O20  1  0.35632900  0.13550800  0.31013900  1
  O  O21  1  0.85632900  0.86449200  0.68986100  1
  O  O22  1  0.99190600  0.51729300  0.72163600  1
  O  O23  1  0.75000000  0.71181400  0.06649700  1
  O  O24  1  0.25000000  0.01568900  0.54455100  1
  O  O25  1  0.64367100  0.86449200  0.68986100  1
  O  O26  1  0.42429500  0.11998600  0.58858700  1
  O  O27  1  0.25000000  0.80382400  0.88048600  1
  O  O28  1  0.57570500  0.88001400  0.41141300  1
  O  O29  1  0.25000000  0.28818600  0.93350300  1
  O  O30  1  0.62401800  0.30567100  0.50932000  1
  O  O31  1  0.12401800  0.69432900  0.49068000  1
  O  O32  1  0.49190600  0.48270700  0.27836400  1
  O  O33  1  0.50809400  0.51729300  0.72163600  1
  O  O34  1  0.65737500  0.45025600  0.89009700  1
  O  O35  1  0.46831000  0.19586600  0.07161000  1
  O  O36  1  0.92429500  0.88001400  0.41141300  1
  O  O37  1  0.00809400  0.48270700  0.27836400  1
  O  O38  1  0.07570500  0.11998600  0.58858700  1
  O  O39  1  0.34262500  0.54974400  0.10990300  1
  O  O40  1  0.15737500  0.54974400  0.10990300  1
  O  O41  1  0.96831000  0.80413400  0.92839000  1
  O  O42  1  0.37598200  0.69432900  0.49068000  1
  O  O43  1  0.03169000  0.19586600  0.07161000  1
  O  O44  1  0.84262500  0.45025600  0.89009700  1
  O  O45  1  0.75000000  0.19617600  0.11951400  1
