# generated using pymatgen
data_Li7V3P8O29
_symmetry_space_group_name_H-M   'P 1'
_cell_length_a   9.83233400
_cell_length_b   9.84751291
_cell_length_c   13.89786331
_cell_angle_alpha   89.28067554
_cell_angle_beta   89.25480497
_cell_angle_gamma   60.29706368
_symmetry_Int_Tables_number   1
_chemical_formula_structural   Li7V3P8O29
_chemical_formula_sum   'Li14 V6 P16 O58'
_cell_volume   1168.70963419
_cell_formula_units_Z   2
loop_
 _symmetry_equiv_pos_site_id
 _symmetry_equiv_pos_as_xyz
  1  'x, y, z'
loop_
 _atom_site_type_symbol
 _atom_site_label
 _atom_site_symmetry_multiplicity
 _atom_site_fract_x
 _atom_site_fract_y
 _atom_site_fract_z
 _atom_site_occupancy
  Li  Li0  1  0.09428400  0.67409200  0.56538400  1
  Li  Li1  1  0.33352400  0.31920700  0.38509000  1
  Li  Li2  1  0.32477600  0.32958200  0.88519100  1
  Li  Li3  1  0.23401300  0.67816700  0.06262100  1
  Li  Li4  1  0.67437000  0.09136300  0.06475900  1
  Li  Li5  1  0.32879600  0.76387600  0.43959900  1
  Li  Li6  1  0.67135800  0.23559600  0.56428300  1
  Li  Li7  1  0.34343300  0.89665200  0.93582000  1
  Li  Li8  1  0.76523200  0.33430700  0.93645100  1
  Li  Li9  1  0.66933800  0.67109200  0.61479600  1
  Li  Li10  1  0.90651300  0.32603600  0.43592700  1
  Li  Li11  1  0.89748400  0.76737100  0.93919400  1
  Li  Li12  1  0.02136800  0.03741800  0.00263800  1
  Li  Li13  1  0.00141200  0.00532500  0.50770600  1
  V  V14  1  0.43665400  0.56481500  0.24768000  1
  V  V15  1  0.56586900  0.43474700  0.75181000  1
  V  V16  1  0.43276600  0.00337900  0.74474900  1
  V  V17  1  0.56462300  0.99468100  0.25382200  1
  V  V18  1  0.00257500  0.43475800  0.24661900  1
  V  V19  1  0.99772300  0.56416400  0.75092900  1
  P  P20  1  0.08748000  0.21920600  0.83823200  1
  P  P21  1  0.21691200  0.08468700  0.33901000  1
  P  P22  1  0.09207500  0.68258400  0.34541000  1
  P  P23  1  0.33607800  0.33359500  0.12849400  1
  P  P24  1  0.33571800  0.33511400  0.62585000  1
  P  P25  1  0.22722800  0.68013800  0.84433600  1
  P  P26  1  0.31924500  0.77422200  0.65749400  1
  P  P27  1  0.68132900  0.08722400  0.84765400  1
  P  P28  1  0.31291200  0.91637500  0.15235900  1
  P  P29  1  0.68065300  0.22383800  0.34298700  1
  P  P30  1  0.77529300  0.31252300  0.15825900  1
  P  P31  1  0.66868600  0.66263900  0.37174900  1
  P  P32  1  0.66089700  0.67281700  0.87387600  1
  P  P33  1  0.91058900  0.31617900  0.65084900  1
  P  P34  1  0.77890200  0.91563100  0.65845200  1
  P  P35  1  0.91466800  0.77456800  0.16045000  1
  O  O36  1  0.98798800  0.23329500  0.55868400  1
  O  O37  1  0.07772200  0.25309700  0.34063300  1
  O  O38  1  0.23004700  0.98605600  0.05973600  1
  O  O39  1  0.25383100  0.07579100  0.84093000  1
  O  O40  1  0.10162200  0.36882700  0.83563600  1
  O  O41  1  0.18826800  0.33441400  0.17542700  1
  O  O42  1  0.10467900  0.52036200  0.33284800  1
  O  O43  1  0.00331000  0.77450400  0.07086000  1
  O  O44  1  0.07703400  0.66905100  0.84667100  1
  O  O45  1  0.33788500  0.18745300  0.67462800  1
  O  O46  1  0.36919500  0.09782100  0.33084200  1
  O  O47  1  0.18771200  0.48294200  0.66311500  1
  O  O48  1  0.33595000  0.33102800  0.02115600  1
  O  O49  1  0.33695800  0.32690600  0.51769200  1
  O  O50  1  0.32739800  0.48894800  0.16385400  1
  O  O51  1  0.51727700  0.10486500  0.83330700  1
  O  O52  1  0.48581600  0.18847900  0.17015500  1
  O  O53  1  0.26233600  0.65709600  0.33795900  1
  O  O54  1  0.21436500  0.78391600  0.75036800  1
  O  O55  1  0.22939600  0.77212100  0.56946000  1
  O  O56  1  0.23729000  0.76636000  0.93163300  1
  O  O57  1  0.36866100  0.51525500  0.83265900  1
  O  O58  1  0.48551700  0.33220900  0.66182800  1
  O  O59  1  0.33813600  0.74767700  0.16237800  1
  O  O60  1  0.51837600  0.37238400  0.32868600  1
  O  O61  1  0.65490200  0.08299300  0.34167100  1
  O  O62  1  0.19779800  0.01315300  0.23939100  1
  O  O63  1  0.21065100  0.98618700  0.41968900  1
  O  O64  1  0.78879400  0.01346400  0.57787600  1
  O  O65  1  0.33601200  0.92007900  0.65837300  1
  O  O66  1  0.48277400  0.62846300  0.66669100  1
  O  O67  1  0.66721700  0.24930500  0.84722500  1
  O  O68  1  0.51963200  0.66303400  0.33421500  1
  O  O69  1  0.61693000  0.46668200  0.17194100  1
  O  O70  1  0.77687300  0.22546100  0.06890000  1
  O  O71  1  0.76639600  0.23037000  0.43042600  1
  O  O72  1  0.78985200  0.20597800  0.25045200  1
  O  O73  1  0.74846400  0.32985400  0.66065000  1
  O  O74  1  0.51509600  0.81851900  0.82377600  1
  O  O75  1  0.46642100  0.91872800  0.16667100  1
  O  O76  1  0.66643500  0.52058100  0.83884700  1
  O  O77  1  0.64288200  0.69079600  0.98089200  1
  O  O78  1  0.66711600  0.66340100  0.47912200  1
  O  O79  1  0.81952600  0.51438100  0.33278500  1
  O  O80  1  0.62712600  0.90300700  0.66409800  1
  O  O81  1  0.66666000  0.81044900  0.32515500  1
  O  O82  1  0.91106400  0.34463400  0.16085500  1
  O  O83  1  0.01446300  0.20653700  0.73839800  1
  O  O84  1  0.98800500  0.21035000  0.91880400  1
  O  O85  1  0.89094600  0.48060100  0.66415800  1
  O  O86  1  0.80980100  0.67504300  0.83590500  1
  O  O87  1  0.90663300  0.62309500  0.17220300  1
  O  O88  1  0.75020900  0.92008100  0.16282300  1
  O  O89  1  0.76236500  0.99736300  0.93842500  1
  O  O90  1  0.79098800  0.99106100  0.75879900  1
  O  O91  1  0.92038100  0.74926600  0.65733700  1
  O  O92  1  0.01687500  0.76670500  0.43628800  1
  O  O93  1  0.00364000  0.79019100  0.25342400  1
