# generated using pymatgen
data_Li4V3Ni3(SnO8)2
_symmetry_space_group_name_H-M   'P 1'
_cell_length_a   5.94675500
_cell_length_b   5.96702608
_cell_length_c   9.73197687
_cell_angle_alpha   90.79555783
_cell_angle_beta   89.90541342
_cell_angle_gamma   119.78044306
_symmetry_Int_Tables_number   1
_chemical_formula_structural   Li4V3Ni3(SnO8)2
_chemical_formula_sum   'Li4 V3 Ni3 Sn2 O16'
_cell_volume   299.69291202
_cell_formula_units_Z   1
loop_
 _symmetry_equiv_pos_site_id
 _symmetry_equiv_pos_as_xyz
  1  'x, y, z'
loop_
 _atom_site_type_symbol
 _atom_site_label
 _atom_site_symmetry_multiplicity
 _atom_site_fract_x
 _atom_site_fract_y
 _atom_site_fract_z
 _atom_site_occupancy
  Li  Li0  1  0.65971200  0.31764800  0.88765800  1
  Li  Li1  1  0.99887800  0.00271200  0.98830200  1
  Li  Li2  1  0.00074700  0.00310800  0.49717700  1
  Li  Li3  1  0.33010300  0.65613000  0.40184900  1
  V  V4  1  0.33523800  0.17660500  0.21285700  1
  V  V5  1  0.82126700  0.17205900  0.21863100  1
  V  V6  1  0.17162900  0.34433200  0.71918300  1
  Ni  Ni7  1  0.83214800  0.66370500  0.21220700  1
  Ni  Ni8  1  0.16968700  0.82897900  0.71215300  1
  Ni  Ni9  1  0.65903300  0.82877300  0.71252000  1
  Sn  Sn10  1  0.67303500  0.34588900  0.50251300  1
  Sn  Sn11  1  0.34021000  0.68156000  0.98584500  1
  O  O12  1  0.32665800  0.17500500  0.60094300  1
  O  O13  1  0.53016100  0.03324500  0.33468400  1
  O  O14  1  0.67109200  0.30818200  0.10433200  1
  O  O15  1  0.00113800  0.02176700  0.30645400  1
  O  O16  1  0.01375300  0.02800800  0.80243100  1
  O  O17  1  0.84891400  0.17648600  0.60214900  1
  O  O18  1  0.50323900  0.45803900  0.33301800  1
  O  O19  1  0.96153100  0.46263900  0.33441500  1
  O  O20  1  0.16102300  0.33258500  0.10825200  1
  O  O21  1  0.84568200  0.69155100  0.59120600  1
  O  O22  1  0.02954500  0.49601600  0.84131200  1
  O  O23  1  0.46507400  0.49435700  0.84189100  1
  O  O24  1  0.31123600  0.62132200  0.60355000  1
  O  O25  1  0.17733500  0.86127900  0.10520100  1
  O  O26  1  0.48035900  0.96198000  0.84208100  1
  O  O27  1  0.68127300  0.85603600  0.10502400  1
