# generated using pymatgen
data_Li2Ti2O5
_symmetry_space_group_name_H-M   'P 1'
_cell_length_a   5.31635100
_cell_length_b   8.60759800
_cell_length_c   11.72289600
_cell_angle_alpha   67.48159456
_cell_angle_beta   90.00000000
_cell_angle_gamma   90.00000000
_symmetry_Int_Tables_number   1
_chemical_formula_structural   Li2Ti2O5
_chemical_formula_sum   'Li8 Ti8 O20'
_cell_volume   495.55066911
_cell_formula_units_Z   4
loop_
 _symmetry_equiv_pos_site_id
 _symmetry_equiv_pos_as_xyz
  1  'x, y, z'
loop_
 _atom_site_type_symbol
 _atom_site_label
 _atom_site_symmetry_multiplicity
 _atom_site_fract_x
 _atom_site_fract_y
 _atom_site_fract_z
 _atom_site_occupancy
  Li  Li0  1  0.17105100  0.10126500  0.01526400  1
  Li  Li1  1  0.34238500  0.90559600  0.30956000  1
  Li  Li2  1  0.84238500  0.09440400  0.19044000  1
  Li  Li3  1  0.67105100  0.89873500  0.48473600  1
  Li  Li4  1  0.32894900  0.10126500  0.51526400  1
  Li  Li5  1  0.15761500  0.90559600  0.80956000  1
  Li  Li6  1  0.65761500  0.09440400  0.69044000  1
  Li  Li7  1  0.82894900  0.89873500  0.98473600  1
  Ti  Ti8  1  0.66712600  0.28291500  0.88642900  1
  Ti  Ti9  1  0.83586000  0.70331600  0.28674300  1
  Ti  Ti10  1  0.16712600  0.71708500  0.61357100  1
  Ti  Ti11  1  0.66414000  0.70331600  0.78674300  1
  Ti  Ti12  1  0.33586000  0.29668400  0.21325700  1
  Ti  Ti13  1  0.83287400  0.28291500  0.38642900  1
  Ti  Ti14  1  0.16414000  0.29668400  0.71325700  1
  Ti  Ti15  1  0.33287400  0.71708500  0.11357100  1
  O  O16  1  0.78613400  0.11407100  0.01540500  1
  O  O17  1  0.32182700  0.26630100  0.86207000  1
  O  O18  1  0.17913700  0.73416600  0.25154800  1
  O  O19  1  0.22952500  0.51296800  0.60395500  1
  O  O20  1  0.72952500  0.48703200  0.89604500  1
  O  O21  1  0.72934000  0.86886900  0.32847100  1
  O  O22  1  0.82182700  0.73369900  0.63793000  1
  O  O23  1  0.28613400  0.88592900  0.48459500  1
  O  O24  1  0.22934000  0.13113100  0.17152900  1
  O  O25  1  0.32086300  0.73416600  0.75154800  1
  O  O26  1  0.67913700  0.26583400  0.24845200  1
  O  O27  1  0.77066000  0.86886900  0.82847100  1
  O  O28  1  0.71386600  0.11407100  0.51540500  1
  O  O29  1  0.17817300  0.26630100  0.36207000  1
  O  O30  1  0.27066000  0.13113100  0.67152900  1
  O  O31  1  0.27047500  0.51296800  0.10395500  1
  O  O32  1  0.77047500  0.48703200  0.39604500  1
  O  O33  1  0.82086300  0.26583400  0.74845200  1
  O  O34  1  0.67817300  0.73369900  0.13793000  1
  O  O35  1  0.21386600  0.88592900  0.98459500  1
