# generated using pymatgen
data_Li4Ti3Co2Sn3O16
_symmetry_space_group_name_H-M   'P 1'
_cell_length_a   6.13929230
_cell_length_b   6.10674452
_cell_length_c   9.84454581
_cell_angle_alpha   89.99566026
_cell_angle_beta   89.22890115
_cell_angle_gamma   119.83269135
_symmetry_Int_Tables_number   1
_chemical_formula_structural   Li4Ti3Co2Sn3O16
_chemical_formula_sum   'Li4 Ti3 Co2 Sn3 O16'
_cell_volume   320.13380186
_cell_formula_units_Z   1
loop_
 _symmetry_equiv_pos_site_id
 _symmetry_equiv_pos_as_xyz
  1  'x, y, z'
loop_
 _atom_site_type_symbol
 _atom_site_label
 _atom_site_symmetry_multiplicity
 _atom_site_fract_x
 _atom_site_fract_y
 _atom_site_fract_z
 _atom_site_occupancy
  Li  Li0  1  0.33725100  0.66864100  0.88560500  1
  Li  Li1  1  0.97951600  0.98975800  0.99615600  1
  Li  Li2  1  0.98750100  0.99369600  0.50154100  1
  Li  Li3  1  0.67035700  0.33524500  0.39258400  1
  Ti  Ti4  1  0.66142400  0.83072800  0.21731300  1
  Ti  Ti5  1  0.83018800  0.16744900  0.71618500  1
  Ti  Ti6  1  0.83084700  0.66225100  0.71653000  1
  Co  Co7  1  0.33042300  0.66528700  0.49375900  1
  Co  Co8  1  0.67325000  0.33670100  0.99310700  1
  Sn  Sn9  1  0.16947000  0.83115400  0.21415400  1
  Sn  Sn10  1  0.16949000  0.33836100  0.21415700  1
  Sn  Sn11  1  0.34117300  0.17066400  0.71280000  1
  O  O12  1  0.15317300  0.83601700  0.60225300  1
  O  O13  1  0.02962900  0.51482300  0.33668800  1
  O  O14  1  0.35055100  0.67528500  0.09772400  1
  O  O15  1  0.98687200  0.99343900  0.31882300  1
  O  O16  1  0.99040300  0.99523300  0.81459000  1
  O  O17  1  0.15331300  0.31727100  0.60227900  1
  O  O18  1  0.49084900  0.96396100  0.33459100  1
  O  O19  1  0.49101900  0.52691300  0.33464300  1
  O  O20  1  0.31329700  0.15667300  0.09525600  1
  O  O21  1  0.68957000  0.84507500  0.61361900  1
  O  O22  1  0.52917500  0.49318100  0.83188600  1
  O  O23  1  0.52926000  0.03619400  0.83193900  1
  O  O24  1  0.68950600  0.34476000  0.60261300  1
  O  O25  1  0.83034700  0.68154700  0.10540300  1
  O  O26  1  0.96177300  0.48116500  0.82624500  1
  O  O27  1  0.83037900  0.14882700  0.10539900  1
