# generated using pymatgen
data_LiMn(PO3)3
_symmetry_space_group_name_H-M   'P 1'
_cell_length_a   6.19127002
_cell_length_b   9.99037143
_cell_length_c   11.71988359
_cell_angle_alpha   90.00565197
_cell_angle_beta   100.14520368
_cell_angle_gamma   89.99070682
_symmetry_Int_Tables_number   1
_chemical_formula_structural   LiMn(PO3)3
_chemical_formula_sum   'Li4 Mn4 P12 O36'
_cell_volume   713.57663740
_cell_formula_units_Z   4
loop_
 _symmetry_equiv_pos_site_id
 _symmetry_equiv_pos_as_xyz
  1  'x, y, z'
loop_
 _atom_site_type_symbol
 _atom_site_label
 _atom_site_symmetry_multiplicity
 _atom_site_fract_x
 _atom_site_fract_y
 _atom_site_fract_z
 _atom_site_occupancy
  Li  Li0  1  0.75360300  0.50001500  0.24998300  1
  Li  Li1  1  0.50286700  0.00000100  0.50000400  1
  Li  Li2  1  0.25295200  0.50002200  0.75000700  1
  Li  Li3  1  0.00355200  0.00001000  0.00000800  1
  Mn  Mn4  1  0.99773500  0.99999400  0.49995700  1
  Mn  Mn5  1  0.74789400  0.49998000  0.75001700  1
  Mn  Mn6  1  0.24852300  0.49997800  0.25002000  1
  Mn  Mn7  1  0.49838600  0.99998900  0.99999800  1
  P  P8  1  0.39439600  0.28160400  0.59630800  1
  P  P9  1  0.14434700  0.78156600  0.84635600  1
  P  P10  1  0.89441700  0.28158500  0.09633400  1
  P  P11  1  0.64430600  0.78154300  0.34630400  1
  P  P12  1  0.16658000  0.26289400  0.91301800  1
  P  P13  1  0.91644700  0.76292600  0.16300000  1
  P  P14  1  0.66654600  0.26292600  0.41299600  1
  P  P15  1  0.41644600  0.76294100  0.66302300  1
  P  P16  1  0.27570300  0.95549400  0.24063500  1
  P  P17  1  0.02574300  0.45552000  0.49062900  1
  P  P18  1  0.77568900  0.95550000  0.74068000  1
  P  P19  1  0.52573300  0.45550600  0.99067800  1
  O  O20  1  0.26831800  0.39821900  0.51651300  1
  O  O21  1  0.01823200  0.89819000  0.76659600  1
  O  O22  1  0.76831100  0.39822100  0.01655200  1
  O  O23  1  0.51827500  0.89816900  0.26652800  1
  O  O24  1  0.10969700  0.28432300  0.04041700  1
  O  O25  1  0.85965400  0.78439900  0.29042300  1
  O  O26  1  0.60970800  0.28434800  0.54040000  1
  O  O27  1  0.35966100  0.78442900  0.79043300  1
  O  O28  1  0.16039800  0.81742500  0.19301300  1
  O  O29  1  0.91048900  0.31739900  0.44299900  1
  O  O30  1  0.66043200  0.81741500  0.69303800  1
  O  O31  1  0.41054400  0.31738400  0.94304100  1
  O  O32  1  0.52657900  0.34994000  0.32403100  1
  O  O33  1  0.27653400  0.84993300  0.57401800  1
  O  O34  1  0.02658400  0.34990100  0.82405300  1
  O  O35  1  0.77654800  0.84992000  0.07398400  1
  O  O36  1  0.52729600  0.64900600  0.32557300  1
  O  O37  1  0.27721900  0.14910800  0.57558500  1
  O  O38  1  0.02730500  0.64903400  0.82562700  1
  O  O39  1  0.77726100  0.14907800  0.07562400  1
  O  O40  1  0.45200100  0.50097400  0.10042500  1
  O  O41  1  0.20195700  0.00102000  0.35035700  1
  O  O42  1  0.95198200  0.50100200  0.60036100  1
  O  O43  1  0.70195900  0.00102900  0.85040100  1
  O  O44  1  0.02306300  0.54574600  0.38719800  1
  O  O45  1  0.77301900  0.04572500  0.63723300  1
  O  O46  1  0.52294400  0.54572400  0.88722200  1
  O  O47  1  0.27307300  0.04575400  0.13723700  1
  O  O48  1  0.96600700  0.33994200  0.21571900  1
  O  O49  1  0.71569000  0.83993000  0.46568800  1
  O  O50  1  0.46591400  0.33998000  0.71570600  1
  O  O51  1  0.21585600  0.83989000  0.96573900  1
  O  O52  1  0.94292200  0.61437600  0.14707900  1
  O  O53  1  0.69290600  0.11434700  0.39705600  1
  O  O54  1  0.44284000  0.61436900  0.64711900  1
  O  O55  1  0.19299100  0.11434300  0.89705400  1
