# generated using pymatgen
data_LiVF5
_symmetry_space_group_name_H-M   'P 1'
_cell_length_a   5.21881100
_cell_length_b   7.48378200
_cell_length_c   10.45894000
_cell_angle_alpha   90.00000000
_cell_angle_beta   90.00000000
_cell_angle_gamma   90.00000000
_symmetry_Int_Tables_number   1
_chemical_formula_structural   LiVF5
_chemical_formula_sum   'Li4 V4 F20'
_cell_volume   408.48900256
_cell_formula_units_Z   4
loop_
 _symmetry_equiv_pos_site_id
 _symmetry_equiv_pos_as_xyz
  1  'x, y, z'
loop_
 _atom_site_type_symbol
 _atom_site_label
 _atom_site_symmetry_multiplicity
 _atom_site_fract_x
 _atom_site_fract_y
 _atom_site_fract_z
 _atom_site_occupancy
  Li  Li0  1  0.81832800  0.13994400  0.00374500  1
  Li  Li1  1  0.31832800  0.36005600  0.50374500  1
  Li  Li2  1  0.68167200  0.63994400  0.00374500  1
  Li  Li3  1  0.18167200  0.86005600  0.50374500  1
  V  V4  1  0.27372500  0.11773800  0.75373200  1
  V  V5  1  0.77372500  0.38226200  0.25373200  1
  V  V6  1  0.22627500  0.61773800  0.75373200  1
  V  V7  1  0.72627500  0.88226200  0.25373200  1
  F  F8  1  0.03158300  0.06240700  0.87456600  1
  F  F9  1  0.06051500  0.05846000  0.61953000  1
  F  F10  1  0.62409000  0.13656900  0.25232800  1
  F  F11  1  0.51127800  0.16199600  0.88096100  1
  F  F12  1  0.48931900  0.18580000  0.62109500  1
  F  F13  1  0.01127800  0.33800400  0.38096100  1
  F  F14  1  0.98931900  0.31420000  0.12109500  1
  F  F15  1  0.12409000  0.36343100  0.75232800  1
  F  F16  1  0.53158300  0.43759300  0.37456600  1
  F  F17  1  0.56051500  0.44154000  0.11953000  1
  F  F18  1  0.46841700  0.56240700  0.87456600  1
  F  F19  1  0.43948500  0.55846000  0.61953000  1
  F  F20  1  0.87591000  0.63656900  0.25232800  1
  F  F21  1  0.98872200  0.66199600  0.88096100  1
  F  F22  1  0.01068100  0.68580000  0.62109500  1
  F  F23  1  0.48872200  0.83800400  0.38096100  1
  F  F24  1  0.51068100  0.81420000  0.12109500  1
  F  F25  1  0.37591000  0.86343100  0.75232800  1
  F  F26  1  0.96841700  0.93759300  0.37456600  1
  F  F27  1  0.93948500  0.94154000  0.11953000  1
