# generated using pymatgen
data_Li4Mn3Fe(PO4)4
_symmetry_space_group_name_H-M   'P 1'
_cell_length_a   6.15019600
_cell_length_b   4.78016800
_cell_length_c   10.52501525
_cell_angle_alpha   89.93754904
_cell_angle_beta   90.00000000
_cell_angle_gamma   90.00000000
_symmetry_Int_Tables_number   1
_chemical_formula_structural   Li4Mn3Fe(PO4)4
_chemical_formula_sum   'Li4 Mn3 Fe1 P4 O16'
_cell_volume   309.42442503
_cell_formula_units_Z   1
loop_
 _symmetry_equiv_pos_site_id
 _symmetry_equiv_pos_as_xyz
  1  'x, y, z'
loop_
 _atom_site_type_symbol
 _atom_site_label
 _atom_site_symmetry_multiplicity
 _atom_site_fract_x
 _atom_site_fract_y
 _atom_site_fract_z
 _atom_site_occupancy
  Li  Li0  1  0.24963900  0.99997700  0.00028200  1
  Li  Li1  1  0.75036100  0.99997700  0.00028200  1
  Li  Li2  1  0.75059100  0.49984700  0.49982300  1
  Li  Li3  1  0.24940900  0.49984700  0.49982300  1
  Mn  Mn4  1  0.50000000  0.02836100  0.71872400  1
  Mn  Mn5  1  0.50000000  0.47137200  0.21840000  1
  Mn  Mn6  1  0.00000000  0.52787000  0.78138800  1
  Fe  Fe7  1  0.00000000  0.97009500  0.28160500  1
  P  P8  1  0.00000000  0.08920100  0.59136700  1
  P  P9  1  0.00000000  0.40944600  0.09363400  1
  P  P10  1  0.50000000  0.58992900  0.90798600  1
  P  P11  1  0.50000000  0.91220400  0.40723400  1
  O  O12  1  0.00000000  0.21018400  0.45389700  1
  O  O13  1  0.20105300  0.22353900  0.66106800  1
  O  O14  1  0.79894700  0.22353900  0.66106800  1
  O  O15  1  0.50000000  0.23291200  0.40403600  1
  O  O16  1  0.50000000  0.26867400  0.90401400  1
  O  O17  1  0.20098800  0.27370400  0.16254700  1
  O  O18  1  0.79901200  0.27370400  0.16254700  1
  O  O19  1  0.00000000  0.28868100  0.95577000  1
  O  O20  1  0.50000000  0.71215700  0.04495700  1
  O  O21  1  0.70125900  0.72358400  0.83842500  1
  O  O22  1  0.29874100  0.72358400  0.83842500  1
  O  O23  1  0.00000000  0.73105200  0.09726600  1
  O  O24  1  0.00000000  0.76818900  0.59618000  1
  O  O25  1  0.70271000  0.78075500  0.33756900  1
  O  O26  1  0.29729000  0.78075500  0.33756900  1
  O  O27  1  0.50000000  0.78686600  0.54411200  1
