# generated using pymatgen
data_Li7Mn7P6(O8F)3
_symmetry_space_group_name_H-M   'P 1'
_cell_length_a   13.73675766
_cell_length_b   13.73675766
_cell_length_c   6.52297900
_cell_angle_alpha   90.00000000
_cell_angle_beta   90.00000000
_cell_angle_gamma   119.99999836
_symmetry_Int_Tables_number   1
_chemical_formula_structural   Li7Mn7P6(O8F)3
_chemical_formula_sum   'Li14 Mn14 P12 O48 F6'
_cell_volume   1065.97027016
_cell_formula_units_Z   2
loop_
 _symmetry_equiv_pos_site_id
 _symmetry_equiv_pos_as_xyz
  1  'x, y, z'
loop_
 _atom_site_type_symbol
 _atom_site_label
 _atom_site_symmetry_multiplicity
 _atom_site_fract_x
 _atom_site_fract_y
 _atom_site_fract_z
 _atom_site_occupancy
  Li  Li0  1  0.18177000  0.25839700  0.74440200  1
  Li  Li1  1  0.92337300  0.18177000  0.24440200  1
  Li  Li2  1  0.37439500  0.50062400  0.24290000  1
  Li  Li3  1  0.50062400  0.12622900  0.74290000  1
  Li  Li4  1  0.25839700  0.07662700  0.24440200  1
  Li  Li5  1  0.87377100  0.37439500  0.74290000  1
  Li  Li6  1  0.66666700  0.33333300  0.57085100  1
  Li  Li7  1  0.33333300  0.66666700  0.07085100  1
  Li  Li8  1  0.12622900  0.62560500  0.24290000  1
  Li  Li9  1  0.74160300  0.92337300  0.74440200  1
  Li  Li10  1  0.49937600  0.87377100  0.24290000  1
  Li  Li11  1  0.62560500  0.49937600  0.74290000  1
  Li  Li12  1  0.07662700  0.81823000  0.74440200  1
  Li  Li13  1  0.81823000  0.74160300  0.24440200  1
  Mn  Mn14  1  0.70288100  0.12621700  0.99034700  1
  Mn  Mn15  1  0.70215800  0.11865200  0.48762700  1
  Mn  Mn16  1  0.12621700  0.42333600  0.49034700  1
  Mn  Mn17  1  0.11865200  0.41649400  0.98762700  1
  Mn  Mn18  1  0.58350600  0.70215800  0.98762700  1
  Mn  Mn19  1  0.57666400  0.70288100  0.49034700  1
  Mn  Mn20  1  0.00000000  0.00000000  0.99324500  1
  Mn  Mn21  1  0.00000000  0.00000000  0.49324500  1
  Mn  Mn22  1  0.42333600  0.29711900  0.99034700  1
  Mn  Mn23  1  0.41649400  0.29784200  0.48762700  1
  Mn  Mn24  1  0.88134800  0.58350600  0.48762700  1
  Mn  Mn25  1  0.87378300  0.57666400  0.99034700  1
  Mn  Mn26  1  0.29784200  0.88134800  0.98762700  1
  Mn  Mn27  1  0.29711900  0.87378300  0.49034700  1
  P  P28  1  0.18250500  0.24455400  0.24145000  1
  P  P29  1  0.93795100  0.18250500  0.74145000  1
  P  P30  1  0.36732200  0.48482500  0.73999300  1
  P  P31  1  0.48482500  0.11750300  0.23999300  1
  P  P32  1  0.88249700  0.36732200  0.23999300  1
  P  P33  1  0.24455400  0.06204900  0.74145000  1
  P  P34  1  0.75544600  0.93795100  0.24145000  1
  P  P35  1  0.11750300  0.63267800  0.73999300  1
  P  P36  1  0.51517500  0.88249700  0.73999300  1
  P  P37  1  0.63267800  0.51517500  0.23999300  1
  P  P38  1  0.06204900  0.81749500  0.24145000  1
  P  P39  1  0.81749500  0.75544600  0.74145000  1
  O  O40  1  0.12582000  0.11250800  0.24251600  1
  O  O41  1  0.01331200  0.12582000  0.74251600  1
  O  O42  1  0.69161700  0.00704300  0.23946300  1
  O  O43  1  0.36517500  0.36865900  0.74793100  1
  O  O44  1  0.14604800  0.28062600  0.43686400  1
  O  O45  1  0.86542200  0.14604800  0.93686400  1
  O  O46  1  0.14451700  0.27889000  0.04529700  1
  O  O47  1  0.86562700  0.14451700  0.54529700  1
  O  O48  1  0.00704300  0.31542600  0.73946300  1
  O  O49  1  0.36865900  0.00348400  0.24793100  1
  O  O50  1  0.42809000  0.54545900  0.54046600  1
  O  O51  1  0.54545900  0.11736900  0.04046600  1
  O  O52  1  0.24357700  0.45843000  0.73765700  1
  O  O53  1  0.55402500  0.13036000  0.43693800  1
  O  O54  1  0.42366500  0.55402500  0.93693800  1
  O  O55  1  0.68457400  0.69161700  0.73946300  1
  O  O56  1  0.78514700  0.24357700  0.23765700  1
  O  O57  1  0.99651600  0.36517500  0.24793100  1
  O  O58  1  0.11250800  0.98668800  0.74251600  1
  O  O59  1  0.45843000  0.21485300  0.23765700  1
  O  O60  1  0.27889000  0.13437300  0.54529700  1
  O  O61  1  0.88263100  0.42809000  0.04046600  1
  O  O62  1  0.28062600  0.13457800  0.93686400  1
  O  O63  1  0.13036000  0.57633500  0.93693800  1
  O  O64  1  0.86964000  0.42366500  0.43693800  1
  O  O65  1  0.71937400  0.86542200  0.43686400  1
  O  O66  1  0.11736900  0.57191000  0.54046600  1
  O  O67  1  0.72111000  0.86562700  0.04529700  1
  O  O68  1  0.54157000  0.78514700  0.73765700  1
  O  O69  1  0.88749200  0.01331200  0.24251600  1
  O  O70  1  0.00348400  0.63482500  0.74793100  1
  O  O71  1  0.21485300  0.75642300  0.73765700  1
  O  O72  1  0.31542600  0.30838300  0.23946300  1
  O  O73  1  0.57633500  0.44597500  0.43693800  1
  O  O74  1  0.44597500  0.86964000  0.93693800  1
  O  O75  1  0.75642300  0.54157000  0.23765700  1
  O  O76  1  0.45454100  0.88263100  0.54046600  1
  O  O77  1  0.57191000  0.45454100  0.04046600  1
  O  O78  1  0.63134100  0.99651600  0.74793100  1
  O  O79  1  0.99295700  0.68457400  0.23946300  1
  O  O80  1  0.13437300  0.85548300  0.04529700  1
  O  O81  1  0.85548300  0.72111000  0.54529700  1
  O  O82  1  0.13457800  0.85395200  0.43686400  1
  O  O83  1  0.85395200  0.71937400  0.93686400  1
  O  O84  1  0.63482500  0.63134100  0.24793100  1
  O  O85  1  0.30838300  0.99295700  0.73946300  1
  O  O86  1  0.98668800  0.87418000  0.24251600  1
  O  O87  1  0.87418000  0.88749200  0.74251600  1
  F  F88  1  0.72554600  0.24399400  0.72489600  1
  F  F89  1  0.24399400  0.51844800  0.22489600  1
  F  F90  1  0.48155200  0.72554600  0.22489600  1
  F  F91  1  0.51844800  0.27445400  0.72489600  1
  F  F92  1  0.75600600  0.48155200  0.72489600  1
  F  F93  1  0.27445400  0.75600600  0.22489600  1
