# generated using pymatgen
data_K3Li2Nb5O15
_symmetry_space_group_name_H-M   'P 1'
_cell_length_a   12.74361900
_cell_length_b   12.74361900
_cell_length_c   4.17170600
_cell_angle_alpha   90.00000000
_cell_angle_beta   90.00000000
_cell_angle_gamma   90.00000000
_symmetry_Int_Tables_number   1
_chemical_formula_structural   K3Li2Nb5O15
_chemical_formula_sum   'K6 Li4 Nb10 O30'
_cell_volume   677.48432526
_cell_formula_units_Z   2
loop_
 _symmetry_equiv_pos_site_id
 _symmetry_equiv_pos_as_xyz
  1  'x, y, z'
loop_
 _atom_site_type_symbol
 _atom_site_label
 _atom_site_symmetry_multiplicity
 _atom_site_fract_x
 _atom_site_fract_y
 _atom_site_fract_z
 _atom_site_occupancy
  K  K0  1  0.00000000  0.00000000  0.49298200  1
  K  K1  1  0.67191900  0.17191900  0.49719500  1
  K  K2  1  0.17191900  0.32808100  0.49719500  1
  K  K3  1  0.50000000  0.50000000  0.49298200  1
  K  K4  1  0.82808100  0.67191900  0.49719500  1
  K  K5  1  0.32808100  0.82808100  0.49719500  1
  Li  Li6  1  0.37583400  0.12416600  0.54702900  1
  Li  Li7  1  0.87583400  0.37583400  0.54702900  1
  Li  Li8  1  0.12416600  0.62416600  0.54702900  1
  Li  Li9  1  0.62416600  0.87583400  0.54702900  1
  Nb  Nb10  1  0.50000000  0.00000000  0.00809600  1
  Nb  Nb11  1  0.20766500  0.07633900  0.01272600  1
  Nb  Nb12  1  0.92366100  0.20766500  0.01272600  1
  Nb  Nb13  1  0.42366100  0.29233500  0.01272600  1
  Nb  Nb14  1  0.70766500  0.42366100  0.01272600  1
  Nb  Nb15  1  0.00000000  0.50000000  0.00809600  1
  Nb  Nb16  1  0.29233500  0.57633900  0.01272600  1
  Nb  Nb17  1  0.57633900  0.70766500  0.01272600  1
  Nb  Nb18  1  0.07633900  0.79233500  0.01272600  1
  Nb  Nb19  1  0.79233500  0.92366100  0.01272600  1
  O  O20  1  0.50000000  0.00000000  0.45690400  1
  O  O21  1  0.34575000  0.00308300  0.94052900  1
  O  O22  1  0.85866400  0.06826700  0.96576900  1
  O  O23  1  0.21633200  0.08026400  0.45773800  1
  O  O24  1  0.06826700  0.14133600  0.96576900  1
  O  O25  1  0.49691700  0.15425000  0.94052900  1
  O  O26  1  0.28901400  0.21098600  0.95069400  1
  O  O27  1  0.91973600  0.21633200  0.45773800  1
  O  O28  1  0.41973600  0.28366800  0.45773800  1
  O  O29  1  0.78901400  0.28901400  0.95069400  1
  O  O30  1  0.99691700  0.34575000  0.94052900  1
  O  O31  1  0.56826700  0.35866400  0.96576900  1
  O  O32  1  0.71633200  0.41973600  0.45773800  1
  O  O33  1  0.35866400  0.43173300  0.96576900  1
  O  O34  1  0.84575000  0.49691700  0.94052900  1
  O  O35  1  0.00000000  0.50000000  0.45690400  1
  O  O36  1  0.15425000  0.50308300  0.94052900  1
  O  O37  1  0.64133600  0.56826700  0.96576900  1
  O  O38  1  0.28366800  0.58026400  0.45773800  1
  O  O39  1  0.43173300  0.64133600  0.96576900  1
  O  O40  1  0.00308300  0.65425000  0.94052900  1
  O  O41  1  0.21098600  0.71098600  0.95069400  1
  O  O42  1  0.58026400  0.71633200  0.45773800  1
  O  O43  1  0.08026400  0.78366800  0.45773800  1
  O  O44  1  0.71098600  0.78901400  0.95069400  1
  O  O45  1  0.50308300  0.84575000  0.94052900  1
  O  O46  1  0.93173300  0.85866400  0.96576900  1
  O  O47  1  0.78366800  0.91973600  0.45773800  1
  O  O48  1  0.14133600  0.93173300  0.96576900  1
  O  O49  1  0.65425000  0.99691700  0.94052900  1
