# generated using pymatgen
data_Li2MnV(P2O7)2
_symmetry_space_group_name_H-M   'P 1'
_cell_length_a   9.61145197
_cell_length_b   9.61491824
_cell_length_c   7.15811405
_cell_angle_alpha   79.51001700
_cell_angle_beta   79.54227449
_cell_angle_gamma   119.31362999
_symmetry_Int_Tables_number   1
_chemical_formula_structural   Li2MnV(P2O7)2
_chemical_formula_sum   'Li4 Mn2 V2 P8 O28'
_cell_volume   538.16210509
_cell_formula_units_Z   2
loop_
 _symmetry_equiv_pos_site_id
 _symmetry_equiv_pos_as_xyz
  1  'x, y, z'
loop_
 _atom_site_type_symbol
 _atom_site_label
 _atom_site_symmetry_multiplicity
 _atom_site_fract_x
 _atom_site_fract_y
 _atom_site_fract_z
 _atom_site_occupancy
  Li  Li0  1  0.07052264  0.43181955  0.32504059  1
  Li  Li1  1  0.31927126  0.18068991  0.67427043  1
  Li  Li2  1  0.56713030  0.92844028  0.32572845  1
  Li  Li3  1  0.82017431  0.68085567  0.67592421  1
  Mn  Mn4  1  0.25771728  0.25721634  0.26994490  1
  Mn  Mn5  1  0.99191193  0.49006521  0.73071195  1
  V  V6  1  0.75767236  0.75695828  0.27178601  1
  V  V7  1  0.49397936  0.99424714  0.72752034  1
  P  P8  1  0.35058455  0.52966528  0.51845072  1
  P  P9  1  0.85097196  0.03017923  0.52176006  1
  P  P10  1  0.66697311  0.45492942  0.08709730  1
  P  P11  1  0.17242464  0.95543059  0.08844653  1
  P  P12  1  0.29403380  0.58025055  0.91091987  1
  P  P13  1  0.79527619  0.07950398  0.91365045  1
  P  P14  1  0.21910434  0.89768178  0.48336729  1
  P  P15  1  0.72154265  0.40149988  0.47699131  1
  O  O16  1  0.19107517  0.12467330  0.08462832  1
  O  O17  1  0.01710232  0.19360898  0.39185869  1
  O  O18  1  0.20191049  0.04332076  0.50521357  1
  O  O19  1  0.27892669  0.48156892  0.11237867  1
  O  O20  1  0.48275045  0.30991429  0.15013112  1
  O  O21  1  0.33695075  0.37110272  0.48091641  1
  O  O22  1  0.20512418  0.54561607  0.49491944  1
  O  O23  1  0.70017339  0.04321828  0.50667188  1
  O  O24  1  0.55748304  0.23473162  0.60443237  1
  O  O25  1  0.05553700  0.72862869  0.60929701  1
  O  O26  1  0.62751252  0.06027364  0.91611959  1
  O  O27  1  0.12519900  0.56170868  0.91123233  1
  O  O28  1  0.34427981  0.49923205  0.75092119  1
  O  O29  1  0.75011986  0.40474045  0.24623122  1
  O  O30  1  0.25049961  0.90438967  0.25056583  1
  O  O31  1  0.68648512  0.62357041  0.08757135  1
  O  O32  1  0.51986318  0.69372315  0.39571029  1
  O  O33  1  0.70850894  0.55131438  0.49229922  1
  O  O34  1  0.87876768  0.41583626  0.51797633  1
  O  O35  1  0.37898351  0.91547618  0.51782905  1
  O  O36  1  0.93888947  0.26325298  0.85569990  1
  O  O37  1  0.43798114  0.76461188  0.84625743  1
  O  O38  1  0.27679736  0.97069973  0.88825203  1
  O  O39  1  0.76639431  0.47116478  0.88581742  1
  O  O40  1  0.77876094  0.97458349  0.11353134  1
  O  O41  1  0.98910227  0.81458309  0.14705439  1
  O  O42  1  0.83339621  0.87146427  0.48254237  1
  O  O43  1  0.84655592  0.99914120  0.75233282  1
