# generated using pymatgen
data_LiMn2(BO3)2
_symmetry_space_group_name_H-M   'P 1'
_cell_length_a   5.25285540
_cell_length_b   13.93360176
_cell_length_c   11.59501499
_cell_angle_alpha   66.23360468
_cell_angle_beta   77.71884208
_cell_angle_gamma   90.88920055
_symmetry_Int_Tables_number   1
_chemical_formula_structural   LiMn2(BO3)2
_chemical_formula_sum   'Li6 Mn12 B12 O36'
_cell_volume   754.03066959
_cell_formula_units_Z   6
loop_
 _symmetry_equiv_pos_site_id
 _symmetry_equiv_pos_as_xyz
  1  'x, y, z'
loop_
 _atom_site_type_symbol
 _atom_site_label
 _atom_site_symmetry_multiplicity
 _atom_site_fract_x
 _atom_site_fract_y
 _atom_site_fract_z
 _atom_site_occupancy
  Li  Li0  1  0.22684567  0.62334698  0.23003880  1
  Li  Li1  1  0.25637190  0.89614366  0.76564195  1
  Li  Li2  1  0.42950822  0.70651845  0.43660014  1
  Li  Li3  1  0.41165003  0.43081635  0.89407441  1
  Li  Li4  1  0.59025864  0.28408463  0.54248103  1
  Li  Li5  1  0.75467466  0.10825901  0.22914179  1
  Mn  Mn6  1  0.00977699  0.82620056  0.29980583  1
  Mn  Mn7  1  0.07227798  0.43726669  0.18462502  1
  Mn  Mn8  1  0.33784465  0.84517978  0.02356436  1
  Mn  Mn9  1  0.29516048  0.24512134  0.12831622  1
  Mn  Mn10  1  0.34430204  0.47578154  0.63855477  1
  Mn  Mn11  1  0.39670871  0.09493263  0.52029311  1
  Mn  Mn12  1  0.59570473  0.89186502  0.48001572  1
  Mn  Mn13  1  0.66791381  0.51718001  0.35482453  1
  Mn  Mn14  1  0.73608320  0.76040373  0.85640975  1
  Mn  Mn15  1  0.67589495  0.14160477  0.97723193  1
  Mn  Mn16  1  0.95395106  0.57158769  0.79132110  1
  Mn  Mn17  1  0.99505910  0.16735817  0.69776118  1
  B  B18  1  0.10335503  0.39910013  0.47941623  1
  B  B19  1  0.15742360  0.02442884  0.35443312  1
  B  B20  1  0.18293915  0.66480907  0.96502428  1
  B  B21  1  0.55984006  0.92344720  0.20206859  1
  B  B22  1  0.23380384  0.25101430  0.87160293  1
  B  B23  1  0.51214170  0.32391464  0.29900323  1
  B  B24  1  0.48474376  0.65955322  0.69631212  1
  B  B25  1  0.76096534  0.73740409  0.13534335  1
  B  B26  1  0.43577519  0.07256686  0.78842341  1
  B  B27  1  0.84006164  0.34827678  0.01818969  1
  B  B28  1  0.82906060  0.98420976  0.64233062  1
  B  B29  1  0.89527091  0.59963985  0.52541939  1
  O  O30  1  0.00621130  0.75859811  0.15515237  1
  O  O31  1  0.08407013  0.36421471  0.04397474  1
  O  O32  1  0.01239008  0.92779444  0.40035872  1
  O  O33  1  0.06116241  0.47563079  0.36502600  1
  O  O34  1  0.08718325  0.11408266  0.26940727  1
  O  O35  1  0.06873949  0.67995540  0.43291783  1
  O  O36  1  0.21355787  0.59155581  0.07751233  1
  O  O37  1  0.35632924  0.89635743  0.15448503  1
  O  O38  1  0.04539601  0.19922930  0.84304776  1
  O  O39  1  0.31975698  0.31983614  0.23431400  1
  O  O40  1  0.34773956  0.41509241  0.51193486  1
  O  O41  1  0.39179999  0.03027351  0.39871659  1
  O  O42  1  0.30093863  0.97779472  0.86366129  1
  O  O43  1  0.43032417  0.73882848  0.59553966  1
  O  O44  1  0.34156573  0.55518561  0.75080221  1
  O  O45  1  0.58332234  0.65811846  0.23000195  1
  O  O46  1  0.70437323  0.80089094  0.01680523  1
  O  O47  1  0.31467940  0.76952034  0.91086465  1
  O  O48  1  0.37691668  0.14099328  0.66651943  1
  O  O49  1  0.60299146  0.84787547  0.31774655  1
  O  O50  1  0.35217215  0.34983146  0.79332015  1
  O  O51  1  0.29666127  0.19590914  0.99165219  1
  O  O52  1  0.70021926  0.24611794  0.08454254  1
  O  O53  1  0.54071784  0.23915372  0.40603497  1
  O  O54  1  0.66656954  0.41770711  0.25740985  1
  O  O55  1  0.69529086  0.02028448  0.14350402  1
  O  O56  1  0.58647523  0.97089350  0.61180620  1
  O  O57  1  0.64839764  0.57768170  0.50531313  1
  O  O58  1  0.67482764  0.66577756  0.75956747  1
  O  O59  1  0.64320544  0.11463152  0.81498453  1
  O  O60  1  0.74640848  0.42960382  0.93241391  1
  O  O61  1  0.93605222  0.31148852  0.55935253  1
  O  O62  1  0.93355316  0.89964273  0.71458497  1
  O  O63  1  0.95692471  0.53240203  0.64279689  1
  O  O64  1  0.96213957  0.08690231  0.59204280  1
  O  O65  1  0.01868136  0.65183871  0.89104277  1
