# generated using pymatgen
data_Li24Mn11CrO36
_symmetry_space_group_name_H-M   'P 1'
_cell_length_a   8.66795111
_cell_length_b   8.66795111
_cell_length_c   11.66429451
_cell_angle_alpha   60.48697163
_cell_angle_beta   60.48697163
_cell_angle_gamma   59.82775144
_symmetry_Int_Tables_number   1
_chemical_formula_structural   Li24Mn11CrO36
_chemical_formula_sum   'Li24 Mn11 Cr1 O36'
_cell_volume   623.38658834
_cell_formula_units_Z   1
loop_
 _symmetry_equiv_pos_site_id
 _symmetry_equiv_pos_as_xyz
  1  'x, y, z'
loop_
 _atom_site_type_symbol
 _atom_site_label
 _atom_site_symmetry_multiplicity
 _atom_site_fract_x
 _atom_site_fract_y
 _atom_site_fract_z
 _atom_site_occupancy
  Li  Li0  1  0.99116100  0.00449700  0.25246800  1
  Li  Li1  1  0.99740500  0.33360000  0.99966100  1
  Li  Li2  1  0.66734000  0.99988000  0.75013800  1
  Li  Li3  1  0.66035500  0.66960400  0.74968100  1
  Li  Li4  1  0.66491200  0.99909800  0.50217000  1
  Li  Li5  1  0.33039600  0.33964500  0.25031900  1
  Li  Li6  1  0.67382700  0.32779600  0.24818700  1
  Li  Li7  1  0.66270500  0.00331400  0.25166500  1
  Li  Li8  1  0.33283400  0.66716600  0.00000000  1
  Li  Li9  1  0.33775300  0.99628100  0.75148000  1
  Li  Li10  1  0.33452800  0.66601300  0.75169700  1
  Li  Li11  1  0.32845700  0.33640800  0.75093200  1
  Li  Li12  1  0.33398700  0.66547200  0.24830300  1
  Li  Li13  1  0.00512800  0.66335900  0.74908200  1
  Li  Li14  1  0.99668600  0.33729500  0.74833500  1
  Li  Li15  1  0.99550300  0.00883900  0.74753200  1
  Li  Li16  1  0.00090200  0.33508800  0.49783000  1
  Li  Li17  1  0.66359200  0.67154300  0.24906800  1
  Li  Li18  1  0.00371900  0.66224700  0.24852000  1
  Li  Li19  1  0.00012000  0.33266000  0.24986200  1
  Li  Li20  1  0.66640000  0.00259500  0.00033900  1
  Li  Li21  1  0.67220400  0.32617300  0.75181300  1
  Li  Li22  1  0.33017700  0.66982300  0.50000000  1
  Li  Li23  1  0.33664100  0.99487200  0.25091800  1
  Mn  Mn24  1  0.66537800  0.66664900  0.00007500  1
  Mn  Mn25  1  0.66510400  0.33489600  0.00000000  1
  Mn  Mn26  1  0.33088700  0.00080200  0.00101300  1
  Mn  Mn27  1  0.33335100  0.33462200  0.99992500  1
  Mn  Mn28  1  0.33088000  0.33139700  0.50253200  1
  Mn  Mn29  1  0.33138800  0.00115200  0.50046600  1
  Mn  Mn30  1  0.99940400  0.00059600  0.00000000  1
  Mn  Mn31  1  0.99919800  0.66911300  0.99898700  1
  Mn  Mn32  1  0.99884800  0.66861200  0.49953400  1
  Mn  Mn33  1  0.99970100  0.00029900  0.50000000  1
  Mn  Mn34  1  0.66860300  0.66912000  0.49746800  1
  Cr  Cr35  1  0.66195000  0.33805000  0.50000000  1
  O  O36  1  0.82833700  0.16440000  0.11408200  1
  O  O37  1  0.80902200  0.50296500  0.88790300  1
  O  O38  1  0.85462000  0.83221100  0.61159600  1
  O  O39  1  0.52046200  0.49816800  0.11215500  1
  O  O40  1  0.83779100  0.17019500  0.38550100  1
  O  O41  1  0.49703500  0.19097700  0.11209700  1
  O  O42  1  0.50104400  0.83726200  0.88703100  1
  O  O43  1  0.50183200  0.47953800  0.88784500  1
  O  O44  1  0.49355400  0.18655100  0.61424600  1
  O  O45  1  0.49594100  0.83067800  0.61424800  1
  O  O46  1  0.18702600  0.16528500  0.11256200  1
  O  O47  1  0.50312800  0.47373500  0.38900400  1
  O  O48  1  0.16286600  0.85582600  0.11273600  1
  O  O49  1  0.16273800  0.49895600  0.11296900  1
  O  O50  1  0.47573600  0.16961600  0.38894400  1
  O  O51  1  0.16600200  0.14531600  0.88914600  1
  O  O52  1  0.16784400  0.50413400  0.88660700  1
  O  O53  1  0.14417400  0.83713400  0.88726400  1
  O  O54  1  0.18559500  0.16503600  0.61288300  1
  O  O55  1  0.16232000  0.49721000  0.61523400  1
  O  O56  1  0.16511600  0.85453300  0.61200700  1
  O  O57  1  0.85468400  0.83399800  0.11085400  1
  O  O58  1  0.16932200  0.50405900  0.38575200  1
  O  O59  1  0.16778900  0.14538000  0.38840400  1
  O  O60  1  0.83031900  0.52123200  0.11213900  1
  O  O61  1  0.14546700  0.83488400  0.38799300  1
  O  O62  1  0.83560000  0.17166300  0.88591800  1
  O  O63  1  0.83471500  0.81297400  0.88743800  1
  O  O64  1  0.83038400  0.52426400  0.61105600  1
  O  O65  1  0.82980500  0.16220900  0.61449900  1
  O  O66  1  0.83496400  0.81440500  0.38711700  1
  O  O67  1  0.49586600  0.83215600  0.11339300  1
  O  O68  1  0.81344900  0.50644600  0.38575400  1
  O  O69  1  0.47876800  0.16968100  0.88786100  1
  O  O70  1  0.52626500  0.49687200  0.61099600  1
  O  O71  1  0.50279000  0.83768000  0.38476600  1
