# generated using pymatgen
data_Li4MnFe3(PO4)4
_symmetry_space_group_name_H-M   'P 1'
_cell_length_a   6.10508000
_cell_length_b   4.76208800
_cell_length_c   10.46704167
_cell_angle_alpha   89.87561048
_cell_angle_beta   90.00000000
_cell_angle_gamma   90.00000000
_symmetry_Int_Tables_number   1
_chemical_formula_structural   Li4MnFe3(PO4)4
_chemical_formula_sum   'Li4 Mn1 Fe3 P4 O16'
_cell_volume   304.30683378
_cell_formula_units_Z   1
loop_
 _symmetry_equiv_pos_site_id
 _symmetry_equiv_pos_as_xyz
  1  'x, y, z'
loop_
 _atom_site_type_symbol
 _atom_site_label
 _atom_site_symmetry_multiplicity
 _atom_site_fract_x
 _atom_site_fract_y
 _atom_site_fract_z
 _atom_site_occupancy
  Li  Li0  1  0.24937100  0.99998300  0.00053300  1
  Li  Li1  1  0.75062900  0.99998300  0.00053300  1
  Li  Li2  1  0.24913200  0.50021400  0.49969600  1
  Li  Li3  1  0.75086800  0.50021400  0.49969600  1
  Mn  Mn4  1  0.50000000  0.97798300  0.71850800  1
  Fe  Fe5  1  0.00000000  0.47491200  0.78158400  1
  Fe  Fe6  1  0.00000000  0.02491500  0.28148300  1
  Fe  Fe7  1  0.50000000  0.52549100  0.21855600  1
  P  P8  1  0.50000000  0.41993400  0.90741600  1
  P  P9  1  0.00000000  0.91560800  0.59387600  1
  P  P10  1  0.50000000  0.08226200  0.40419200  1
  P  P11  1  0.00000000  0.58153400  0.09484700  1
  O  O12  1  0.00000000  0.70723500  0.95729900  1
  O  O13  1  0.50000000  0.74192700  0.90531200  1
  O  O14  1  0.29699600  0.28913200  0.83607500  1
  O  O15  1  0.70300400  0.28913200  0.83607500  1
  O  O16  1  0.79845000  0.77961700  0.66402300  1
  O  O17  1  0.20155000  0.77961700  0.66402300  1
  O  O18  1  0.00000000  0.23836500  0.59679400  1
  O  O19  1  0.50000000  0.20944300  0.54120400  1
  O  O20  1  0.00000000  0.79401200  0.45578200  1
  O  O21  1  0.50000000  0.75988300  0.40338300  1
  O  O22  1  0.29690600  0.21458600  0.33355800  1
  O  O23  1  0.70309400  0.21458600  0.33355800  1
  O  O24  1  0.79711200  0.71435300  0.16552100  1
  O  O25  1  0.20288800  0.71435300  0.16552100  1
  O  O26  1  0.00000000  0.25902200  0.09680500  1
  O  O27  1  0.50000000  0.29170400  0.04415000  1
