# generated using pymatgen
data_Li4V3P8O29
_symmetry_space_group_name_H-M   'P 1'
_cell_length_a   9.75970100
_cell_length_b   9.77116265
_cell_length_c   14.15848630
_cell_angle_alpha   90.21434484
_cell_angle_beta   90.02953719
_cell_angle_gamma   119.85808648
_symmetry_Int_Tables_number   1
_chemical_formula_structural   Li4V3P8O29
_chemical_formula_sum   'Li8 V6 P16 O58'
_cell_volume   1170.96742363
_cell_formula_units_Z   2
loop_
 _symmetry_equiv_pos_site_id
 _symmetry_equiv_pos_as_xyz
  1  'x, y, z'
loop_
 _atom_site_type_symbol
 _atom_site_label
 _atom_site_symmetry_multiplicity
 _atom_site_fract_x
 _atom_site_fract_y
 _atom_site_fract_z
 _atom_site_occupancy
  Li  Li0  1  0.09508100  0.32275100  0.44553700  1
  Li  Li1  1  0.68839500  0.77112400  0.43916800  1
  Li  Li2  1  0.66622100  0.90142000  0.94065700  1
  Li  Li3  1  0.09272800  0.76282200  0.93821600  1
  Li  Li4  1  0.77467300  0.09043300  0.56130600  1
  Li  Li5  1  0.22207900  0.91534100  0.44440100  1
  Li  Li6  1  0.33050200  0.09997100  0.05549200  1
  Li  Li7  1  0.98993000  0.03782900  0.99899800  1
  V  V8  1  0.56678500  0.99850200  0.74921100  1
  V  V9  1  0.43260300  0.00018800  0.25288800  1
  V  V10  1  0.99934500  0.43476000  0.24424300  1
  V  V11  1  0.99774000  0.56316100  0.75090600  1
  V  V12  1  0.43105500  0.43627300  0.75353100  1
  V  V13  1  0.56572500  0.56081900  0.24596200  1
  P  P14  1  0.22313100  0.30501800  0.15927300  1
  P  P15  1  0.08867600  0.31654800  0.66053600  1
  P  P16  1  0.68151300  0.76601700  0.65396100  1
  P  P17  1  0.33405600  0.66861100  0.87176400  1
  P  P18  1  0.33193700  0.66339200  0.36790600  1
  P  P19  1  0.68465100  0.91065400  0.15851700  1
  P  P20  1  0.77260000  0.09157600  0.33923500  1
  P  P21  1  0.08687900  0.77372200  0.15487000  1
  P  P22  1  0.91535400  0.22226500  0.84266900  1
  P  P23  1  0.22763500  0.90808300  0.66034600  1
  P  P24  1  0.31455700  0.08913100  0.83963000  1
  P  P25  1  0.66473500  0.33282600  0.63211400  1
  P  P26  1  0.66514800  0.33162900  0.12955200  1
  P  P27  1  0.31525400  0.23138400  0.34498600  1
  P  P28  1  0.91403700  0.68576300  0.33787100  1
  P  P29  1  0.77686100  0.69479000  0.83843600  1
  O  O30  1  0.23445200  0.24454400  0.42966500  1
  O  O31  1  0.25684200  0.34170200  0.66584100  1
  O  O32  1  0.99630100  0.20342400  0.92522900  1
  O  O33  1  0.08628500  0.34226400  0.16551200  1
  O  O34  1  0.38309100  0.46254600  0.16954100  1
  O  O35  1  0.32835500  0.51778700  0.82457100  1
  O  O36  1  0.52094600  0.61837900  0.67935200  1
  O  O37  1  0.79256900  0.80283100  0.91766900  1
  O  O38  1  0.65486400  0.73944700  0.17187200  1
  O  O39  1  0.18210100  0.51446300  0.32399800  1
  O  O40  1  0.09648300  0.47727700  0.68049500  1
  O  O41  1  0.48103400  0.66373800  0.32449500  1
  O  O42  1  0.33166400  0.66508000  0.97672200  1
  O  O43  1  0.33081500  0.65659300  0.47283900  1
  O  O44  1  0.48869800  0.81262600  0.83332100  1
  O  O45  1  0.09174200  0.61789400  0.17299400  1
  O  O46  1  0.18573800  0.67492400  0.83152500  1
  O  O47  1  0.66522600  0.91645200  0.66050200  1
  O  O48  1  0.79548200  0.00410500  0.24882700  1
  O  O49  1  0.76010100  0.00294800  0.42816800  1
  O  O50  1  0.77108300  0.97815000  0.06867000  1
  O  O51  1  0.52992500  0.91270500  0.17096900  1
  O  O52  1  0.32958700  0.81389900  0.33028100  1
  O  O53  1  0.74072800  0.08497300  0.83653800  1
  O  O54  1  0.38047800  0.90064100  0.68084200  1
  O  O55  1  0.08389500  0.73868500  0.67167900  1
  O  O56  1  0.99245100  0.20139100  0.74545400  1
  O  O57  1  0.00198000  0.24527600  0.56995200  1
  O  O58  1  0.00851900  0.77312200  0.42121200  1
  O  O59  1  0.92062000  0.25854900  0.33879700  1
  O  O60  1  0.62185000  0.10262200  0.32096900  1
  O  O61  1  0.25616000  0.91765400  0.16503400  1
  O  O62  1  0.66867800  0.18234300  0.66716900  1
  O  O63  1  0.47076400  0.09030200  0.82923200  1
  O  O64  1  0.22384000  0.00632700  0.92748500  1
  O  O65  1  0.23337800  0.98376500  0.56959400  1
  O  O66  1  0.20658100  0.00181000  0.74812500  1
  O  O67  1  0.33836300  0.08522200  0.34378800  1
  O  O68  1  0.81352400  0.32979200  0.17534400  1
  O  O69  1  0.92104700  0.38301500  0.83136200  1
  O  O70  1  0.51133500  0.18667900  0.16676700  1
  O  O71  1  0.67250200  0.34315700  0.02540700  1
  O  O72  1  0.67285900  0.34489800  0.52796900  1
  O  O73  1  0.52469000  0.34043000  0.68083700  1
  O  O74  1  0.90853600  0.52571200  0.31966900  1
  O  O75  1  0.81771800  0.47593500  0.68209100  1
  O  O76  1  0.34196000  0.25943900  0.83364700  1
  O  O77  1  0.20614100  0.20517700  0.25244800  1
  O  O78  1  0.20917700  0.20588400  0.07547400  1
  O  O79  1  0.47573700  0.38175400  0.32249600  1
  O  O80  1  0.67075600  0.48248700  0.17761300  1
  O  O81  1  0.61679700  0.53867200  0.83101600  1
  O  O82  1  0.91551000  0.65823500  0.84032600  1
  O  O83  1  0.01560300  0.77571100  0.06275600  1
  O  O84  1  0.98918900  0.78724400  0.24178300  1
  O  O85  1  0.74337700  0.65941000  0.33848600  1
  O  O86  1  0.74717600  0.75323400  0.56246000  1
  O  O87  1  0.79927300  0.78455800  0.73925400  1
