# generated using pymatgen
data_Li5V3P8O29
_symmetry_space_group_name_H-M   'P 1'
_cell_length_a   9.77400800
_cell_length_b   9.79896638
_cell_length_c   14.01927677
_cell_angle_alpha   89.81025689
_cell_angle_beta   89.87971344
_cell_angle_gamma   60.14818466
_symmetry_Int_Tables_number   1
_chemical_formula_structural   Li5V3P8O29
_chemical_formula_sum   'Li10 V6 P16 O58'
_cell_volume   1164.53706437
_cell_formula_units_Z   2
loop_
 _symmetry_equiv_pos_site_id
 _symmetry_equiv_pos_as_xyz
  1  'x, y, z'
loop_
 _atom_site_type_symbol
 _atom_site_label
 _atom_site_symmetry_multiplicity
 _atom_site_fract_x
 _atom_site_fract_y
 _atom_site_fract_z
 _atom_site_occupancy
  Li  Li0  1  0.90710000  0.77395800  0.44304300  1
  Li  Li1  1  0.31423800  0.91458300  0.44110200  1
  Li  Li2  1  0.33216800  0.76555600  0.94038200  1
  Li  Li3  1  0.89763700  0.33449500  0.93774800  1
  Li  Li4  1  0.22802400  0.68381600  0.56005800  1
  Li  Li5  1  0.77483200  0.32164000  0.44313200  1
  Li  Li6  1  0.09271200  0.66804500  0.05903900  1
  Li  Li7  1  0.67729700  0.09495600  0.56317300  1
  Li  Li8  1  0.23179500  0.09701400  0.05699500  1
  Li  Li9  1  0.93307800  0.01583100  0.99251600  1
  V  V10  1  0.43991600  0.56442700  0.75166200  1
  V  V11  1  0.56800600  0.42839600  0.24504300  1
  V  V12  1  0.99893100  0.56665900  0.25282100  1
  V  V13  1  0.00423500  0.43251400  0.74805700  1
  V  V14  1  0.56890400  0.99687500  0.75403500  1
  V  V15  1  0.43525900  0.00118800  0.24797100  1
  P  P16  1  0.77721700  0.91420600  0.15844700  1
  P  P17  1  0.91265100  0.76962000  0.66011500  1
  P  P18  1  0.31899800  0.91156000  0.65840000  1
  P  P19  1  0.66956900  0.66360000  0.87097300  1
  P  P20  1  0.66252300  0.66559000  0.36972300  1
  P  P21  1  0.31607000  0.77034600  0.15856900  1
  P  P22  1  0.23400000  0.67904000  0.34269800  1
  P  P23  1  0.91475000  0.31429900  0.15655300  1
  P  P24  1  0.08911900  0.68621700  0.84343600  1
  P  P25  1  0.77271100  0.31604600  0.65621000  1
  P  P26  1  0.69031600  0.22236800  0.83937600  1
  P  P27  1  0.33620000  0.33643700  0.63071900  1
  P  P28  1  0.32997600  0.33766900  0.12764600  1
  P  P29  1  0.68135600  0.08825600  0.34226700  1
  P  P30  1  0.08741700  0.22825400  0.34037900  1
  P  P31  1  0.22596100  0.08537800  0.84234800  1
  O  O32  1  0.75547400  0.00396000  0.43419200  1
  O  O33  1  0.74805600  0.91939800  0.65987600  1
  O  O34  1  0.01638500  0.77627300  0.93332000  1
  O  O35  1  0.91631000  0.74095500  0.16469300  1
  O  O36  1  0.61769400  0.91867500  0.16797000  1
  O  O37  1  0.67651800  0.80513600  0.82785700  1
  O  O38  1  0.47752100  0.90567300  0.67814100  1
  O  O39  1  0.22772600  0.99529300  0.93081600  1
  O  O40  1  0.33850700  0.91559600  0.15762300  1
  O  O41  1  0.81180300  0.67213600  0.33298300  1
  O  O42  1  0.89770000  0.62257600  0.67645200  1
  O  O43  1  0.51231700  0.81354800  0.32761400  1
  O  O44  1  0.65361500  0.65748500  0.97629400  1
  O  O45  1  0.65939200  0.65882200  0.47595500  1
  O  O46  1  0.51242100  0.67259000  0.82656100  1
  O  O47  1  0.91014400  0.47093600  0.16943900  1
  O  O48  1  0.81568300  0.50906600  0.83202700  1
  O  O49  1  0.34243200  0.74129600  0.66313300  1
  O  O50  1  0.20977100  0.79204300  0.25159700  1
  O  O51  1  0.24958100  0.75518600  0.43174100  1
  O  O52  1  0.23228000  0.76439700  0.06995800  1
  O  O53  1  0.47492400  0.61637800  0.17357600  1
  O  O54  1  0.66710700  0.51470500  0.32475600  1
  O  O55  1  0.26110600  0.66012000  0.83696900  1
  O  O56  1  0.62001100  0.47595100  0.67922700  1
  O  O57  1  0.91477900  0.33894200  0.66011300  1
  O  O58  1  0.00246400  0.79268700  0.75055700  1
  O  O59  1  0.00318000  0.75783400  0.57050200  1
  O  O60  1  0.99184400  0.23775100  0.42467600  1
  O  O61  1  0.08354000  0.66455400  0.34420500  1
  O  O62  1  0.38255100  0.52045500  0.32178800  1
  O  O63  1  0.74548800  0.33784400  0.16577500  1
  O  O64  1  0.33400000  0.48716700  0.67697100  1
  O  O65  1  0.53495800  0.38224800  0.82965300  1
  O  O66  1  0.79201500  0.21240300  0.92178200  1
  O  O67  1  0.74844700  0.24947300  0.56585700  1
  O  O68  1  0.78810300  0.20015000  0.74221500  1
  O  O69  1  0.66486600  0.25464000  0.33902300  1
  O  O70  1  0.18734900  0.49082300  0.16831100  1
  O  O71  1  0.08914200  0.53071100  0.83338200  1
  O  O72  1  0.48260700  0.33151100  0.17567800  1
  O  O73  1  0.33733100  0.34122200  0.02178600  1
  O  O74  1  0.32776000  0.35592300  0.52536200  1
  O  O75  1  0.48680900  0.18674900  0.66696300  1
  O  O76  1  0.09587300  0.38071500  0.32214500  1
  O  O77  1  0.18842500  0.33800900  0.67787300  1
  O  O78  1  0.65427800  0.08657500  0.83782600  1
  O  O79  1  0.79703400  0.99316100  0.25591200  1
  O  O80  1  0.79687300  0.99497400  0.07502400  1
  O  O81  1  0.52007200  0.10256500  0.32251400  1
  O  O82  1  0.32262100  0.19073400  0.16638100  1
  O  O83  1  0.37823100  0.09156600  0.82920700  1
  O  O84  1  0.07983500  0.25067200  0.84225100  1
  O  O85  1  0.99262700  0.22843100  0.06545100  1
  O  O86  1  0.01089500  0.20115900  0.24411400  1
  O  O87  1  0.25642800  0.08409300  0.34010600  1
  O  O88  1  0.24480800  0.98820900  0.56657500  1
  O  O89  1  0.20666800  0.99859400  0.74873100  1
