# generated using pymatgen
data_Li3MnFe3O8
_symmetry_space_group_name_H-M   'P 1'
_cell_length_a   5.88202830
_cell_length_b   5.88165007
_cell_length_c   9.57266230
_cell_angle_alpha   89.99895346
_cell_angle_beta   90.00249280
_cell_angle_gamma   119.99992740
_symmetry_Int_Tables_number   1
_chemical_formula_structural   Li3MnFe3O8
_chemical_formula_sum   'Li6 Mn2 Fe6 O16'
_cell_volume   286.80715360
_cell_formula_units_Z   2
loop_
 _symmetry_equiv_pos_site_id
 _symmetry_equiv_pos_as_xyz
  1  'x, y, z'
loop_
 _atom_site_type_symbol
 _atom_site_label
 _atom_site_symmetry_multiplicity
 _atom_site_fract_x
 _atom_site_fract_y
 _atom_site_fract_z
 _atom_site_occupancy
  Li  Li0  1  0.17316400  0.82685100  0.05702100  1
  Li  Li1  1  0.65352800  0.82677300  0.05707600  1
  Li  Li2  1  0.17318700  0.34642500  0.05704200  1
  Li  Li3  1  0.82673100  0.65351300  0.55695300  1
  Li  Li4  1  0.34635800  0.17317400  0.55692700  1
  Li  Li5  1  0.82673400  0.17325600  0.55696500  1
  Mn  Mn6  1  0.33329900  0.66664700  0.51391800  1
  Mn  Mn7  1  0.66667600  0.33335100  0.01388800  1
  Fe  Fe8  1  0.16813400  0.83186800  0.78874300  1
  Fe  Fe9  1  0.66371000  0.83185200  0.78876800  1
  Fe  Fe10  1  0.16812400  0.33626900  0.78875200  1
  Fe  Fe11  1  0.83185600  0.66372000  0.28875300  1
  Fe  Fe12  1  0.33628600  0.16814400  0.28873300  1
  Fe  Fe13  1  0.83186500  0.16815200  0.28875800  1
  O  O14  1  0.16862900  0.83135300  0.40685600  1
  O  O15  1  0.47910700  0.95826300  0.64889000  1
  O  O16  1  0.04174600  0.52087500  0.64887500  1
  O  O17  1  0.33333100  0.66667400  0.90447300  1
  O  O18  1  0.66268400  0.83135000  0.40685700  1
  O  O19  1  0.47909100  0.52083400  0.64888400  1
  O  O20  1  0.16863200  0.33729300  0.40685400  1
  O  O21  1  0.83133900  0.66267900  0.90683600  1
  O  O22  1  0.52088600  0.47913600  0.14888600  1
  O  O23  1  0.95824100  0.47914500  0.14888300  1
  O  O24  1  0.66663900  0.33331500  0.40450000  1
  O  O25  1  0.00000800  0.00003200  0.17804700  1
  O  O26  1  0.33731700  0.16866200  0.90683900  1
  O  O27  1  0.99993300  0.99996400  0.67808000  1
  O  O28  1  0.52087500  0.04174200  0.14889100  1
  O  O29  1  0.83133400  0.16867500  0.90683700  1
