# generated using pymatgen
data_Li6Mn(OF)3
_symmetry_space_group_name_H-M   'P 1'
_cell_length_a   6.74995795
_cell_length_b   9.86160565
_cell_length_c   9.90694769
_cell_angle_alpha   66.22579430
_cell_angle_beta   81.60463409
_cell_angle_gamma   98.76681312
_symmetry_Int_Tables_number   1
_chemical_formula_structural   Li6Mn(OF)3
_chemical_formula_sum   'Li24 Mn4 O12 F12'
_cell_volume   580.54787535
_cell_formula_units_Z   4
loop_
 _symmetry_equiv_pos_site_id
 _symmetry_equiv_pos_as_xyz
  1  'x, y, z'
loop_
 _atom_site_type_symbol
 _atom_site_label
 _atom_site_symmetry_multiplicity
 _atom_site_fract_x
 _atom_site_fract_y
 _atom_site_fract_z
 _atom_site_occupancy
  Li  Li0  1  0.01043500  0.80403900  0.84879700  1
  Li  Li1  1  0.01048100  0.30407200  0.34878500  1
  Li  Li2  1  0.17859200  0.72982200  0.13986700  1
  Li  Li3  1  0.17861200  0.22985500  0.63984500  1
  Li  Li4  1  0.31779400  0.50374600  0.17271400  1
  Li  Li5  1  0.31773100  0.00377700  0.67266200  1
  Li  Li6  1  0.17149200  0.46195200  0.75106600  1
  Li  Li7  1  0.17149100  0.96193600  0.25107000  1
  Li  Li8  1  0.66950200  0.64450700  0.02552700  1
  Li  Li9  1  0.66949500  0.14454500  0.52550000  1
  Li  Li10  1  0.50822300  0.56575400  0.58494200  1
  Li  Li11  1  0.50831700  0.06573200  0.08490300  1
  Li  Li12  1  0.46816800  0.43133900  0.41688600  1
  Li  Li13  1  0.46822700  0.93132700  0.91693000  1
  Li  Li14  1  0.33435400  0.35222500  0.96737900  1
  Li  Li15  1  0.33437200  0.85221800  0.46737600  1
  Li  Li16  1  0.83152600  0.53088600  0.24484000  1
  Li  Li17  1  0.83155600  0.03089700  0.74487700  1
  Li  Li18  1  0.68639200  0.50240900  0.82857800  1
  Li  Li19  1  0.68647400  0.00236500  0.32858400  1
  Li  Li20  1  0.82340000  0.27575800  0.85951300  1
  Li  Li21  1  0.82339500  0.77577600  0.35949700  1
  Li  Li22  1  0.97026400  0.19560400  0.15434700  1
  Li  Li23  1  0.97020000  0.69560800  0.65434000  1
  Mn  Mn24  1  0.02177200  0.99860700  0.00333900  1
  Mn  Mn25  1  0.52245500  0.74852800  0.75294300  1
  Mn  Mn26  1  0.02171000  0.49877700  0.50321700  1
  Mn  Mn27  1  0.52220400  0.24870000  0.25286100  1
  O  O28  1  0.09323900  0.51918600  0.30081300  1
  O  O29  1  0.09326000  0.01914500  0.80086100  1
  O  O30  1  0.26616000  0.45228700  0.56042000  1
  O  O31  1  0.26629300  0.95222700  0.06050000  1
  O  O32  1  0.77285600  0.71088700  0.80697400  1
  O  O33  1  0.77295600  0.21091800  0.30696100  1
  O  O34  1  0.42411200  0.54247600  0.79098300  1
  O  O35  1  0.42413700  0.04253000  0.29098800  1
  O  O36  1  0.57329400  0.45809600  0.21190700  1
  O  O37  1  0.57336100  0.95807600  0.71191100  1
  O  O38  1  0.90680900  0.48038300  0.69940700  1
  O  O39  1  0.90686600  0.98041200  0.19939700  1
  F  F40  1  0.40581600  0.70568800  0.01247700  1
  F  F41  1  0.40582400  0.20569800  0.51245200  1
  F  F42  1  0.91913800  0.72689000  0.06729600  1
  F  F43  1  0.91912600  0.22688500  0.56728200  1
  F  F44  1  0.07398700  0.26979400  0.93760900  1
  F  F45  1  0.07397300  0.76979100  0.43759500  1
  F  F46  1  0.22817500  0.29658400  0.18581900  1
  F  F47  1  0.22817900  0.79659400  0.68580900  1
  F  F48  1  0.73148900  0.55200700  0.43742300  1
  F  F49  1  0.73147900  0.05199100  0.93746400  1
  F  F50  1  0.59041300  0.29034900  0.98823500  1
  F  F51  1  0.59042300  0.79034500  0.48823000  1
