# generated using pymatgen
data_Li3V3P8O29
_symmetry_space_group_name_H-M   'P 1'
_cell_length_a   9.72834800
_cell_length_b   9.74016262
_cell_length_c   14.24775487
_cell_angle_alpha   90.67157544
_cell_angle_beta   89.70110883
_cell_angle_gamma   119.63380457
_symmetry_Int_Tables_number   1
_chemical_formula_structural   Li3V3P8O29
_chemical_formula_sum   'Li6 V6 P16 O58'
_cell_volume   1173.39221530
_cell_formula_units_Z   2
loop_
 _symmetry_equiv_pos_site_id
 _symmetry_equiv_pos_as_xyz
  1  'x, y, z'
loop_
 _atom_site_type_symbol
 _atom_site_label
 _atom_site_symmetry_multiplicity
 _atom_site_fract_x
 _atom_site_fract_y
 _atom_site_fract_z
 _atom_site_occupancy
  Li  Li0  1  0.65732000  0.33408700  0.09880400  1
  Li  Li1  1  0.09401600  0.32997400  0.56268000  1
  Li  Li2  1  0.90406100  0.67094500  0.44673000  1
  Li  Li3  1  0.67913700  0.90696800  0.05251600  1
  Li  Li4  1  0.05751800  0.01360000  0.99035900  1
  Li  Li5  1  0.99519900  0.99661100  0.51532500  1
  V  V6  1  0.99841300  0.43655100  0.75803000  1
  V  V7  1  0.00402100  0.56936100  0.24335400  1
  V  V8  1  0.43023400  0.43096000  0.25117100  1
  V  V9  1  0.56070900  0.56351700  0.75073600  1
  V  V10  1  0.43435900  0.99734100  0.74400800  1
  V  V11  1  0.56505300  0.00079000  0.25891300  1
  P  P12  1  0.30815600  0.08494500  0.15836500  1
  P  P13  1  0.30350100  0.21987100  0.66002900  1
  P  P14  1  0.78483800  0.08569600  0.66001400  1
  P  P15  1  0.66120000  0.33036700  0.86610500  1
  P  P16  1  0.67130700  0.34185600  0.36783500  1
  P  P17  1  0.90876000  0.21679300  0.16081300  1
  P  P18  1  0.08401500  0.31426500  0.34224700  1
  P  P19  1  0.77451000  0.68848400  0.15645800  1
  P  P20  1  0.22291400  0.30546500  0.84521000  1
  P  P21  1  0.90989800  0.68512500  0.65949000  1
  P  P22  1  0.08825100  0.78690900  0.83955200  1
  P  P23  1  0.32834300  0.66008700  0.63190900  1
  P  P24  1  0.34107200  0.67023800  0.13159000  1
  P  P25  1  0.21744000  0.91749100  0.34249700  1
  P  P26  1  0.69381600  0.77409800  0.34177300  1
  P  P27  1  0.68715400  0.91340000  0.84095800  1
  O  O28  1  0.19833500  0.99103600  0.42884000  1
  O  O29  1  0.34753200  0.08691300  0.66353500  1
  O  O30  1  0.19948500  0.21271700  0.93034100  1
  O  O31  1  0.34818000  0.26203300  0.16805200  1
  O  O32  1  0.47119700  0.09297000  0.17266500  1
  O  O33  1  0.52132200  0.18245800  0.82007200  1
  O  O34  1  0.62034900  0.07541300  0.66750300  1
  O  O35  1  0.76256800  0.98291500  0.93262900  1
  O  O36  1  0.73275200  0.07852800  0.16474200  1
  O  O37  1  0.52315400  0.33659200  0.32071700  1
  O  O38  1  0.45759500  0.38062100  0.67013700  1
  O  O39  1  0.66893200  0.18947300  0.32360800  1
  O  O40  1  0.66223400  0.32834500  0.97061200  1
  O  O41  1  0.67479300  0.34758400  0.47162000  1
  O  O42  1  0.81565400  0.33491700  0.82615800  1
  O  O43  1  0.62452100  0.52363200  0.16768500  1
  O  O44  1  0.66141300  0.47668500  0.82404900  1
  O  O45  1  0.91708600  0.26315900  0.66703300  1
  O  O46  1  0.98303400  0.19662000  0.25845500  1
  O  O47  1  0.02003100  0.24496400  0.43527200  1
  O  O48  1  0.99319400  0.20456000  0.07813700  1
  O  O49  1  0.89995000  0.37410400  0.17172600  1
  O  O50  1  0.81905700  0.48950600  0.32453800  1
  O  O51  1  0.09034400  0.35129200  0.83180200  1
  O  O52  1  0.91564800  0.53132900  0.67514600  1
  O  O53  1  0.73590600  0.64744000  0.67096000  1
  O  O54  1  0.20262400  0.19698300  0.75443100  1
  O  O55  1  0.19845300  0.20276200  0.57938400  1
  O  O56  1  0.79221100  0.78930900  0.42483500  1
  O  O57  1  0.25591600  0.34329500  0.32846300  1
  O  O58  1  0.08626600  0.47101400  0.32074800  1
  O  O59  1  0.91668500  0.65528600  0.16270600  1
  O  O60  1  0.17978100  0.51258500  0.67378000  1
  O  O61  1  0.08163200  0.62277600  0.82972500  1
  O  O62  1  0.01172500  0.80940000  0.92334300  1
  O  O63  1  0.97659200  0.76484800  0.56829600  1
  O  O64  1  0.00571000  0.80246100  0.74447000  1
  O  O65  1  0.08240900  0.74074200  0.33267200  1
  O  O66  1  0.34555500  0.52776300  0.17913800  1
  O  O67  1  0.38253600  0.46019200  0.83236300  1
  O  O68  1  0.18579300  0.66193300  0.17436700  1
  O  O69  1  0.34687200  0.67154200  0.02806900  1
  O  O70  1  0.32883200  0.65340400  0.52785700  1
  O  O71  1  0.33123700  0.81139800  0.67432200  1
  O  O72  1  0.53835200  0.61624400  0.32835900  1
  O  O73  1  0.47375600  0.66023400  0.68055400  1
  O  O74  1  0.26378800  0.91694100  0.82832600  1
  O  O75  1  0.20146100  0.00046500  0.24959500  1
  O  O76  1  0.21756600  0.00871700  0.07290800  1
  O  O77  1  0.37987500  0.92072200  0.32813400  1
  O  O78  1  0.48308900  0.82070500  0.17707700  1
  O  O79  1  0.53043500  0.91359600  0.82259900  1
  O  O80  1  0.65294200  0.74003600  0.82972500  1
  O  O81  1  0.78101800  0.78363700  0.07453900  1
  O  O82  1  0.79703600  0.79347300  0.24936100  1
  O  O83  1  0.65488900  0.91188000  0.33426500  1
  O  O84  1  0.81434500  0.00952500  0.57766100  1
  O  O85  1  0.80423500  0.00900400  0.75648700  1
