# generated using pymatgen
data_LiAlVO4
_symmetry_space_group_name_H-M   'P 1'
_cell_length_a   5.78068251
_cell_length_b   5.81491732
_cell_length_c   10.09376605
_cell_angle_alpha   105.69466204
_cell_angle_beta   89.99976314
_cell_angle_gamma   60.19466960
_symmetry_Int_Tables_number   1
_chemical_formula_structural   LiAlVO4
_chemical_formula_sum   'Li4 Al4 V4 O16'
_cell_volume   279.73932655
_cell_formula_units_Z   4
loop_
 _symmetry_equiv_pos_site_id
 _symmetry_equiv_pos_as_xyz
  1  'x, y, z'
loop_
 _atom_site_type_symbol
 _atom_site_label
 _atom_site_symmetry_multiplicity
 _atom_site_fract_x
 _atom_site_fract_y
 _atom_site_fract_z
 _atom_site_occupancy
  Li  Li0  1  0.94022200  0.11954400  0.19023400  1
  Li  Li1  1  0.44030200  0.11939500  0.69017000  1
  Li  Li2  1  0.06076900  0.87845400  0.81080200  1
  Li  Li3  1  0.56076000  0.87849600  0.31087200  1
  Al  Al4  1  0.99999000  0.50062100  0.99972000  1
  Al  Al5  1  0.50013500  0.50036200  0.49978000  1
  Al  Al6  1  0.99951500  0.50035900  0.49978400  1
  Al  Al7  1  0.49938000  0.50062000  0.99971400  1
  V  V8  1  0.75113300  0.49772900  0.74959300  1
  V  V9  1  0.49949900  0.00096400  0.00120400  1
  V  V10  1  0.25102800  0.49795300  0.24961300  1
  V  V11  1  0.99971300  0.00061200  0.50097700  1
  O  O12  1  0.35160300  0.29680600  0.38346700  1
  O  O13  1  0.85164500  0.29670800  0.88359800  1
  O  O14  1  0.86599900  0.26799300  0.39867300  1
  O  O15  1  0.36588600  0.26822700  0.89872600  1
  O  O16  1  0.13350000  0.73300100  0.60161600  1
  O  O17  1  0.63341700  0.73317700  0.10165200  1
  O  O18  1  0.64878400  0.70243900  0.61583400  1
  O  O19  1  0.14862700  0.70273400  0.11590300  1
  O  O20  1  0.09710600  0.26562500  0.61711500  1
  O  O21  1  0.59698400  0.26588500  0.11713800  1
  O  O22  1  0.63727300  0.26565900  0.61713500  1
  O  O23  1  0.13713600  0.26585300  0.11712400  1
  O  O24  1  0.36021100  0.73520500  0.38240800  1
  O  O25  1  0.86013500  0.73518700  0.88236700  1
  O  O26  1  0.90460900  0.73518500  0.38240200  1
  O  O27  1  0.40463900  0.73520800  0.88237700  1
