# generated using pymatgen
data_Li3V4(PO4)6
_symmetry_space_group_name_H-M   'P 1'
_cell_length_a   8.50707700
_cell_length_b   8.53375819
_cell_length_c   8.57564569
_cell_angle_alpha   60.63802772
_cell_angle_beta   60.87750875
_cell_angle_gamma   60.97775163
_symmetry_Int_Tables_number   1
_chemical_formula_structural   Li3V4(PO4)6
_chemical_formula_sum   'Li3 V4 P6 O24'
_cell_volume   448.46517468
_cell_formula_units_Z   1
loop_
 _symmetry_equiv_pos_site_id
 _symmetry_equiv_pos_as_xyz
  1  'x, y, z'
loop_
 _atom_site_type_symbol
 _atom_site_label
 _atom_site_symmetry_multiplicity
 _atom_site_fract_x
 _atom_site_fract_y
 _atom_site_fract_z
 _atom_site_occupancy
  Li  Li0  1  0.51542700  0.99965100  0.98236800  1
  Li  Li1  1  0.25211800  0.13613400  0.34233700  1
  Li  Li2  1  0.99295400  0.50855900  0.50143300  1
  V  V3  1  0.64276400  0.13809500  0.14196400  1
  V  V4  1  0.85578800  0.36525800  0.35100000  1
  V  V5  1  0.13629100  0.63674000  0.64768700  1
  V  V6  1  0.36310800  0.86201300  0.85480400  1
  P  P7  1  0.25000400  0.45936800  0.03583400  1
  P  P8  1  0.96130300  0.03831800  0.74923600  1
  P  P9  1  0.54019500  0.74529300  0.46773600  1
  P  P10  1  0.45242400  0.25058000  0.53762800  1
  P  P11  1  0.04668600  0.95770000  0.24983900  1
  P  P12  1  0.74718100  0.54562500  0.96019600  1
  O  O13  1  0.81378300  0.51315000  0.11789700  1
  O  O14  1  0.87655200  0.99492700  0.20635800  1
  O  O15  1  0.68382300  0.38315500  0.01161300  1
  O  O16  1  0.95391100  0.22547800  0.57448600  1
  O  O17  1  0.40617600  0.26206400  0.06069500  1
  O  O18  1  0.73526500  0.58527900  0.44190200  1
  O  O19  1  0.53375900  0.91591000  0.28024100  1
  O  O20  1  0.99768700  0.87273300  0.69591500  1
  O  O21  1  0.23497300  0.93591000  0.08134700  1
  O  O22  1  0.62703100  0.30619700  0.47958800  1
  O  O23  1  0.90927300  0.55856400  0.76692900  1
  O  O24  1  0.46650100  0.19240300  0.38748300  1
  O  O25  1  0.51417800  0.80753800  0.62311200  1
  O  O26  1  0.09049200  0.44041500  0.23430500  1
  O  O27  1  0.37742600  0.67752700  0.52392400  1
  O  O28  1  0.77083300  0.05980100  0.90999300  1
  O  O29  1  0.02652500  0.12318400  0.29670400  1
  O  O30  1  0.44560900  0.08817500  0.73169500  1
  O  O31  1  0.26190200  0.41584300  0.56280200  1
  O  O32  1  0.58569100  0.73909300  0.94280200  1
  O  O33  1  0.06817000  0.76715600  0.41628300  1
  O  O34  1  0.31341900  0.62222700  0.98716800  1
  O  O35  1  0.12911600  0.00471300  0.79951200  1
  O  O36  1  0.18046500  0.49038100  0.88451500  1
