# generated using pymatgen
data_Li4Nb2Cr3Co3O16
_symmetry_space_group_name_H-M   'P 1'
_cell_length_a   5.93649670
_cell_length_b   5.93652232
_cell_length_c   9.66064600
_cell_angle_alpha   89.99301392
_cell_angle_beta   89.99301426
_cell_angle_gamma   60.05429793
_symmetry_Int_Tables_number   1
_chemical_formula_structural   Li4Nb2Cr3Co3O16
_chemical_formula_sum   'Li4 Nb2 Cr3 Co3 O16'
_cell_volume   295.00983346
_cell_formula_units_Z   1
loop_
 _symmetry_equiv_pos_site_id
 _symmetry_equiv_pos_as_xyz
  1  'x, y, z'
loop_
 _atom_site_type_symbol
 _atom_site_label
 _atom_site_symmetry_multiplicity
 _atom_site_fract_x
 _atom_site_fract_y
 _atom_site_fract_z
 _atom_site_occupancy
  Li  Li0  1  0.66897800  0.66901000  0.90326400  1
  Li  Li1  1  0.99444000  0.99446000  0.99252200  1
  Li  Li2  1  0.99464500  0.99467400  0.49209800  1
  Li  Li3  1  0.33595400  0.33597100  0.39632400  1
  Nb  Nb4  1  0.66780700  0.66782900  0.49243400  1
  Nb  Nb5  1  0.33277000  0.33279800  0.99754100  1
  Cr  Cr6  1  0.17119200  0.17121700  0.71322500  1
  Cr  Cr7  1  0.34010900  0.83034800  0.21606400  1
  Cr  Cr8  1  0.83033400  0.34010200  0.21608000  1
  Co  Co9  1  0.17104500  0.65782600  0.71928200  1
  Co  Co10  1  0.65780200  0.17106600  0.71928100  1
  Co  Co11  1  0.82879100  0.82881400  0.21512200  1
  O  O12  1  0.51952600  0.51954100  0.34042100  1
  O  O13  1  0.67048000  0.67050500  0.11050500  1
  O  O14  1  0.99493000  0.99495700  0.30662500  1
  O  O15  1  0.99567300  0.99570300  0.80282100  1
  O  O16  1  0.16330500  0.16331800  0.09297100  1
  O  O17  1  0.83162600  0.83163600  0.59163400  1
  O  O18  1  0.34205700  0.34207200  0.61064000  1
  O  O19  1  0.48136100  0.48138600  0.84888800  1
  O  O20  1  0.33340500  0.84384700  0.58995600  1
  O  O21  1  0.84382500  0.33342600  0.58995300  1
  O  O22  1  0.52673600  0.96193000  0.33603600  1
  O  O23  1  0.96190800  0.52675900  0.33603500  1
  O  O24  1  0.03825900  0.47593800  0.84265700  1
  O  O25  1  0.47590800  0.03828900  0.84265500  1
  O  O26  1  0.16010400  0.66675100  0.09640400  1
  O  O27  1  0.66672800  0.16012600  0.09640200  1
