# generated using pymatgen
data_Li2NbV3O8
_symmetry_space_group_name_H-M   'P 1'
_cell_length_a   6.06097341
_cell_length_b   10.58110659
_cell_length_c   6.06097361
_cell_angle_alpha   73.35712467
_cell_angle_beta   60.00000066
_cell_angle_gamma   73.35712481
_symmetry_Int_Tables_number   1
_chemical_formula_structural   Li2NbV3O8
_chemical_formula_sum   'Li4 Nb2 V6 O16'
_cell_volume   317.68372977
_cell_formula_units_Z   2
loop_
 _symmetry_equiv_pos_site_id
 _symmetry_equiv_pos_as_xyz
  1  'x, y, z'
loop_
 _atom_site_type_symbol
 _atom_site_label
 _atom_site_symmetry_multiplicity
 _atom_site_fract_x
 _atom_site_fract_y
 _atom_site_fract_z
 _atom_site_occupancy
  Li  Li0  1  0.43602600  0.69192100  0.43602600  1
  Li  Li1  1  0.93602600  0.19192100  0.93602600  1
  Li  Li2  1  0.06397400  0.80807900  0.06397400  1
  Li  Li3  1  0.56397400  0.30807900  0.56397400  1
  Nb  Nb4  1  0.25000000  0.25000000  0.25000000  1
  Nb  Nb5  1  0.75000000  0.75000000  0.75000000  1
  V  V6  1  0.50000000  0.00000000  0.50000000  1
  V  V7  1  0.50000000  0.00000000  0.00000000  1
  V  V8  1  0.00000000  0.00000000  0.50000000  1
  V  V9  1  0.00000000  0.50000000  0.00000000  1
  V  V10  1  0.00000000  0.50000000  0.50000000  1
  V  V11  1  0.50000000  0.50000000  0.00000000  1
  O  O12  1  0.36742100  0.89773700  0.36742100  1
  O  O13  1  0.86742100  0.39773700  0.86742100  1
  O  O14  1  0.13257900  0.60226300  0.13257900  1
  O  O15  1  0.63257900  0.10226300  0.63257900  1
  O  O16  1  0.59543900  0.12399000  0.14028600  1
  O  O17  1  0.09543900  0.62399000  0.64028600  1
  O  O18  1  0.14028600  0.12399000  0.59543900  1
  O  O19  1  0.64028600  0.62399000  0.09543900  1
  O  O20  1  0.14028600  0.12399000  0.14028600  1
  O  O21  1  0.64028600  0.62399000  0.64028600  1
  O  O22  1  0.35971400  0.37601000  0.35971400  1
  O  O23  1  0.85971400  0.87601000  0.85971400  1
  O  O24  1  0.35971400  0.37601000  0.90456100  1
  O  O25  1  0.85971400  0.87601000  0.40456100  1
  O  O26  1  0.90456100  0.37601000  0.35971400  1
  O  O27  1  0.40456100  0.87601000  0.85971400  1
