# generated using pymatgen
data_LiNbCrO4
_symmetry_space_group_name_H-M   'P 1'
_cell_length_a   6.30824400
_cell_length_b   6.30824400
_cell_length_c   8.46472200
_cell_angle_alpha   90.00000000
_cell_angle_beta   90.00000000
_cell_angle_gamma   90.00000000
_symmetry_Int_Tables_number   1
_chemical_formula_structural   LiNbCrO4
_chemical_formula_sum   'Li4 Nb4 Cr4 O16'
_cell_volume   336.84465939
_cell_formula_units_Z   4
loop_
 _symmetry_equiv_pos_site_id
 _symmetry_equiv_pos_as_xyz
  1  'x, y, z'
loop_
 _atom_site_type_symbol
 _atom_site_label
 _atom_site_symmetry_multiplicity
 _atom_site_fract_x
 _atom_site_fract_y
 _atom_site_fract_z
 _atom_site_occupancy
  Li  Li0  1  0.00000000  0.23171500  0.00000000  1
  Li  Li1  1  0.00000000  0.76828500  0.50000000  1
  Li  Li2  1  0.23171500  0.00000000  0.25000000  1
  Li  Li3  1  0.76828500  0.00000000  0.75000000  1
  Nb  Nb4  1  0.24949500  0.24949500  0.62500000  1
  Nb  Nb5  1  0.24949500  0.75050500  0.87500000  1
  Nb  Nb6  1  0.75050500  0.24949500  0.37500000  1
  Nb  Nb7  1  0.75050500  0.75050500  0.12500000  1
  Cr  Cr8  1  0.24239500  0.50000000  0.25000000  1
  Cr  Cr9  1  0.50000000  0.24239500  0.00000000  1
  Cr  Cr10  1  0.50000000  0.75760500  0.50000000  1
  Cr  Cr11  1  0.75760500  0.50000000  0.75000000  1
  O  O12  1  0.99733900  0.25181400  0.25346300  1
  O  O13  1  0.99733900  0.74818600  0.24653700  1
  O  O14  1  0.25181400  0.99733900  0.99653700  1
  O  O15  1  0.25181400  0.00266100  0.50346300  1
  O  O16  1  0.25415900  0.50366000  0.00690200  1
  O  O17  1  0.25415900  0.49634000  0.49309800  1
  O  O18  1  0.50366000  0.25415900  0.24309800  1
  O  O19  1  0.50366000  0.74584100  0.25690200  1
  O  O20  1  0.49634000  0.25415900  0.75690200  1
  O  O21  1  0.49634000  0.74584100  0.74309800  1
  O  O22  1  0.74584100  0.49634000  0.50690200  1
  O  O23  1  0.74584100  0.50366000  0.99309800  1
  O  O24  1  0.74818600  0.99733900  0.00346300  1
  O  O25  1  0.74818600  0.00266100  0.49653700  1
  O  O26  1  0.00266100  0.25181400  0.74653700  1
  O  O27  1  0.00266100  0.74818600  0.75346300  1
