# generated using pymatgen
data_LiMn3(BO3)3
_symmetry_space_group_name_H-M   'P 1'
_cell_length_a   5.78419200
_cell_length_b   8.11875978
_cell_length_c   9.17200569
_cell_angle_alpha   110.57430180
_cell_angle_beta   105.00978018
_cell_angle_gamma   100.77927440
_symmetry_Int_Tables_number   1
_chemical_formula_structural   LiMn3(BO3)3
_chemical_formula_sum   'Li2 Mn6 B6 O18'
_cell_volume   370.62288519
_cell_formula_units_Z   2
loop_
 _symmetry_equiv_pos_site_id
 _symmetry_equiv_pos_as_xyz
  1  'x, y, z'
loop_
 _atom_site_type_symbol
 _atom_site_label
 _atom_site_symmetry_multiplicity
 _atom_site_fract_x
 _atom_site_fract_y
 _atom_site_fract_z
 _atom_site_occupancy
  Li  Li0  1  0.48515600  0.17273300  0.89605000  1
  Li  Li1  1  0.51484400  0.82726700  0.10395000  1
  Mn  Mn2  1  0.56894200  0.82346900  0.77033100  1
  Mn  Mn3  1  0.78549800  0.52626100  0.86470700  1
  Mn  Mn4  1  0.07722800  0.82960200  0.51310500  1
  Mn  Mn5  1  0.92277200  0.17039800  0.48689500  1
  Mn  Mn6  1  0.21450200  0.47373900  0.13529300  1
  Mn  Mn7  1  0.43105800  0.17653100  0.22966900  1
  B  B8  1  0.45885600  0.19233700  0.57492400  1
  B  B9  1  0.88127600  0.14156400  0.12813900  1
  B  B10  1  0.75329100  0.50643000  0.20685500  1
  B  B11  1  0.24670900  0.49357000  0.79314500  1
  B  B12  1  0.11872400  0.85843600  0.87186100  1
  B  B13  1  0.54114400  0.80766300  0.42507600  1
  O  O14  1  0.75910100  0.07694600  0.96273300  1
  O  O15  1  0.40135100  0.78186600  0.52237200  1
  O  O16  1  0.11747400  0.27753200  0.20573500  1
  O  O17  1  0.55402100  0.26935100  0.74351700  1
  O  O18  1  0.20992100  0.07290900  0.48755300  1
  O  O19  1  0.89474100  0.53146900  0.11031600  1
  O  O20  1  0.22707200  0.91281000  0.77005300  1
  O  O21  1  0.49247600  0.62067800  0.87944900  1
  O  O22  1  0.84524500  0.58682200  0.37489100  1
  O  O23  1  0.15475500  0.41317800  0.62510900  1
  O  O24  1  0.50752400  0.37932200  0.12055100  1
  O  O25  1  0.77292800  0.08719000  0.22994700  1
  O  O26  1  0.10525900  0.46853100  0.88968400  1
  O  O27  1  0.79007900  0.92709100  0.51244700  1
  O  O28  1  0.44597900  0.73064900  0.25648300  1
  O  O29  1  0.88252600  0.72246800  0.79426500  1
  O  O30  1  0.59864900  0.21813400  0.47762800  1
  O  O31  1  0.24089900  0.92305400  0.03726700  1
