# generated using pymatgen
data_Li4AlCr3O8
_symmetry_space_group_name_H-M   'P 1'
_cell_length_a   5.14259135
_cell_length_b   9.76450997
_cell_length_c   5.85118028
_cell_angle_alpha   89.99999846
_cell_angle_beta   89.99990334
_cell_angle_gamma   100.65347938
_symmetry_Int_Tables_number   1
_chemical_formula_structural   Li4AlCr3O8
_chemical_formula_sum   'Li8 Al2 Cr6 O16'
_cell_volume   288.75189509
_cell_formula_units_Z   2
loop_
 _symmetry_equiv_pos_site_id
 _symmetry_equiv_pos_as_xyz
  1  'x, y, z'
loop_
 _atom_site_type_symbol
 _atom_site_label
 _atom_site_symmetry_multiplicity
 _atom_site_fract_x
 _atom_site_fract_y
 _atom_site_fract_z
 _atom_site_occupancy
  Li  Li0  1  0.49994200  0.49906600  0.00019700  1
  Li  Li1  1  0.99996500  0.99905600  0.50018100  1
  Li  Li2  1  0.00005900  0.00093600  0.00019700  1
  Li  Li3  1  0.50003800  0.50094600  0.50018100  1
  Li  Li4  1  0.25000200  0.25000000  0.24750100  1
  Li  Li5  1  0.74999900  0.75000000  0.74750900  1
  Li  Li6  1  0.25000100  0.24999900  0.75219800  1
  Li  Li7  1  0.74999900  0.75000100  0.25219600  1
  Al  Al8  1  0.75000100  0.24999900  0.99876300  1
  Al  Al9  1  0.24999900  0.74999900  0.49872500  1
  Cr  Cr10  1  0.25000200  0.75000000  0.99849600  1
  Cr  Cr11  1  0.99870600  0.49902500  0.25152200  1
  Cr  Cr12  1  0.50126700  0.00097700  0.25153300  1
  Cr  Cr13  1  0.74999100  0.25000300  0.49852300  1
  Cr  Cr14  1  0.49872700  0.99903000  0.75152900  1
  Cr  Cr15  1  0.00127100  0.50097200  0.75151600  1
  O  O16  1  0.39183700  0.12165600  0.50183700  1
  O  O17  1  0.89183200  0.62164400  0.00181700  1
  O  O18  1  0.10817100  0.37834400  0.50182700  1
  O  O19  1  0.60816900  0.87835400  0.00182200  1
  O  O20  1  0.40598800  0.12634300  0.00041600  1
  O  O21  1  0.90596400  0.62633600  0.50040500  1
  O  O22  1  0.09401800  0.37365600  0.00041700  1
  O  O23  1  0.59403800  0.87366200  0.50040200  1
  O  O24  1  0.85188600  0.13231900  0.75778400  1
  O  O25  1  0.35186300  0.63231500  0.25773100  1
  O  O26  1  0.85540300  0.13300100  0.23984400  1
  O  O27  1  0.35538000  0.63299800  0.73979300  1
  O  O28  1  0.64460200  0.36699500  0.23983800  1
  O  O29  1  0.14462300  0.86700300  0.73979200  1
  O  O30  1  0.64811400  0.36768100  0.75777900  1
  O  O31  1  0.14814000  0.86768400  0.25773000  1
