# generated using pymatgen
data_Li5Mn4P4O16F
_symmetry_space_group_name_H-M   'P 1'
_cell_length_a   8.32109457
_cell_length_b   8.32109457
_cell_length_c   8.32109457
_cell_angle_alpha   95.77711880
_cell_angle_beta   95.77711880
_cell_angle_gamma   143.00442986
_symmetry_Int_Tables_number   1
_chemical_formula_structural   Li5Mn4P4O16F
_chemical_formula_sum   'Li5 Mn4 P4 O16 F1'
_cell_volume   328.79260192
_cell_formula_units_Z   1
loop_
 _symmetry_equiv_pos_site_id
 _symmetry_equiv_pos_as_xyz
  1  'x, y, z'
loop_
 _atom_site_type_symbol
 _atom_site_label
 _atom_site_symmetry_multiplicity
 _atom_site_fract_x
 _atom_site_fract_y
 _atom_site_fract_z
 _atom_site_occupancy
  Li  Li0  1  0.50000000  0.50000000  0.00000000  1
  Li  Li1  1  0.11460800  0.44391600  0.45476900  1
  Li  Li2  1  0.34016100  0.88539200  0.32930800  1
  Li  Li3  1  0.55608400  0.01085300  0.67069200  1
  Li  Li4  1  0.98914700  0.65983900  0.54523100  1
  Mn  Mn5  1  0.88264400  0.16656900  0.04784500  1
  Mn  Mn6  1  0.83343100  0.88127600  0.71607400  1
  Mn  Mn7  1  0.16520100  0.11735600  0.28392600  1
  Mn  Mn8  1  0.11872400  0.83479900  0.95215500  1
  P  P9  1  0.62021400  0.78504500  0.34537500  1
  P  P10  1  0.72516100  0.37978600  0.16483100  1
  P  P11  1  0.21495500  0.56033000  0.83516900  1
  P  P12  1  0.43967000  0.27483900  0.65462500  1
  O  O13  1  0.37227300  0.50131800  0.19994200  1
  O  O14  1  0.83746800  0.04167500  0.27273600  1
  O  O15  1  0.20712800  0.66365200  0.99489900  1
  O  O16  1  0.33634800  0.33124800  0.54347600  1
  O  O17  1  0.50387200  0.82340200  0.44927400  1
  O  O18  1  0.94540200  0.49612700  0.31952900  1
  O  O19  1  0.82766900  0.62772700  0.12904600  1
  O  O20  1  0.43526800  0.16253200  0.20420700  1
  O  O21  1  0.95832500  0.23106200  0.79579300  1
  O  O22  1  0.49868200  0.69862300  0.87095400  1
  O  O23  1  0.17659800  0.62587300  0.68047100  1
  O  O24  1  0.37412700  0.05459800  0.55072600  1
  O  O25  1  0.78777100  0.79287200  0.45652400  1
  O  O26  1  0.66875200  0.21222900  0.00510100  1
  O  O27  1  0.76893800  0.56473200  0.72726400  1
  O  O28  1  0.30137700  0.17233100  0.80005800  1
  F  F29  1  0.00000000  0.00000000  0.00000000  1
