# generated using pymatgen
data_Li5CoO4
_symmetry_space_group_name_H-M   'P 1'
_cell_length_a   9.19176300
_cell_length_b   9.20438900
_cell_length_c   9.20471400
_cell_angle_alpha   90.00000000
_cell_angle_beta   90.00000000
_cell_angle_gamma   90.00000000
_symmetry_Int_Tables_number   1
_chemical_formula_structural   Li5CoO4
_chemical_formula_sum   'Li40 Co8 O32'
_cell_volume   778.76079859
_cell_formula_units_Z   8
loop_
 _symmetry_equiv_pos_site_id
 _symmetry_equiv_pos_as_xyz
  1  'x, y, z'
loop_
 _atom_site_type_symbol
 _atom_site_label
 _atom_site_symmetry_multiplicity
 _atom_site_fract_x
 _atom_site_fract_y
 _atom_site_fract_z
 _atom_site_occupancy
  Li  Li0  1  0.61149700  0.14288800  0.11012700  1
  Li  Li1  1  0.88850300  0.64288800  0.11012700  1
  Li  Li2  1  0.10931500  0.83964700  0.11848700  1
  Li  Li3  1  0.39068500  0.33964700  0.11848700  1
  Li  Li4  1  0.85169000  0.37456800  0.11952300  1
  Li  Li5  1  0.64831000  0.87456800  0.11952300  1
  Li  Li6  1  0.87629500  0.10553400  0.14835600  1
  Li  Li7  1  0.62370500  0.60553400  0.14835600  1
  Li  Li8  1  0.11815900  0.39440600  0.15748300  1
  Li  Li9  1  0.38184100  0.89440600  0.15748300  1
  Li  Li10  1  0.88184100  0.89440600  0.34251700  1
  Li  Li11  1  0.61815900  0.39440600  0.34251700  1
  Li  Li12  1  0.37629500  0.10553400  0.35164400  1
  Li  Li13  1  0.12370500  0.60553400  0.35164400  1
  Li  Li14  1  0.14831000  0.87456800  0.38047700  1
  Li  Li15  1  0.35169000  0.37456800  0.38047700  1
  Li  Li16  1  0.89068500  0.33964700  0.38151300  1
  Li  Li17  1  0.60931500  0.83964700  0.38151300  1
  Li  Li18  1  0.11149700  0.14288800  0.38987300  1
  Li  Li19  1  0.38850300  0.64288800  0.38987300  1
  Li  Li20  1  0.61149700  0.35711200  0.61012700  1
  Li  Li21  1  0.88850300  0.85711200  0.61012700  1
  Li  Li22  1  0.10931500  0.66035300  0.61848700  1
  Li  Li23  1  0.39068500  0.16035300  0.61848700  1
  Li  Li24  1  0.64831000  0.62543200  0.61952300  1
  Li  Li25  1  0.85169000  0.12543200  0.61952300  1
  Li  Li26  1  0.62370500  0.89446600  0.64835600  1
  Li  Li27  1  0.87629500  0.39446600  0.64835600  1
  Li  Li28  1  0.11815900  0.10559400  0.65748300  1
  Li  Li29  1  0.38184100  0.60559400  0.65748300  1
  Li  Li30  1  0.61815900  0.10559400  0.84251700  1
  Li  Li31  1  0.88184100  0.60559400  0.84251700  1
  Li  Li32  1  0.37629500  0.39446600  0.85164400  1
  Li  Li33  1  0.12370500  0.89446600  0.85164400  1
  Li  Li34  1  0.14831000  0.62543200  0.88047700  1
  Li  Li35  1  0.35169000  0.12543200  0.88047700  1
  Li  Li36  1  0.60931500  0.66035300  0.88151300  1
  Li  Li37  1  0.89068500  0.16035300  0.88151300  1
  Li  Li38  1  0.11149700  0.35711200  0.88987300  1
  Li  Li39  1  0.38850300  0.85711200  0.88987300  1
  Co  Co40  1  0.14775200  0.11821300  0.11360000  1
  Co  Co41  1  0.35224800  0.61821300  0.11360000  1
  Co  Co42  1  0.64775200  0.11821300  0.38640000  1
  Co  Co43  1  0.85224800  0.61821300  0.38640000  1
  Co  Co44  1  0.14775200  0.38178700  0.61360000  1
  Co  Co45  1  0.35224800  0.88178700  0.61360000  1
  Co  Co46  1  0.64775200  0.38178700  0.88640000  1
  Co  Co47  1  0.85224800  0.88178700  0.88640000  1
  O  O48  1  0.25148000  0.48379000  0.00663600  1
  O  O49  1  0.24852000  0.98379000  0.00663600  1
  O  O50  1  0.00688100  0.24596200  0.03591600  1
  O  O51  1  0.49311900  0.74596200  0.03591600  1
  O  O52  1  0.03377300  0.99995900  0.24454600  1
  O  O53  1  0.46622700  0.49995900  0.24454600  1
  O  O54  1  0.24677600  0.24059900  0.24585100  1
  O  O55  1  0.25322400  0.74059900  0.24585100  1
  O  O56  1  0.74677600  0.24059900  0.25414900  1
  O  O57  1  0.75322400  0.74059900  0.25414900  1
  O  O58  1  0.53377300  0.99995900  0.25545400  1
  O  O59  1  0.96622700  0.49995900  0.25545400  1
  O  O60  1  0.50688100  0.24596200  0.46408400  1
  O  O61  1  0.99311900  0.74596200  0.46408400  1
  O  O62  1  0.75148000  0.48379000  0.49336400  1
  O  O63  1  0.74852000  0.98379000  0.49336400  1
  O  O64  1  0.25148000  0.01621000  0.50663600  1
  O  O65  1  0.24852000  0.51621000  0.50663600  1
  O  O66  1  0.00688100  0.25403800  0.53591600  1
  O  O67  1  0.49311900  0.75403800  0.53591600  1
  O  O68  1  0.03377300  0.50004100  0.74454600  1
  O  O69  1  0.46622700  0.00004100  0.74454600  1
  O  O70  1  0.24677600  0.25940100  0.74585100  1
  O  O71  1  0.25322400  0.75940100  0.74585100  1
  O  O72  1  0.74677600  0.25940100  0.75414900  1
  O  O73  1  0.75322400  0.75940100  0.75414900  1
  O  O74  1  0.53377300  0.50004100  0.75545400  1
  O  O75  1  0.96622700  0.00004100  0.75545400  1
  O  O76  1  0.50688100  0.25403800  0.96408400  1
  O  O77  1  0.99311900  0.75403800  0.96408400  1
  O  O78  1  0.75148000  0.01621000  0.99336400  1
  O  O79  1  0.74852000  0.51621000  0.99336400  1
