# generated using pymatgen
data_Li3Co(BO2)5
_symmetry_space_group_name_H-M   'P 1'
_cell_length_a   6.94702700
_cell_length_b   7.09736073
_cell_length_c   9.37695797
_cell_angle_alpha   80.17000928
_cell_angle_beta   68.94587751
_cell_angle_gamma   61.83010721
_symmetry_Int_Tables_number   1
_chemical_formula_structural   Li3Co(BO2)5
_chemical_formula_sum   'Li6 Co2 B10 O20'
_cell_volume   380.36384050
_cell_formula_units_Z   2
loop_
 _symmetry_equiv_pos_site_id
 _symmetry_equiv_pos_as_xyz
  1  'x, y, z'
loop_
 _atom_site_type_symbol
 _atom_site_label
 _atom_site_symmetry_multiplicity
 _atom_site_fract_x
 _atom_site_fract_y
 _atom_site_fract_z
 _atom_site_occupancy
  Li  Li0  1  0.24136300  0.49280100  0.24854500  1
  Li  Li1  1  0.81570100  0.99199300  0.16251400  1
  Li  Li2  1  0.01988200  0.19343100  0.46434700  1
  Li  Li3  1  0.98011800  0.80656900  0.53565300  1
  Li  Li4  1  0.18429900  0.00800700  0.83748600  1
  Li  Li5  1  0.75863700  0.50719900  0.75145500  1
  Co  Co6  1  0.21423400  0.52347800  0.88429200  1
  Co  Co7  1  0.78576600  0.47652200  0.11570800  1
  B  B8  1  0.30422800  0.80435600  0.07367900  1
  B  B9  1  0.41036900  0.85921900  0.29011300  1
  B  B10  1  0.36343400  0.75021400  0.56815100  1
  B  B11  1  0.21562800  0.16829600  0.13159500  1
  B  B12  1  0.74449300  0.71597300  0.39694900  1
  B  B13  1  0.25550700  0.28402700  0.60305100  1
  B  B14  1  0.78437200  0.83170400  0.86840500  1
  B  B15  1  0.63656600  0.24978600  0.43184900  1
  B  B16  1  0.58963100  0.14078100  0.70988700  1
  B  B17  1  0.69577200  0.19564400  0.92632100  1
  O  O18  1  0.26987500  0.69366800  0.99450100  1
  O  O19  1  0.27201600  0.84213000  0.44816500  1
  O  O20  1  0.40854200  0.71984800  0.18772100  1
  O  O21  1  0.21876700  0.73950800  0.70592400  1
  O  O22  1  0.12960900  0.37959500  0.09922700  1
  O  O23  1  0.65595900  0.78366400  0.27281900  1
  O  O24  1  0.04725200  0.30585100  0.62222700  1
  O  O25  1  0.69366100  0.91149800  0.74983800  1
  O  O26  1  0.59959200  0.68233600  0.53973700  1
  O  O27  1  0.77891500  0.97418900  0.95799000  1
  O  O28  1  0.22108500  0.02581100  0.04201000  1
  O  O29  1  0.40040800  0.31766400  0.46026300  1
  O  O30  1  0.30633900  0.08850200  0.25016200  1
  O  O31  1  0.95274800  0.69414900  0.37777300  1
  O  O32  1  0.34404100  0.21633600  0.72718100  1
  O  O33  1  0.87039100  0.62040500  0.90077300  1
  O  O34  1  0.78123300  0.26049200  0.29407600  1
  O  O35  1  0.59145800  0.28015200  0.81227900  1
  O  O36  1  0.72798400  0.15787000  0.55183500  1
  O  O37  1  0.73012500  0.30633200  0.00549900  1
