# generated using pymatgen
data_Li7CuAs4ClO14
_symmetry_space_group_name_H-M   'P 1'
_cell_length_a   6.65671665
_cell_length_b   6.65671665
_cell_length_c   15.15804081
_cell_angle_alpha   85.74469360
_cell_angle_beta   85.74469360
_cell_angle_gamma   79.28307082
_symmetry_Int_Tables_number   1
_chemical_formula_structural   Li7CuAs4ClO14
_chemical_formula_sum   'Li14 Cu2 As8 Cl2 O28'
_cell_volume   656.89468485
_cell_formula_units_Z   2
loop_
 _symmetry_equiv_pos_site_id
 _symmetry_equiv_pos_as_xyz
  1  'x, y, z'
loop_
 _atom_site_type_symbol
 _atom_site_label
 _atom_site_symmetry_multiplicity
 _atom_site_fract_x
 _atom_site_fract_y
 _atom_site_fract_z
 _atom_site_occupancy
  Li  Li0  1  0.99388900  0.41376400  0.81938300  1
  Li  Li1  1  0.38265800  0.80039400  0.82256100  1
  Li  Li2  1  0.41376400  0.99388900  0.31938300  1
  Li  Li3  1  0.80039400  0.38265800  0.32256100  1
  Li  Li4  1  0.11073600  0.96056400  0.49536700  1
  Li  Li5  1  0.48418000  0.36549300  0.80864100  1
  Li  Li6  1  0.96056400  0.11073600  0.99536700  1
  Li  Li7  1  0.11980100  0.58154600  0.97353900  1
  Li  Li8  1  0.36549300  0.48418000  0.30864100  1
  Li  Li9  1  0.58154600  0.11980100  0.47353900  1
  Li  Li10  1  0.50417400  0.02349600  0.00432000  1
  Li  Li11  1  0.02349600  0.50417400  0.50432000  1
  Li  Li12  1  0.31037500  0.13158600  0.65837700  1
  Li  Li13  1  0.13158600  0.31037500  0.15837700  1
  Cu  Cu14  1  0.71216000  0.72082300  0.65991600  1
  Cu  Cu15  1  0.72082300  0.71216000  0.15991600  1
  As  As16  1  0.87012800  0.90164800  0.82983800  1
  As  As17  1  0.90164800  0.87012800  0.32983800  1
  As  As18  1  0.62799600  0.51945200  0.98294700  1
  As  As19  1  0.51945200  0.62799600  0.48294700  1
  As  As20  1  0.83063000  0.20278200  0.65508300  1
  As  As21  1  0.20278200  0.83063000  0.15508300  1
  As  As22  1  0.23758900  0.62078300  0.65716600  1
  As  As23  1  0.62078300  0.23758900  0.15716600  1
  Cl  Cl24  1  0.27548200  0.12659100  0.88462500  1
  Cl  Cl25  1  0.12659100  0.27548200  0.38462500  1
  O  O26  1  0.68772300  0.80043600  0.78221800  1
  O  O27  1  0.80043600  0.68772300  0.28221800  1
  O  O28  1  0.87957100  0.41677900  0.95954500  1
  O  O29  1  0.73112000  0.60768000  0.54251800  1
  O  O30  1  0.41677900  0.87957100  0.45954500  1
  O  O31  1  0.60768000  0.73112000  0.04251800  1
  O  O32  1  0.38771500  0.79166000  0.68132900  1
  O  O33  1  0.72963500  0.40060000  0.72124100  1
  O  O34  1  0.45806100  0.55626000  0.90341400  1
  O  O35  1  0.97758000  0.04707400  0.74109200  1
  O  O36  1  0.79166000  0.38771500  0.18132900  1
  O  O37  1  0.40060000  0.72963500  0.22124100  1
  O  O38  1  0.55626000  0.45806100  0.40341400  1
  O  O39  1  0.04707400  0.97758000  0.24109200  1
  O  O40  1  0.07484600  0.71714000  0.85536700  1
  O  O41  1  0.76384900  0.04997200  0.91290800  1
  O  O42  1  0.34293900  0.50798200  0.55501900  1
  O  O43  1  0.00839000  0.74108600  0.61934100  1
  O  O44  1  0.71714000  0.07484600  0.35536700  1
  O  O45  1  0.64625700  0.09963300  0.61029900  1
  O  O46  1  0.04997200  0.76384900  0.41290800  1
  O  O47  1  0.50798200  0.34293900  0.05501900  1
  O  O48  1  0.24481500  0.41006900  0.72816200  1
  O  O49  1  0.74108600  0.00839000  0.11934100  1
  O  O50  1  0.09963300  0.64625700  0.11029900  1
  O  O51  1  0.41006900  0.24481500  0.22816200  1
  O  O52  1  0.03817600  0.21929900  0.58321800  1
  O  O53  1  0.21929900  0.03817600  0.08321800  1
