# generated using pymatgen
data_LiFePO4
_symmetry_space_group_name_H-M   'P 1'
_cell_length_a   5.88721700
_cell_length_b   7.70809400
_cell_length_c   13.88989900
_cell_angle_alpha   90.00000000
_cell_angle_beta   90.00000000
_cell_angle_gamma   90.00000000
_symmetry_Int_Tables_number   1
_chemical_formula_structural   LiFePO4
_chemical_formula_sum   'Li8 Fe8 P8 O32'
_cell_volume   630.31281076
_cell_formula_units_Z   8
loop_
 _symmetry_equiv_pos_site_id
 _symmetry_equiv_pos_as_xyz
  1  'x, y, z'
loop_
 _atom_site_type_symbol
 _atom_site_label
 _atom_site_symmetry_multiplicity
 _atom_site_fract_x
 _atom_site_fract_y
 _atom_site_fract_z
 _atom_site_occupancy
  Li  Li0  1  0.15538700  0.19676000  0.22441000  1
  Li  Li1  1  0.65538700  0.19676000  0.27559000  1
  Li  Li2  1  0.65538700  0.30324000  0.77559000  1
  Li  Li3  1  0.15538700  0.30324000  0.72441000  1
  Li  Li4  1  0.34461300  0.69676000  0.22441000  1
  Li  Li5  1  0.84461300  0.69676000  0.27559000  1
  Li  Li6  1  0.34461300  0.80324000  0.72441000  1
  Li  Li7  1  0.84461300  0.80324000  0.77559000  1
  Fe  Fe8  1  0.39763600  0.18200400  0.53557700  1
  Fe  Fe9  1  0.89763600  0.18200400  0.96442300  1
  Fe  Fe10  1  0.39763600  0.31799600  0.03557700  1
  Fe  Fe11  1  0.89763600  0.31799600  0.46442300  1
  Fe  Fe12  1  0.10236400  0.68200400  0.53557700  1
  Fe  Fe13  1  0.60236400  0.68200400  0.96442300  1
  Fe  Fe14  1  0.10236400  0.81799600  0.03557700  1
  Fe  Fe15  1  0.60236400  0.81799600  0.46442300  1
  P  P16  1  0.89927900  0.04622600  0.62910400  1
  P  P17  1  0.39927900  0.04622600  0.87089600  1
  P  P18  1  0.89927900  0.45377400  0.12910400  1
  P  P19  1  0.39927900  0.45377400  0.37089600  1
  P  P20  1  0.60072100  0.54622600  0.62910400  1
  P  P21  1  0.10072100  0.54622600  0.87089600  1
  P  P22  1  0.60072100  0.95377400  0.12910400  1
  P  P23  1  0.10072100  0.95377400  0.37089600  1
  O  O24  1  0.80515800  0.96865100  0.05624100  1
  O  O25  1  0.30515800  0.96865100  0.44375900  1
  O  O26  1  0.32571500  0.10217700  0.77070000  1
  O  O27  1  0.82571500  0.10217700  0.72930000  1
  O  O28  1  0.47720600  0.13009800  0.13676500  1
  O  O29  1  0.97720600  0.13009800  0.36323500  1
  O  O30  1  0.06242700  0.19079300  0.58530300  1
  O  O31  1  0.56242700  0.19079300  0.91469700  1
  O  O32  1  0.06242700  0.30920700  0.08530300  1
  O  O33  1  0.56242700  0.30920700  0.41469700  1
  O  O34  1  0.47720600  0.36990200  0.63676500  1
  O  O35  1  0.97720600  0.36990200  0.86323500  1
  O  O36  1  0.82571500  0.39782300  0.22930000  1
  O  O37  1  0.32571500  0.39782300  0.27070000  1
  O  O38  1  0.80515800  0.53134900  0.55624100  1
  O  O39  1  0.30515800  0.53134900  0.94375900  1
  O  O40  1  0.19484200  0.46865100  0.44375900  1
  O  O41  1  0.69484200  0.46865100  0.05624100  1
  O  O42  1  0.67428500  0.60217700  0.72930000  1
  O  O43  1  0.17428500  0.60217700  0.77070000  1
  O  O44  1  0.02279400  0.63009800  0.13676500  1
  O  O45  1  0.52279400  0.63009800  0.36323500  1
  O  O46  1  0.43757300  0.69079300  0.58530300  1
  O  O47  1  0.93757300  0.69079300  0.91469700  1
  O  O48  1  0.43757300  0.80920700  0.08530300  1
  O  O49  1  0.93757300  0.80920700  0.41469700  1
  O  O50  1  0.02279400  0.86990200  0.63676500  1
  O  O51  1  0.52279400  0.86990200  0.86323500  1
  O  O52  1  0.67428500  0.89782300  0.22930000  1
  O  O53  1  0.17428500  0.89782300  0.27070000  1
  O  O54  1  0.69484200  0.03134900  0.55624100  1
  O  O55  1  0.19484200  0.03134900  0.94375900  1
