# generated using pymatgen
data_LiV4(PO4)3
_symmetry_space_group_name_H-M   'P 1'
_cell_length_a   6.47823500
_cell_length_b   9.83055500
_cell_length_c   16.47960700
_cell_angle_alpha   90.00000000
_cell_angle_beta   90.00000000
_cell_angle_gamma   90.00000000
_symmetry_Int_Tables_number   1
_chemical_formula_structural   LiV4(PO4)3
_chemical_formula_sum   'Li4 V16 P12 O48'
_cell_volume   1049.49792929
_cell_formula_units_Z   4
loop_
 _symmetry_equiv_pos_site_id
 _symmetry_equiv_pos_as_xyz
  1  'x, y, z'
loop_
 _atom_site_type_symbol
 _atom_site_label
 _atom_site_symmetry_multiplicity
 _atom_site_fract_x
 _atom_site_fract_y
 _atom_site_fract_z
 _atom_site_occupancy
  Li  Li0  1  0.00000000  0.24490200  0.44489600  1
  Li  Li1  1  0.00000000  0.75509800  0.55510400  1
  Li  Li2  1  0.50000000  0.74490200  0.05510400  1
  Li  Li3  1  0.50000000  0.25509800  0.94489600  1
  V  V4  1  0.00000000  0.54878800  0.09328600  1
  V  V5  1  0.00000000  0.99157000  0.14012100  1
  V  V6  1  0.00000000  0.00843000  0.85987900  1
  V  V7  1  0.00000000  0.45121200  0.90671400  1
  V  V8  1  0.74901700  0.75832700  0.29417500  1
  V  V9  1  0.74901700  0.24167300  0.70582500  1
  V  V10  1  0.75098300  0.25832700  0.20582500  1
  V  V11  1  0.75098300  0.74167300  0.79417500  1
  V  V12  1  0.50000000  0.95121200  0.59328600  1
  V  V13  1  0.50000000  0.49157000  0.35987900  1
  V  V14  1  0.50000000  0.04878800  0.40671400  1
  V  V15  1  0.50000000  0.50843000  0.64012100  1
  V  V16  1  0.24901700  0.74167300  0.79417500  1
  V  V17  1  0.24901700  0.25832700  0.20582500  1
  V  V18  1  0.25098300  0.75832700  0.29417500  1
  V  V19  1  0.25098300  0.24167300  0.70582500  1
  P  P20  1  0.00000000  0.21034800  0.03735400  1
  P  P21  1  0.00000000  0.04964300  0.34133200  1
  P  P22  1  0.00000000  0.45807500  0.28494800  1
  P  P23  1  0.00000000  0.54192500  0.71505200  1
  P  P24  1  0.00000000  0.95035700  0.65866800  1
  P  P25  1  0.00000000  0.78965200  0.96264600  1
  P  P26  1  0.50000000  0.28965200  0.53735400  1
  P  P27  1  0.50000000  0.95807500  0.21505200  1
  P  P28  1  0.50000000  0.54964300  0.15866800  1
  P  P29  1  0.50000000  0.71034800  0.46264600  1
  P  P30  1  0.50000000  0.04192500  0.78494800  1
  P  P31  1  0.50000000  0.45035700  0.84133200  1
  O  O32  1  0.00000000  0.36636600  0.02588000  1
  O  O33  1  0.00000000  0.11802200  0.25268600  1
  O  O34  1  0.00000000  0.40497500  0.19339100  1
  O  O35  1  0.00000000  0.85217300  0.04675300  1
  O  O36  1  0.00000000  0.61494800  0.28195100  1
  O  O37  1  0.00000000  0.10753200  0.67003700  1
  O  O38  1  0.00000000  0.89246800  0.32996300  1
  O  O39  1  0.00000000  0.38505200  0.71804900  1
  O  O40  1  0.00000000  0.14782700  0.95324700  1
  O  O41  1  0.00000000  0.59502500  0.80660900  1
  O  O42  1  0.00000000  0.88197800  0.74731400  1
  O  O43  1  0.00000000  0.63363400  0.97412000  1
  O  O44  1  0.80822700  0.16259800  0.08928300  1
  O  O45  1  0.80822700  0.83740200  0.91071700  1
  O  O46  1  0.81253500  0.89888200  0.61072500  1
  O  O47  1  0.81253500  0.10111800  0.38927500  1
  O  O48  1  0.80029600  0.39539600  0.32063700  1
  O  O49  1  0.80029600  0.60460400  0.67936300  1
  O  O50  1  0.69970400  0.89539600  0.17936300  1
  O  O51  1  0.69970400  0.10460400  0.82063700  1
  O  O52  1  0.68746500  0.39888200  0.88927500  1
  O  O53  1  0.68746500  0.60111800  0.11072500  1
  O  O54  1  0.69177300  0.33740200  0.58928300  1
  O  O55  1  0.69177300  0.66259800  0.41071700  1
  O  O56  1  0.50000000  0.39246800  0.17003700  1
  O  O57  1  0.50000000  0.35217300  0.45324700  1
  O  O58  1  0.50000000  0.13363400  0.52588000  1
  O  O59  1  0.50000000  0.11494800  0.21804900  1
  O  O60  1  0.50000000  0.86636600  0.47412000  1
  O  O61  1  0.50000000  0.64782700  0.54675300  1
  O  O62  1  0.50000000  0.61802200  0.24731400  1
  O  O63  1  0.50000000  0.90497500  0.30660900  1
  O  O64  1  0.50000000  0.09502500  0.69339100  1
  O  O65  1  0.50000000  0.88505200  0.78195100  1
  O  O66  1  0.50000000  0.60753200  0.82996300  1
  O  O67  1  0.50000000  0.38197800  0.75268600  1
  O  O68  1  0.30822700  0.66259800  0.41071700  1
  O  O69  1  0.30822700  0.33740200  0.58928300  1
  O  O70  1  0.31253500  0.60111800  0.11072500  1
  O  O71  1  0.31253500  0.39888200  0.88927500  1
  O  O72  1  0.30029600  0.89539600  0.17936300  1
  O  O73  1  0.30029600  0.10460400  0.82063700  1
  O  O74  1  0.19970400  0.39539600  0.32063700  1
  O  O75  1  0.19970400  0.60460400  0.67936300  1
  O  O76  1  0.18746500  0.10111800  0.38927500  1
  O  O77  1  0.18746500  0.89888200  0.61072500  1
  O  O78  1  0.19177300  0.16259800  0.08928300  1
  O  O79  1  0.19177300  0.83740200  0.91071700  1
