# generated using pymatgen
data_Li3Mn4(BO3)4
_symmetry_space_group_name_H-M   'P 1'
_cell_length_a   6.19297100
_cell_length_b   7.85630593
_cell_length_c   10.55406287
_cell_angle_alpha   87.45256814
_cell_angle_beta   87.91727508
_cell_angle_gamma   79.36462204
_symmetry_Int_Tables_number   1
_chemical_formula_structural   Li3Mn4(BO3)4
_chemical_formula_sum   'Li6 Mn8 B8 O24'
_cell_volume   503.96916565
_cell_formula_units_Z   2
loop_
 _symmetry_equiv_pos_site_id
 _symmetry_equiv_pos_as_xyz
  1  'x, y, z'
loop_
 _atom_site_type_symbol
 _atom_site_label
 _atom_site_symmetry_multiplicity
 _atom_site_fract_x
 _atom_site_fract_y
 _atom_site_fract_z
 _atom_site_occupancy
  Li  Li0  1  0.86984400  0.81119700  0.28329200  1
  Li  Li1  1  0.62400400  0.69051000  0.46184500  1
  Li  Li2  1  0.35917500  0.29875300  0.04192800  1
  Li  Li3  1  0.64082500  0.70124700  0.95807200  1
  Li  Li4  1  0.37599600  0.30949000  0.53815500  1
  Li  Li5  1  0.13015600  0.18880300  0.71670800  1
  Mn  Mn6  1  0.40825200  0.83708500  0.20803400  1
  Mn  Mn7  1  0.08176700  0.68192600  0.03121100  1
  Mn  Mn8  1  0.92699500  0.32241000  0.45126200  1
  Mn  Mn9  1  0.43754700  0.81053400  0.70898400  1
  Mn  Mn10  1  0.56245300  0.18946600  0.29101600  1
  Mn  Mn11  1  0.07300500  0.67759000  0.54873800  1
  Mn  Mn12  1  0.91823300  0.31807400  0.96878900  1
  Mn  Mn13  1  0.59174800  0.16291500  0.79196600  1
  B  B14  1  0.74275100  0.50182700  0.20987500  1
  B  B15  1  0.27926500  0.00238500  0.46764600  1
  B  B16  1  0.76275700  0.48742500  0.71188600  1
  B  B17  1  0.26808900  0.98921900  0.95577800  1
  B  B18  1  0.73191100  0.01078100  0.04422200  1
  B  B19  1  0.23724300  0.51257500  0.28811400  1
  B  B20  1  0.72073500  0.99761500  0.53235400  1
  B  B21  1  0.25724900  0.49817300  0.79012500  1
  O  O22  1  0.69127500  0.98950100  0.17482700  1
  O  O23  1  0.83290800  0.86547900  0.46267000  1
  O  O24  1  0.34750100  0.82652900  0.01366100  1
  O  O25  1  0.79820600  0.52582300  0.08308800  1
  O  O26  1  0.65036300  0.96868600  0.65798700  1
  O  O27  1  0.65828500  0.63930700  0.28451700  1
  O  O28  1  0.83043200  0.87623700  0.97339300  1
  O  O29  1  0.79085500  0.33343600  0.26825300  1
  O  O30  1  0.33735100  0.83349500  0.51999000  1
  O  O31  1  0.80232600  0.52010600  0.58270100  1
  O  O32  1  0.15691200  0.67574800  0.23217800  1
  O  O33  1  0.65083800  0.61644400  0.78645200  1
  O  O34  1  0.34916200  0.38355600  0.21354800  1
  O  O35  1  0.84308800  0.32425200  0.76782200  1
  O  O36  1  0.19767400  0.47989400  0.41729900  1
  O  O37  1  0.66264900  0.16650500  0.48001000  1
  O  O38  1  0.20914500  0.66656400  0.73174700  1
  O  O39  1  0.16956800  0.12376300  0.02660700  1
  O  O40  1  0.34171500  0.36069300  0.71548300  1
  O  O41  1  0.34963700  0.03131400  0.34201300  1
  O  O42  1  0.20179400  0.47417700  0.91691200  1
  O  O43  1  0.65249900  0.17347100  0.98633900  1
  O  O44  1  0.16709200  0.13452100  0.53733000  1
  O  O45  1  0.30872500  0.01049900  0.82517300  1
