# generated using pymatgen
data_Li2Ti(BO3)2
_symmetry_space_group_name_H-M   'P 1'
_cell_length_a   8.90888100
_cell_length_b   5.15840700
_cell_length_c   11.37252004
_cell_angle_alpha   64.62519744
_cell_angle_beta   90.00000000
_cell_angle_gamma   90.00000000
_symmetry_Int_Tables_number   1
_chemical_formula_structural   Li2Ti(BO3)2
_chemical_formula_sum   'Li8 Ti4 B8 O24'
_cell_volume   472.20990329
_cell_formula_units_Z   4
loop_
 _symmetry_equiv_pos_site_id
 _symmetry_equiv_pos_as_xyz
  1  'x, y, z'
loop_
 _atom_site_type_symbol
 _atom_site_label
 _atom_site_symmetry_multiplicity
 _atom_site_fract_x
 _atom_site_fract_y
 _atom_site_fract_z
 _atom_site_occupancy
  Li  Li0  1  0.66463800  0.45039700  0.36559600  1
  Li  Li1  1  0.98671400  0.92718100  0.90239700  1
  Li  Li2  1  0.16463800  0.54960300  0.13440400  1
  Li  Li3  1  0.48671400  0.07281900  0.59760300  1
  Li  Li4  1  0.51328600  0.92718100  0.40239700  1
  Li  Li5  1  0.83536200  0.45039700  0.86559600  1
  Li  Li6  1  0.01328600  0.07281900  0.09760300  1
  Li  Li7  1  0.33536200  0.54960300  0.63440400  1
  Ti  Ti8  1  0.32559200  0.98349400  0.86818800  1
  Ti  Ti9  1  0.82559200  0.01650600  0.63181200  1
  Ti  Ti10  1  0.17440800  0.98349400  0.36818800  1
  Ti  Ti11  1  0.67440800  0.01650600  0.13181200  1
  B  B12  1  0.33650700  0.45269900  0.37634000  1
  B  B13  1  0.66736600  0.96720700  0.87538600  1
  B  B14  1  0.83650700  0.54730100  0.12366000  1
  B  B15  1  0.16736600  0.03279300  0.62461400  1
  B  B16  1  0.83263400  0.96720700  0.37538600  1
  B  B17  1  0.16349300  0.45269900  0.87634000  1
  B  B18  1  0.33263400  0.03279300  0.12461400  1
  B  B19  1  0.66349300  0.54730100  0.62366000  1
  O  O20  1  0.31192800  0.87415800  0.05380200  1
  O  O21  1  0.67178900  0.29152500  0.60817200  1
  O  O22  1  0.96215600  0.70697500  0.09664700  1
  O  O23  1  0.29057800  0.12268900  0.67120600  1
  O  O24  1  0.02277300  0.09678100  0.64983800  1
  O  O25  1  0.70347300  0.62862400  0.16622800  1
  O  O26  1  0.20347300  0.37137600  0.33377200  1
  O  O27  1  0.52277300  0.90321900  0.85016200  1
  O  O28  1  0.79057800  0.87731100  0.82879400  1
  O  O29  1  0.46215600  0.29302500  0.40335300  1
  O  O30  1  0.81192800  0.12584200  0.44619800  1
  O  O31  1  0.17178900  0.70847500  0.89182800  1
  O  O32  1  0.82821100  0.29152500  0.10817200  1
  O  O33  1  0.18807200  0.87415800  0.55380200  1
  O  O34  1  0.53784400  0.70697500  0.59664700  1
  O  O35  1  0.20942200  0.12268900  0.17120600  1
  O  O36  1  0.47722700  0.09678100  0.14983800  1
  O  O37  1  0.79652700  0.62862400  0.66622800  1
  O  O38  1  0.29652700  0.37137600  0.83377200  1
  O  O39  1  0.97722700  0.90321900  0.35016200  1
  O  O40  1  0.70942200  0.87731100  0.32879400  1
  O  O41  1  0.03784400  0.29302500  0.90335300  1
  O  O42  1  0.32821100  0.70847500  0.39182800  1
  O  O43  1  0.68807200  0.12584200  0.94619800  1
