# generated using pymatgen
data_Na5Li3Ti5O14
_symmetry_space_group_name_H-M   'P 1'
_cell_length_a   5.23424300
_cell_length_b   7.04232269
_cell_length_c   8.26604371
_cell_angle_alpha   90.36992241
_cell_angle_beta   101.44271032
_cell_angle_gamma   97.31546200
_symmetry_Int_Tables_number   1
_chemical_formula_structural   Na5Li3Ti5O14
_chemical_formula_sum   'Na5 Li3 Ti5 O14'
_cell_volume   296.05164950
_cell_formula_units_Z   1
loop_
 _symmetry_equiv_pos_site_id
 _symmetry_equiv_pos_as_xyz
  1  'x, y, z'
loop_
 _atom_site_type_symbol
 _atom_site_label
 _atom_site_symmetry_multiplicity
 _atom_site_fract_x
 _atom_site_fract_y
 _atom_site_fract_z
 _atom_site_occupancy
  Na  Na0  1  0.51317600  0.00059200  0.49747500  1
  Na  Na1  1  0.90996300  0.84675900  0.34669200  1
  Na  Na2  1  0.65730700  0.30935600  0.80940800  1
  Na  Na3  1  0.07360300  0.13636600  0.63994600  1
  Na  Na4  1  0.35157400  0.71233400  0.21098700  1
  Li  Li5  1  0.21861200  0.44217400  0.93863000  1
  Li  Li6  1  0.85839400  0.70684300  0.71671900  1
  Li  Li7  1  0.56795900  0.15184900  0.13983200  1
  Ti  Ti8  1  0.00851800  0.98801300  0.99365400  1
  Ti  Ti9  1  0.44673900  0.85836200  0.86667300  1
  Ti  Ti10  1  0.27400400  0.57697700  0.58464600  1
  Ti  Ti11  1  0.69803400  0.42978800  0.42293700  1
  Ti  Ti12  1  0.12422800  0.27977900  0.26674800  1
  O  O13  1  0.12627700  0.75274200  0.95206200  1
  O  O14  1  0.74971400  0.98138700  0.78229100  1
  O  O15  1  0.20778900  0.82722900  0.62093700  1
  O  O16  1  0.48430100  0.59302800  0.80324700  1
  O  O17  1  0.96817500  0.44829800  0.65074000  1
  O  O18  1  0.30771700  0.10371000  0.90123000  1
  O  O19  1  0.59718900  0.67322800  0.47730100  1
  O  O20  1  0.03698800  0.53667200  0.35024400  1
  O  O21  1  0.68032000  0.88175600  0.07208800  1
  O  O22  1  0.40462400  0.31316700  0.51850400  1
  O  O23  1  0.83198100  0.17988900  0.37373500  1
  O  O24  1  0.45685300  0.40476200  0.21259500  1
  O  O25  1  0.94517200  0.26742700  0.05149800  1
  O  O26  1  0.21524900  0.02582300  0.22809900  1
