# generated using pymatgen
data_Li2MnF4
_symmetry_space_group_name_H-M   'P 1'
_cell_length_a   3.00681600
_cell_length_b   9.18006600
_cell_length_c   10.36827800
_cell_angle_alpha   90.00000000
_cell_angle_beta   90.00000000
_cell_angle_gamma   90.00000000
_symmetry_Int_Tables_number   1
_chemical_formula_structural   Li2MnF4
_chemical_formula_sum   'Li8 Mn4 F16'
_cell_volume   286.19318598
_cell_formula_units_Z   4
loop_
 _symmetry_equiv_pos_site_id
 _symmetry_equiv_pos_as_xyz
  1  'x, y, z'
loop_
 _atom_site_type_symbol
 _atom_site_label
 _atom_site_symmetry_multiplicity
 _atom_site_fract_x
 _atom_site_fract_y
 _atom_site_fract_z
 _atom_site_occupancy
  Li  Li0  1  0.75000000  0.07344600  0.38656800  1
  Li  Li1  1  0.75000000  0.06594100  0.88400600  1
  Li  Li2  1  0.25000000  0.43405900  0.38400600  1
  Li  Li3  1  0.25000000  0.42655400  0.88656800  1
  Li  Li4  1  0.75000000  0.57344600  0.11343200  1
  Li  Li5  1  0.75000000  0.56594100  0.61599400  1
  Li  Li6  1  0.25000000  0.93405900  0.11599400  1
  Li  Li7  1  0.25000000  0.92655400  0.61343200  1
  Mn  Mn8  1  0.75000000  0.25025600  0.65412600  1
  Mn  Mn9  1  0.25000000  0.24974400  0.15412600  1
  Mn  Mn10  1  0.75000000  0.75025600  0.84587400  1
  Mn  Mn11  1  0.25000000  0.74974400  0.34587400  1
  F  F12  1  0.25000000  0.03012100  0.27833900  1
  F  F13  1  0.75000000  0.09642800  0.06972700  1
  F  F14  1  0.25000000  0.12812000  0.53927100  1
  F  F15  1  0.25000000  0.21415500  0.80875000  1
  F  F16  1  0.75000000  0.28584500  0.30875000  1
  F  F17  1  0.75000000  0.37188000  0.03927100  1
  F  F18  1  0.25000000  0.40357200  0.56972700  1
  F  F19  1  0.75000000  0.46987900  0.77833900  1
  F  F20  1  0.25000000  0.53012100  0.22166100  1
  F  F21  1  0.75000000  0.59642800  0.43027300  1
  F  F22  1  0.25000000  0.62812000  0.96072900  1
  F  F23  1  0.25000000  0.71415500  0.69125000  1
  F  F24  1  0.75000000  0.78584500  0.19125000  1
  F  F25  1  0.75000000  0.87188000  0.46072900  1
  F  F26  1  0.25000000  0.90357200  0.93027300  1
  F  F27  1  0.75000000  0.96987900  0.72166100  1
