# generated using pymatgen
data_LiSbF4
_symmetry_space_group_name_H-M   'P 1'
_cell_length_a   10.21185000
_cell_length_b   12.63326740
_cell_length_c   12.96930208
_cell_angle_alpha   88.24621256
_cell_angle_beta   89.46065821
_cell_angle_gamma   72.77334899
_symmetry_Int_Tables_number   1
_chemical_formula_structural   LiSbF4
_chemical_formula_sum   'Li16 Sb16 F64'
_cell_volume   1597.35175885
_cell_formula_units_Z   16
loop_
 _symmetry_equiv_pos_site_id
 _symmetry_equiv_pos_as_xyz
  1  'x, y, z'
loop_
 _atom_site_type_symbol
 _atom_site_label
 _atom_site_symmetry_multiplicity
 _atom_site_fract_x
 _atom_site_fract_y
 _atom_site_fract_z
 _atom_site_occupancy
  Li  Li0  1  0.92746400  0.67673800  0.03522600  1
  Li  Li1  1  0.93851800  0.20816400  0.37663200  1
  Li  Li2  1  0.88051500  0.02473100  0.45398000  1
  Li  Li3  1  0.50459500  0.94140200  0.46688800  1
  Li  Li4  1  0.45981700  0.96641600  0.15231500  1
  Li  Li5  1  0.56884200  0.68666800  0.47131800  1
  Li  Li6  1  0.39982800  0.81643700  0.95115300  1
  Li  Li7  1  0.54636800  0.51315000  0.67124400  1
  Li  Li8  1  0.53959900  0.50369300  0.95382200  1
  Li  Li9  1  0.43502000  0.48273700  0.34808300  1
  Li  Li10  1  0.58308100  0.21200200  0.07409800  1
  Li  Li11  1  0.43284700  0.28441000  0.56153700  1
  Li  Li12  1  0.61540200  0.04522100  0.85965000  1
  Li  Li13  1  0.39442600  0.07368000  0.70560100  1
  Li  Li14  1  0.03641000  0.83781600  0.56055900  1
  Li  Li15  1  0.07694700  0.34450500  0.95469500  1
  Sb  Sb16  1  0.81303500  0.78000900  0.40676500  1
  Sb  Sb17  1  0.85401800  0.32272800  0.07853100  1
  Sb  Sb18  1  0.60182700  0.66042000  0.14968700  1
  Sb  Sb19  1  0.39146300  0.81882900  0.66495400  1
  Sb  Sb20  1  0.57616800  0.18911300  0.33267600  1
  Sb  Sb21  1  0.41723600  0.30644900  0.83027000  1
  Sb  Sb22  1  0.18585500  0.68169300  0.90350700  1
  Sb  Sb23  1  0.15575000  0.18384100  0.53892200  1
  Sb  Sb24  1  0.78406200  0.94407900  0.11515300  1
  Sb  Sb25  1  0.75739000  0.59528000  0.83735900  1
  Sb  Sb26  1  0.76451500  0.44049000  0.44646200  1
  Sb  Sb27  1  0.75403400  0.09535200  0.66968500  1
  Sb  Sb28  1  0.24102700  0.91305500  0.32953800  1
  Sb  Sb29  1  0.22606800  0.55284900  0.59213900  1
  Sb  Sb30  1  0.24867500  0.44117600  0.15380200  1
  Sb  Sb31  1  0.23411400  0.05698100  0.91382700  1
  F  F32  1  0.85713800  0.00876200  0.78326400  1
  F  F33  1  0.92922800  0.82546300  0.04319400  1
  F  F34  1  0.84005800  0.95714600  0.58375300  1
  F  F35  1  0.87901400  0.79537000  0.26143200  1
  F  F36  1  0.90527300  0.66761800  0.88401900  1
  F  F37  1  0.85337200  0.55472900  0.41869700  1
  F  F38  1  0.86925400  0.51390200  0.72904500  1
  F  F39  1  0.79832000  0.62992400  0.11561100  1
  F  F40  1  0.02352800  0.30464600  0.45147700  1
  F  F41  1  0.87910200  0.41935700  0.95769900  1
  F  F42  1  0.69502400  0.94110600  0.38932700  1
  F  F43  1  0.82597900  0.37141900  0.30621200  1
  F  F44  1  0.60742900  0.02162600  0.70709500  1
  F  F45  1  0.94449300  0.13495800  0.52304700  1
  F  F46  1  0.65056100  0.79847000  0.52121400  1
  F  F47  1  0.60203900  0.82291700  0.13060900  1
  F  F48  1  0.66201800  0.73544500  0.33480600  1
  F  F49  1  0.65514600  0.71616000  0.74084000  1
  F  F50  1  0.55332000  0.68729800  0.99869200  1
  F  F51  1  0.86600400  0.06420000  0.08737900  1
  F  F52  1  0.78696500  0.13926000  0.35187300  1
  F  F53  1  0.65176700  0.55175700  0.55877600  1
  F  F54  1  0.65127400  0.48782700  0.07975600  1
  F  F55  1  0.59568800  0.53939600  0.37010900  1
  F  F56  1  0.60118100  0.49893700  0.81116400  1
  F  F57  1  0.71688900  0.27858400  0.99708400  1
  F  F58  1  0.55992500  0.33785200  0.38870900  1
  F  F59  1  0.63522000  0.25793200  0.20307800  1
  F  F60  1  0.40187000  0.95392400  0.83894100  1
  F  F61  1  0.63880400  0.19281200  0.80395500  1
  F  F62  1  0.36100000  0.95326400  0.03122300  1
  F  F63  1  0.59022200  0.16319100  0.50478900  1
  F  F64  1  0.39817200  0.81538300  0.49460100  1
  F  F65  1  0.69659400  0.96934900  0.97557800  1
  F  F66  1  0.35299900  0.80996600  0.22694500  1
  F  F67  1  0.56108800  0.07607000  0.14155600  1
  F  F68  1  0.35449300  0.75203200  0.81194800  1
  F  F69  1  0.42166300  0.66104000  0.63404000  1
  F  F70  1  0.28021700  0.74192500  0.01464200  1
  F  F71  1  0.37229400  0.52873600  0.21475000  1
  F  F72  1  0.44406100  0.41717300  0.62816200  1
  F  F73  1  0.35057900  0.54932400  0.92889500  1
  F  F74  1  0.29267100  0.50997900  0.44427300  1
  F  F75  1  0.19202700  0.84750600  0.64043700  1
  F  F76  1  0.15009800  0.93977200  0.89726400  1
  F  F77  1  0.44450900  0.30932400  0.99112600  1
  F  F78  1  0.34946100  0.31595700  0.25414600  1
  F  F79  1  0.38481800  0.22695700  0.69189600  1
  F  F80  1  0.43136100  0.14698400  0.87875500  1
  F  F81  1  0.30185400  0.24176000  0.47605600  1
  F  F82  1  0.01336100  0.89631800  0.42326200  1
  F  F83  1  0.40409000  0.97599400  0.32429300  1
  F  F84  1  0.19124800  0.57559200  0.77056000  1
  F  F85  1  0.35712600  0.03020700  0.56830800  1
  F  F86  1  0.11533300  0.60023600  0.02540400  1
  F  F87  1  0.05064400  0.68371500  0.55168100  1
  F  F88  1  0.21697900  0.32636500  0.86334400  1
  F  F89  1  0.11420000  0.50784500  0.25430900  1
  F  F90  1  0.14118700  0.43371500  0.59866800  1
  F  F91  1  0.08241300  0.36709900  0.09815600  1
  F  F92  1  0.20133700  0.10091400  0.75916900  1
  F  F93  1  0.15808600  0.10209700  0.40752800  1
  F  F94  1  0.00018600  0.21725200  0.99367800  1
  F  F95  1  0.14996600  0.01366700  0.21860300  1
