# generated using pymatgen
data_LiFe4(BO3)4
_symmetry_space_group_name_H-M   'P 1'
_cell_length_a   5.34274119
_cell_length_b   9.01830658
_cell_length_c   11.35004839
_cell_angle_alpha   113.50131305
_cell_angle_beta   76.92798958
_cell_angle_gamma   90.40520947
_symmetry_Int_Tables_number   1
_chemical_formula_structural   LiFe4(BO3)4
_chemical_formula_sum   'Li2 Fe8 B8 O24'
_cell_volume   486.39552612
_cell_formula_units_Z   2
loop_
 _symmetry_equiv_pos_site_id
 _symmetry_equiv_pos_as_xyz
  1  'x, y, z'
loop_
 _atom_site_type_symbol
 _atom_site_label
 _atom_site_symmetry_multiplicity
 _atom_site_fract_x
 _atom_site_fract_y
 _atom_site_fract_z
 _atom_site_occupancy
  Li  Li0  1  0.16488198  0.16672550  0.35507704  1
  Li  Li1  1  0.59562273  0.05670467  0.09519669  1
  Fe  Fe2  1  0.40531917  0.26676792  0.86421461  1
  Fe  Fe3  1  0.08895272  0.22813596  0.11596225  1
  Fe  Fe4  1  0.85012489  0.14153982  0.61595157  1
  Fe  Fe5  1  0.65436566  0.36192317  0.37449943  1
  Fe  Fe6  1  0.34826051  0.64857897  0.62717079  1
  Fe  Fe7  1  0.14570475  0.83415143  0.37018218  1
  Fe  Fe8  1  0.90963466  0.77005478  0.87518095  1
  Fe  Fe9  1  0.59795839  0.72756858  0.13099000  1
  B  B10  1  0.65225632  0.02346236  0.36686313  1
  B  B11  1  0.89288092  0.10265209  0.86932407  1
  B  B12  1  0.13528321  0.50662476  0.37804070  1
  B  B13  1  0.40433723  0.61010522  0.87558821  1
  B  B14  1  0.85835751  0.48102569  0.62251102  1
  B  B15  1  0.59690013  0.39116853  0.12087002  1
  B  B16  1  0.34790862  0.98280707  0.62123243  1
  B  B17  1  0.11338303  0.89230161  0.12530445  1
  O  O18  1  0.11704702  0.15087900  0.90818600  1
  O  O19  1  0.47219248  0.12621367  0.65974752  1
  O  O20  1  0.21984419  0.03482970  0.13890044  1
  O  O21  1  0.53374985  0.15622143  0.36178785  1
  O  O22  1  0.87830316  0.03823799  0.41220440  1
  O  O23  1  0.77911032  0.18920416  0.81408075  1
  O  O24  1  0.31898657  0.46479273  0.86044236  1
  O  O25  1  0.03358173  0.35354157  0.33546456  1
  O  O26  1  0.68915838  0.29179805  0.17561824  1
  O  O27  1  0.64271611  0.48677434  0.57332735  1
  O  O28  1  0.96240635  0.33895649  0.61241159  1
  O  O29  1  0.40381606  0.33373408  0.05616355  1
  O  O30  1  0.61730928  0.66370969  0.92988587  1
  O  O31  1  0.35184254  0.51589735  0.43212505  1
  O  O32  1  0.28697762  0.71273424  0.83266277  1
  O  O33  1  0.96820762  0.62744725  0.67877722  1
  O  O34  1  0.70252703  0.53126009  0.13110247  1
  O  O35  1  0.22392170  0.77844263  0.15623597  1
  O  O36  1  0.13113608  0.98334464  0.57353807  1
  O  O37  1  0.43783306  0.84842044  0.63064850  1
  O  O38  1  0.02643743  0.63230443  0.36945209  1
  O  O39  1  0.77948148  0.97703669  0.89486718  1
  O  O40  1  0.54730468  0.87608547  0.32304331  1
  O  O41  1  0.88082285  0.86134473  0.08123835  1
