# generated using pymatgen
data_Li2MnSiO4
_symmetry_space_group_name_H-M   'P 1'
_cell_length_a   5.08684800
_cell_length_b   6.40513400
_cell_length_c   10.89629900
_cell_angle_alpha   90.00000000
_cell_angle_beta   90.00000000
_cell_angle_gamma   90.00000000
_symmetry_Int_Tables_number   1
_chemical_formula_structural   Li2MnSiO4
_chemical_formula_sum   'Li8 Mn4 Si4 O16'
_cell_volume   355.02259377
_cell_formula_units_Z   4
loop_
 _symmetry_equiv_pos_site_id
 _symmetry_equiv_pos_as_xyz
  1  'x, y, z'
loop_
 _atom_site_type_symbol
 _atom_site_label
 _atom_site_symmetry_multiplicity
 _atom_site_fract_x
 _atom_site_fract_y
 _atom_site_fract_z
 _atom_site_occupancy
  Li  Li0  1  0.20670500  0.99713600  0.66751100  1
  Li  Li1  1  0.29329500  0.99713600  0.16751100  1
  Li  Li2  1  0.20670500  0.50286400  0.66751100  1
  Li  Li3  1  0.29329500  0.50286400  0.16751100  1
  Li  Li4  1  0.70670500  0.49713600  0.83248900  1
  Li  Li5  1  0.79329500  0.49713600  0.33248900  1
  Li  Li6  1  0.79329500  0.00286400  0.33248900  1
  Li  Li7  1  0.70670500  0.00286400  0.83248900  1
  Mn  Mn8  1  0.79105600  0.25000000  0.57882600  1
  Mn  Mn9  1  0.70894400  0.25000000  0.07882600  1
  Mn  Mn10  1  0.29105600  0.75000000  0.92117400  1
  Mn  Mn11  1  0.20894400  0.75000000  0.42117400  1
  Si  Si12  1  0.19461100  0.25000000  0.90935800  1
  Si  Si13  1  0.30538900  0.25000000  0.40935800  1
  Si  Si14  1  0.69461100  0.75000000  0.59064200  1
  Si  Si15  1  0.80538900  0.75000000  0.09064200  1
  O  O16  1  0.30639800  0.04047600  0.83792900  1
  O  O17  1  0.19360200  0.04047600  0.33792900  1
  O  O18  1  0.86933600  0.25000000  0.90421600  1
  O  O19  1  0.21427900  0.25000000  0.55536300  1
  O  O20  1  0.28572100  0.25000000  0.05536300  1
  O  O21  1  0.63066400  0.25000000  0.40421600  1
  O  O22  1  0.30639800  0.45952400  0.83792900  1
  O  O23  1  0.19360200  0.45952400  0.33792900  1
  O  O24  1  0.80639800  0.54047600  0.66207100  1
  O  O25  1  0.69360200  0.54047600  0.16207100  1
  O  O26  1  0.71427900  0.75000000  0.94463700  1
  O  O27  1  0.36933600  0.75000000  0.59578400  1
  O  O28  1  0.78572100  0.75000000  0.44463700  1
  O  O29  1  0.13066400  0.75000000  0.09578400  1
  O  O30  1  0.80639800  0.95952400  0.66207100  1
  O  O31  1  0.69360200  0.95952400  0.16207100  1
