# generated using pymatgen
data_Li2VFe3O8
_symmetry_space_group_name_H-M   'P 1'
_cell_length_a   5.98205891
_cell_length_b   5.98205891
_cell_length_c   5.98205938
_cell_angle_alpha   60.29197677
_cell_angle_beta   60.29197677
_cell_angle_gamma   60.29198061
_symmetry_Int_Tables_number   1
_chemical_formula_structural   Li2VFe3O8
_chemical_formula_sum   'Li2 V1 Fe3 O8'
_cell_volume   152.36923545
_cell_formula_units_Z   1
loop_
 _symmetry_equiv_pos_site_id
 _symmetry_equiv_pos_as_xyz
  1  'x, y, z'
loop_
 _atom_site_type_symbol
 _atom_site_label
 _atom_site_symmetry_multiplicity
 _atom_site_fract_x
 _atom_site_fract_y
 _atom_site_fract_z
 _atom_site_occupancy
  Li  Li0  1  0.12976100  0.12976100  0.12976100  1
  Li  Li1  1  0.87023900  0.87023900  0.87023900  1
  V  V2  1  0.50000000  0.50000000  0.50000000  1
  Fe  Fe3  1  0.50000000  0.00000000  0.50000000  1
  Fe  Fe4  1  0.00000000  0.50000000  0.50000000  1
  Fe  Fe5  1  0.50000000  0.50000000  0.00000000  1
  O  O6  1  0.26447200  0.26447200  0.26447200  1
  O  O7  1  0.27234600  0.27234600  0.71464600  1
  O  O8  1  0.71464600  0.27234600  0.27234600  1
  O  O9  1  0.27234600  0.71464600  0.27234600  1
  O  O10  1  0.72765400  0.28535400  0.72765400  1
  O  O11  1  0.28535400  0.72765400  0.72765400  1
  O  O12  1  0.72765400  0.72765400  0.28535400  1
  O  O13  1  0.73552800  0.73552800  0.73552800  1
