# generated using pymatgen
data_Li4V(CO3)4
_symmetry_space_group_name_H-M   'P 1'
_cell_length_a   8.33440400
_cell_length_b   9.92564151
_cell_length_c   11.10862037
_cell_angle_alpha   90.29656610
_cell_angle_beta   91.16460294
_cell_angle_gamma   90.04070768
_symmetry_Int_Tables_number   1
_chemical_formula_structural   Li4V(CO3)4
_chemical_formula_sum   'Li16 V4 C16 O48'
_cell_volume   918.75047295
_cell_formula_units_Z   4
loop_
 _symmetry_equiv_pos_site_id
 _symmetry_equiv_pos_as_xyz
  1  'x, y, z'
loop_
 _atom_site_type_symbol
 _atom_site_label
 _atom_site_symmetry_multiplicity
 _atom_site_fract_x
 _atom_site_fract_y
 _atom_site_fract_z
 _atom_site_occupancy
  Li  Li0  1  0.57550200  0.85462600  0.14272700  1
  Li  Li1  1  0.08644600  0.63986900  0.12776900  1
  Li  Li2  1  0.69455200  0.10923000  0.21658000  1
  Li  Li3  1  0.19169900  0.39187800  0.20769500  1
  Li  Li4  1  0.52319200  0.33107100  0.32249100  1
  Li  Li5  1  0.02489700  0.16932600  0.33274700  1
  Li  Li6  1  0.09414100  0.59375100  0.41661500  1
  Li  Li7  1  0.40496000  0.09561900  0.58045000  1
  Li  Li8  1  0.97322700  0.82923700  0.67127500  1
  Li  Li9  1  0.47124700  0.66825600  0.66077300  1
  Li  Li10  1  0.80317900  0.59177300  0.77879100  1
  Li  Li11  1  0.30628300  0.90711300  0.78364500  1
  Li  Li12  1  0.93357100  0.32783000  0.86359100  1
  Li  Li13  1  0.43003900  0.17210800  0.87713300  1
  Li  Li14  1  0.96838800  0.88396000  0.96436200  1
  Li  Li15  1  0.46630100  0.61778400  0.95923800  1
  V  V16  1  0.73456600  0.59551600  0.28889500  1
  V  V17  1  0.23142500  0.90449800  0.28751800  1
  V  V18  1  0.76242800  0.09168900  0.71068500  1
  V  V19  1  0.26667800  0.40661600  0.71249800  1
  C  C20  1  0.76975900  0.64140300  0.02948300  1
  C  C21  1  0.26926100  0.86439000  0.02816600  1
  C  C22  1  0.84776800  0.37264200  0.21665700  1
  C  C23  1  0.34195300  0.12551000  0.21566300  1
  C  C24  1  0.87716400  0.87025700  0.28920900  1
  C  C25  1  0.37525900  0.63388900  0.28378800  1
  C  C26  1  0.70110000  0.14038400  0.49556200  1
  C  C27  1  0.21897000  0.35689200  0.49269900  1
  C  C28  1  0.79565300  0.64136600  0.50412400  1
  C  C29  1  0.27822100  0.85470200  0.50618600  1
  C  C30  1  0.62055500  0.36242900  0.71495800  1
  C  C31  1  0.12304200  0.13737200  0.71826500  1
  C  C32  1  0.64952600  0.86919000  0.77902300  1
  C  C33  1  0.15545900  0.62933400  0.78124400  1
  C  C34  1  0.73025700  0.09806100  0.96743600  1
  C  C35  1  0.23236900  0.40404300  0.96828100  1
  O  O36  1  0.60640600  0.16123600  0.99974200  1
  O  O37  1  0.10846000  0.33845300  0.99549600  1
  O  O38  1  0.78517000  0.99192000  0.01578600  1
  O  O39  1  0.28051900  0.51194400  0.02046700  1
  O  O40  1  0.68167700  0.66453800  0.12987900  1
  O  O41  1  0.17686100  0.83761700  0.12558800  1
  O  O42  1  0.89135100  0.25205200  0.20791500  1
  O  O43  1  0.93694000  0.47998400  0.20705500  1
  O  O44  1  0.38792900  0.24493000  0.20278500  1
  O  O45  1  0.43035100  0.01680100  0.21479200  1
  O  O46  1  0.69850800  0.40464400  0.24195700  1
  O  O47  1  0.19170800  0.09508600  0.23684800  1
  O  O48  1  0.90674900  0.74072600  0.29042300  1
  O  O49  1  0.74276100  0.92065800  0.26275600  1
  O  O50  1  0.40630100  0.76282300  0.28040600  1
  O  O51  1  0.23399700  0.58567400  0.26813100  1
  O  O52  1  0.99921800  0.95010500  0.31835500  1
  O  O53  1  0.49380500  0.55101600  0.30415800  1
  O  O54  1  0.64427500  0.17662200  0.39489700  1
  O  O55  1  0.16061100  0.32932600  0.39013800  1
  O  O56  1  0.86079000  0.54354300  0.43895200  1
  O  O57  1  0.30989900  0.96987400  0.45189300  1
  O  O58  1  0.67523600  0.69782900  0.44701200  1
  O  O59  1  0.18571300  0.77636500  0.44039800  1
  O  O60  1  0.81994700  0.19809100  0.55401200  1
  O  O61  1  0.30894700  0.27677100  0.55789600  1
  O  O62  1  0.63883300  0.04011200  0.55883500  1
  O  O63  1  0.19202300  0.47306700  0.54825000  1
  O  O64  1  0.84996400  0.67653700  0.60578600  1
  O  O65  1  0.33390100  0.82574600  0.60890200  1
  O  O66  1  0.50285200  0.44587800  0.68535600  1
  O  O67  1  0.00598000  0.05334200  0.69592900  1
  O  O68  1  0.75915100  0.40614300  0.73936400  1
  O  O69  1  0.58433800  0.23366200  0.71722000  1
  O  O70  1  0.26567800  0.09355400  0.73329200  1
  O  O71  1  0.09008800  0.26645800  0.72506100  1
  O  O72  1  0.80198600  0.90043200  0.76170400  1
  O  O73  1  0.30829800  0.60001200  0.76502500  1
  O  O74  1  0.55973800  0.97590100  0.78462500  1
  O  O75  1  0.60340700  0.74912600  0.78533700  1
  O  O76  1  0.06767400  0.52074400  0.77999800  1
  O  O77  1  0.10708400  0.74805700  0.79295600  1
  O  O78  1  0.81471000  0.14979500  0.87243400  1
  O  O79  1  0.32446500  0.35467700  0.87644100  1
  O  O80  1  0.70256800  0.56821900  0.94929800  1
  O  O81  1  0.20821300  0.94273200  0.95036600  1
  O  O82  1  0.90614300  0.69750300  0.02066200  1
  O  O83  1  0.40437600  0.80491100  0.01947900  1
