# generated using pymatgen
data_Li3Ti2(PO4)3
_symmetry_space_group_name_H-M   'P 1'
_cell_length_a   9.84571507
_cell_length_b   9.84571507
_cell_length_c   9.87484140
_cell_angle_alpha   85.68291970
_cell_angle_beta   85.68291970
_cell_angle_gamma   85.68558366
_symmetry_Int_Tables_number   1
_chemical_formula_structural   Li3Ti2(PO4)3
_chemical_formula_sum   'Li12 Ti8 P12 O48'
_cell_volume   949.49205792
_cell_formula_units_Z   4
loop_
 _symmetry_equiv_pos_site_id
 _symmetry_equiv_pos_as_xyz
  1  'x, y, z'
loop_
 _atom_site_type_symbol
 _atom_site_label
 _atom_site_symmetry_multiplicity
 _atom_site_fract_x
 _atom_site_fract_y
 _atom_site_fract_z
 _atom_site_occupancy
  Li  Li0  1  0.23050200  0.03316100  0.41048300  1
  Li  Li1  1  0.48878800  0.81649200  0.52110700  1
  Li  Li2  1  0.96683900  0.76949800  0.58951700  1
  Li  Li3  1  0.18350800  0.51121200  0.47889300  1
  Li  Li4  1  0.96418800  0.52057100  0.74365700  1
  Li  Li5  1  0.47942900  0.03581200  0.25634300  1
  Li  Li6  1  0.26227400  0.33288500  0.73601300  1
  Li  Li7  1  0.66711500  0.73772600  0.26398700  1
  Li  Li8  1  0.82764200  0.51034800  0.99686000  1
  Li  Li9  1  0.99784000  0.24929500  0.91155300  1
  Li  Li10  1  0.48965200  0.17235800  0.00314000  1
  Li  Li11  1  0.75070500  0.00216000  0.08844700  1
  Ti  Ti12  1  0.25027900  0.96114800  0.78904200  1
  Ti  Ti13  1  0.96764600  0.25296600  0.28673200  1
  Ti  Ti14  1  0.54012000  0.45988000  0.50000000  1
  Ti  Ti15  1  0.75086700  0.24913300  0.50000000  1
  Ti  Ti16  1  0.25043900  0.74956100  0.00000000  1
  Ti  Ti17  1  0.03885200  0.74972100  0.21095800  1
  Ti  Ti18  1  0.46358100  0.53641900  0.00000000  1
  Ti  Ti19  1  0.74703400  0.03235400  0.71326800  1
  P  P20  1  0.82850300  0.94676000  0.40050900  1
  P  P21  1  0.34968700  0.67372100  0.30442500  1
  P  P22  1  0.85001200  0.55443200  0.42158700  1
  P  P23  1  0.32627900  0.65031300  0.69557500  1
  P  P24  1  0.94632700  0.81846600  0.90275200  1
  P  P25  1  0.55339900  0.84835000  0.92811400  1
  P  P26  1  0.44556800  0.14998800  0.57841300  1
  P  P27  1  0.05324000  0.17149700  0.59949100  1
  P  P28  1  0.68052100  0.34173800  0.80433600  1
  P  P29  1  0.15165000  0.44660100  0.07188600  1
  P  P30  1  0.65826200  0.31947900  0.19566400  1
  P  P31  1  0.18153400  0.05367300  0.09724800  1
  O  O32  1  0.70821900  0.90403600  0.32823200  1
  O  O33  1  0.96844700  0.87894100  0.35314200  1
  O  O34  1  0.42720200  0.79192600  0.34494800  1
  O  O35  1  0.19136800  0.68765600  0.33763700  1
  O  O36  1  0.81592200  0.91342500  0.55850300  1
  O  O37  1  0.89250200  0.62248000  0.28013300  1
  O  O38  1  0.39559100  0.53412600  0.37445700  1
  O  O39  1  0.31234400  0.80863200  0.66236300  1
  O  O40  1  0.69177100  0.58720300  0.43678300  1
  O  O41  1  0.87798000  0.95586900  0.84796500  1
  O  O42  1  0.61575000  0.89990200  0.78760200  1
  O  O43  1  0.93139300  0.59605600  0.53633600  1
  O  O44  1  0.46587400  0.60440900  0.62554300  1
  O  O45  1  0.62293600  0.32573000  0.35383000  1
  O  O46  1  0.87923300  0.39450000  0.41913100  1
  O  O47  1  0.39321700  0.87818500  0.92090000  1
  O  O48  1  0.10591800  0.83055600  0.87322400  1
  O  O49  1  0.20807400  0.57279800  0.65505200  1
  O  O50  1  0.91018100  0.69287800  0.83495900  1
  O  O51  1  0.59345600  0.92508200  0.04639100  1
  O  O52  1  0.33373200  0.62311500  0.85436000  1
  O  O53  1  0.16944400  0.89408200  0.12677600  1
  O  O54  1  0.41279700  0.30822900  0.56321700  1
  O  O55  1  0.08657500  0.18407800  0.44149700  1
  O  O56  1  0.91146100  0.81226600  0.06030100  1
  O  O57  1  0.58367400  0.69117200  0.95064300  1
  O  O58  1  0.83351200  0.10593000  0.37045800  1
  O  O59  1  0.67427000  0.37706400  0.64617000  1
  O  O60  1  0.40394400  0.06860700  0.46366400  1
  O  O61  1  0.09596400  0.29178100  0.67176800  1
  O  O62  1  0.81025500  0.39755100  0.84949800  1
  O  O63  1  0.60550000  0.12076700  0.58086900  1
  O  O64  1  0.89407000  0.16648800  0.62954200  1
  O  O65  1  0.12181500  0.60678300  0.07910000  1
  O  O66  1  0.37688500  0.66626800  0.14564000  1
  O  O67  1  0.54397800  0.39796700  0.87238300  1
  O  O68  1  0.07491800  0.40654400  0.95360900  1
  O  O69  1  0.12105900  0.03155300  0.64685800  1
  O  O70  1  0.37752000  0.10749800  0.71986700  1
  O  O71  1  0.30882800  0.41632600  0.04935700  1
  O  O72  1  0.68308200  0.18325300  0.83511400  1
  O  O73  1  0.60203300  0.45602200  0.12761700  1
  O  O74  1  0.10009800  0.38425000  0.21239800  1
  O  O75  1  0.18773400  0.08853900  0.93969900  1
  O  O76  1  0.81674700  0.31691800  0.16488600  1
  O  O77  1  0.60244900  0.18974500  0.15050200  1
  O  O78  1  0.04413100  0.12202000  0.15203500  1
  O  O79  1  0.30712200  0.08981900  0.16504100  1
