# generated using pymatgen
data_Li5CrO5
_symmetry_space_group_name_H-M   'P 1'
_cell_length_a   4.10551602
_cell_length_b   5.13801849
_cell_length_c   21.59670437
_cell_angle_alpha   95.16176717
_cell_angle_beta   89.99907092
_cell_angle_gamma   66.44921603
_symmetry_Int_Tables_number   1
_chemical_formula_structural   Li5CrO5
_chemical_formula_sum   'Li20 Cr4 O20'
_cell_volume   415.60341096
_cell_formula_units_Z   4
loop_
 _symmetry_equiv_pos_site_id
 _symmetry_equiv_pos_as_xyz
  1  'x, y, z'
loop_
 _atom_site_type_symbol
 _atom_site_label
 _atom_site_symmetry_multiplicity
 _atom_site_fract_x
 _atom_site_fract_y
 _atom_site_fract_z
 _atom_site_occupancy
  Li  Li0  1  0.88380200  0.26851200  0.12854900  1
  Li  Li1  1  0.38367000  0.26800100  0.62855900  1
  Li  Li2  1  0.13362200  0.76873000  0.87856200  1
  Li  Li3  1  0.63378500  0.76808300  0.37856800  1
  Li  Li4  1  0.46462200  0.06791500  0.21892400  1
  Li  Li5  1  0.96475600  0.06785900  0.71887700  1
  Li  Li6  1  0.71466100  0.56818200  0.96890800  1
  Li  Li7  1  0.21454400  0.56730900  0.46893100  1
  Li  Li8  1  0.26431900  0.46904900  0.03815000  1
  Li  Li9  1  0.76415400  0.46827700  0.53818400  1
  Li  Li10  1  0.51434200  0.96893400  0.78815500  1
  Li  Li11  1  0.01420900  0.96884500  0.28817200  1
  Li  Li12  1  0.61151300  0.76959400  0.08807000  1
  Li  Li13  1  0.11144800  0.76889600  0.58809100  1
  Li  Li14  1  0.86154800  0.26954200  0.83804400  1
  Li  Li15  1  0.36145000  0.26922600  0.33811000  1
  Li  Li16  1  0.11246000  0.76742800  0.16902400  1
  Li  Li17  1  0.61250100  0.76716900  0.66905800  1
  Li  Li18  1  0.36248400  0.26762700  0.91901200  1
  Li  Li19  1  0.86239800  0.26685200  0.41904200  1
  Cr  Cr20  1  0.41992600  0.01770800  0.50357100  1
  Cr  Cr21  1  0.17110000  0.51847400  0.75359300  1
  Cr  Cr22  1  0.92015500  0.01860300  0.00354200  1
  Cr  Cr23  1  0.67020400  0.51837500  0.25357400  1
  O  O24  1  0.51050400  0.01863900  0.00359400  1
  O  O25  1  0.01023100  0.01776200  0.50356000  1
  O  O26  1  0.76176900  0.51843600  0.75358000  1
  O  O27  1  0.26087400  0.51839200  0.25356200  1
  O  O28  1  0.93339400  0.15574200  0.21193900  1
  O  O29  1  0.43394400  0.15560400  0.71194100  1
  O  O30  1  0.18336900  0.65606300  0.96196700  1
  O  O31  1  0.68315800  0.65523300  0.46197400  1
  O  O32  1  0.82087500  0.38123600  0.04513800  1
  O  O33  1  0.32055800  0.38043300  0.54514200  1
  O  O34  1  0.07117700  0.88126300  0.79514500  1
  O  O35  1  0.57086400  0.88095500  0.29515200  1
  O  O36  1  0.07523400  0.86620500  0.08062100  1
  O  O37  1  0.57506400  0.86547200  0.58062300  1
  O  O38  1  0.32570700  0.36601600  0.83066700  1
  O  O39  1  0.82519000  0.36583600  0.33064300  1
  O  O40  1  0.67271400  0.67082300  0.17647000  1
  O  O41  1  0.17318000  0.67076100  0.67645000  1
  O  O42  1  0.92283600  0.17098300  0.92650200  1
  O  O43  1  0.42264200  0.17018600  0.42650800  1
