# generated using pymatgen
data_Li2FePCO7
_symmetry_space_group_name_H-M   'P 1'
_cell_length_a   6.50418300
_cell_length_b   9.37477884
_cell_length_c   10.11777024
_cell_angle_alpha   62.76196040
_cell_angle_beta   89.63649125
_cell_angle_gamma   89.35455479
_symmetry_Int_Tables_number   1
_chemical_formula_structural   Li2FePCO7
_chemical_formula_sum   'Li8 Fe4 P4 C4 O28'
_cell_volume   548.48842313
_cell_formula_units_Z   4
loop_
 _symmetry_equiv_pos_site_id
 _symmetry_equiv_pos_as_xyz
  1  'x, y, z'
loop_
 _atom_site_type_symbol
 _atom_site_label
 _atom_site_symmetry_multiplicity
 _atom_site_fract_x
 _atom_site_fract_y
 _atom_site_fract_z
 _atom_site_occupancy
  Li  Li0  1  0.25305000  0.33226600  0.57021800  1
  Li  Li1  1  0.25646400  0.83363300  0.06861600  1
  Li  Li2  1  0.03301600  0.98839600  0.73490000  1
  Li  Li3  1  0.46415300  0.48841200  0.23481100  1
  Li  Li4  1  0.96807100  0.51344300  0.76265800  1
  Li  Li5  1  0.96999900  0.01217000  0.26216400  1
  Li  Li6  1  0.73446600  0.16720500  0.92773300  1
  Li  Li7  1  0.74750100  0.66690000  0.43049200  1
  Fe  Fe8  1  0.74567600  0.73449800  0.93637500  1
  Fe  Fe9  1  0.75419700  0.23450200  0.43574900  1
  Fe  Fe10  1  0.25941500  0.76482400  0.56445800  1
  Fe  Fe11  1  0.26144800  0.26490600  0.06450900  1
  P  P12  1  0.24663400  0.65132700  0.92843700  1
  P  P13  1  0.24436300  0.15139400  0.42893400  1
  P  P14  1  0.75984300  0.84792900  0.57175800  1
  P  P15  1  0.75228300  0.34800000  0.07142500  1
  C  C16  1  0.75978800  0.33058300  0.62956500  1
  C  C17  1  0.75548100  0.83072500  0.13004000  1
  C  C18  1  0.22892900  0.16980800  0.87107500  1
  C  C19  1  0.25240000  0.66978100  0.37020100  1
  O  O20  1  0.76000400  0.93535500  0.98815700  1
  O  O21  1  0.74051500  0.43498700  0.48858700  1
  O  O22  1  0.21677400  0.13263800  0.76592300  1
  O  O23  1  0.75627200  0.17975300  0.65566200  1
  O  O24  1  0.27596500  0.63402100  0.26462700  1
  O  O25  1  0.72600900  0.68184900  0.15552800  1
  O  O26  1  0.06553100  0.75340000  0.94388600  1
  O  O27  1  0.43948800  0.74191300  0.93744000  1
  O  O28  1  0.06149500  0.24854800  0.44789600  1
  O  O29  1  0.43521100  0.24642200  0.43589200  1
  O  O30  1  0.77269100  0.86208700  0.71763900  1
  O  O31  1  0.23651100  0.97830100  0.56118100  1
  O  O32  1  0.72112300  0.36226700  0.21645000  1
  O  O33  1  0.25661300  0.47856100  0.06099800  1
  O  O34  1  0.78122300  0.52019900  0.94072200  1
  O  O35  1  0.22620100  0.63831100  0.78262400  1
  O  O36  1  0.78227500  0.02003700  0.43941900  1
  O  O37  1  0.23278900  0.13802900  0.28291300  1
  O  O38  1  0.56321700  0.76705700  0.55401400  1
  O  O39  1  0.93566800  0.73732800  0.56448000  1
  O  O40  1  0.93752500  0.24071300  0.07505900  1
  O  O41  1  0.56552900  0.26405900  0.04213400  1
  O  O42  1  0.22619900  0.32028900  0.84588600  1
  O  O43  1  0.78121900  0.36773100  0.73425200  1
  O  O44  1  0.22694400  0.81929300  0.34520400  1
  O  O45  1  0.77986400  0.86631500  0.23535200  1
  O  O46  1  0.25786800  0.56472900  0.51183500  1
  O  O47  1  0.24812600  0.06510700  0.01212200  1
