# generated using pymatgen
data_Li4Mn3Sn5O16
_symmetry_space_group_name_H-M   'P 1'
_cell_length_a   6.26257661
_cell_length_b   10.67180604
_cell_length_c   9.96301796
_cell_angle_alpha   91.00973921
_cell_angle_beta   91.72333978
_cell_angle_gamma   88.37543937
_symmetry_Int_Tables_number   1
_chemical_formula_structural   Li4Mn3Sn5O16
_chemical_formula_sum   'Li8 Mn6 Sn10 O32'
_cell_volume   665.19600293
_cell_formula_units_Z   2
loop_
 _symmetry_equiv_pos_site_id
 _symmetry_equiv_pos_as_xyz
  1  'x, y, z'
loop_
 _atom_site_type_symbol
 _atom_site_label
 _atom_site_symmetry_multiplicity
 _atom_site_fract_x
 _atom_site_fract_y
 _atom_site_fract_z
 _atom_site_occupancy
  Li  Li0  1  0.99497300  0.33166100  0.89633400  1
  Li  Li1  1  0.49494800  0.83167500  0.89629700  1
  Li  Li2  1  0.48189400  0.49404600  0.98665300  1
  Li  Li3  1  0.98192600  0.99400300  0.98664200  1
  Li  Li4  1  0.49855900  0.49952400  0.49448500  1
  Li  Li5  1  0.99857600  0.99949600  0.49450500  1
  Li  Li6  1  0.49711100  0.16570800  0.40187700  1
  Li  Li7  1  0.99711300  0.66572700  0.40184600  1
  Mn  Mn8  1  0.74648800  0.91572400  0.21411600  1
  Mn  Mn9  1  0.50018100  0.33053400  0.71237400  1
  Mn  Mn10  1  0.00006600  0.83054400  0.71243900  1
  Mn  Mn11  1  0.24678900  0.41547300  0.21405600  1
  Mn  Mn12  1  0.74585800  0.08488400  0.71229800  1
  Mn  Mn13  1  0.24589000  0.58487800  0.71238200  1
  Sn  Sn14  1  0.00966300  0.33653100  0.49266300  1
  Sn  Sn15  1  0.50961500  0.83652500  0.49265000  1
  Sn  Sn16  1  0.25523500  0.08502700  0.71624000  1
  Sn  Sn17  1  0.75522500  0.58505500  0.71626900  1
  Sn  Sn18  1  0.50363500  0.16790200  0.98687000  1
  Sn  Sn19  1  0.00374900  0.66794200  0.98691600  1
  Sn  Sn20  1  0.75618400  0.41608800  0.21423800  1
  Sn  Sn21  1  0.25606800  0.91603400  0.21424100  1
  Sn  Sn22  1  0.00225200  0.16999800  0.21425900  1
  Sn  Sn23  1  0.50223700  0.66997800  0.21421900  1
  O  O24  1  0.77500300  0.25831700  0.34301200  1
  O  O25  1  0.27498600  0.75833000  0.34305000  1
  O  O26  1  0.98855700  0.32945900  0.09994900  1
  O  O27  1  0.48856800  0.82951100  0.09993000  1
  O  O28  1  0.00876400  0.00290800  0.31169700  1
  O  O29  1  0.50881400  0.50291000  0.31167200  1
  O  O30  1  0.49518500  0.49854100  0.80241200  1
  O  O31  1  0.99522900  0.99841200  0.80239600  1
  O  O32  1  0.24331400  0.08109400  0.09604200  1
  O  O33  1  0.74332200  0.58110200  0.09601200  1
  O  O34  1  0.26704800  0.42241800  0.60069500  1
  O  O35  1  0.76709200  0.92230000  0.60063900  1
  O  O36  1  0.50619100  0.16874500  0.61187400  1
  O  O37  1  0.00628200  0.66876000  0.61203000  1
  O  O38  1  0.71450800  0.23825300  0.83113100  1
  O  O39  1  0.21470800  0.73830000  0.83091200  1
  O  O40  1  0.75476400  0.42192200  0.59543600  1
  O  O41  1  0.25476500  0.92192300  0.59539700  1
  O  O42  1  0.01019400  0.16641700  0.59544800  1
  O  O43  1  0.51022700  0.66640100  0.59543100  1
  O  O44  1  0.99082500  0.48325600  0.34933300  1
  O  O45  1  0.49075700  0.98329300  0.34933700  1
  O  O46  1  0.22033000  0.25373000  0.34935100  1
  O  O47  1  0.72023800  0.75374200  0.34929700  1
  O  O48  1  0.26867500  0.23954200  0.84813600  1
  O  O49  1  0.76875400  0.73959000  0.84817000  1
  O  O50  1  0.49379500  0.01456500  0.84816600  1
  O  O51  1  0.99379300  0.51460400  0.84819400  1
  O  O52  1  0.50935400  0.33755000  0.09137700  1
  O  O53  1  0.00946700  0.83752400  0.09142800  1
  O  O54  1  0.76098900  0.08591100  0.09139500  1
  O  O55  1  0.26097600  0.58601200  0.09146300  1
