# generated using pymatgen
data_Li2Mn2Cr3O12
_symmetry_space_group_name_H-M   'P 1'
_cell_length_a   9.28830500
_cell_length_b   9.33983700
_cell_length_c   12.89355900
_cell_angle_alpha   90.00000000
_cell_angle_beta   90.00000000
_cell_angle_gamma   90.00000000
_symmetry_Int_Tables_number   1
_chemical_formula_structural   Li2Mn2Cr3O12
_chemical_formula_sum   'Li8 Mn8 Cr12 O48'
_cell_volume   1118.53242088
_cell_formula_units_Z   4
loop_
 _symmetry_equiv_pos_site_id
 _symmetry_equiv_pos_as_xyz
  1  'x, y, z'
loop_
 _atom_site_type_symbol
 _atom_site_label
 _atom_site_symmetry_multiplicity
 _atom_site_fract_x
 _atom_site_fract_y
 _atom_site_fract_z
 _atom_site_occupancy
  Li  Li0  1  0.21977400  0.27251200  0.18602200  1
  Li  Li1  1  0.78022600  0.77251200  0.18602200  1
  Li  Li2  1  0.28022600  0.77251200  0.31397800  1
  Li  Li3  1  0.71977400  0.27251200  0.31397800  1
  Li  Li4  1  0.28022600  0.72748800  0.68602200  1
  Li  Li5  1  0.71977400  0.22748800  0.68602200  1
  Li  Li6  1  0.21977400  0.22748800  0.81397800  1
  Li  Li7  1  0.78022600  0.72748800  0.81397800  1
  Mn  Mn8  1  0.25288000  0.96538300  0.11847500  1
  Mn  Mn9  1  0.74712000  0.46538300  0.11847500  1
  Mn  Mn10  1  0.75288000  0.96538300  0.38152500  1
  Mn  Mn11  1  0.24712000  0.46538300  0.38152500  1
  Mn  Mn12  1  0.24712000  0.03461700  0.61847500  1
  Mn  Mn13  1  0.75288000  0.53461700  0.61847500  1
  Mn  Mn14  1  0.25288000  0.53461700  0.88152500  1
  Mn  Mn15  1  0.74712000  0.03461700  0.88152500  1
  Cr  Cr16  1  0.45867100  0.25000000  0.00000000  1
  Cr  Cr17  1  0.54132900  0.75000000  0.00000000  1
  Cr  Cr18  1  0.10045900  0.60557400  0.14485300  1
  Cr  Cr19  1  0.89954100  0.10557400  0.14485300  1
  Cr  Cr20  1  0.39954100  0.10557400  0.35514700  1
  Cr  Cr21  1  0.60045900  0.60557400  0.35514700  1
  Cr  Cr22  1  0.04132900  0.75000000  0.50000000  1
  Cr  Cr23  1  0.95867100  0.25000000  0.50000000  1
  Cr  Cr24  1  0.39954100  0.39442600  0.64485300  1
  Cr  Cr25  1  0.60045900  0.89442600  0.64485300  1
  Cr  Cr26  1  0.10045900  0.89442600  0.85514700  1
  Cr  Cr27  1  0.89954100  0.39442600  0.85514700  1
  O  O28  1  0.13884700  0.57285000  0.02272800  1
  O  O29  1  0.86115300  0.07285000  0.02272800  1
  O  O30  1  0.55974400  0.36866800  0.06017900  1
  O  O31  1  0.44025600  0.86866800  0.06017900  1
  O  O32  1  0.35199200  0.16913900  0.08842700  1
  O  O33  1  0.64800800  0.66913900  0.08842700  1
  O  O34  1  0.07943100  0.11107400  0.16082200  1
  O  O35  1  0.92056900  0.61107400  0.16082200  1
  O  O36  1  0.17141900  0.76356800  0.17918200  1
  O  O37  1  0.82858100  0.26356800  0.17918200  1
  O  O38  1  0.83038800  0.97462700  0.21928400  1
  O  O39  1  0.16961200  0.47462700  0.21928400  1
  O  O40  1  0.33038800  0.97462700  0.28071600  1
  O  O41  1  0.66961200  0.47462700  0.28071600  1
  O  O42  1  0.67141900  0.76356800  0.32081800  1
  O  O43  1  0.32858100  0.26356800  0.32081800  1
  O  O44  1  0.42056900  0.61107400  0.33917800  1
  O  O45  1  0.57943100  0.11107400  0.33917800  1
  O  O46  1  0.14800800  0.66913900  0.41157300  1
  O  O47  1  0.85199200  0.16913900  0.41157300  1
  O  O48  1  0.05974400  0.36866800  0.43982100  1
  O  O49  1  0.94025600  0.86866800  0.43982100  1
  O  O50  1  0.63884700  0.57285000  0.47727200  1
  O  O51  1  0.36115300  0.07285000  0.47727200  1
  O  O52  1  0.36115300  0.42715000  0.52272800  1
  O  O53  1  0.63884700  0.92715000  0.52272800  1
  O  O54  1  0.05974400  0.13133200  0.56017900  1
  O  O55  1  0.94025600  0.63133200  0.56017900  1
  O  O56  1  0.14800800  0.83086100  0.58842700  1
  O  O57  1  0.85199200  0.33086100  0.58842700  1
  O  O58  1  0.42056900  0.88892600  0.66082200  1
  O  O59  1  0.57943100  0.38892600  0.66082200  1
  O  O60  1  0.32858100  0.23643200  0.67918200  1
  O  O61  1  0.67141900  0.73643200  0.67918200  1
  O  O62  1  0.33038800  0.52537300  0.71928400  1
  O  O63  1  0.66961200  0.02537300  0.71928400  1
  O  O64  1  0.16961200  0.02537300  0.78071600  1
  O  O65  1  0.83038800  0.52537300  0.78071600  1
  O  O66  1  0.17141900  0.73643200  0.82081800  1
  O  O67  1  0.82858100  0.23643200  0.82081800  1
  O  O68  1  0.07943100  0.38892600  0.83917800  1
  O  O69  1  0.92056900  0.88892600  0.83917800  1
  O  O70  1  0.35199200  0.33086100  0.91157300  1
  O  O71  1  0.64800800  0.83086100  0.91157300  1
  O  O72  1  0.44025600  0.63133200  0.93982100  1
  O  O73  1  0.55974400  0.13133200  0.93982100  1
  O  O74  1  0.13884700  0.92715000  0.97727200  1
  O  O75  1  0.86115300  0.42715000  0.97727200  1
