# generated using pymatgen
data_Li5Mn2V5O12
_symmetry_space_group_name_H-M   'P 1'
_cell_length_a   5.24706122
_cell_length_b   5.24706122
_cell_length_c   9.97902552
_cell_angle_alpha   85.01258954
_cell_angle_beta   85.01258954
_cell_angle_gamma   119.35009587
_symmetry_Int_Tables_number   1
_chemical_formula_structural   Li5Mn2V5O12
_chemical_formula_sum   'Li5 Mn2 V5 O12'
_cell_volume   235.89720482
_cell_formula_units_Z   1
loop_
 _symmetry_equiv_pos_site_id
 _symmetry_equiv_pos_as_xyz
  1  'x, y, z'
loop_
 _atom_site_type_symbol
 _atom_site_label
 _atom_site_symmetry_multiplicity
 _atom_site_fract_x
 _atom_site_fract_y
 _atom_site_fract_z
 _atom_site_occupancy
  Li  Li0  1  0.82954400  0.66157400  0.76158300  1
  Li  Li1  1  0.68583300  0.84681100  0.23773200  1
  Li  Li2  1  0.33842600  0.17045600  0.23841700  1
  Li  Li3  1  0.15318900  0.31416700  0.76226800  1
  Li  Li4  1  0.08191600  0.91808400  0.00000000  1
  Mn  Mn5  1  0.75389200  0.24610800  0.00000000  1
  Mn  Mn6  1  0.24774800  0.75225200  0.50000000  1
  V  V7  1  0.00060800  0.51351300  0.24105400  1
  V  V8  1  0.48648700  0.99939200  0.75894600  1
  V  V9  1  0.57865100  0.42134900  0.50000000  1
  V  V10  1  0.42287600  0.57712400  0.00000000  1
  V  V11  1  0.91729000  0.08271000  0.50000000  1
  O  O12  1  0.06616900  0.23930000  0.12297000  1
  O  O13  1  0.76070000  0.93383100  0.87703000  1
  O  O14  1  0.84220900  0.34867300  0.62140000  1
  O  O15  1  0.65132700  0.15779100  0.37860000  1
  O  O16  1  0.71574000  0.54298800  0.12792200  1
  O  O17  1  0.45701200  0.28426000  0.87207800  1
  O  O18  1  0.56520900  0.73182400  0.61724100  1
  O  O19  1  0.26817600  0.43479100  0.38275900  1
  O  O20  1  0.36182100  0.84065900  0.13018400  1
  O  O21  1  0.15934100  0.63817900  0.86981600  1
  O  O22  1  0.22059500  0.06476000  0.61885700  1
  O  O23  1  0.93524000  0.77940500  0.38114300  1
