# generated using pymatgen
data_Li5Mn8(BO3)8
_symmetry_space_group_name_H-M   'P 1'
_cell_length_a   5.25554900
_cell_length_b   9.17346940
_cell_length_c   10.48408911
_cell_angle_alpha   89.63934762
_cell_angle_beta   88.59801633
_cell_angle_gamma   88.88646998
_symmetry_Int_Tables_number   1
_chemical_formula_structural   Li5Mn8(BO3)8
_chemical_formula_sum   'Li5 Mn8 B8 O24'
_cell_volume   505.19959907
_cell_formula_units_Z   1
loop_
 _symmetry_equiv_pos_site_id
 _symmetry_equiv_pos_as_xyz
  1  'x, y, z'
loop_
 _atom_site_type_symbol
 _atom_site_label
 _atom_site_symmetry_multiplicity
 _atom_site_fract_x
 _atom_site_fract_y
 _atom_site_fract_z
 _atom_site_occupancy
  Li  Li0  1  0.07137100  0.07093500  0.34537800  1
  Li  Li1  1  0.92722800  0.01134700  0.73033000  1
  Li  Li2  1  0.42461900  0.41662500  0.09732300  1
  Li  Li3  1  0.55625300  0.58463300  0.33233400  1
  Li  Li4  1  0.61068800  0.57175300  0.83444800  1
  Mn  Mn5  1  0.08812700  0.73902900  0.37558800  1
  Mn  Mn6  1  0.10779900  0.40140300  0.87005800  1
  Mn  Mn7  1  0.43314900  0.08891300  0.12917400  1
  Mn  Mn8  1  0.44605900  0.75328400  0.61632000  1
  Mn  Mn9  1  0.56211100  0.25150700  0.37627500  1
  Mn  Mn10  1  0.52698900  0.91191300  0.87681200  1
  Mn  Mn11  1  0.91223000  0.59603000  0.11406300  1
  Mn  Mn12  1  0.90881800  0.27897700  0.61743700  1
  B  B13  1  0.06852100  0.42961400  0.37767700  1
  B  B14  1  0.06787800  0.74364500  0.86642800  1
  B  B15  1  0.38510300  0.75047700  0.12776700  1
  B  B16  1  0.42764000  0.08754000  0.63149600  1
  B  B17  1  0.59024700  0.91319400  0.37283400  1
  B  B18  1  0.61653300  0.24771000  0.87433700  1
  B  B19  1  0.92488200  0.26539900  0.14063000  1
  B  B20  1  0.95205900  0.57961800  0.62305500  1
  O  O21  1  0.06507800  0.14719100  0.17501800  1
  O  O22  1  0.08391800  0.69095000  0.55833800  1
  O  O23  1  0.04111500  0.38263300  0.07637100  1
  O  O24  1  0.09277100  0.45475500  0.66097900  1
  O  O25  1  0.14493700  0.76180300  0.19000000  1
  O  O26  1  0.17310300  0.10013300  0.62444300  1
  O  O27  1  0.32454200  0.43167000  0.36429800  1
  O  O28  1  0.33316600  0.73611600  0.83057500  1
  O  O29  1  0.44936800  0.03392300  0.33305200  1
  O  O30  1  0.51813700  0.12065700  0.92719200  1
  O  O31  1  0.45947600  0.78407200  0.40711600  1
  O  O32  1  0.49950700  0.38024500  0.89733200  1
  O  O33  1  0.52315800  0.62296800  0.13679000  1
  O  O34  1  0.58900200  0.18809300  0.57360100  1
  O  O35  1  0.46651600  0.87215600  0.05950500  1
  O  O36  1  0.54952700  0.96590400  0.69199200  1
  O  O37  1  0.66307300  0.27532300  0.17217500  1
  O  O38  1  0.70110700  0.59068300  0.65282400  1
  O  O39  1  0.84688500  0.91387900  0.38322600  1
  O  O40  1  0.84648300  0.23691200  0.80249700  1
  O  O41  1  0.91703100  0.54833200  0.33678600  1
  O  O42  1  0.96168800  0.61468000  0.91179600  1
  O  O43  1  0.94112800  0.30859700  0.43082900  1
  O  O44  1  0.92762000  0.86757200  0.85621700  1
