# generated using pymatgen
data_Li4Co(PO4)2
_symmetry_space_group_name_H-M   'P 1'
_cell_length_a   5.32682146
_cell_length_b   8.15733189
_cell_length_c   7.58775489
_cell_angle_alpha   75.68505757
_cell_angle_beta   101.09858096
_cell_angle_gamma   89.20158674
_symmetry_Int_Tables_number   1
_chemical_formula_structural   Li4Co(PO4)2
_chemical_formula_sum   'Li8 Co2 P4 O16'
_cell_volume   312.83903127
_cell_formula_units_Z   2
loop_
 _symmetry_equiv_pos_site_id
 _symmetry_equiv_pos_as_xyz
  1  'x, y, z'
loop_
 _atom_site_type_symbol
 _atom_site_label
 _atom_site_symmetry_multiplicity
 _atom_site_fract_x
 _atom_site_fract_y
 _atom_site_fract_z
 _atom_site_occupancy
  Li  Li0  1  0.29031900  0.17601000  0.34938400  1
  Li  Li1  1  0.29032500  0.67600300  0.84939200  1
  Li  Li2  1  0.70968200  0.82399000  0.65061700  1
  Li  Li3  1  0.70967400  0.32399800  0.15060800  1
  Li  Li4  1  0.56225500  0.96217100  0.22363500  1
  Li  Li5  1  0.56214500  0.46222100  0.72357100  1
  Li  Li6  1  0.43774200  0.03783200  0.77636100  1
  Li  Li7  1  0.43785600  0.53778000  0.27642900  1
  Co  Co8  1  0.99999900  0.49999900  0.50000000  1
  Co  Co9  1  0.99999800  0.99999900  0.99999900  1
  P  P10  1  0.81756800  0.18631900  0.54132300  1
  P  P11  1  0.81751400  0.68628700  0.04131700  1
  P  P12  1  0.18243300  0.81368100  0.45867500  1
  P  P13  1  0.18248400  0.31371200  0.95868100  1
  O  O14  1  0.67824000  0.35441100  0.54989700  1
  O  O15  1  0.67820100  0.85442500  0.04990800  1
  O  O16  1  0.32175500  0.64559400  0.45010400  1
  O  O17  1  0.32179700  0.14557800  0.95009500  1
  O  O18  1  0.67528100  0.12874800  0.37148700  1
  O  O19  1  0.67522800  0.62873500  0.87145600  1
  O  O20  1  0.32471700  0.87124900  0.62850800  1
  O  O21  1  0.32476900  0.37126400  0.12854300  1
  O  O22  1  0.19011000  0.95751700  0.28091200  1
  O  O23  1  0.19007000  0.45754400  0.78091300  1
  O  O24  1  0.80989100  0.04247800  0.71909400  1
  O  O25  1  0.80993000  0.54245300  0.21909200  1
  O  O26  1  0.09363900  0.23543000  0.51887500  1
  O  O27  1  0.09363500  0.73548900  0.01884200  1
  O  O28  1  0.90637000  0.76457000  0.48112500  1
  O  O29  1  0.90637000  0.26451000  0.98115900  1
