# generated using pymatgen
data_Li2Fe2Si8O19
_symmetry_space_group_name_H-M   'P 1'
_cell_length_a   7.21243483
_cell_length_b   7.21243483
_cell_length_c   12.54388197
_cell_angle_alpha   72.78377178
_cell_angle_beta   72.78377178
_cell_angle_gamma   40.28240131
_symmetry_Int_Tables_number   1
_chemical_formula_structural   Li2Fe2Si8O19
_chemical_formula_sum   'Li2 Fe2 Si8 O19'
_cell_volume   400.37835431
_cell_formula_units_Z   1
loop_
 _symmetry_equiv_pos_site_id
 _symmetry_equiv_pos_as_xyz
  1  'x, y, z'
loop_
 _atom_site_type_symbol
 _atom_site_label
 _atom_site_symmetry_multiplicity
 _atom_site_fract_x
 _atom_site_fract_y
 _atom_site_fract_z
 _atom_site_occupancy
  Li  Li0  1  0.23717200  0.56290900  0.63875500  1
  Li  Li1  1  0.43709100  0.76282800  0.36124500  1
  Fe  Fe2  1  0.31111500  0.29154700  0.40267700  1
  Fe  Fe3  1  0.70845300  0.68888500  0.59732300  1
  Si  Si4  1  0.53645000  0.22227900  0.92747400  1
  Si  Si5  1  0.13549800  0.84730300  0.16923900  1
  Si  Si6  1  0.91588300  0.95026100  0.41921000  1
  Si  Si7  1  0.67264500  0.76690400  0.83145500  1
  Si  Si8  1  0.23309600  0.32735500  0.16854500  1
  Si  Si9  1  0.04973900  0.08411700  0.58079000  1
  Si  Si10  1  0.15269700  0.86450200  0.83076100  1
  Si  Si11  1  0.77772100  0.46355000  0.07252600  1
  O  O12  1  0.83393700  0.13223900  0.89163700  1
  O  O13  1  0.26431700  0.56932600  0.89801000  1
  O  O14  1  0.12278600  0.87819200  0.29655000  1
  O  O15  1  0.59474600  0.27285100  0.41734800  1
  O  O16  1  0.55034100  0.06158800  0.85249300  1
  O  O17  1  0.94297800  0.69496200  0.45672400  1
  O  O18  1  0.87531900  0.65711500  0.71311300  1
  O  O19  1  0.13772300  0.61909100  0.17294500  1
  O  O20  1  0.84563400  0.52013200  0.93831600  1
  O  O21  1  0.47986800  0.15436600  0.06168400  1
  O  O22  1  0.38090900  0.86227700  0.82705500  1
  O  O23  1  0.34288500  0.12468100  0.28688700  1
  O  O24  1  0.30503800  0.05702200  0.54327600  1
  O  O25  1  0.93841200  0.44965900  0.14750700  1
  O  O26  1  0.72714900  0.40525400  0.58265200  1
  O  O27  1  0.12180800  0.87721400  0.70345000  1
  O  O28  1  0.10953500  0.89046500  0.50000000  1
  O  O29  1  0.43067400  0.73568300  0.10199000  1
  O  O30  1  0.86776100  0.16606300  0.10836300  1
