# generated using pymatgen
data_Li5Sn5(PO4)6
_symmetry_space_group_name_H-M   'P 1'
_cell_length_a   9.15519200
_cell_length_b   9.15616893
_cell_length_c   9.27718027
_cell_angle_alpha   61.64082704
_cell_angle_beta   61.44506370
_cell_angle_gamma   60.08990782
_symmetry_Int_Tables_number   1
_chemical_formula_structural   Li5Sn5(PO4)6
_chemical_formula_sum   'Li5 Sn5 P6 O24'
_cell_volume   562.77020891
_cell_formula_units_Z   1
loop_
 _symmetry_equiv_pos_site_id
 _symmetry_equiv_pos_as_xyz
  1  'x, y, z'
loop_
 _atom_site_type_symbol
 _atom_site_label
 _atom_site_symmetry_multiplicity
 _atom_site_fract_x
 _atom_site_fract_y
 _atom_site_fract_z
 _atom_site_occupancy
  Li  Li0  1  0.86567500  0.64942800  0.22183500  1
  Li  Li1  1  0.18034700  0.31773700  0.65650800  1
  Li  Li2  1  0.86180300  0.17255900  0.64893700  1
  Li  Li3  1  0.30800300  0.85094000  0.65893200  1
  Li  Li4  1  0.19708600  0.18677400  0.44337300  1
  Sn  Sn5  1  0.01161500  0.03317400  0.95983400  1
  Sn  Sn6  1  0.50150000  0.50105900  0.48435000  1
  Sn  Sn7  1  0.84574500  0.84449300  0.46889000  1
  Sn  Sn8  1  0.64651100  0.65320500  0.04156400  1
  Sn  Sn9  1  0.34272000  0.33188600  0.97456400  1
  P  P10  1  0.24403300  0.56265100  0.26527600  1
  P  P11  1  0.93471300  0.23906000  0.26808200  1
  P  P12  1  0.43905800  0.02983200  0.76246700  1
  P  P13  1  0.02713200  0.76122500  0.78256200  1
  P  P14  1  0.76697500  0.44536100  0.74370700  1
  P  P15  1  0.56012500  0.92966600  0.26896900  1
  O  O16  1  0.67911200  0.48193500  0.91741400  1
  O  O17  1  0.45921200  0.91004400  0.94211300  1
  O  O18  1  0.08073400  0.73320500  0.30181100  1
  O  O19  1  0.91980700  0.68562600  0.97216300  1
  O  O20  1  0.22377700  0.39547600  0.41841700  1
  O  O21  1  0.41257400  0.58615400  0.25036000  1
  O  O22  1  0.87576200  0.08418100  0.31499900  1
  O  O23  1  0.76096500  0.41452300  0.26468800  1
  O  O24  1  0.60333400  0.97219400  0.61364200  1
  O  O25  1  0.59238300  0.74244300  0.26514800  1
  O  O26  1  0.27598700  0.02236300  0.75114600  1
  O  O27  1  0.94835000  0.77762300  0.65729600  1
  O  O28  1  0.99363200  0.21376400  0.41104200  1
  O  O29  1  0.74196600  0.88334900  0.29027000  1
  O  O30  1  0.38987700  0.22787200  0.73471700  1
  O  O31  1  0.39743700  0.97148600  0.42281200  1
  O  O32  1  0.22762000  0.64930700  0.73813300  1
  O  O33  1  0.01307700  0.95002000  0.75813700  1
  O  O34  1  0.65671800  0.37754800  0.72045400  1
  O  O35  1  0.79811800  0.60755900  0.58364200  1
  O  O36  1  0.07322900  0.26104000  0.08850200  1
  O  O37  1  0.95273300  0.28934000  0.74252400  1
  O  O38  1  0.55198100  0.07206600  0.09542100  1
  O  O39  1  0.26157400  0.55882900  0.09530300  1
