# generated using pymatgen
data_Li2VP2O7
_symmetry_space_group_name_H-M   'P 1'
_cell_length_a   7.43194803
_cell_length_b   7.43194803
_cell_length_c   11.68354093
_cell_angle_alpha   88.61801110
_cell_angle_beta   88.61801110
_cell_angle_gamma   121.12441862
_symmetry_Int_Tables_number   1
_chemical_formula_structural   Li2VP2O7
_chemical_formula_sum   'Li8 V4 P8 O28'
_cell_volume   551.76457896
_cell_formula_units_Z   4
loop_
 _symmetry_equiv_pos_site_id
 _symmetry_equiv_pos_as_xyz
  1  'x, y, z'
loop_
 _atom_site_type_symbol
 _atom_site_label
 _atom_site_symmetry_multiplicity
 _atom_site_fract_x
 _atom_site_fract_y
 _atom_site_fract_z
 _atom_site_occupancy
  Li  Li0  1  0.73438000  0.29945900  0.49346700  1
  Li  Li1  1  0.29945900  0.73438000  0.99346700  1
  Li  Li2  1  0.72373600  0.27626400  0.25000000  1
  Li  Li3  1  0.28800400  0.71199600  0.25000000  1
  Li  Li4  1  0.71199600  0.28800400  0.75000000  1
  Li  Li5  1  0.27626400  0.72373600  0.75000000  1
  Li  Li6  1  0.70054100  0.26562000  0.00653300  1
  Li  Li7  1  0.26562000  0.70054100  0.50653300  1
  V  V8  1  0.67322400  0.66516200  0.38934100  1
  V  V9  1  0.66516200  0.67322400  0.88934100  1
  V  V10  1  0.33483800  0.32677600  0.11065900  1
  V  V11  1  0.32677600  0.33483800  0.61065900  1
  P  P12  1  0.71863100  0.92676100  0.12962700  1
  P  P13  1  0.92676100  0.71863100  0.62962700  1
  P  P14  1  0.90298500  0.67471500  0.13776900  1
  P  P15  1  0.67471500  0.90298500  0.63776900  1
  P  P16  1  0.32528500  0.09701500  0.36223100  1
  P  P17  1  0.09701500  0.32528500  0.86223100  1
  P  P18  1  0.07323900  0.28136900  0.37037300  1
  P  P19  1  0.28136900  0.07323900  0.87037300  1
  O  O20  1  0.93183100  0.90932300  0.12505700  1
  O  O21  1  0.90932300  0.93183100  0.62505700  1
  O  O22  1  0.59843600  0.82866800  0.02046500  1
  O  O23  1  0.82866800  0.59843600  0.52046500  1
  O  O24  1  0.81687800  0.58208800  0.25949100  1
  O  O25  1  0.58208800  0.81687800  0.75949100  1
  O  O26  1  0.59250200  0.79795600  0.23854300  1
  O  O27  1  0.79795600  0.59250200  0.73854300  1
  O  O28  1  0.73302500  0.54229100  0.04942800  1
  O  O29  1  0.54229100  0.73302500  0.54942800  1
  O  O30  1  0.29681200  0.88306600  0.38299100  1
  O  O31  1  0.88306600  0.29681200  0.88299100  1
  O  O32  1  0.84105400  0.20270300  0.37154000  1
  O  O33  1  0.20270300  0.84105400  0.87154000  1
  O  O34  1  0.79729700  0.15894600  0.12846000  1
  O  O35  1  0.15894600  0.79729700  0.62846000  1
  O  O36  1  0.11693400  0.70318800  0.11700900  1
  O  O37  1  0.70318800  0.11693400  0.61700900  1
  O  O38  1  0.45770900  0.26697500  0.45057200  1
  O  O39  1  0.26697500  0.45770900  0.95057200  1
  O  O40  1  0.20204400  0.40749800  0.26145700  1
  O  O41  1  0.40749800  0.20204400  0.76145700  1
  O  O42  1  0.41791200  0.18312200  0.24050900  1
  O  O43  1  0.18312200  0.41791200  0.74050900  1
  O  O44  1  0.17133200  0.40156400  0.47953500  1
  O  O45  1  0.40156400  0.17133200  0.97953500  1
  O  O46  1  0.09067700  0.06816900  0.37494300  1
  O  O47  1  0.06816900  0.09067700  0.87494300  1
