# generated using pymatgen
data_Li4Mn3P4(HO8)2
_symmetry_space_group_name_H-M   'P 1'
_cell_length_a   9.43554900
_cell_length_b   8.66752500
_cell_length_c   9.38749745
_cell_angle_alpha   63.24576206
_cell_angle_beta   90.00000000
_cell_angle_gamma   90.00000000
_symmetry_Int_Tables_number   1
_chemical_formula_structural   Li4Mn3P4(HO8)2
_chemical_formula_sum   'Li8 Mn6 P8 H4 O32'
_cell_volume   685.54684208
_cell_formula_units_Z   2
loop_
 _symmetry_equiv_pos_site_id
 _symmetry_equiv_pos_as_xyz
  1  'x, y, z'
loop_
 _atom_site_type_symbol
 _atom_site_label
 _atom_site_symmetry_multiplicity
 _atom_site_fract_x
 _atom_site_fract_y
 _atom_site_fract_z
 _atom_site_occupancy
  Li  Li0  1  0.35590000  0.40871300  0.04937500  1
  Li  Li1  1  0.99382100  0.29210600  0.29350200  1
  Li  Li2  1  0.14410000  0.90871300  0.04937500  1
  Li  Li3  1  0.50617900  0.79210600  0.29350200  1
  Li  Li4  1  0.49382100  0.20789400  0.70649800  1
  Li  Li5  1  0.85590000  0.09128700  0.95062500  1
  Li  Li6  1  0.00617900  0.70789400  0.70649800  1
  Li  Li7  1  0.64410000  0.59128700  0.95062500  1
  Mn  Mn8  1  0.63552100  0.40100900  0.37399200  1
  Mn  Mn9  1  0.13552100  0.09899100  0.62600800  1
  Mn  Mn10  1  0.00000000  0.50000000  0.50000000  1
  Mn  Mn11  1  0.86447900  0.90100900  0.37399200  1
  Mn  Mn12  1  0.36447900  0.59899100  0.62600800  1
  Mn  Mn13  1  0.50000000  0.00000000  0.50000000  1
  P  P14  1  0.67876400  0.19638100  0.16190000  1
  P  P15  1  0.82123600  0.69638100  0.16190000  1
  P  P16  1  0.31413400  0.43536300  0.37823900  1
  P  P17  1  0.81413400  0.06463700  0.62176100  1
  P  P18  1  0.18586600  0.93536300  0.37823900  1
  P  P19  1  0.68586600  0.56463700  0.62176100  1
  P  P20  1  0.17876400  0.30361900  0.83810000  1
  P  P21  1  0.32123600  0.80361900  0.83810000  1
  H  H22  1  0.19992600  0.14814200  0.10410900  1
  H  H23  1  0.30007400  0.64814200  0.10410900  1
  H  H24  1  0.69992600  0.35185800  0.89589100  1
  H  H25  1  0.80007400  0.85185800  0.89589100  1
  O  O26  1  0.19023100  0.28706800  0.01363100  1
  O  O27  1  0.21167200  0.98300100  0.19960200  1
  O  O28  1  0.83211200  0.16940300  0.23079900  1
  O  O29  1  0.58656700  0.03705900  0.26391400  1
  O  O30  1  0.61196200  0.36681100  0.14816700  1
  O  O31  1  0.30976900  0.78706800  0.01363100  1
  O  O32  1  0.28832800  0.48300100  0.19960200  1
  O  O33  1  0.13733600  0.09739900  0.39280300  1
  O  O34  1  0.66788800  0.66940300  0.23079900  1
  O  O35  1  0.91343300  0.53705900  0.26391400  1
  O  O36  1  0.67411700  0.13259600  0.52677900  1
  O  O37  1  0.88803800  0.86681100  0.14816700  1
  O  O38  1  0.42660000  0.28932000  0.44900600  1
  O  O39  1  0.92660000  0.21068000  0.55099400  1
  O  O40  1  0.17411700  0.36740400  0.47322100  1
  O  O41  1  0.36266400  0.59739900  0.39280300  1
  O  O42  1  0.63733600  0.40260100  0.60719700  1
  O  O43  1  0.82588300  0.63259600  0.52677900  1
  O  O44  1  0.07340000  0.78932000  0.44900600  1
  O  O45  1  0.57340000  0.71068000  0.55099400  1
  O  O46  1  0.11196200  0.13318900  0.85183300  1
  O  O47  1  0.32588300  0.86740400  0.47322100  1
  O  O48  1  0.08656700  0.46294100  0.73608600  1
  O  O49  1  0.33211200  0.33059700  0.76920100  1
  O  O50  1  0.86266400  0.90260100  0.60719700  1
  O  O51  1  0.71167200  0.51699900  0.80039800  1
  O  O52  1  0.69023100  0.21293200  0.98636900  1
  O  O53  1  0.38803800  0.63318900  0.85183300  1
  O  O54  1  0.41343300  0.96294100  0.73608600  1
  O  O55  1  0.16788800  0.83059700  0.76920100  1
  O  O56  1  0.78832800  0.01699900  0.80039800  1
  O  O57  1  0.80976900  0.71293200  0.98636900  1
