# generated using pymatgen
data_Li2CoCSO7
_symmetry_space_group_name_H-M   'P 1'
_cell_length_a   6.43002376
_cell_length_b   9.95643481
_cell_length_c   8.96035030
_cell_angle_alpha   83.39377554
_cell_angle_beta   90.09085569
_cell_angle_gamma   90.07763758
_symmetry_Int_Tables_number   1
_chemical_formula_structural   Li2CoCSO7
_chemical_formula_sum   'Li8 Co4 C4 S4 O28'
_cell_volume   569.83268975
_cell_formula_units_Z   4
loop_
 _symmetry_equiv_pos_site_id
 _symmetry_equiv_pos_as_xyz
  1  'x, y, z'
loop_
 _atom_site_type_symbol
 _atom_site_label
 _atom_site_symmetry_multiplicity
 _atom_site_fract_x
 _atom_site_fract_y
 _atom_site_fract_z
 _atom_site_occupancy
  Li  Li0  1  0.51374200  0.10537800  0.18290900  1
  Li  Li1  1  0.51686600  0.60525700  0.18196800  1
  Li  Li2  1  0.98371700  0.10542100  0.18173500  1
  Li  Li3  1  0.98643500  0.60637900  0.18207500  1
  Li  Li4  1  0.48469400  0.39443100  0.81831100  1
  Li  Li5  1  0.48576000  0.89506800  0.81830100  1
  Li  Li6  1  0.01527500  0.39431800  0.81811700  1
  Li  Li7  1  0.01610900  0.89391800  0.81743200  1
  Co  Co8  1  0.74709800  0.88283300  0.35307300  1
  Co  Co9  1  0.25005800  0.11719700  0.64735400  1
  Co  Co10  1  0.75027400  0.38314700  0.35225400  1
  Co  Co11  1  0.25037500  0.61687600  0.64786700  1
  C  C12  1  0.75014400  0.36335000  0.07242700  1
  C  C13  1  0.75088800  0.86369200  0.07254700  1
  C  C14  1  0.24966300  0.13669400  0.92742800  1
  C  C15  1  0.25114900  0.63675800  0.92762200  1
  S  S16  1  0.25004100  0.37635300  0.41106400  1
  S  S17  1  0.24846800  0.87580700  0.41155300  1
  S  S18  1  0.75011500  0.12379700  0.58811000  1
  S  S19  1  0.75004200  0.62355200  0.58900900  1
  O  O20  1  0.24890200  0.15053200  0.06719000  1
  O  O21  1  0.25208600  0.65078200  0.06730700  1
  O  O22  1  0.75015300  0.34935200  0.93265200  1
  O  O23  1  0.75128400  0.84980500  0.93276400  1
  O  O24  1  0.75017000  0.48199400  0.12221000  1
  O  O25  1  0.74630100  0.98220400  0.12246400  1
  O  O26  1  0.25035500  0.01817200  0.87731500  1
  O  O27  1  0.25044500  0.51805100  0.87793000  1
  O  O28  1  0.75016400  0.25880700  0.17741300  1
  O  O29  1  0.75462300  0.75911000  0.17751400  1
  O  O30  1  0.24963400  0.24127700  0.82244400  1
  O  O31  1  0.25089500  0.74134300  0.82264600  1
  O  O32  1  0.74900500  0.07236500  0.43942500  1
  O  O33  1  0.74935900  0.57238100  0.44028600  1
  O  O34  1  0.25063800  0.42786700  0.55957100  1
  O  O35  1  0.24836000  0.92758700  0.55997800  1
  O  O36  1  0.24930100  0.22520900  0.43538700  1
  O  O37  1  0.24976800  0.72475800  0.43607600  1
  O  O38  1  0.75048700  0.27480900  0.56388300  1
  O  O39  1  0.74924100  0.77467600  0.56495600  1
  O  O40  1  0.06514500  0.42508200  0.31992700  1
  O  O41  1  0.06328400  0.92358800  0.32040800  1
  O  O42  1  0.43508600  0.42443500  0.32001800  1
  O  O43  1  0.43319900  0.92486700  0.32054900  1
  O  O44  1  0.56515800  0.07545100  0.67917300  1
  O  O45  1  0.56558200  0.57475400  0.68030700  1
  O  O46  1  0.93509100  0.07525800  0.67917200  1
  O  O47  1  0.93536900  0.57525700  0.67987800  1
