# generated using pymatgen
data_Li2Mn3(BO3)3
_symmetry_space_group_name_H-M   'P 1'
_cell_length_a   6.21507500
_cell_length_b   7.78523918
_cell_length_c   9.10708632
_cell_angle_alpha   109.60799797
_cell_angle_beta   107.49903244
_cell_angle_gamma   99.62212734
_symmetry_Int_Tables_number   1
_chemical_formula_structural   Li2Mn3(BO3)3
_chemical_formula_sum   'Li4 Mn6 B6 O18'
_cell_volume   377.85870669
_cell_formula_units_Z   2
loop_
 _symmetry_equiv_pos_site_id
 _symmetry_equiv_pos_as_xyz
  1  'x, y, z'
loop_
 _atom_site_type_symbol
 _atom_site_label
 _atom_site_symmetry_multiplicity
 _atom_site_fract_x
 _atom_site_fract_y
 _atom_site_fract_z
 _atom_site_occupancy
  Li  Li0  1  0.68671100  0.99424200  0.11474900  1
  Li  Li1  1  0.99952900  0.66033300  0.21993600  1
  Li  Li2  1  0.31328900  0.00575800  0.88525100  1
  Li  Li3  1  0.00047100  0.33966700  0.78006400  1
  Mn  Mn4  1  0.03604000  0.29305900  0.43769200  1
  Mn  Mn5  1  0.96396000  0.70694100  0.56230800  1
  Mn  Mn6  1  0.69437500  0.94497900  0.76259900  1
  Mn  Mn7  1  0.60522200  0.36766400  0.87450900  1
  Mn  Mn8  1  0.39477800  0.63233600  0.12549100  1
  Mn  Mn9  1  0.30562500  0.05502100  0.23740100  1
  B  B10  1  0.35911300  0.63865300  0.78967700  1
  B  B11  1  0.25978600  0.03057200  0.54933100  1
  B  B12  1  0.64088700  0.36134700  0.21032300  1
  B  B13  1  0.74021400  0.96942800  0.45066900  1
  B  B14  1  0.03337300  0.29706700  0.10490300  1
  B  B15  1  0.96662700  0.70293300  0.89509700  1
  O  O16  1  0.20754700  0.57936700  0.62071500  1
  O  O17  1  0.00194500  0.17756000  0.19066600  1
  O  O18  1  0.51523900  0.81945900  0.87979000  1
  O  O19  1  0.99805500  0.82244000  0.80933400  1
  O  O20  1  0.40022500  0.08296100  0.71704200  1
  O  O21  1  0.79245300  0.42063300  0.37928500  1
  O  O22  1  0.11211700  0.84803000  0.44948700  1
  O  O23  1  0.48476100  0.18054100  0.12021000  1
  O  O24  1  0.66565900  0.49051800  0.13808600  1
  O  O25  1  0.71607300  0.83580800  0.52294800  1
  O  O26  1  0.88788300  0.15197000  0.55051300  1
  O  O27  1  0.18303900  0.47613800  0.19558500  1
  O  O28  1  0.59977500  0.91703900  0.28295800  1
  O  O29  1  0.89957600  0.22550600  0.93227100  1
  O  O30  1  0.33434100  0.50948200  0.86191400  1
  O  O31  1  0.81696100  0.52386200  0.80441500  1
  O  O32  1  0.28392700  0.16419200  0.47705200  1
  O  O33  1  0.10042400  0.77449400  0.06772900  1
