# generated using pymatgen
data_Li3Sn(BO3)2
_symmetry_space_group_name_H-M   'P 1'
_cell_length_a   6.45529300
_cell_length_b   8.84904300
_cell_length_c   10.10635597
_cell_angle_alpha   63.13974563
_cell_angle_beta   90.00000000
_cell_angle_gamma   90.00000000
_symmetry_Int_Tables_number   1
_chemical_formula_structural   Li3Sn(BO3)2
_chemical_formula_sum   'Li12 Sn4 B8 O24'
_cell_volume   515.02205879
_cell_formula_units_Z   4
loop_
 _symmetry_equiv_pos_site_id
 _symmetry_equiv_pos_as_xyz
  1  'x, y, z'
loop_
 _atom_site_type_symbol
 _atom_site_label
 _atom_site_symmetry_multiplicity
 _atom_site_fract_x
 _atom_site_fract_y
 _atom_site_fract_z
 _atom_site_occupancy
  Li  Li0  1  0.24409100  0.39420100  0.97928600  1
  Li  Li1  1  0.93779300  0.29090800  0.16881700  1
  Li  Li2  1  0.74409100  0.60579900  0.52071400  1
  Li  Li3  1  0.72164900  0.15927900  0.04407900  1
  Li  Li4  1  0.56220700  0.29090800  0.66881700  1
  Li  Li5  1  0.22164900  0.84072100  0.45592100  1
  Li  Li6  1  0.77835100  0.15927900  0.54407900  1
  Li  Li7  1  0.43779300  0.70909200  0.33118300  1
  Li  Li8  1  0.27835100  0.84072100  0.95592100  1
  Li  Li9  1  0.25590900  0.39420100  0.47928600  1
  Li  Li10  1  0.06220700  0.70909200  0.83118300  1
  Li  Li11  1  0.75590900  0.60579900  0.02071400  1
  Sn  Sn12  1  0.46830100  0.19098700  0.30009600  1
  Sn  Sn13  1  0.03169900  0.19098700  0.80009600  1
  Sn  Sn14  1  0.96830100  0.80901300  0.19990400  1
  Sn  Sn15  1  0.53169900  0.80901300  0.69990400  1
  B  B16  1  0.33649900  0.53966000  0.67755200  1
  B  B17  1  0.83649900  0.46034000  0.82244800  1
  B  B18  1  0.82697900  0.94788400  0.38823100  1
  B  B19  1  0.32697900  0.05211600  0.11176900  1
  B  B20  1  0.67302100  0.94788400  0.88823100  1
  B  B21  1  0.17302100  0.05211600  0.61176900  1
  B  B22  1  0.16350100  0.53966000  0.17755200  1
  B  B23  1  0.66350100  0.46034000  0.32244800  1
  O  O24  1  0.78701900  0.61762600  0.81415100  1
  O  O25  1  0.29433800  0.58704200  0.78867500  1
  O  O26  1  0.44052900  0.65820500  0.55255000  1
  O  O27  1  0.94052900  0.34179500  0.94745000  1
  O  O28  1  0.79433800  0.41295800  0.71132500  1
  O  O29  1  0.70840600  0.99038600  0.48193900  1
  O  O30  1  0.43240900  0.20450800  0.06086200  1
  O  O31  1  0.28701900  0.38237400  0.68584900  1
  O  O32  1  0.83027100  0.05864500  0.23944400  1
  O  O33  1  0.33027100  0.94135500  0.26055600  1
  O  O34  1  0.93240900  0.79549200  0.43913800  1
  O  O35  1  0.20840600  0.00961400  0.01806100  1
  O  O36  1  0.79159400  0.99038600  0.98193900  1
  O  O37  1  0.06759100  0.20450800  0.56086200  1
  O  O38  1  0.66972900  0.05864500  0.73944400  1
  O  O39  1  0.16972900  0.94135500  0.76055600  1
  O  O40  1  0.71298100  0.61762600  0.31415100  1
  O  O41  1  0.56759100  0.79549200  0.93913800  1
  O  O42  1  0.29159400  0.00961400  0.51806100  1
  O  O43  1  0.20566200  0.58704200  0.28867500  1
  O  O44  1  0.05947100  0.65820500  0.05255000  1
  O  O45  1  0.55947100  0.34179500  0.44745000  1
  O  O46  1  0.70566200  0.41295800  0.21132500  1
  O  O47  1  0.21298100  0.38237400  0.18584900  1
