# generated using pymatgen
data_Li4Ti2V3Co3O16
_symmetry_space_group_name_H-M   'P 1'
_cell_length_a   5.83435301
_cell_length_b   5.82939078
_cell_length_c   9.48247126
_cell_angle_alpha   89.91678803
_cell_angle_beta   89.86532305
_cell_angle_gamma   120.03207653
_symmetry_Int_Tables_number   1
_chemical_formula_structural   Li4Ti2V3Co3O16
_chemical_formula_sum   'Li4 Ti2 V3 Co3 O16'
_cell_volume   279.20575903
_cell_formula_units_Z   1
loop_
 _symmetry_equiv_pos_site_id
 _symmetry_equiv_pos_as_xyz
  1  'x, y, z'
loop_
 _atom_site_type_symbol
 _atom_site_label
 _atom_site_symmetry_multiplicity
 _atom_site_fract_x
 _atom_site_fract_y
 _atom_site_fract_z
 _atom_site_occupancy
  Li  Li0  1  0.32824000  0.66195800  0.90415300  1
  Li  Li1  1  0.00991400  0.00605800  0.99533000  1
  Li  Li2  1  0.00470500  0.00351700  0.49313300  1
  Li  Li3  1  0.67214500  0.33653800  0.38913600  1
  Ti  Ti4  1  0.30729500  0.65314100  0.49431900  1
  Ti  Ti5  1  0.67090100  0.33720800  0.00404900  1
  V  V6  1  0.65710300  0.82941300  0.22403500  1
  V  V7  1  0.81371300  0.65037000  0.72076900  1
  V  V8  1  0.80555200  0.15821900  0.71853900  1
  Co  Co9  1  0.17552600  0.83151100  0.21282100  1
  Co  Co10  1  0.17523800  0.34422800  0.21269800  1
  Co  Co11  1  0.34117300  0.16884800  0.70933200  1
  O  O12  1  0.15119200  0.81824100  0.59144300  1
  O  O13  1  0.04628500  0.52297400  0.33102400  1
  O  O14  1  0.33646700  0.66881500  0.10942900  1
  O  O15  1  0.00757100  0.00374300  0.30309400  1
  O  O16  1  0.98828800  0.99446200  0.80492900  1
  O  O17  1  0.14753300  0.33424200  0.59179200  1
  O  O18  1  0.48075700  0.96286500  0.33569500  1
  O  O19  1  0.48059500  0.51852500  0.33590800  1
  O  O20  1  0.33951200  0.16984300  0.09832800  1
  O  O21  1  0.65823900  0.82872900  0.59597900  1
  O  O22  1  0.53541400  0.49523700  0.84844100  1
  O  O23  1  0.53593300  0.03413800  0.84725400  1
  O  O24  1  0.68598600  0.34612500  0.59758300  1
  O  O25  1  0.83956000  0.66953200  0.10033400  1
  O  O26  1  0.96566000  0.48250200  0.83817100  1
  O  O27  1  0.83950300  0.16931600  0.10012500  1
