# generated using pymatgen
data_LiV2P2HO9
_symmetry_space_group_name_H-M   'P 1'
_cell_length_a   6.77962100
_cell_length_b   6.47820400
_cell_length_c   8.75582562
_cell_angle_alpha   71.42753299
_cell_angle_beta   90.00000000
_cell_angle_gamma   90.00000000
_symmetry_Int_Tables_number   1
_chemical_formula_structural   LiV2P2HO9
_chemical_formula_sum   'Li2 V4 P4 H2 O18'
_cell_volume   364.52687057
_cell_formula_units_Z   2
loop_
 _symmetry_equiv_pos_site_id
 _symmetry_equiv_pos_as_xyz
  1  'x, y, z'
loop_
 _atom_site_type_symbol
 _atom_site_label
 _atom_site_symmetry_multiplicity
 _atom_site_fract_x
 _atom_site_fract_y
 _atom_site_fract_z
 _atom_site_occupancy
  Li  Li0  1  0.25000000  0.09799200  0.16823700  1
  Li  Li1  1  0.75000000  0.90200800  0.83176300  1
  V  V2  1  0.25000000  0.47748800  0.70765300  1
  V  V3  1  0.75000000  0.52251200  0.29234700  1
  V  V4  1  0.50000000  0.50000000  0.00000000  1
  V  V5  1  0.00000000  0.50000000  0.00000000  1
  P  P6  1  0.25000000  0.92143300  0.80148400  1
  P  P7  1  0.75000000  0.58485700  0.65866200  1
  P  P8  1  0.25000000  0.41514300  0.34133800  1
  P  P9  1  0.75000000  0.07856700  0.19851600  1
  H  H10  1  0.75000000  0.03937400  0.46340600  1
  H  H11  1  0.25000000  0.96062600  0.53659400  1
  O  O12  1  0.43928100  0.83125500  0.89550100  1
  O  O13  1  0.06071900  0.83125500  0.89550100  1
  O  O14  1  0.75000000  0.83323000  0.61814800  1
  O  O15  1  0.25000000  0.83471300  0.64553200  1
  O  O16  1  0.75000000  0.83359900  0.26270500  1
  O  O17  1  0.25000000  0.41136400  0.95555700  1
  O  O18  1  0.56045100  0.48862000  0.76390000  1
  O  O19  1  0.93954900  0.48862000  0.76390000  1
  O  O20  1  0.25000000  0.51715100  0.47739500  1
  O  O21  1  0.75000000  0.48284900  0.52260500  1
  O  O22  1  0.43954900  0.51138000  0.23610000  1
  O  O23  1  0.06045100  0.51138000  0.23610000  1
  O  O24  1  0.75000000  0.58863600  0.04444300  1
  O  O25  1  0.25000000  0.16640100  0.73729500  1
  O  O26  1  0.75000000  0.16528700  0.35446800  1
  O  O27  1  0.25000000  0.16677000  0.38185200  1
  O  O28  1  0.93928100  0.16874500  0.10449900  1
  O  O29  1  0.56071900  0.16874500  0.10449900  1
