# generated using pymatgen
data_Li2Mn5(FeO6)2
_symmetry_space_group_name_H-M   'P 1'
_cell_length_a   5.97932597
_cell_length_b   5.97932597
_cell_length_c   13.69491075
_cell_angle_alpha   77.54698975
_cell_angle_beta   77.54698975
_cell_angle_gamma   89.94781341
_symmetry_Int_Tables_number   1
_chemical_formula_structural   Li2Mn5(FeO6)2
_chemical_formula_sum   'Li4 Mn10 Fe4 O24'
_cell_volume   466.32353510
_cell_formula_units_Z   2
loop_
 _symmetry_equiv_pos_site_id
 _symmetry_equiv_pos_as_xyz
  1  'x, y, z'
loop_
 _atom_site_type_symbol
 _atom_site_label
 _atom_site_symmetry_multiplicity
 _atom_site_fract_x
 _atom_site_fract_y
 _atom_site_fract_z
 _atom_site_occupancy
  Li  Li0  1  0.03683200  0.29336400  0.91476900  1
  Li  Li1  1  0.62861300  0.36236100  0.75407800  1
  Li  Li2  1  0.29336400  0.03683200  0.41476900  1
  Li  Li3  1  0.36236100  0.62861300  0.25407800  1
  Mn  Mn4  1  0.49282200  0.49965200  0.00367000  1
  Mn  Mn5  1  0.33486700  0.83437800  0.83235800  1
  Mn  Mn6  1  0.83326700  0.83444200  0.83365300  1
  Mn  Mn7  1  0.16740600  0.16893100  0.66155600  1
  Mn  Mn8  1  0.17069600  0.66199400  0.66398900  1
  Mn  Mn9  1  0.49965200  0.49282200  0.50367000  1
  Mn  Mn10  1  0.83444200  0.83326700  0.33365300  1
  Mn  Mn11  1  0.83437800  0.33486700  0.33235800  1
  Mn  Mn12  1  0.66199400  0.17069600  0.16398900  1
  Mn  Mn13  1  0.16893100  0.16740600  0.16155600  1
  Fe  Fe14  1  0.49902000  0.00733800  0.00128700  1
  Fe  Fe15  1  0.70647700  0.96647300  0.58357400  1
  Fe  Fe16  1  0.00733800  0.49902000  0.50128700  1
  Fe  Fe17  1  0.96647300  0.70647700  0.08357400  1
  O  O18  1  0.74729300  0.77019000  0.00360200  1
  O  O19  1  0.27147300  0.74339800  0.00126600  1
  O  O20  1  0.57550300  0.04701800  0.84648600  1
  O  O21  1  0.57812000  0.60776000  0.84769400  1
  O  O22  1  0.09520600  0.06386000  0.81418600  1
  O  O23  1  0.09196200  0.62288900  0.81665300  1
  O  O24  1  0.39008500  0.91722400  0.66130500  1
  O  O25  1  0.92431700  0.94086800  0.66620800  1
  O  O26  1  0.40664700  0.38637800  0.65529300  1
  O  O27  1  0.95685600  0.41379800  0.66175400  1
  O  O28  1  0.22467900  0.24640500  0.51382300  1
  O  O29  1  0.25780500  0.71025100  0.51221200  1
  O  O30  1  0.77019000  0.74729300  0.50360200  1
  O  O31  1  0.74339800  0.27147300  0.50126600  1
  O  O32  1  0.04701800  0.57550300  0.34648600  1
  O  O33  1  0.60776000  0.57812000  0.34769400  1
  O  O34  1  0.62288900  0.09196200  0.31665300  1
  O  O35  1  0.06386000  0.09520600  0.31418600  1
  O  O36  1  0.91722400  0.39008500  0.16130500  1
  O  O37  1  0.94086800  0.92431700  0.16620800  1
  O  O38  1  0.38637800  0.40664700  0.15529300  1
  O  O39  1  0.41379800  0.95685600  0.16175400  1
  O  O40  1  0.71025100  0.25780500  0.01221200  1
  O  O41  1  0.24640500  0.22467900  0.01382300  1
