# generated using pymatgen
data_Li2VCrP2(O4F)2
_symmetry_space_group_name_H-M   'P 1'
_cell_length_a   6.96240900
_cell_length_b   7.34337982
_cell_length_c   7.98553713
_cell_angle_alpha   90.67940018
_cell_angle_beta   91.61927748
_cell_angle_gamma   117.58633000
_symmetry_Int_Tables_number   1
_chemical_formula_structural   Li2VCrP2(O4F)2
_chemical_formula_sum   'Li4 V2 Cr2 P4 O16 F4'
_cell_volume   361.57771585
_cell_formula_units_Z   2
loop_
 _symmetry_equiv_pos_site_id
 _symmetry_equiv_pos_as_xyz
  1  'x, y, z'
loop_
 _atom_site_type_symbol
 _atom_site_label
 _atom_site_symmetry_multiplicity
 _atom_site_fract_x
 _atom_site_fract_y
 _atom_site_fract_z
 _atom_site_occupancy
  Li  Li0  1  0.44162500  0.18843100  0.82811400  1
  Li  Li1  1  0.94307900  0.18840200  0.32705800  1
  Li  Li2  1  0.05692100  0.81159800  0.67294200  1
  Li  Li3  1  0.55837500  0.81156900  0.17188600  1
  V  V4  1  0.00000000  0.50000000  0.00000000  1
  V  V5  1  0.50000000  0.00000000  0.50000000  1
  Cr  Cr6  1  0.00000000  0.00000000  0.00000000  1
  Cr  Cr7  1  0.50000000  0.50000000  0.50000000  1
  P  P8  1  0.48347000  0.76215700  0.84100800  1
  P  P9  1  0.98023500  0.76134400  0.34062200  1
  P  P10  1  0.01976500  0.23865600  0.65937800  1
  P  P11  1  0.51653000  0.23784300  0.15899200  1
  O  O12  1  0.98095000  0.39196900  0.76678300  1
  O  O13  1  0.80872800  0.08584700  0.56095500  1
  O  O14  1  0.69232800  0.91656400  0.93987700  1
  O  O15  1  0.32489000  0.65532300  0.98318800  1
  O  O16  1  0.51976900  0.60861900  0.73267900  1
  O  O17  1  0.82323200  0.65731900  0.48373300  1
  O  O18  1  0.10442100  0.11306200  0.77028500  1
  O  O19  1  0.60302400  0.11182000  0.26899400  1
  O  O20  1  0.39697600  0.88818000  0.73100600  1
  O  O21  1  0.89557900  0.88693800  0.22971500  1
  O  O22  1  0.17676800  0.34268100  0.51626700  1
  O  O23  1  0.48023100  0.39138100  0.26732100  1
  O  O24  1  0.67511000  0.34467700  0.01681200  1
  O  O25  1  0.30767200  0.08343600  0.06012300  1
  O  O26  1  0.19127200  0.91415300  0.43904500  1
  O  O27  1  0.01905000  0.60803100  0.23321700  1
  F  F28  1  0.97141400  0.74129200  0.89995400  1
  F  F29  1  0.52855800  0.26723200  0.59991800  1
  F  F30  1  0.47144200  0.73276800  0.40008200  1
  F  F31  1  0.02858600  0.25870800  0.10004600  1
