# generated using pymatgen
data_Li2Co4OF8
_symmetry_space_group_name_H-M   'P 1'
_cell_length_a   5.30641000
_cell_length_b   9.10239162
_cell_length_c   14.37946236
_cell_angle_alpha   90.05738579
_cell_angle_beta   90.13500088
_cell_angle_gamma   90.38324238
_symmetry_Int_Tables_number   1
_chemical_formula_structural   Li2Co4OF8
_chemical_formula_sum   'Li8 Co16 O4 F32'
_cell_volume   694.52490223
_cell_formula_units_Z   4
loop_
 _symmetry_equiv_pos_site_id
 _symmetry_equiv_pos_as_xyz
  1  'x, y, z'
loop_
 _atom_site_type_symbol
 _atom_site_label
 _atom_site_symmetry_multiplicity
 _atom_site_fract_x
 _atom_site_fract_y
 _atom_site_fract_z
 _atom_site_occupancy
  Li  Li0  1  0.99342000  0.01744900  0.15968800  1
  Li  Li1  1  0.01081600  0.00234500  0.36182600  1
  Li  Li2  1  0.48698800  0.47325700  0.65733500  1
  Li  Li3  1  0.48629900  0.53838800  0.83550300  1
  Li  Li4  1  0.47681700  0.51594300  0.35816100  1
  Li  Li5  1  0.51500900  0.47749000  0.15711700  1
  Li  Li6  1  0.99761600  0.02665500  0.64822100  1
  Li  Li7  1  0.99331300  0.97112200  0.84478100  1
  Co  Co8  1  0.02280000  0.34226600  0.31952600  1
  Co  Co9  1  0.01963900  0.66709200  0.18252900  1
  Co  Co10  1  0.99485100  0.64628200  0.47107000  1
  Co  Co11  1  0.99020200  0.33231000  0.01046000  1
  Co  Co12  1  0.49072700  0.16950200  0.50462000  1
  Co  Co13  1  0.49320800  0.83061900  0.99598500  1
  Co  Co14  1  0.49641900  0.83698300  0.68832700  1
  Co  Co15  1  0.49082600  0.16419900  0.81425500  1
  Co  Co16  1  0.48249200  0.83334000  0.18615900  1
  Co  Co17  1  0.48563300  0.16671100  0.31606500  1
  Co  Co18  1  0.48347100  0.16362500  0.01706500  1
  Co  Co19  1  0.49122000  0.83484000  0.49063300  1
  Co  Co20  1  0.02377700  0.67523800  0.99341300  1
  Co  Co21  1  0.03158200  0.33058800  0.50434300  1
  Co  Co22  1  0.00967300  0.64726000  0.68529300  1
  Co  Co23  1  0.01050100  0.36384100  0.80466900  1
  O  O24  1  0.14984600  0.48189700  0.41668500  1
  O  O25  1  0.20498400  0.17702500  0.41057900  1
  O  O26  1  0.20376600  0.80618700  0.09040400  1
  O  O27  1  0.20819800  0.50656900  0.74741500  1
  F  F28  1  0.13697100  0.15536500  0.76308500  1
  F  F29  1  0.14291100  0.84909300  0.73875500  1
  F  F30  1  0.15414500  0.83118100  0.42433000  1
  F  F31  1  0.14352300  0.16323600  0.07630100  1
  F  F32  1  0.16810500  0.50038600  0.07837200  1
  F  F33  1  0.30207300  0.99984400  0.24829600  1
  F  F34  1  0.31166300  0.31251200  0.91646500  1
  F  F35  1  0.32710700  0.68512900  0.58746000  1
  F  F36  1  0.35424000  0.99015400  0.58640500  1
  F  F37  1  0.35236100  0.00930100  0.91596100  1
  F  F38  1  0.34305900  0.32084900  0.58616100  1
  F  F39  1  0.34463800  0.67275600  0.91796300  1
  F  F40  1  0.35541400  0.34247500  0.24628500  1
  F  F41  1  0.36119400  0.64471300  0.24761400  1
  F  F42  1  0.66240500  0.66250100  0.74582100  1
  F  F43  1  0.65102100  0.34371200  0.75927500  1
  F  F44  1  0.64941700  0.67560800  0.41863200  1
  F  F45  1  0.65891500  0.33140600  0.07555900  1
  F  F46  1  0.64790100  0.00344300  0.41650700  1
  F  F47  1  0.64460800  0.99531700  0.08621700  1
  F  F48  1  0.68021000  0.33259500  0.40769900  1
  F  F49  1  0.69720600  0.66859800  0.08666500  1
  F  F50  1  0.68591100  0.00208100  0.75204900  1
  F  F51  1  0.83496000  0.49735000  0.24027900  1
  F  F52  1  0.79219000  0.17679700  0.91570000  1
  F  F53  1  0.79862100  0.82609700  0.59061600  1
  F  F54  1  0.86660100  0.49090200  0.91839000  1
  F  F55  1  0.84985700  0.51443800  0.58243000  1
  F  F56  1  0.83285600  0.17033200  0.57075000  1
  F  F57  1  0.82968100  0.83261400  0.92776900  1
  F  F58  1  0.84082300  0.15620400  0.26316400  1
  F  F59  1  0.83532700  0.84398700  0.23689200  1
