# generated using pymatgen
data_Li5Fe8(BO3)8
_symmetry_space_group_name_H-M   'P 1'
_cell_length_a   5.25306400
_cell_length_b   9.05778016
_cell_length_c   11.39337440
_cell_angle_alpha   113.07092928
_cell_angle_beta   102.78057949
_cell_angle_gamma   89.70121585
_symmetry_Int_Tables_number   1
_chemical_formula_structural   Li5Fe8(BO3)8
_chemical_formula_sum   'Li5 Fe8 B8 O24'
_cell_volume   484.38522539
_cell_formula_units_Z   1
loop_
 _symmetry_equiv_pos_site_id
 _symmetry_equiv_pos_as_xyz
  1  'x, y, z'
loop_
 _atom_site_type_symbol
 _atom_site_label
 _atom_site_symmetry_multiplicity
 _atom_site_fract_x
 _atom_site_fract_y
 _atom_site_fract_z
 _atom_site_occupancy
  Li  Li0  1  0.03023600  0.04087100  0.41892400  1
  Li  Li1  1  0.29154000  0.27428000  0.90045400  1
  Li  Li2  1  0.49247100  0.51106800  0.66660300  1
  Li  Li3  1  0.26197000  0.24133300  0.15797900  1
  Li  Li4  1  0.76761100  0.74528200  0.15968200  1
  Fe  Fe5  1  0.01374700  0.36043500  0.38096100  1
  Fe  Fe6  1  0.26343300  0.92805200  0.87682900  1
  Fe  Fe7  1  0.49405300  0.15640300  0.63656900  1
  Fe  Fe8  1  0.24789600  0.56266100  0.12811000  1
  Fe  Fe9  1  0.77398000  0.44953300  0.88292400  1
  Fe  Fe10  1  0.52044100  0.84768300  0.38663600  1
  Fe  Fe11  1  0.96690700  0.66158000  0.63222600  1
  Fe  Fe12  1  0.74779400  0.05542600  0.12125600  1
  B  B13  1  0.02228000  0.68868500  0.37501800  1
  B  B14  1  0.26688900  0.60045600  0.87530300  1
  B  B15  1  0.47016200  0.81049700  0.62999400  1
  B  B16  1  0.24317800  0.89645100  0.13147000  1
  B  B17  1  0.51428500  0.17992800  0.37422700  1
  B  B18  1  0.76635700  0.10719100  0.88073900  1
  B  B19  1  0.98191300  0.31523200  0.62022900  1
  B  B20  1  0.73294200  0.39798600  0.12990300  1
  O  O21  1  0.03215400  0.10031500  0.88728900  1
  O  O22  1  0.11629500  0.71687000  0.84888300  1
  O  O23  1  0.16460800  0.49446900  0.91916100  1
  O  O24  1  0.10975100  0.18248000  0.61473700  1
  O  O25  1  0.08851800  0.42717800  0.57965400  1
  O  O26  1  0.25270600  0.84599000  0.68497600  1
  O  O27  1  0.25622200  0.67455200  0.33572700  1
  O  O28  1  0.51095600  0.58884200  0.85414300  1
  O  O29  1  0.62602400  0.21700500  0.84202400  1
  O  O30  1  0.42649000  0.06645600  0.41446800  1
  O  O31  1  0.34863400  0.28873600  0.35315000  1
  O  O32  1  0.63461400  0.00908400  0.92095700  1
  O  O33  1  0.34290500  0.00131500  0.08529600  1
  O  O34  1  0.59566700  0.67861300  0.62511100  1
  O  O35  1  0.54890600  0.91426300  0.57739300  1
  O  O36  1  0.41197000  0.79523400  0.17179900  1
  O  O37  1  0.46499300  0.37493900  0.10983800  1
  O  O38  1  0.74868500  0.34457900  0.66002500  1
  O  O39  1  0.76563000  0.17563600  0.35083800  1
  O  O40  1  0.94068300  0.58128900  0.41937500  1
  O  O41  1  0.87282100  0.81282600  0.36610600  1
  O  O42  1  0.84275000  0.51355500  0.09952800  1
  O  O43  1  0.89504700  0.29906900  0.17810400  1
  O  O44  1  0.98938000  0.89585900  0.14133900  1
