# generated using pymatgen
data_Li2V3P5O18
_symmetry_space_group_name_H-M   'P 1'
_cell_length_a   13.21091769
_cell_length_b   13.21091769
_cell_length_c   12.68615708
_cell_angle_alpha   87.93514066
_cell_angle_beta   87.93514066
_cell_angle_gamma   21.23966649
_symmetry_Int_Tables_number   1
_chemical_formula_structural   Li2V3P5O18
_chemical_formula_sum   'Li4 V6 P10 O36'
_cell_volume   801.56057248
_cell_formula_units_Z   2
loop_
 _symmetry_equiv_pos_site_id
 _symmetry_equiv_pos_as_xyz
  1  'x, y, z'
loop_
 _atom_site_type_symbol
 _atom_site_label
 _atom_site_symmetry_multiplicity
 _atom_site_fract_x
 _atom_site_fract_y
 _atom_site_fract_z
 _atom_site_occupancy
  Li  Li0  1  0.47707800  0.19081100  0.36711900  1
  Li  Li1  1  0.19081100  0.47707800  0.86711900  1
  Li  Li2  1  0.80918900  0.52292200  0.13288100  1
  Li  Li3  1  0.52292200  0.80918900  0.63288100  1
  V  V4  1  0.84531900  0.76072100  0.12128800  1
  V  V5  1  0.76072100  0.84531900  0.62128800  1
  V  V6  1  0.23927900  0.15468100  0.37871200  1
  V  V7  1  0.15468100  0.23927900  0.87871200  1
  V  V8  1  0.50000000  0.50000000  0.00000000  1
  V  V9  1  0.50000000  0.50000000  0.50000000  1
  P  P10  1  0.93650100  0.92716800  0.09532900  1
  P  P11  1  0.92716800  0.93650100  0.59532900  1
  P  P12  1  0.84183500  0.70382900  0.37282300  1
  P  P13  1  0.70382900  0.84183500  0.87282300  1
  P  P14  1  0.29617100  0.15816500  0.12717700  1
  P  P15  1  0.15816500  0.29617100  0.62717700  1
  P  P16  1  0.07283200  0.06349900  0.40467100  1
  P  P17  1  0.06349900  0.07283200  0.90467100  1
  P  P18  1  0.26934600  0.73065400  0.25000000  1
  P  P19  1  0.73065400  0.26934600  0.75000000  1
  O  O20  1  0.40129100  0.55244700  0.34384600  1
  O  O21  1  0.78326400  0.12869400  0.50674500  1
  O  O22  1  0.55244700  0.40129100  0.84384600  1
  O  O23  1  0.01703900  0.89770200  0.20853300  1
  O  O24  1  0.12869400  0.78326400  0.00674500  1
  O  O25  1  0.89770200  0.01703900  0.70853300  1
  O  O26  1  0.63935700  0.23555700  0.07024000  1
  O  O27  1  0.23555700  0.63935700  0.57024000  1
  O  O28  1  0.97164800  0.77995500  0.11694600  1
  O  O29  1  0.77995500  0.97164800  0.61694600  1
  O  O30  1  0.75147300  0.85650300  0.46352400  1
  O  O31  1  0.76494300  0.84399200  0.27469400  1
  O  O32  1  0.85650300  0.75147300  0.96352400  1
  O  O33  1  0.84399200  0.76494300  0.77469400  1
  O  O34  1  0.24716500  0.31944400  0.12566200  1
  O  O35  1  0.16118500  0.38277700  0.37723800  1
  O  O36  1  0.31944400  0.24716500  0.62566200  1
  O  O37  1  0.38277700  0.16118500  0.87723800  1
  O  O38  1  0.61722300  0.83881500  0.12276200  1
  O  O39  1  0.68055600  0.75283500  0.37433800  1
  O  O40  1  0.83881500  0.61722300  0.62276200  1
  O  O41  1  0.75283500  0.68055600  0.87433800  1
  O  O42  1  0.15600800  0.23505700  0.22530600  1
  O  O43  1  0.14349700  0.24852700  0.03647600  1
  O  O44  1  0.23505700  0.15600800  0.72530600  1
  O  O45  1  0.24852700  0.14349700  0.53647600  1
  O  O46  1  0.22004500  0.02835200  0.38305400  1
  O  O47  1  0.02835200  0.22004500  0.88305400  1
  O  O48  1  0.76444300  0.36064300  0.42976000  1
  O  O49  1  0.36064300  0.76444300  0.92976000  1
  O  O50  1  0.10229800  0.98296100  0.29146700  1
  O  O51  1  0.87130600  0.21673600  0.99325500  1
  O  O52  1  0.98296100  0.10229800  0.79146700  1
  O  O53  1  0.44755300  0.59870900  0.15615400  1
  O  O54  1  0.21673600  0.87130600  0.49325500  1
  O  O55  1  0.59870900  0.44755300  0.65615400  1
