# generated using pymatgen
data_LiVF3
_symmetry_space_group_name_H-M   'P 1'
_cell_length_a   5.72425700
_cell_length_b   9.39906600
_cell_length_c   19.27674600
_cell_angle_alpha   90.00000000
_cell_angle_beta   90.00000000
_cell_angle_gamma   90.00000000
_symmetry_Int_Tables_number   1
_chemical_formula_structural   LiVF3
_chemical_formula_sum   'Li16 V16 F48'
_cell_volume   1037.14039107
_cell_formula_units_Z   16
loop_
 _symmetry_equiv_pos_site_id
 _symmetry_equiv_pos_as_xyz
  1  'x, y, z'
loop_
 _atom_site_type_symbol
 _atom_site_label
 _atom_site_symmetry_multiplicity
 _atom_site_fract_x
 _atom_site_fract_y
 _atom_site_fract_z
 _atom_site_occupancy
  Li  Li0  1  0.66347300  0.32948200  0.03803400  1
  Li  Li1  1  0.16347300  0.17051800  0.03803400  1
  Li  Li2  1  0.44588900  0.32915200  0.22347700  1
  Li  Li3  1  0.94588900  0.17084800  0.22347700  1
  Li  Li4  1  0.44588900  0.82915200  0.27652300  1
  Li  Li5  1  0.94588900  0.67084800  0.27652300  1
  Li  Li6  1  0.66347300  0.82948200  0.46196600  1
  Li  Li7  1  0.16347300  0.67051800  0.46196600  1
  Li  Li8  1  0.83652700  0.32948200  0.53803400  1
  Li  Li9  1  0.33652700  0.17051800  0.53803400  1
  Li  Li10  1  0.05411100  0.32915200  0.72347700  1
  Li  Li11  1  0.55411100  0.17084800  0.72347700  1
  Li  Li12  1  0.05411100  0.82915200  0.77652300  1
  Li  Li13  1  0.55411100  0.67084800  0.77652300  1
  Li  Li14  1  0.83652700  0.82948200  0.96196600  1
  Li  Li15  1  0.33652700  0.67051800  0.96196600  1
  V  V16  1  0.66788900  0.02084900  0.12105500  1
  V  V17  1  0.16788900  0.47915100  0.12105500  1
  V  V18  1  0.65946600  0.65730900  0.12042700  1
  V  V19  1  0.15946600  0.84269100  0.12042700  1
  V  V20  1  0.15946600  0.34269100  0.37957300  1
  V  V21  1  0.65946600  0.15730900  0.37957300  1
  V  V22  1  0.16788900  0.97915100  0.37894500  1
  V  V23  1  0.66788900  0.52084900  0.37894500  1
  V  V24  1  0.33211100  0.47915100  0.62105500  1
  V  V25  1  0.83211100  0.02084900  0.62105500  1
  V  V26  1  0.34053400  0.84269100  0.62042700  1
  V  V27  1  0.84053400  0.65730900  0.62042700  1
  V  V28  1  0.34053400  0.34269100  0.87957300  1
  V  V29  1  0.84053400  0.15730900  0.87957300  1
  V  V30  1  0.33211100  0.97915100  0.87894500  1
  V  V31  1  0.83211100  0.52084900  0.87894500  1
  F  F32  1  0.83862100  0.16344700  0.05551700  1
  F  F33  1  0.33862100  0.33655300  0.05551700  1
  F  F34  1  0.82432100  0.83334500  0.06646400  1
  F  F35  1  0.32432100  0.66665500  0.06646400  1
  F  F36  1  0.83445900  0.48841000  0.07215800  1
  F  F37  1  0.33445900  0.01159000  0.07215800  1
  F  F38  1  0.49134500  0.83689400  0.17411400  1
  F  F39  1  0.99134500  0.66310600  0.17411400  1
  F  F40  1  0.47989600  0.50880300  0.17822300  1
  F  F41  1  0.97989600  0.99119700  0.17822300  1
  F  F42  1  0.62893500  0.18259200  0.19331300  1
  F  F43  1  0.12893500  0.31740800  0.19331300  1
  F  F44  1  0.12893500  0.81740800  0.30668700  1
  F  F45  1  0.62893500  0.68259200  0.30668700  1
  F  F46  1  0.47989600  0.00880300  0.32177700  1
  F  F47  1  0.97989600  0.49119700  0.32177700  1
  F  F48  1  0.49134500  0.33689400  0.32588600  1
  F  F49  1  0.99134500  0.16310600  0.32588600  1
  F  F50  1  0.83445900  0.98841000  0.42784200  1
  F  F51  1  0.33445900  0.51159000  0.42784200  1
  F  F52  1  0.82432100  0.33334500  0.43353600  1
  F  F53  1  0.32432100  0.16665500  0.43353600  1
  F  F54  1  0.33862100  0.83655300  0.44448300  1
  F  F55  1  0.83862100  0.66344700  0.44448300  1
  F  F56  1  0.16137900  0.33655300  0.55551700  1
  F  F57  1  0.66137900  0.16344700  0.55551700  1
  F  F58  1  0.67567900  0.83334500  0.56646400  1
  F  F59  1  0.17567900  0.66665500  0.56646400  1
  F  F60  1  0.66554100  0.48841000  0.57215800  1
  F  F61  1  0.16554100  0.01159000  0.57215800  1
  F  F62  1  0.00865500  0.83689400  0.67411400  1
  F  F63  1  0.50865500  0.66310600  0.67411400  1
  F  F64  1  0.02010400  0.50880300  0.67822300  1
  F  F65  1  0.52010400  0.99119700  0.67822300  1
  F  F66  1  0.37106500  0.31740800  0.69331300  1
  F  F67  1  0.87106500  0.18259200  0.69331300  1
  F  F68  1  0.37106500  0.81740800  0.80668700  1
  F  F69  1  0.87106500  0.68259200  0.80668700  1
  F  F70  1  0.02010400  0.00880300  0.82177700  1
  F  F71  1  0.52010400  0.49119700  0.82177700  1
  F  F72  1  0.00865500  0.33689400  0.82588600  1
  F  F73  1  0.50865500  0.16310600  0.82588600  1
  F  F74  1  0.66554100  0.98841000  0.92784200  1
  F  F75  1  0.16554100  0.51159000  0.92784200  1
  F  F76  1  0.67567900  0.33334500  0.93353600  1
  F  F77  1  0.17567900  0.16665500  0.93353600  1
  F  F78  1  0.16137900  0.83655300  0.94448300  1
  F  F79  1  0.66137900  0.66344700  0.94448300  1
