# generated using pymatgen
data_LiFe3P3O11
_symmetry_space_group_name_H-M   'P 1'
_cell_length_a   9.07751400
_cell_length_b   8.04087700
_cell_length_c   11.47227928
_cell_angle_alpha   82.74458693
_cell_angle_beta   90.00000000
_cell_angle_gamma   90.00000000
_symmetry_Int_Tables_number   1
_chemical_formula_structural   LiFe3P3O11
_chemical_formula_sum   'Li4 Fe12 P12 O44'
_cell_volume   830.67028417
_cell_formula_units_Z   4
loop_
 _symmetry_equiv_pos_site_id
 _symmetry_equiv_pos_as_xyz
  1  'x, y, z'
loop_
 _atom_site_type_symbol
 _atom_site_label
 _atom_site_symmetry_multiplicity
 _atom_site_fract_x
 _atom_site_fract_y
 _atom_site_fract_z
 _atom_site_occupancy
  Li  Li0  1  0.73127300  0.87883000  0.46830400  1
  Li  Li1  1  0.76872700  0.87883000  0.96830400  1
  Li  Li2  1  0.23127300  0.12117000  0.03169600  1
  Li  Li3  1  0.26872700  0.12117000  0.53169600  1
  Fe  Fe4  1  0.36701400  0.93219100  0.76033900  1
  Fe  Fe5  1  0.13298600  0.93219100  0.26033900  1
  Fe  Fe6  1  0.35723600  0.54672700  0.92834000  1
  Fe  Fe7  1  0.37726900  0.57691000  0.64991900  1
  Fe  Fe8  1  0.14276400  0.54672700  0.42834000  1
  Fe  Fe9  1  0.87726900  0.42309000  0.85008100  1
  Fe  Fe10  1  0.12273100  0.57691000  0.14991900  1
  Fe  Fe11  1  0.85723600  0.45327300  0.57166000  1
  Fe  Fe12  1  0.62273100  0.42309000  0.35008100  1
  Fe  Fe13  1  0.64276400  0.45327300  0.07166000  1
  Fe  Fe14  1  0.86701400  0.06780900  0.73966100  1
  Fe  Fe15  1  0.63298600  0.06780900  0.23966100  1
  P  P16  1  0.06919100  0.78828200  0.89626500  1
  P  P17  1  0.06267500  0.77839700  0.64495900  1
  P  P18  1  0.43080900  0.78828200  0.39626500  1
  P  P19  1  0.67072900  0.68002300  0.79761700  1
  P  P20  1  0.43732500  0.77839700  0.14495900  1
  P  P21  1  0.82927100  0.68002300  0.29761700  1
  P  P22  1  0.17072900  0.31997700  0.70238300  1
  P  P23  1  0.56267500  0.22160300  0.85504100  1
  P  P24  1  0.32927100  0.31997700  0.20238300  1
  P  P25  1  0.56919100  0.21171800  0.60373500  1
  P  P26  1  0.93732500  0.22160300  0.35504100  1
  P  P27  1  0.93080900  0.21171800  0.10373500  1
  O  O28  1  0.99170200  0.95829500  0.88198900  1
  O  O29  1  0.97676100  0.93976800  0.61946800  1
  O  O30  1  0.50829800  0.95829500  0.38198900  1
  O  O31  1  0.71639400  0.86376400  0.78182700  1
  O  O32  1  0.23965200  0.79263600  0.89228400  1
  O  O33  1  0.52323900  0.93976800  0.11946800  1
  O  O34  1  0.78360600  0.86376400  0.28182700  1
  O  O35  1  0.23248800  0.79756600  0.64437400  1
  O  O36  1  0.26034800  0.79263600  0.39228400  1
  O  O37  1  0.49633600  0.67403600  0.78760900  1
  O  O38  1  0.02045000  0.69507800  0.78204000  1
  O  O39  1  0.26751200  0.79756600  0.14437400  1
  O  O40  1  0.48550600  0.67682100  0.50459100  1
  O  O41  1  0.72739500  0.60238600  0.92233400  1
  O  O42  1  0.01662800  0.64804100  0.56562900  1
  O  O43  1  0.00366400  0.67403600  0.28760900  1
  O  O44  1  0.47955000  0.69507800  0.28204000  1
  O  O45  1  0.74247600  0.56668500  0.71192100  1
  O  O46  1  0.01449400  0.67682100  0.00459100  1
  O  O47  1  0.77260500  0.60238600  0.42233400  1
  O  O48  1  0.48337200  0.64804100  0.06562900  1
  O  O49  1  0.75752400  0.56668500  0.21192100  1
  O  O50  1  0.24247600  0.43331500  0.78807900  1
  O  O51  1  0.51662800  0.35195900  0.93437100  1
  O  O52  1  0.22739500  0.39761400  0.57766600  1
  O  O53  1  0.98550600  0.32317900  0.99540900  1
  O  O54  1  0.25752400  0.43331500  0.28807900  1
  O  O55  1  0.52045000  0.30492200  0.71796000  1
  O  O56  1  0.99633600  0.32596400  0.71239100  1
  O  O57  1  0.98337200  0.35195900  0.43437100  1
  O  O58  1  0.27260500  0.39761400  0.07766600  1
  O  O59  1  0.51449400  0.32317900  0.49540900  1
  O  O60  1  0.73248800  0.20243400  0.85562600  1
  O  O61  1  0.97955000  0.30492200  0.21796000  1
  O  O62  1  0.50366400  0.32596400  0.21239100  1
  O  O63  1  0.73965200  0.20736400  0.60771600  1
  O  O64  1  0.76751200  0.20243400  0.35562600  1
  O  O65  1  0.21639400  0.13623600  0.71817300  1
  O  O66  1  0.47676100  0.06023200  0.88053200  1
  O  O67  1  0.76034800  0.20736400  0.10771600  1
  O  O68  1  0.28360600  0.13623600  0.21817300  1
  O  O69  1  0.49170200  0.04170500  0.61801100  1
  O  O70  1  0.02323900  0.06023200  0.38053200  1
  O  O71  1  0.00829800  0.04170500  0.11801100  1
