# generated using pymatgen
data_Li3Fe(PO4)2
_symmetry_space_group_name_H-M   'P 1'
_cell_length_a   7.54257872
_cell_length_b   7.54387491
_cell_length_c   11.25557561
_cell_angle_alpha   74.90155500
_cell_angle_beta   74.90283031
_cell_angle_gamma   101.02505062
_symmetry_Int_Tables_number   1
_chemical_formula_structural   Li3Fe(PO4)2
_chemical_formula_sum   'Li12 Fe4 P8 O32'
_cell_volume   573.47318185
_cell_formula_units_Z   4
loop_
 _symmetry_equiv_pos_site_id
 _symmetry_equiv_pos_as_xyz
  1  'x, y, z'
loop_
 _atom_site_type_symbol
 _atom_site_label
 _atom_site_symmetry_multiplicity
 _atom_site_fract_x
 _atom_site_fract_y
 _atom_site_fract_z
 _atom_site_occupancy
  Li  Li0  1  0.35708600  0.60789400  0.93566800  1
  Li  Li1  1  0.85708700  0.10789500  0.93566900  1
  Li  Li2  1  0.14209200  0.89292700  0.06433300  1
  Li  Li3  1  0.64209200  0.39292700  0.06433200  1
  Li  Li4  1  0.23759000  0.48461800  0.76987400  1
  Li  Li5  1  0.73759000  0.98461900  0.76987300  1
  Li  Li6  1  0.26531900  0.01247600  0.23012700  1
  Li  Li7  1  0.76531800  0.51247600  0.23012700  1
  Li  Li8  1  0.24897800  0.74952700  0.50154300  1
  Li  Li9  1  0.74897800  0.24952700  0.50154400  1
  Li  Li10  1  0.50047200  0.50102700  0.49845000  1
  Li  Li11  1  0.00047200  0.00102600  0.49844800  1
  Fe  Fe12  1  0.77325600  0.52251800  0.72599800  1
  Fe  Fe13  1  0.72743600  0.97682300  0.27400500  1
  Fe  Fe14  1  0.27324000  0.02249500  0.72599100  1
  Fe  Fe15  1  0.22743300  0.47682500  0.27402200  1
  P  P16  1  0.97753100  0.72704700  0.90285200  1
  P  P17  1  0.47754400  0.22706500  0.90285600  1
  P  P18  1  0.52290800  0.77250800  0.09714900  1
  P  P19  1  0.02289500  0.27250100  0.09715100  1
  P  P20  1  0.11540600  0.36471700  0.58875400  1
  P  P21  1  0.61541100  0.86471800  0.58874800  1
  P  P22  1  0.38530000  0.13454900  0.41124200  1
  P  P23  1  0.88528300  0.63454400  0.41124900  1
  O  O24  1  0.05461100  0.30394400  0.95315700  1
  O  O25  1  0.55460900  0.80393900  0.95315700  1
  O  O26  1  0.44605600  0.19538800  0.04684800  1
  O  O27  1  0.94605200  0.69538900  0.04684600  1
  O  O28  1  0.82657500  0.57629700  0.88332800  1
  O  O29  1  0.32656800  0.07630800  0.88332400  1
  O  O30  1  0.67369200  0.92343700  0.11666900  1
  O  O31  1  0.17368800  0.42343900  0.11667700  1
  O  O32  1  0.45782100  0.70715500  0.58759300  1
  O  O33  1  0.95782800  0.20716600  0.58758900  1
  O  O34  1  0.04272900  0.79229300  0.41241100  1
  O  O35  1  0.54272500  0.29229200  0.41240900  1
  O  O36  1  0.25051400  0.99982700  0.55093200  1
  O  O37  1  0.75051000  0.49982000  0.55093000  1
  O  O38  1  0.25005700  0.49961800  0.44906600  1
  O  O39  1  0.75005800  0.99961200  0.44906600  1
  O  O40  1  0.97956100  0.93795700  0.82969800  1
  O  O41  1  0.47955800  0.43796200  0.82970300  1
  O  O42  1  0.18839600  0.72911700  0.82946100  1
  O  O43  1  0.68839400  0.22912100  0.82946900  1
  O  O44  1  0.31194800  0.77043900  0.17032600  1
  O  O45  1  0.81194700  0.27044700  0.17032300  1
  O  O46  1  0.52087600  0.56169400  0.17051400  1
  O  O47  1  0.02087900  0.06169600  0.17051500  1
  O  O48  1  0.04248200  0.50368800  0.66010400  1
  O  O49  1  0.54249500  0.00369400  0.66010300  1
  O  O50  1  0.25424400  0.29162500  0.66004700  1
  O  O51  1  0.75424800  0.79163100  0.66004000  1
  O  O52  1  0.24646900  0.20751200  0.33983900  1
  O  O53  1  0.74646500  0.70751500  0.33984300  1
  O  O54  1  0.45838400  0.99560300  0.34000500  1
  O  O55  1  0.95837900  0.49560300  0.34000800  1
