# generated using pymatgen
data_Li4Cr7(PO4)6
_symmetry_space_group_name_H-M   'P 1'
_cell_length_a   9.13495953
_cell_length_b   9.13495953
_cell_length_c   6.48547754
_cell_angle_alpha   81.11467668
_cell_angle_beta   81.11467668
_cell_angle_gamma   99.96602991
_symmetry_Int_Tables_number   1
_chemical_formula_structural   Li4Cr7(PO4)6
_chemical_formula_sum   'Li4 Cr7 P6 O24'
_cell_volume   517.42405182
_cell_formula_units_Z   1
loop_
 _symmetry_equiv_pos_site_id
 _symmetry_equiv_pos_as_xyz
  1  'x, y, z'
loop_
 _atom_site_type_symbol
 _atom_site_label
 _atom_site_symmetry_multiplicity
 _atom_site_fract_x
 _atom_site_fract_y
 _atom_site_fract_z
 _atom_site_occupancy
  Li  Li0  1  0.76754400  0.76754400  0.49509900  1
  Li  Li1  1  0.56081000  0.30892400  0.54824900  1
  Li  Li2  1  0.30892400  0.56081000  0.54824900  1
  Li  Li3  1  0.06398200  0.06398200  0.54683900  1
  Cr  Cr4  1  0.97924700  0.36181800  0.18182400  1
  Cr  Cr5  1  0.36181800  0.97924700  0.18182400  1
  Cr  Cr6  1  0.62674800  0.37833900  0.98983100  1
  Cr  Cr7  1  0.37833900  0.62674800  0.98983100  1
  Cr  Cr8  1  0.01189800  0.01189800  0.00656200  1
  Cr  Cr9  1  0.65404200  0.00995900  0.81925700  1
  Cr  Cr10  1  0.00995900  0.65404200  0.81925700  1
  P  P11  1  0.89877100  0.28250500  0.71652300  1
  P  P12  1  0.28250500  0.89877100  0.71652300  1
  P  P13  1  0.67082600  0.67082600  0.05992400  1
  P  P14  1  0.31635400  0.31635400  0.90357100  1
  P  P15  1  0.71262400  0.08594900  0.29960000  1
  P  P16  1  0.08594900  0.71262400  0.29960000  1
  O  O17  1  0.59532600  0.77487600  0.91010900  1
  O  O18  1  0.77487600  0.59532600  0.91010900  1
  O  O19  1  0.74686600  0.74686600  0.21441500  1
  O  O20  1  0.95702400  0.38207500  0.86933600  1
  O  O21  1  0.38207500  0.95702400  0.86933600  1
  O  O22  1  0.11185100  0.91275500  0.76779600  1
  O  O23  1  0.91275500  0.11185100  0.76779600  1
  O  O24  1  0.72002700  0.26923100  0.74893600  1
  O  O25  1  0.26923100  0.72002700  0.74893600  1
  O  O26  1  0.53379500  0.53379500  0.16195100  1
  O  O27  1  0.42021900  0.42021900  0.69865900  1
  O  O28  1  0.11818700  0.89028300  0.21431700  1
  O  O29  1  0.89028300  0.11818700  0.21431700  1
  O  O30  1  0.24208600  0.67555900  0.32156100  1
  O  O31  1  0.67555900  0.24208600  0.32156100  1
  O  O32  1  0.68525200  0.97025300  0.51057700  1
  O  O33  1  0.97025300  0.68525200  0.51057700  1
  O  O34  1  0.19860500  0.19860500  0.84835600  1
  O  O35  1  0.61836200  0.01938300  0.14157800  1
  O  O36  1  0.01938300  0.61836200  0.14157800  1
  O  O37  1  0.42073600  0.23827400  0.03776400  1
  O  O38  1  0.23827400  0.42073600  0.03776400  1
  O  O39  1  0.98658300  0.34704900  0.49221500  1
  O  O40  1  0.34704900  0.98658300  0.49221500  1
