# generated using pymatgen
data_LiSi6Bi9O26
_symmetry_space_group_name_H-M   'P 1'
_cell_length_a   9.71819547
_cell_length_b   9.71819547
_cell_length_c   14.14931900
_cell_angle_alpha   90.00000000
_cell_angle_beta   90.00000000
_cell_angle_gamma   119.99999637
_symmetry_Int_Tables_number   1
_chemical_formula_structural   LiSi6Bi9O26
_chemical_formula_sum   'Li2 Si12 Bi18 O52'
_cell_volume   1157.27732947
_cell_formula_units_Z   2
loop_
 _symmetry_equiv_pos_site_id
 _symmetry_equiv_pos_as_xyz
  1  'x, y, z'
loop_
 _atom_site_type_symbol
 _atom_site_label
 _atom_site_symmetry_multiplicity
 _atom_site_fract_x
 _atom_site_fract_y
 _atom_site_fract_z
 _atom_site_occupancy
  Li  Li0  1  0.33333300  0.66666700  0.24215600  1
  Li  Li1  1  0.66666700  0.33333300  0.75784400  1
  Si  Si2  1  0.02954500  0.62782700  0.37237400  1
  Si  Si3  1  0.02455000  0.62416500  0.87443900  1
  Si  Si4  1  0.59961500  0.97545000  0.87443900  1
  Si  Si5  1  0.59828200  0.97045500  0.37237400  1
  Si  Si6  1  0.37583500  0.40038500  0.87443900  1
  Si  Si7  1  0.37217300  0.40171800  0.37237400  1
  Si  Si8  1  0.62782700  0.59828200  0.62762600  1
  Si  Si9  1  0.62416500  0.59961500  0.12556100  1
  Si  Si10  1  0.40171800  0.02954500  0.62762600  1
  Si  Si11  1  0.40038500  0.02455000  0.12556100  1
  Si  Si12  1  0.97045500  0.37217300  0.62762600  1
  Si  Si13  1  0.97545000  0.37583500  0.12556100  1
  Bi  Bi14  1  0.98793800  0.75902400  0.62675600  1
  Bi  Bi15  1  0.98909000  0.75872300  0.12603000  1
  Bi  Bi16  1  0.33333300  0.66666700  0.74473100  1
  Bi  Bi17  1  0.33333300  0.66666700  0.01969800  1
  Bi  Bi18  1  0.33333300  0.66666700  0.48647600  1
  Bi  Bi19  1  0.24097600  0.22891400  0.62675600  1
  Bi  Bi20  1  0.24127700  0.23036800  0.12603000  1
  Bi  Bi21  1  0.22891400  0.98793800  0.37324400  1
  Bi  Bi22  1  0.23036800  0.98909000  0.87397000  1
  Bi  Bi23  1  0.77108600  0.01206200  0.62675600  1
  Bi  Bi24  1  0.76963200  0.01091000  0.12603000  1
  Bi  Bi25  1  0.75872300  0.76963200  0.87397000  1
  Bi  Bi26  1  0.75902400  0.77108600  0.37324400  1
  Bi  Bi27  1  0.66666700  0.33333300  0.98030200  1
  Bi  Bi28  1  0.66666700  0.33333300  0.51352400  1
  Bi  Bi29  1  0.66666700  0.33333300  0.25526900  1
  Bi  Bi30  1  0.01091000  0.24127700  0.87397000  1
  Bi  Bi31  1  0.01206200  0.24097600  0.37324400  1
  O  O32  1  0.07946600  0.75929400  0.28601500  1
  O  O33  1  0.09004100  0.75053100  0.78407200  1
  O  O34  1  0.08979600  0.74838500  0.96545900  1
  O  O35  1  0.09592400  0.74913400  0.46538600  1
  O  O36  1  0.13227300  0.53469700  0.37088800  1
  O  O37  1  0.12154500  0.52567300  0.87186500  1
  O  O38  1  0.33579600  0.83822500  0.62631600  1
  O  O39  1  0.32454100  0.83151000  0.12785500  1
  O  O40  1  0.16849000  0.49303100  0.12785500  1
  O  O41  1  0.16177500  0.49757000  0.62631600  1
  O  O42  1  0.40242400  0.86772700  0.37088800  1
  O  O43  1  0.40412700  0.87845500  0.87186500  1
  O  O44  1  0.00000000  0.00000000  0.87314500  1
  O  O45  1  0.00000000  0.00000000  0.62224900  1
  O  O46  1  0.00000000  0.00000000  0.37775100  1
  O  O47  1  0.00000000  0.00000000  0.12685500  1
  O  O48  1  0.25086600  0.34679000  0.46538600  1
  O  O49  1  0.24946900  0.33951000  0.78407200  1
  O  O50  1  0.25161500  0.34141100  0.96545900  1
  O  O51  1  0.24070600  0.32017300  0.28601500  1
  O  O52  1  0.50243000  0.66420400  0.62631600  1
  O  O53  1  0.50696900  0.67545900  0.12785500  1
  O  O54  1  0.46530300  0.59757600  0.37088800  1
  O  O55  1  0.47432700  0.59587300  0.87186500  1
  O  O56  1  0.65321000  0.90407600  0.46538600  1
  O  O57  1  0.65858900  0.91020400  0.96545900  1
  O  O58  1  0.66049000  0.90995900  0.78407200  1
  O  O59  1  0.67982700  0.92053400  0.28601500  1
  O  O60  1  0.34679000  0.09592400  0.53461400  1
  O  O61  1  0.32017300  0.07946600  0.71398500  1
  O  O62  1  0.34141100  0.08979600  0.03454100  1
  O  O63  1  0.33951000  0.09004100  0.21592800  1
  O  O64  1  0.53469700  0.40242400  0.62911200  1
  O  O65  1  0.52567300  0.40412700  0.12813500  1
  O  O66  1  0.49303100  0.32454100  0.87214500  1
  O  O67  1  0.49757000  0.33579600  0.37368400  1
  O  O68  1  0.74838500  0.65858900  0.03454100  1
  O  O69  1  0.75053100  0.66049000  0.21592800  1
  O  O70  1  0.74913400  0.65321000  0.53461400  1
  O  O71  1  0.75929400  0.67982700  0.71398500  1
  O  O72  1  0.59757600  0.13227300  0.62911200  1
  O  O73  1  0.59587300  0.12154500  0.12813500  1
  O  O74  1  0.83151000  0.50696900  0.87214500  1
  O  O75  1  0.83822500  0.50243000  0.37368400  1
  O  O76  1  0.67545900  0.16849000  0.87214500  1
  O  O77  1  0.66420400  0.16177500  0.37368400  1
  O  O78  1  0.86772700  0.46530300  0.62911200  1
  O  O79  1  0.87845500  0.47432700  0.12813500  1
  O  O80  1  0.91020400  0.25161500  0.03454100  1
  O  O81  1  0.90407600  0.25086600  0.53461400  1
  O  O82  1  0.92053400  0.24070600  0.71398500  1
  O  O83  1  0.90995900  0.24946900  0.21592800  1
