# generated using pymatgen
data_LiCo2(PO4)2
_symmetry_space_group_name_H-M   'P 1'
_cell_length_a   8.17870700
_cell_length_b   8.80203558
_cell_length_c   15.13462640
_cell_angle_alpha   89.18281830
_cell_angle_beta   89.27660891
_cell_angle_gamma   89.88879371
_symmetry_Int_Tables_number   1
_chemical_formula_structural   LiCo2(PO4)2
_chemical_formula_sum   'Li6 Co12 P12 O48'
_cell_volume   1089.33137512
_cell_formula_units_Z   6
loop_
 _symmetry_equiv_pos_site_id
 _symmetry_equiv_pos_as_xyz
  1  'x, y, z'
loop_
 _atom_site_type_symbol
 _atom_site_label
 _atom_site_symmetry_multiplicity
 _atom_site_fract_x
 _atom_site_fract_y
 _atom_site_fract_z
 _atom_site_occupancy
  Li  Li0  1  0.03920500  0.76379200  0.41492500  1
  Li  Li1  1  0.66593000  0.74591200  0.74959000  1
  Li  Li2  1  0.46791400  0.70474700  0.08434200  1
  Li  Li3  1  0.33233500  0.25077300  0.25148500  1
  Li  Li4  1  0.97516700  0.23001100  0.58185700  1
  Li  Li5  1  0.01036200  0.14831700  0.94565500  1
  Co  Co6  1  0.33743100  0.94375200  0.59284000  1
  Co  Co7  1  0.16375200  0.91322100  0.22790500  1
  Co  Co8  1  0.33999100  0.90150900  0.92066300  1
  Co  Co9  1  0.83611800  0.60013100  0.57585000  1
  Co  Co10  1  0.66745600  0.57823200  0.27301500  1
  Co  Co11  1  0.85387000  0.56191300  0.91012400  1
  Co  Co12  1  0.15825200  0.44184100  0.08912000  1
  Co  Co13  1  0.33847100  0.42206400  0.73215100  1
  Co  Co14  1  0.16379600  0.40514400  0.41850200  1
  Co  Co15  1  0.65394600  0.10110200  0.07116500  1
  Co  Co16  1  0.83192000  0.07906600  0.76701000  1
  Co  Co17  1  0.64784400  0.05527900  0.40962000  1
  P  P18  1  0.73074200  0.94635100  0.59063000  1
  P  P19  1  0.77453000  0.92327900  0.22786800  1
  P  P20  1  0.72386100  0.88702300  0.92900900  1
  P  P21  1  0.22344200  0.61060700  0.57286000  1
  P  P22  1  0.28681900  0.58437000  0.26490300  1
  P  P23  1  0.24143400  0.56424600  0.90961900  1
  P  P24  1  0.76284700  0.44783600  0.09478200  1
  P  P25  1  0.73059300  0.41831500  0.73500300  1
  P  P26  1  0.77618600  0.38383100  0.42569600  1
  P  P27  1  0.27325400  0.10929100  0.07333500  1
  P  P28  1  0.21880200  0.08804900  0.76942200  1
  P  P29  1  0.26045900  0.05118400  0.40928600  1
  O  O30  1  0.43565000  0.98174300  0.40095200  1
  O  O31  1  0.22958900  0.95622000  0.03195800  1
  O  O32  1  0.14283800  0.94465500  0.36039800  1
  O  O33  1  0.22959100  0.95688500  0.70097000  1
  O  O34  1  0.64533300  0.93377000  0.15213900  1
  O  O35  1  0.94340000  0.94528100  0.18697800  1
  O  O36  1  0.77590500  0.94081000  0.48990700  1
  O  O37  1  0.70684500  0.91231800  0.82796000  1
  O  O38  1  0.55816400  0.84173500  0.97189000  1
  O  O39  1  0.73903000  0.78417000  0.63152200  1
  O  O40  1  0.76320200  0.76666400  0.27766700  1
  O  O41  1  0.85458100  0.76340100  0.94760900  1
  O  O42  1  0.28886000  0.72715900  0.20361700  1
  O  O43  1  0.34987800  0.74237600  0.55843100  1
  O  O44  1  0.23962600  0.72432300  0.86927500  1
  O  O45  1  0.05655100  0.67122600  0.53736700  1
  O  O46  1  0.21186600  0.57137600  0.67363200  1
  O  O47  1  0.29895300  0.56429800  0.00726900  1
  O  O48  1  0.45225700  0.56925300  0.31506100  1
  O  O49  1  0.14996400  0.58978800  0.33701800  1
  O  O50  1  0.76698100  0.56166900  0.79438300  1
  O  O51  1  0.63560000  0.54684900  0.14760300  1
  O  O52  1  0.72691200  0.53330200  0.46972200  1
  O  O53  1  0.93420600  0.50224800  0.11596400  1
  O  O54  1  0.06564100  0.48830800  0.90902300  1
  O  O55  1  0.27784700  0.46793700  0.52320500  1
  O  O56  1  0.35056700  0.45595300  0.85340500  1
  O  O57  1  0.26834200  0.44164300  0.20639300  1
  O  O58  1  0.85220200  0.41714800  0.65592800  1
  O  O59  1  0.55698600  0.45044600  0.69751700  1
  O  O60  1  0.72166600  0.46644800  0.99440200  1
  O  O61  1  0.77645700  0.41152800  0.32300900  1
  O  O62  1  0.94587600  0.32656900  0.45804200  1
  O  O63  1  0.73853900  0.27742900  0.12074300  1
  O  O64  1  0.65013400  0.25497800  0.44764800  1
  O  O65  1  0.74211400  0.27643900  0.79349000  1
  O  O66  1  0.14735800  0.23042200  0.04274800  1
  O  O67  1  0.22828000  0.23952400  0.71378300  1
  O  O68  1  0.25967800  0.21407000  0.36933400  1
  O  O69  1  0.44666500  0.16374900  0.04054500  1
  O  O70  1  0.27764700  0.09304300  0.17556100  1
  O  O71  1  0.21062100  0.05480900  0.50937600  1
  O  O72  1  0.05187300  0.08043200  0.81998300  1
  O  O73  1  0.35739900  0.07227700  0.83572600  1
  O  O74  1  0.73183800  0.04881300  0.29540800  1
  O  O75  1  0.85195300  0.05410600  0.63624000  1
  O  O76  1  0.78688500  0.03845500  0.97213200  1
  O  O77  1  0.55491800  0.01197300  0.60300900  1
