# generated using pymatgen
data_LiVPO5
_symmetry_space_group_name_H-M   'P 1'
_cell_length_a   6.34184100
_cell_length_b   10.58401600
_cell_length_c   12.74251500
_cell_angle_alpha   90.00000000
_cell_angle_beta   90.00000000
_cell_angle_gamma   90.00000000
_symmetry_Int_Tables_number   1
_chemical_formula_structural   LiVPO5
_chemical_formula_sum   'Li8 V8 P8 O40'
_cell_volume   855.30496005
_cell_formula_units_Z   8
loop_
 _symmetry_equiv_pos_site_id
 _symmetry_equiv_pos_as_xyz
  1  'x, y, z'
loop_
 _atom_site_type_symbol
 _atom_site_label
 _atom_site_symmetry_multiplicity
 _atom_site_fract_x
 _atom_site_fract_y
 _atom_site_fract_z
 _atom_site_occupancy
  Li  Li0  1  0.95890700  0.03485800  0.10175300  1
  Li  Li1  1  0.35499700  0.76378900  0.17140900  1
  Li  Li2  1  0.85499700  0.26378900  0.32859100  1
  Li  Li3  1  0.45890700  0.53485800  0.39824700  1
  Li  Li4  1  0.54109300  0.03485800  0.60175300  1
  Li  Li5  1  0.14500300  0.76378900  0.67140900  1
  Li  Li6  1  0.64500300  0.26378900  0.82859100  1
  Li  Li7  1  0.04109300  0.53485800  0.89824700  1
  V  V8  1  0.98829900  0.50661900  0.12881600  1
  V  V9  1  0.27210800  0.26268400  0.24500200  1
  V  V10  1  0.77210800  0.76268400  0.25499800  1
  V  V11  1  0.48829900  0.00661900  0.37118400  1
  V  V12  1  0.51170100  0.50661900  0.62881600  1
  V  V13  1  0.22789200  0.26268400  0.74500200  1
  V  V14  1  0.72789200  0.76268400  0.75499800  1
  V  V15  1  0.01170100  0.00661900  0.87118400  1
  P  P16  1  0.82365500  0.77258000  0.00472300  1
  P  P17  1  0.49367000  0.52211900  0.18552900  1
  P  P18  1  0.99367000  0.02211900  0.31447100  1
  P  P19  1  0.32365500  0.27258000  0.49527700  1
  P  P20  1  0.67634500  0.77258000  0.50472300  1
  P  P21  1  0.00633000  0.52211900  0.68552900  1
  P  P22  1  0.50633000  0.02211900  0.81447100  1
  P  P23  1  0.17634500  0.27258000  0.99527700  1
  O  O24  1  0.03256400  0.39316700  0.00059400  1
  O  O25  1  0.96471000  0.65208400  0.01180800  1
  O  O26  1  0.31907700  0.26724900  0.09310400  1
  O  O27  1  0.67830000  0.78345200  0.10311600  1
  O  O28  1  0.68049000  0.49315200  0.11319500  1
  O  O29  1  0.29805100  0.55861800  0.12057200  1
  O  O30  1  0.02181000  0.38633700  0.21989600  1
  O  O31  1  0.95170300  0.64559200  0.22671900  1
  O  O32  1  0.95498100  0.91209100  0.23533800  1
  O  O33  1  0.03070700  0.13610800  0.23644800  1
  O  O34  1  0.53070700  0.63610800  0.26355200  1
  O  O35  1  0.45498100  0.41209100  0.26466200  1
  O  O36  1  0.45170300  0.14559200  0.27328100  1
  O  O37  1  0.52181000  0.88633700  0.28010400  1
  O  O38  1  0.79805100  0.05861800  0.37942800  1
  O  O39  1  0.18049000  0.99315200  0.38680500  1
  O  O40  1  0.17830000  0.28345200  0.39688400  1
  O  O41  1  0.81907700  0.76724900  0.40689600  1
  O  O42  1  0.46471000  0.15208400  0.48819200  1
  O  O43  1  0.53256400  0.89316700  0.49940600  1
  O  O44  1  0.46743600  0.39316700  0.50059400  1
  O  O45  1  0.53529000  0.65208400  0.51180800  1
  O  O46  1  0.18092300  0.26724900  0.59310400  1
  O  O47  1  0.82170000  0.78345200  0.60311600  1
  O  O48  1  0.81951000  0.49315200  0.61319500  1
  O  O49  1  0.20194900  0.55861800  0.62057200  1
  O  O50  1  0.47819000  0.38633700  0.71989600  1
  O  O51  1  0.54829700  0.64559200  0.72671900  1
  O  O52  1  0.54501900  0.91209100  0.73533800  1
  O  O53  1  0.46929300  0.13610800  0.73644800  1
  O  O54  1  0.96929300  0.63610800  0.76355200  1
  O  O55  1  0.04501900  0.41209100  0.76466200  1
  O  O56  1  0.04829700  0.14559200  0.77328100  1
  O  O57  1  0.97819000  0.88633700  0.78010400  1
  O  O58  1  0.70194900  0.05861800  0.87942800  1
  O  O59  1  0.31951000  0.99315200  0.88680500  1
  O  O60  1  0.32170000  0.28345200  0.89688400  1
  O  O61  1  0.68092300  0.76724900  0.90689600  1
  O  O62  1  0.03529000  0.15208400  0.98819200  1
  O  O63  1  0.96743600  0.89316700  0.99940600  1
