# generated using pymatgen
data_Li10Fe3Co3(NiO8)2
_symmetry_space_group_name_H-M   'P 1'
_cell_length_a   5.86622800
_cell_length_b   5.87684888
_cell_length_c   9.71588967
_cell_angle_alpha   90.49092226
_cell_angle_beta   90.24760320
_cell_angle_gamma   119.67888203
_symmetry_Int_Tables_number   1
_chemical_formula_structural   Li10Fe3Co3(NiO8)2
_chemical_formula_sum   'Li10 Fe3 Co3 Ni2 O16'
_cell_volume   290.98850919
_cell_formula_units_Z   1
loop_
 _symmetry_equiv_pos_site_id
 _symmetry_equiv_pos_as_xyz
  1  'x, y, z'
loop_
 _atom_site_type_symbol
 _atom_site_label
 _atom_site_symmetry_multiplicity
 _atom_site_fract_x
 _atom_site_fract_y
 _atom_site_fract_z
 _atom_site_occupancy
  Li  Li0  1  0.99234000  0.98020000  0.51407500  1
  Li  Li1  1  0.98262400  0.98635300  0.01993100  1
  Li  Li2  1  0.18152300  0.80193300  0.94218300  1
  Li  Li3  1  0.36566900  0.18367700  0.44156400  1
  Li  Li4  1  0.57805100  0.77664100  0.94726500  1
  Li  Li5  1  0.17645500  0.36478300  0.94337500  1
  Li  Li6  1  0.77289500  0.58361000  0.44338000  1
  Li  Li7  1  0.31793700  0.64446000  0.71765100  1
  Li  Li8  1  0.64514700  0.31929400  0.21772900  1
  Li  Li9  1  0.79919000  0.18669000  0.43620600  1
  Fe  Fe10  1  0.82026800  0.64612500  0.71574800  1
  Fe  Fe11  1  0.82009700  0.15116900  0.71383800  1
  Fe  Fe12  1  0.64171200  0.81768500  0.21628400  1
  Co  Co13  1  0.32878200  0.15261200  0.71302300  1
  Co  Co14  1  0.15144600  0.82153300  0.21304600  1
  Co  Co15  1  0.15157500  0.32563200  0.21266100  1
  Ni  Ni16  1  0.66099400  0.32320800  0.97272200  1
  Ni  Ni17  1  0.32099800  0.65776800  0.46873300  1
  O  O18  1  0.00708600  0.99450500  0.82575000  1
  O  O19  1  0.99685900  0.99909600  0.32122600  1
  O  O20  1  0.30461200  0.14759100  0.10139300  1
  O  O21  1  0.15778900  0.82667800  0.60016700  1
  O  O22  1  0.49360800  0.47121800  0.83207200  1
  O  O23  1  0.00757200  0.50432900  0.32708200  1
  O  O24  1  0.30459600  0.64810700  0.10071000  1
  O  O25  1  0.64868600  0.31186200  0.59534700  1
  O  O26  1  0.49736700  0.00419500  0.83234600  1
  O  O27  1  0.46898800  0.97366600  0.33073700  1
  O  O28  1  0.15623400  0.30440500  0.59662000  1
  O  O29  1  0.82430900  0.66503200  0.09732000  1
  O  O30  1  0.46844600  0.49065300  0.32939300  1
  O  O31  1  0.97790900  0.47961200  0.83318600  1
  O  O32  1  0.66768800  0.81859400  0.59135900  1
  O  O33  1  0.82537300  0.15312300  0.09849900  1
