# generated using pymatgen
data_LiMn2(BO3)2
_symmetry_space_group_name_H-M   'P 1'
_cell_length_a   5.29938000
_cell_length_b   10.38423628
_cell_length_c   13.98104357
_cell_angle_alpha   90.28109625
_cell_angle_beta   100.47225630
_cell_angle_gamma   91.69828169
_symmetry_Int_Tables_number   1
_chemical_formula_structural   LiMn2(BO3)2
_chemical_formula_sum   'Li6 Mn12 B12 O36'
_cell_volume   756.18775375
_cell_formula_units_Z   6
loop_
 _symmetry_equiv_pos_site_id
 _symmetry_equiv_pos_as_xyz
  1  'x, y, z'
loop_
 _atom_site_type_symbol
 _atom_site_label
 _atom_site_symmetry_multiplicity
 _atom_site_fract_x
 _atom_site_fract_y
 _atom_site_fract_z
 _atom_site_occupancy
  Li  Li0  1  0.83867400  0.34228000  0.00150700  1
  Li  Li1  1  0.53229300  0.31927300  0.33821600  1
  Li  Li2  1  0.53523800  0.83165900  0.32683100  1
  Li  Li3  1  0.20727100  0.33772700  0.66859900  1
  Li  Li4  1  0.17488600  0.82579800  0.66136800  1
  Li  Li5  1  0.14159300  0.65780600  0.99071200  1
  Mn  Mn6  1  0.95917700  0.36332000  0.21444100  1
  Mn  Mn7  1  0.93957300  0.11444700  0.56702400  1
  Mn  Mn8  1  0.72050400  0.61762000  0.11228800  1
  Mn  Mn9  1  0.63682400  0.36976500  0.54579700  1
  Mn  Mn10  1  0.71264700  0.87651500  0.77303800  1
  Mn  Mn11  1  0.41116400  0.86576800  0.11108400  1
  Mn  Mn12  1  0.56897500  0.13470200  0.87242500  1
  Mn  Mn13  1  0.25861100  0.10690800  0.22521100  1
  Mn  Mn14  1  0.38125000  0.61223300  0.43355100  1
  Mn  Mn15  1  0.28365100  0.38441200  0.90119600  1
  Mn  Mn16  1  0.09437800  0.86835300  0.45694700  1
  Mn  Mn17  1  0.03381300  0.62495400  0.78166700  1
  B  B18  1  0.95649700  0.86326500  0.23207200  1
  B  B19  1  0.70139600  0.12915500  0.10633600  1
  B  B20  1  0.94108200  0.62480200  0.55111000  1
  B  B21  1  0.72642200  0.38019800  0.77154300  1
  B  B22  1  0.38421700  0.36985800  0.11963300  1
  B  B23  1  0.61305800  0.86554100  0.55316500  1
  B  B24  1  0.39309100  0.12488700  0.45464100  1
  B  B25  1  0.60688100  0.62291800  0.88961800  1
  B  B26  1  0.27270800  0.62428500  0.21157200  1
  B  B27  1  0.06639300  0.36373500  0.44120400  1
  B  B28  1  0.26847700  0.87195600  0.88186600  1
  B  B29  1  0.05610600  0.14075700  0.79239800  1
  O  O30  1  0.87401700  0.17790700  0.18963000  1
  O  O31  1  0.72573600  0.16479100  0.01650900  1
  O  O32  1  0.00138200  0.32859500  0.53159700  1
  O  O33  1  0.89386400  0.36089300  0.35719000  1
  O  O34  1  0.88645300  0.87338300  0.32032700  1
  O  O35  1  0.78523600  0.81586900  0.15064900  1
  O  O36  1  0.97834900  0.43581100  0.78291100  1
  O  O37  1  0.63882100  0.41118900  0.12054800  1
  O  O38  1  0.87240700  0.90514600  0.55894300  1
  O  O39  1  0.83373000  0.07360600  0.80367700  1
  O  O40  1  0.50149400  0.04796100  0.12752800  1
  O  O41  1  0.71320800  0.55164300  0.52740100  1
  O  O42  1  0.78403800  0.60318500  0.97142500  1
  O  O43  1  0.55678400  0.18389300  0.53574300  1
  O  O44  1  0.43602600  0.14258800  0.36416000  1
  O  O45  1  0.67703500  0.67208900  0.80602900  1
  O  O46  1  0.43083800  0.65030300  0.29606200  1
  O  O47  1  0.65532600  0.32760300  0.85649600  1
  O  O48  1  0.32993700  0.67615800  0.12302400  1
  O  O49  1  0.56679600  0.37755600  0.68491700  1
  O  O50  1  0.32460400  0.32026200  0.20646400  1
  O  O51  1  0.47077500  0.82756800  0.46199400  1
  O  O52  1  0.20176500  0.38214300  0.03902700  1
  O  O53  1  0.50520600  0.86729900  0.63349500  1
  O  O54  1  0.32296800  0.40502300  0.44263300  1
  O  O55  1  0.20629200  0.90271700  0.22079600  1
  O  O56  1  0.46085100  0.95253500  0.85900000  1
  O  O57  1  0.18765600  0.05051700  0.47719800  1
  O  O58  1  0.04723300  0.54892100  0.20239800  1
  O  O59  1  0.34593900  0.58714100  0.88801900  1
  O  O60  1  0.21996200  0.18564800  0.87725300  1
  O  O61  1  0.11687100  0.16390200  0.70420000  1
  O  O62  1  0.03573900  0.68148300  0.47250800  1
  O  O63  1  0.06790400  0.64453100  0.64297600  1
  O  O64  1  0.11060300  0.81377100  0.79767100  1
  O  O65  1  0.23367300  0.84160400  0.97202500  1
