# generated using pymatgen
data_Li4Ti2Co3Sn3O16
_symmetry_space_group_name_H-M   'P 1'
_cell_length_a   6.10320027
_cell_length_b   6.11419106
_cell_length_c   9.66839314
_cell_angle_alpha   89.99400111
_cell_angle_beta   89.83732575
_cell_angle_gamma   120.07958431
_symmetry_Int_Tables_number   1
_chemical_formula_structural   Li4Ti2Co3Sn3O16
_chemical_formula_sum   'Li4 Ti2 Co3 Sn3 O16'
_cell_volume   312.19812780
_cell_formula_units_Z   1
loop_
 _symmetry_equiv_pos_site_id
 _symmetry_equiv_pos_as_xyz
  1  'x, y, z'
loop_
 _atom_site_type_symbol
 _atom_site_label
 _atom_site_symmetry_multiplicity
 _atom_site_fract_x
 _atom_site_fract_y
 _atom_site_fract_z
 _atom_site_occupancy
  Li  Li0  1  0.34811400  0.67403100  0.89187900  1
  Li  Li1  1  0.96530900  0.98277700  0.98801800  1
  Li  Li2  1  0.97979800  0.98972500  0.49745100  1
  Li  Li3  1  0.66597800  0.33305200  0.40082700  1
  Ti  Ti4  1  0.35494800  0.67779900  0.49783100  1
  Ti  Ti5  1  0.68377800  0.34195200  0.99187400  1
  Co  Co6  1  0.65795500  0.82898100  0.21642200  1
  Co  Co7  1  0.83507100  0.65619600  0.71828600  1
  Co  Co8  1  0.83504200  0.17890400  0.71804800  1
  Sn  Sn9  1  0.17254800  0.83053100  0.21470800  1
  Sn  Sn10  1  0.17263700  0.34207300  0.21474300  1
  Sn  Sn11  1  0.34293600  0.17150500  0.71120000  1
  O  O12  1  0.16621400  0.82937100  0.59406100  1
  O  O13  1  0.02669200  0.51324200  0.34191900  1
  O  O14  1  0.33643800  0.66836400  0.09734200  1
  O  O15  1  0.99671100  0.99824400  0.30989400  1
  O  O16  1  0.98918400  0.99426500  0.80123000  1
  O  O17  1  0.16560000  0.33641000  0.59415100  1
  O  O18  1  0.47273300  0.95656000  0.35296500  1
  O  O19  1  0.47308100  0.51632600  0.35281200  1
  O  O20  1  0.33225100  0.16617800  0.09090400  1
  O  O21  1  0.65454100  0.82750800  0.59712400  1
  O  O22  1  0.52892800  0.48257600  0.84596200  1
  O  O23  1  0.52927900  0.04636100  0.84574000  1
  O  O24  1  0.68258100  0.34179200  0.60557900  1
  O  O25  1  0.83704800  0.65676500  0.08793100  1
  O  O26  1  0.95773300  0.47866400  0.84082700  1
  O  O27  1  0.83687200  0.18014900  0.08810900  1
