# generated using pymatgen
data_LiNbCo3(PO4)6
_symmetry_space_group_name_H-M   'P 1'
_cell_length_a   8.65615339
_cell_length_b   8.66127145
_cell_length_c   8.72398179
_cell_angle_alpha   60.20683630
_cell_angle_beta   60.30784217
_cell_angle_gamma   60.61314767
_symmetry_Int_Tables_number   1
_chemical_formula_structural   LiNbCo3(PO4)6
_chemical_formula_sum   'Li1 Nb1 Co3 P6 O24'
_cell_volume   466.41430056
_cell_formula_units_Z   1
loop_
 _symmetry_equiv_pos_site_id
 _symmetry_equiv_pos_as_xyz
  1  'x, y, z'
loop_
 _atom_site_type_symbol
 _atom_site_label
 _atom_site_symmetry_multiplicity
 _atom_site_fract_x
 _atom_site_fract_y
 _atom_site_fract_z
 _atom_site_occupancy
  Li  Li0  1  0.48693996  0.50247673  0.49742751  1
  Nb  Nb1  1  0.86361974  0.86166979  0.86137020  1
  Co  Co2  1  0.13513868  0.14158107  0.13611467  1
  Co  Co3  1  0.35640939  0.35375066  0.35435102  1
  Co  Co4  1  0.64111436  0.64289769  0.63919112  1
  P  P5  1  0.03993058  0.74871916  0.45559993  1
  P  P6  1  0.45674887  0.03795476  0.74654360  1
  P  P7  1  0.26171288  0.52788982  0.95656029  1
  P  P8  1  0.74705209  0.45630525  0.03715404  1
  P  P9  1  0.52945637  0.95891166  0.26016156  1
  P  P10  1  0.95533703  0.26285178  0.52455186  1
  O  O11  1  0.36662327  0.00549495  0.20282206  1
  O  O12  1  0.12664139  0.29671218  0.49795621  1
  O  O13  1  0.30105151  0.50559900  0.11962252  1
  O  O14  1  0.07243645  0.91094384  0.26720709  1
  O  O15  1  0.51345385  0.12319424  0.29600342  1
  O  O16  1  0.22528876  0.58033280  0.44779402  1
  O  O17  1  0.26631983  0.07256498  0.90379385  1
  O  O18  1  0.19836631  0.36860609  0.99863018  1
  O  O19  1  0.45102708  0.22589980  0.58015810  1
  O  O20  1  0.09873881  0.72010697  0.92178260  1
  O  O21  1  0.57997796  0.45024659  0.22358265  1
  O  O22  1  0.42734822  0.53940040  0.77097409  1
  O  O23  1  0.90387385  0.26497812  0.07047175  1
  O  O24  1  0.53951755  0.77308409  0.42597920  1
  O  O25  1  0.71941455  0.92279744  0.09517289  1
  O  O26  1  0.48204911  0.87563645  0.70209448  1
  O  O27  1  0.77226313  0.42979655  0.54102298  1
  O  O28  1  0.98676107  0.20819052  0.36731042  1
  O  O29  1  0.92373123  0.09819941  0.71629836  1
  O  O30  1  0.70236147  0.48614853  0.87398705  1
  O  O31  1  0.87408261  0.70605379  0.48408004  1
  O  O32  1  0.62183468  0.98791707  0.80697005  1
  O  O33  1  0.81054844  0.61854321  0.99047294  1
  O  O34  1  0.99446094  0.80612062  0.62012821  1
