# generated using pymatgen
data_Li2CoNi(PO4)2
_symmetry_space_group_name_H-M   'P 1'
_cell_length_a   4.74121505
_cell_length_b   10.20443101
_cell_length_c   5.96596903
_cell_angle_alpha   89.99938986
_cell_angle_beta   90.00962958
_cell_angle_gamma   90.01026270
_symmetry_Int_Tables_number   1
_chemical_formula_structural   Li2CoNi(PO4)2
_chemical_formula_sum   'Li4 Co2 Ni2 P4 O16'
_cell_volume   288.64193670
_cell_formula_units_Z   2
loop_
 _symmetry_equiv_pos_site_id
 _symmetry_equiv_pos_as_xyz
  1  'x, y, z'
loop_
 _atom_site_type_symbol
 _atom_site_label
 _atom_site_symmetry_multiplicity
 _atom_site_fract_x
 _atom_site_fract_y
 _atom_site_fract_z
 _atom_site_occupancy
  Li  Li0  1  0.00009400  0.99976000  0.00004600  1
  Li  Li1  1  0.99995300  0.00032100  0.49970300  1
  Li  Li2  1  0.49913200  0.50017900  0.99994000  1
  Li  Li3  1  0.50037100  0.50030100  0.50033700  1
  Co  Co4  1  0.01746700  0.72394600  0.74961600  1
  Co  Co5  1  0.98119300  0.27606100  0.24975500  1
  Ni  Ni6  1  0.51596800  0.77666100  0.25007200  1
  Ni  Ni7  1  0.48416900  0.22318200  0.74994200  1
  P  P8  1  0.41907800  0.09285200  0.24973300  1
  P  P9  1  0.58046000  0.90709800  0.74984100  1
  P  P10  1  0.91812600  0.40472900  0.75019400  1
  P  P11  1  0.08270700  0.59523800  0.25025800  1
  O  O12  1  0.70173700  0.04881600  0.74892000  1
  O  O13  1  0.29798000  0.95113600  0.24857300  1
  O  O14  1  0.74312800  0.09700000  0.25111200  1
  O  O15  1  0.25632400  0.90290500  0.75101600  1
  O  O16  1  0.24205200  0.39944200  0.75016300  1
  O  O17  1  0.75883900  0.60088400  0.25026000  1
  O  O18  1  0.20162200  0.45323300  0.25085800  1
  O  O19  1  0.79867300  0.54668200  0.75057500  1
  O  O20  1  0.28383100  0.16525900  0.04291000  1
  O  O21  1  0.27893900  0.16323000  0.45657000  1
  O  O22  1  0.71589500  0.83487500  0.54294300  1
  O  O23  1  0.72044100  0.83657900  0.95655600  1
  O  O24  1  0.77757900  0.33399700  0.54420900  1
  O  O25  1  0.77750400  0.33312500  0.95589400  1
  O  O26  1  0.22315500  0.66572000  0.04399800  1
  O  O27  1  0.22358100  0.66678800  0.45600300  1
