# generated using pymatgen
data_Li10Cr3Fe3(NiO8)2
_symmetry_space_group_name_H-M   'P 1'
_cell_length_a   5.97838531
_cell_length_b   5.97838531
_cell_length_c   9.83837766
_cell_angle_alpha   89.77426072
_cell_angle_beta   89.77426072
_cell_angle_gamma   59.85084371
_symmetry_Int_Tables_number   1
_chemical_formula_structural   Li10Cr3Fe3(NiO8)2
_chemical_formula_sum   'Li10 Cr3 Fe3 Ni2 O16'
_cell_volume   304.06240768
_cell_formula_units_Z   1
loop_
 _symmetry_equiv_pos_site_id
 _symmetry_equiv_pos_as_xyz
  1  'x, y, z'
loop_
 _atom_site_type_symbol
 _atom_site_label
 _atom_site_symmetry_multiplicity
 _atom_site_fract_x
 _atom_site_fract_y
 _atom_site_fract_z
 _atom_site_occupancy
  Li  Li0  1  0.81678200  0.40629200  0.94126100  1
  Li  Li1  1  0.01501600  0.01501600  0.01644400  1
  Li  Li2  1  0.01725200  0.01725200  0.51528100  1
  Li  Li3  1  0.40629200  0.81678200  0.94126100  1
  Li  Li4  1  0.68362500  0.68362500  0.71664800  1
  Li  Li5  1  0.81796600  0.81796600  0.94232900  1
  Li  Li6  1  0.61980500  0.20610100  0.44171300  1
  Li  Li7  1  0.34662200  0.34662200  0.21677800  1
  Li  Li8  1  0.21068600  0.21068600  0.44260400  1
  Li  Li9  1  0.20610100  0.61980500  0.44171300  1
  Cr  Cr10  1  0.84798500  0.34823400  0.21456800  1
  Cr  Cr11  1  0.34823400  0.84798500  0.21456800  1
  Cr  Cr12  1  0.18517000  0.18517000  0.71435100  1
  Fe  Fe13  1  0.84502600  0.84502600  0.21502800  1
  Fe  Fe14  1  0.67304600  0.19120200  0.71465500  1
  Fe  Fe15  1  0.19120200  0.67304600  0.71465500  1
  Ni  Ni16  1  0.68176700  0.68176700  0.47014500  1
  Ni  Ni17  1  0.34952300  0.34952300  0.97046400  1
  O  O18  1  0.85163700  0.34555400  0.59786000  1
  O  O19  1  0.52268900  0.52268900  0.33292300  1
  O  O20  1  0.67956900  0.67956900  0.09757400  1
  O  O21  1  0.99974800  0.51846500  0.33216800  1
  O  O22  1  0.01566700  0.01566700  0.32594400  1
  O  O23  1  0.01860100  0.01860100  0.82710300  1
  O  O24  1  0.34555400  0.85163700  0.59786000  1
  O  O25  1  0.51846500  0.99974800  0.33216800  1
  O  O26  1  0.17602800  0.17602800  0.09786900  1
  O  O27  1  0.85540000  0.85540000  0.59427100  1
  O  O28  1  0.50240800  0.03775500  0.83277800  1
  O  O29  1  0.03775500  0.50240800  0.83277800  1
  O  O30  1  0.34852700  0.34852700  0.59573400  1
  O  O31  1  0.69343900  0.17495100  0.09648500  1
  O  O32  1  0.50855600  0.50855600  0.83313500  1
  O  O33  1  0.17495100  0.69343900  0.09648500  1
