# generated using pymatgen
data_Li4Mn3Cu2Sn3O16
_symmetry_space_group_name_H-M   'P 1'
_cell_length_a   6.08433247
_cell_length_b   6.10424729
_cell_length_c   9.81937428
_cell_angle_alpha   89.99063356
_cell_angle_beta   87.51752301
_cell_angle_gamma   120.10967292
_symmetry_Int_Tables_number   1
_chemical_formula_structural   Li4Mn3Cu2Sn3O16
_chemical_formula_sum   'Li4 Mn3 Cu2 Sn3 O16'
_cell_volume   315.08762002
_cell_formula_units_Z   1
loop_
 _symmetry_equiv_pos_site_id
 _symmetry_equiv_pos_as_xyz
  1  'x, y, z'
loop_
 _atom_site_type_symbol
 _atom_site_label
 _atom_site_symmetry_multiplicity
 _atom_site_fract_x
 _atom_site_fract_y
 _atom_site_fract_z
 _atom_site_occupancy
  Li  Li0  1  0.34084300  0.67043500  0.88446700  1
  Li  Li1  1  0.98120500  0.99061100  0.99446300  1
  Li  Li2  1  0.99146100  0.99576500  0.50134300  1
  Li  Li3  1  0.66565100  0.33283600  0.39312900  1
  Mn  Mn4  1  0.66589800  0.83293500  0.21670000  1
  Mn  Mn5  1  0.83237100  0.66375200  0.71533300  1
  Mn  Mn6  1  0.83229600  0.16857400  0.71532800  1
  Cu  Cu7  1  0.33186400  0.66596400  0.49316800  1
  Cu  Cu8  1  0.67226700  0.33614400  0.98534300  1
  Sn  Sn9  1  0.16989900  0.83061000  0.21438600  1
  Sn  Sn10  1  0.16987100  0.33928100  0.21438400  1
  Sn  Sn11  1  0.34187800  0.17098600  0.71326800  1
  O  O12  1  0.15450900  0.83518700  0.60159400  1
  O  O13  1  0.01706100  0.50849800  0.33414100  1
  O  O14  1  0.36627000  0.68316200  0.10052300  1
  O  O15  1  0.97618900  0.98806000  0.31872200  1
  O  O16  1  0.97685700  0.98841100  0.81146100  1
  O  O17  1  0.15448800  0.31938800  0.60158800  1
  O  O18  1  0.48570500  0.95944900  0.33860400  1
  O  O19  1  0.48568300  0.52626300  0.33861400  1
  O  O20  1  0.32691400  0.16349900  0.09274500  1
  O  O21  1  0.69121100  0.84563700  0.61482300  1
  O  O22  1  0.52425500  0.49353100  0.82969500  1
  O  O23  1  0.52417500  0.03067400  0.82965000  1
  O  O24  1  0.69901100  0.34955900  0.60673600  1
  O  O25  1  0.83515300  0.68823400  0.10623500  1
  O  O26  1  0.95186200  0.47591600  0.83521100  1
  O  O27  1  0.83515200  0.14694000  0.10618800  1
