# generated using pymatgen
data_Li3FeF6
_symmetry_space_group_name_H-M   'P 1'
_cell_length_a   5.07852400
_cell_length_b   8.59677200
_cell_length_c   9.82857800
_cell_angle_alpha   90.00000000
_cell_angle_beta   90.00000000
_cell_angle_gamma   90.00000000
_symmetry_Int_Tables_number   1
_chemical_formula_structural   Li3FeF6
_chemical_formula_sum   'Li12 Fe4 F24'
_cell_volume   429.10503107
_cell_formula_units_Z   4
loop_
 _symmetry_equiv_pos_site_id
 _symmetry_equiv_pos_as_xyz
  1  'x, y, z'
loop_
 _atom_site_type_symbol
 _atom_site_label
 _atom_site_symmetry_multiplicity
 _atom_site_fract_x
 _atom_site_fract_y
 _atom_site_fract_z
 _atom_site_occupancy
  Li  Li0  1  0.49790600  0.45530300  0.10574600  1
  Li  Li1  1  0.00824600  0.85254400  0.12562500  1
  Li  Li2  1  0.50196600  0.04697800  0.14620200  1
  Li  Li3  1  0.00196600  0.54697800  0.35379800  1
  Li  Li4  1  0.50824600  0.35254400  0.37437500  1
  Li  Li5  1  0.99790600  0.95530300  0.39425400  1
  Li  Li6  1  0.49790600  0.04469700  0.60574600  1
  Li  Li7  1  0.00824600  0.64745600  0.62562500  1
  Li  Li8  1  0.50196600  0.45302200  0.64620200  1
  Li  Li9  1  0.00196600  0.95302200  0.85379800  1
  Li  Li10  1  0.50824600  0.14745600  0.87437500  1
  Li  Li11  1  0.99790600  0.54469700  0.89425400  1
  Fe  Fe12  1  0.99976200  0.24064000  0.12769700  1
  Fe  Fe13  1  0.49976200  0.74064000  0.37230300  1
  Fe  Fe14  1  0.99976200  0.25936000  0.62769700  1
  Fe  Fe15  1  0.49976200  0.75936000  0.87230300  1
  F  F16  1  0.82009900  0.08533600  0.00889300  1
  F  F17  1  0.32432500  0.24487600  0.02186900  1
  F  F18  1  0.84184900  0.40891700  0.02456000  1
  F  F19  1  0.14590900  0.05881000  0.22663400  1
  F  F20  1  0.68277500  0.23132900  0.23902100  1
  F  F21  1  0.18437400  0.38800800  0.24876500  1
  F  F22  1  0.68437400  0.88800800  0.25123500  1
  F  F23  1  0.18277500  0.73132900  0.26097900  1
  F  F24  1  0.64590900  0.55881000  0.27336600  1
  F  F25  1  0.34184900  0.90891700  0.47544000  1
  F  F26  1  0.82432500  0.74487600  0.47813100  1
  F  F27  1  0.32009900  0.58533600  0.49110700  1
  F  F28  1  0.82009900  0.41466400  0.50889300  1
  F  F29  1  0.32432500  0.25512400  0.52186900  1
  F  F30  1  0.84184900  0.09108300  0.52456000  1
  F  F31  1  0.14590900  0.44119000  0.72663400  1
  F  F32  1  0.68277500  0.26867100  0.73902100  1
  F  F33  1  0.18437400  0.11199200  0.74876500  1
  F  F34  1  0.68437400  0.61199200  0.75123500  1
  F  F35  1  0.18277500  0.76867100  0.76097900  1
  F  F36  1  0.64590900  0.94119000  0.77336600  1
  F  F37  1  0.34184900  0.59108300  0.97544000  1
  F  F38  1  0.82432500  0.75512400  0.97813100  1
  F  F39  1  0.32009900  0.91466400  0.99110700  1
