# generated using pymatgen
data_Li3Mn4O8
_symmetry_space_group_name_H-M   'P 1'
_cell_length_a   6.19005095
_cell_length_b   6.19005095
_cell_length_c   6.19005127
_cell_angle_alpha   56.68282912
_cell_angle_beta   56.68282912
_cell_angle_gamma   56.68283085
_symmetry_Int_Tables_number   1
_chemical_formula_structural   Li3Mn4O8
_chemical_formula_sum   'Li3 Mn4 O8'
_cell_volume   154.86572610
_cell_formula_units_Z   1
loop_
 _symmetry_equiv_pos_site_id
 _symmetry_equiv_pos_as_xyz
  1  'x, y, z'
loop_
 _atom_site_type_symbol
 _atom_site_label
 _atom_site_symmetry_multiplicity
 _atom_site_fract_x
 _atom_site_fract_y
 _atom_site_fract_z
 _atom_site_occupancy
  Li  Li0  1  0.14213900  0.14213900  0.14213900  1
  Li  Li1  1  0.00000000  0.00000000  0.00000000  1
  Li  Li2  1  0.85786100  0.85786100  0.85786100  1
  Mn  Mn3  1  0.50000000  0.50000000  0.50000000  1
  Mn  Mn4  1  0.50000000  0.00000000  0.50000000  1
  Mn  Mn5  1  0.00000000  0.50000000  0.50000000  1
  Mn  Mn6  1  0.50000000  0.50000000  0.00000000  1
  O  O7  1  0.71851100  0.24499200  0.24499200  1
  O  O8  1  0.24499200  0.24499200  0.71851100  1
  O  O9  1  0.24499200  0.71851100  0.24499200  1
  O  O10  1  0.26525500  0.26525500  0.26525500  1
  O  O11  1  0.75500800  0.28148900  0.75500800  1
  O  O12  1  0.73474500  0.73474500  0.73474500  1
  O  O13  1  0.75500800  0.75500800  0.28148900  1
  O  O14  1  0.28148900  0.75500800  0.75500800  1
