# generated using pymatgen
data_Li2VCr(P2O7)2
_symmetry_space_group_name_H-M   'P 1'
_cell_length_a   9.55738348
_cell_length_b   9.55914187
_cell_length_c   7.15166997
_cell_angle_alpha   79.27265645
_cell_angle_beta   79.29855681
_cell_angle_gamma   118.75547659
_symmetry_Int_Tables_number   1
_chemical_formula_structural   Li2VCr(P2O7)2
_chemical_formula_sum   'Li4 V2 Cr2 P8 O28'
_cell_volume   533.28966937
_cell_formula_units_Z   2
loop_
 _symmetry_equiv_pos_site_id
 _symmetry_equiv_pos_as_xyz
  1  'x, y, z'
loop_
 _atom_site_type_symbol
 _atom_site_label
 _atom_site_symmetry_multiplicity
 _atom_site_fract_x
 _atom_site_fract_y
 _atom_site_fract_z
 _atom_site_occupancy
  Li  Li0  1  0.06761360  0.43048567  0.32399074  1
  Li  Li1  1  0.31876819  0.18163155  0.67644207  1
  Li  Li2  1  0.56924138  0.93199609  0.32324084  1
  Li  Li3  1  0.81872058  0.68155436  0.67651910  1
  V  V4  1  0.75682306  0.75651633  0.27079444  1
  V  V5  1  0.49382003  0.99311490  0.72917139  1
  Cr  Cr6  1  0.25671993  0.25663104  0.27228634  1
  Cr  Cr7  1  0.99314269  0.49351496  0.72790888  1
  P  P8  1  0.34759979  0.52822142  0.52309698  1
  P  P9  1  0.85003449  0.02968611  0.52133519  1
  P  P10  1  0.67139627  0.45430341  0.08588031  1
  P  P11  1  0.17169722  0.95656986  0.08592078  1
  P  P12  1  0.29366420  0.57676245  0.91475234  1
  P  P13  1  0.79567552  0.08014955  0.91324990  1
  P  P14  1  0.22072353  0.90126753  0.47711745  1
  P  P15  1  0.72133917  0.40109919  0.47839247  1
  O  O16  1  0.19055716  0.12539967  0.08425543  1
  O  O17  1  0.01575947  0.19380554  0.39321080  1
  O  O18  1  0.20755345  0.05356461  0.49006402  1
  O  O19  1  0.27929506  0.47277621  0.11617801  1
  O  O20  1  0.48866151  0.31209016  0.14552575  1
  O  O21  1  0.33281716  0.37104376  0.48138541  1
  O  O22  1  0.19600422  0.54245612  0.50983420  1
  O  O23  1  0.69936406  0.04333843  0.50505419  1
  O  O24  1  0.55650973  0.23459489  0.60567733  1
  O  O25  1  0.05657555  0.73619790  0.60664328  1
  O  O26  1  0.62527807  0.06004832  0.91723657  1
  O  O27  1  0.12490088  0.55842010  0.91712560  1
  O  O28  1  0.34478284  0.49591559  0.75343294  1
  O  O29  1  0.75362348  0.40524399  0.24712282  1
  O  O30  1  0.25346974  0.90520714  0.24628847  1
  O  O31  1  0.69108103  0.62446088  0.08096648  1
  O  O32  1  0.51335715  0.69308387  0.39440820  1
  O  O33  1  0.70668348  0.55104587  0.49505093  1
  O  O34  1  0.87910385  0.41611290  0.51892324  1
  O  O35  1  0.37901390  0.91745188  0.51806128  1
  O  O36  1  0.93820510  0.26281538  0.85264825  1
  O  O37  1  0.43732358  0.75983679  0.85314680  1
  O  O38  1  0.27400468  0.97132481  0.88443255  1
  O  O39  1  0.77738363  0.47016086  0.88474428  1
  O  O40  1  0.77910980  0.97561473  0.11449066  1
  O  O41  1  0.98863435  0.81224645  0.14880979  1
  O  O42  1  0.83358508  0.87078345  0.48203014  1
  O  O43  1  0.84480334  0.99703025  0.75315234  1
