# generated using pymatgen
data_LiVPO5
_symmetry_space_group_name_H-M   'P 1'
_cell_length_a   9.12418200
_cell_length_b   5.16209400
_cell_length_c   17.74307757
_cell_angle_alpha   88.65788700
_cell_angle_beta   90.00000000
_cell_angle_gamma   90.00000000
_symmetry_Int_Tables_number   1
_chemical_formula_structural   LiVPO5
_chemical_formula_sum   'Li8 V8 P8 O40'
_cell_volume   835.46765389
_cell_formula_units_Z   8
loop_
 _symmetry_equiv_pos_site_id
 _symmetry_equiv_pos_as_xyz
  1  'x, y, z'
loop_
 _atom_site_type_symbol
 _atom_site_label
 _atom_site_symmetry_multiplicity
 _atom_site_fract_x
 _atom_site_fract_y
 _atom_site_fract_z
 _atom_site_occupancy
  Li  Li0  1  0.27318400  0.63431800  0.60922200  1
  Li  Li1  1  0.94966200  0.58741600  0.71018000  1
  Li  Li2  1  0.44966200  0.41258400  0.78982000  1
  Li  Li3  1  0.77318400  0.36568200  0.89077800  1
  Li  Li4  1  0.22681600  0.63431800  0.10922200  1
  Li  Li5  1  0.55033800  0.58741600  0.21018000  1
  Li  Li6  1  0.05033800  0.41258400  0.28982000  1
  Li  Li7  1  0.72681600  0.36568200  0.39077800  1
  V  V8  1  0.62351900  0.50169700  0.62457000  1
  V  V9  1  0.08081800  0.10688900  0.63378500  1
  V  V10  1  0.58081800  0.89311100  0.86621500  1
  V  V11  1  0.12351900  0.49830300  0.87543000  1
  V  V12  1  0.87648100  0.50169700  0.12457000  1
  V  V13  1  0.41918200  0.10688900  0.13378500  1
  V  V14  1  0.91918200  0.89311100  0.36621500  1
  V  V15  1  0.37648100  0.49830300  0.37543000  1
  P  P16  1  0.76861900  0.00467900  0.53256100  1
  P  P17  1  0.41286800  0.00249300  0.69609500  1
  P  P18  1  0.91286800  0.99750700  0.80390500  1
  P  P19  1  0.26861900  0.99532100  0.96743900  1
  P  P20  1  0.73138100  0.00467900  0.03256100  1
  P  P21  1  0.08713200  0.00249300  0.19609500  1
  P  P22  1  0.58713200  0.99750700  0.30390500  1
  P  P23  1  0.23138100  0.99532100  0.46743900  1
  O  O24  1  0.68053800  0.75443700  0.54644300  1
  O  O25  1  0.68163100  0.24993500  0.55069300  1
  O  O26  1  0.20667600  0.96909700  0.55474600  1
  O  O27  1  0.91507400  0.99059500  0.57471600  1
  O  O28  1  0.09054700  0.43110700  0.63677500  1
  O  O29  1  0.46048300  0.25911400  0.65705900  1
  O  O30  1  0.46742400  0.75227500  0.65902900  1
  O  O31  1  0.74951200  0.50032600  0.69055300  1
  O  O32  1  0.24325000  0.98135000  0.69684000  1
  O  O33  1  0.96155200  0.98120800  0.72048800  1
  O  O34  1  0.46155200  0.01879200  0.77951200  1
  O  O35  1  0.74325000  0.01865000  0.80316000  1
  O  O36  1  0.24951200  0.49967400  0.80944700  1
  O  O37  1  0.96742400  0.24772500  0.84097100  1
  O  O38  1  0.96048300  0.74088600  0.84294100  1
  O  O39  1  0.59054700  0.56889300  0.86322500  1
  O  O40  1  0.41507400  0.00940500  0.92528400  1
  O  O41  1  0.70667600  0.03090300  0.94525400  1
  O  O42  1  0.18163100  0.75006500  0.94930700  1
  O  O43  1  0.18053800  0.24556300  0.95355700  1
  O  O44  1  0.81946200  0.75443700  0.04644300  1
  O  O45  1  0.81836900  0.24993500  0.05069300  1
  O  O46  1  0.29332400  0.96909700  0.05474600  1
  O  O47  1  0.58492600  0.99059500  0.07471600  1
  O  O48  1  0.40945300  0.43110700  0.13677500  1
  O  O49  1  0.03951700  0.25911400  0.15705900  1
  O  O50  1  0.03257600  0.75227500  0.15902900  1
  O  O51  1  0.75048800  0.50032600  0.19055300  1
  O  O52  1  0.25675000  0.98135000  0.19684000  1
  O  O53  1  0.53844800  0.98120800  0.22048800  1
  O  O54  1  0.03844800  0.01879200  0.27951200  1
  O  O55  1  0.75675000  0.01865000  0.30316000  1
  O  O56  1  0.25048800  0.49967400  0.30944700  1
  O  O57  1  0.53257600  0.24772500  0.34097100  1
  O  O58  1  0.53951700  0.74088600  0.34294100  1
  O  O59  1  0.90945300  0.56889300  0.36322500  1
  O  O60  1  0.08492600  0.00940500  0.42528400  1
  O  O61  1  0.79332400  0.03090300  0.44525400  1
  O  O62  1  0.31836900  0.75006500  0.44930700  1
  O  O63  1  0.31946200  0.24556300  0.45355700  1
