# generated using pymatgen
data_Li9V12Te7O48
_symmetry_space_group_name_H-M   'P 1'
_cell_length_a   5.40980000
_cell_length_b   10.58900770
_cell_length_c   18.18989757
_cell_angle_alpha   91.06158252
_cell_angle_beta   90.65496950
_cell_angle_gamma   91.01689176
_symmetry_Int_Tables_number   1
_chemical_formula_structural   Li9V12Te7O48
_chemical_formula_sum   'Li9 V12 Te7 O48'
_cell_volume   1041.58261366
_cell_formula_units_Z   1
loop_
 _symmetry_equiv_pos_site_id
 _symmetry_equiv_pos_as_xyz
  1  'x, y, z'
loop_
 _atom_site_type_symbol
 _atom_site_label
 _atom_site_symmetry_multiplicity
 _atom_site_fract_x
 _atom_site_fract_y
 _atom_site_fract_z
 _atom_site_occupancy
  Li  Li0  1  0.25361300  0.42354400  0.95410200  1
  Li  Li1  1  0.21501400  0.74410600  0.29720300  1
  Li  Li2  1  0.27209700  0.27504000  0.78923300  1
  Li  Li3  1  0.25432100  0.57915900  0.46583000  1
  Li  Li4  1  0.42269400  0.75208100  0.75655100  1
  Li  Li5  1  0.57707400  0.24793700  0.24176000  1
  Li  Li6  1  0.75346800  0.07138700  0.54074400  1
  Li  Li7  1  0.72586500  0.73321100  0.21667300  1
  Li  Li8  1  0.78441800  0.24450600  0.70306600  1
  V  V9  1  0.22103800  0.03114900  0.65555800  1
  V  V10  1  0.23980600  0.47646200  0.65611300  1
  V  V11  1  0.24034300  0.51736000  0.15825700  1
  V  V12  1  0.26874100  0.97192700  0.16181200  1
  V  V13  1  0.72519900  0.46825200  0.84220400  1
  V  V14  1  0.70061600  0.03967800  0.83792400  1
  V  V15  1  0.78728000  0.53203700  0.34871400  1
  V  V16  1  0.74919000  0.97073500  0.34201700  1
  V  V17  1  0.26800500  0.74050700  0.93884100  1
  V  V18  1  0.26070700  0.24847400  0.44432900  1
  V  V19  1  0.73149700  0.74739800  0.55983400  1
  V  V20  1  0.83737700  0.27257400  0.06218800  1
  Te  Te21  1  0.07358000  0.25312500  0.26254200  1
  Te  Te22  1  0.23556200  0.09260400  0.95919200  1
  Te  Te23  1  0.27059200  0.93156800  0.47458600  1
  Te  Te24  1  0.72719300  0.43392000  0.52756100  1
  Te  Te25  1  0.75019500  0.55548800  0.02493800  1
  Te  Te26  1  0.74201700  0.93787000  0.03909300  1
  Te  Te27  1  0.92532900  0.74550900  0.74505900  1
  O  O28  1  0.08492200  0.25129700  0.98394700  1
  O  O29  1  0.05403300  0.60957000  0.37115100  1
  O  O30  1  0.02212700  0.89695300  0.36024000  1
  O  O31  1  0.06767500  0.61797900  0.20656800  1
  O  O32  1  0.08990500  0.87377100  0.20770900  1
  O  O33  1  0.09732600  0.10696000  0.46577400  1
  O  O34  1  0.08203400  0.37575600  0.46393600  1
  O  O35  1  0.07740700  0.02006200  0.08482100  1
  O  O36  1  0.05066700  0.45539500  0.07723100  1
  O  O37  1  0.19782500  0.74319500  0.84656800  1
  O  O38  1  0.16849100  0.62522100  0.70468100  1
  O  O39  1  0.16936300  0.88194100  0.69899800  1
  O  O40  1  0.34049300  0.10900200  0.20992800  1
  O  O41  1  0.31599700  0.38333500  0.21282300  1
  O  O42  1  0.31877200  0.25207700  0.34727700  1
  O  O43  1  0.40310700  0.99835000  0.56909400  1
  O  O44  1  0.41623200  0.50432800  0.57065300  1
  O  O45  1  0.44848000  0.88004800  0.96346100  1
  O  O46  1  0.43784700  0.60384600  0.96369800  1
  O  O47  1  0.40170600  0.12413300  0.71011700  1
  O  O48  1  0.41763900  0.38607100  0.70678800  1
  O  O49  1  0.41071800  0.12647800  0.86807700  1
  O  O50  1  0.45230200  0.39656000  0.86143200  1
  O  O51  1  0.46221500  0.75055400  0.50649700  1
  O  O52  1  0.53202500  0.25309400  0.49606500  1
  O  O53  1  0.50751100  0.59563600  0.13413800  1
  O  O54  1  0.55088000  0.89453100  0.12602300  1
  O  O55  1  0.60487000  0.62254600  0.29870100  1
  O  O56  1  0.57530500  0.87907500  0.28514400  1
  O  O57  1  0.63155800  0.11303600  0.03517100  1
  O  O58  1  0.59758300  0.38512600  0.02857100  1
  O  O59  1  0.57528900  0.99655100  0.42937900  1
  O  O60  1  0.60318000  0.49424200  0.43188200  1
  O  O61  1  0.68192400  0.74026400  0.65750900  1
  O  O62  1  0.68481200  0.61368200  0.79135100  1
  O  O63  1  0.63812200  0.89695100  0.79806700  1
  O  O64  1  0.80334600  0.12235000  0.30283600  1
  O  O65  1  0.83995500  0.38276200  0.29868900  1
  O  O66  1  0.82230200  0.25223400  0.15421100  1
  O  O67  1  0.90040000  0.50270300  0.92999900  1
  O  O68  1  0.91138400  0.01462500  0.91801200  1
  O  O69  1  0.90425500  0.61044600  0.53516300  1
  O  O70  1  0.90762900  0.87676300  0.54162800  1
  O  O71  1  0.88144000  0.12251800  0.78437900  1
  O  O72  1  0.90724900  0.37148700  0.79442300  1
  O  O73  1  0.95908600  0.10746300  0.63204400  1
  O  O74  1  0.97039100  0.39565900  0.63823400  1
  O  O75  1  0.00939300  0.74575800  0.99098900  1
