# generated using pymatgen
data_Li3TiV3O8
_symmetry_space_group_name_H-M   'P 1'
_cell_length_a   4.08211627
_cell_length_b   6.51164104
_cell_length_c   13.00043072
_cell_angle_alpha   102.12223000
_cell_angle_beta   99.02423052
_cell_angle_gamma   71.75153237
_symmetry_Int_Tables_number   1
_chemical_formula_structural   Li3TiV3O8
_chemical_formula_sum   'Li6 Ti2 V6 O16'
_cell_volume   319.32268752
_cell_formula_units_Z   2
loop_
 _symmetry_equiv_pos_site_id
 _symmetry_equiv_pos_as_xyz
  1  'x, y, z'
loop_
 _atom_site_type_symbol
 _atom_site_label
 _atom_site_symmetry_multiplicity
 _atom_site_fract_x
 _atom_site_fract_y
 _atom_site_fract_z
 _atom_site_occupancy
  Li  Li0  1  0.93906800  0.43830300  0.32051900  1
  Li  Li1  1  0.93915800  0.93818000  0.82053000  1
  Li  Li2  1  0.17520400  0.64860200  0.00219200  1
  Li  Li3  1  0.17514800  0.14885900  0.50230500  1
  Li  Li4  1  0.06044800  0.05568300  0.17985600  1
  Li  Li5  1  0.06048800  0.55566900  0.67989700  1
  Ti  Ti6  1  0.29590200  0.76104200  0.35665400  1
  Ti  Ti7  1  0.29564300  0.26103400  0.85655900  1
  V  V8  1  0.39046500  0.87057000  0.65440300  1
  V  V9  1  0.71000500  0.72573000  0.14924600  1
  V  V10  1  0.60964900  0.62437100  0.84765500  1
  V  V11  1  0.39071000  0.37049500  0.15442500  1
  V  V12  1  0.71010500  0.22563500  0.64929300  1
  V  V13  1  0.60971800  0.12441200  0.34773100  1
  O  O14  1  0.33888500  0.81205300  0.49428800  1
  O  O15  1  0.33901400  0.31167200  0.99412800  1
  O  O16  1  0.43454800  0.44912100  0.32201100  1
  O  O17  1  0.43447900  0.94893300  0.82175600  1
  O  O18  1  0.88208500  0.39735500  0.16494400  1
  O  O19  1  0.88202200  0.89721600  0.66490100  1
  O  O20  1  0.22480400  0.71092300  0.16418600  1
  O  O21  1  0.22474200  0.21126700  0.66427700  1
  O  O22  1  0.77413900  0.77435500  0.32639700  1
  O  O23  1  0.77422100  0.27417400  0.82633400  1
  O  O24  1  0.12278300  0.09242100  0.34183000  1
  O  O25  1  0.12281100  0.59248700  0.84188800  1
  O  O26  1  0.56075900  0.05992500  0.18491200  1
  O  O27  1  0.56092600  0.55971900  0.68500100  1
  O  O28  1  0.64930400  0.69825800  0.00002600  1
  O  O29  1  0.64938000  0.19812900  0.50005800  1
