# generated using pymatgen
data_LiTiO2
_symmetry_space_group_name_H-M   'P 1'
_cell_length_a   5.90019185
_cell_length_b   5.90019185
_cell_length_c   5.90019185
_cell_angle_alpha   120.58893649
_cell_angle_beta   120.20294162
_cell_angle_gamma   89.31589963
_symmetry_Int_Tables_number   1
_chemical_formula_structural   LiTiO2
_chemical_formula_sum   'Li4 Ti4 O8'
_cell_volume   144.35661836
_cell_formula_units_Z   4
loop_
 _symmetry_equiv_pos_site_id
 _symmetry_equiv_pos_as_xyz
  1  'x, y, z'
loop_
 _atom_site_type_symbol
 _atom_site_label
 _atom_site_symmetry_multiplicity
 _atom_site_fract_x
 _atom_site_fract_y
 _atom_site_fract_z
 _atom_site_occupancy
  Li  Li0  1  0.00000000  0.50000000  0.50000000  1
  Li  Li1  1  0.00000000  0.50000000  0.00000000  1
  Li  Li2  1  0.00000000  0.00000000  0.50000000  1
  Li  Li3  1  0.50000000  0.00000000  0.50000000  1
  Ti  Ti4  1  0.00000000  0.00000000  0.00000000  1
  Ti  Ti5  1  0.50000000  0.00000000  0.00000000  1
  Ti  Ti6  1  0.50000000  0.50000000  0.50000000  1
  Ti  Ti7  1  0.50000000  0.50000000  0.00000000  1
  O  O8  1  0.72744300  0.25000000  0.47744300  1
  O  O9  1  0.25038800  0.25038800  0.50000000  1
  O  O10  1  0.25038800  0.75038800  0.00000000  1
  O  O11  1  0.27255700  0.75000000  0.52255700  1
  O  O12  1  0.75792700  0.75000000  0.00792700  1
  O  O13  1  0.74961200  0.74961200  0.50000000  1
  O  O14  1  0.74961200  0.24961200  0.00000000  1
  O  O15  1  0.24207300  0.25000000  0.99207300  1
