# generated using pymatgen
data_Li6V3P8O29
_symmetry_space_group_name_H-M   'P 1'
_cell_length_a   9.79783800
_cell_length_b   9.80119176
_cell_length_c   13.96271938
_cell_angle_alpha   90.26640260
_cell_angle_beta   89.98065208
_cell_angle_gamma   119.91002836
_symmetry_Int_Tables_number   1
_chemical_formula_structural   Li6V3P8O29
_chemical_formula_sum   'Li12 V6 P16 O58'
_cell_volume   1162.24310383
_cell_formula_units_Z   2
loop_
 _symmetry_equiv_pos_site_id
 _symmetry_equiv_pos_as_xyz
  1  'x, y, z'
loop_
 _atom_site_type_symbol
 _atom_site_label
 _atom_site_symmetry_multiplicity
 _atom_site_fract_x
 _atom_site_fract_y
 _atom_site_fract_z
 _atom_site_occupancy
  Li  Li0  1  0.67055900  0.90707800  0.93843800  1
  Li  Li1  1  0.66637700  0.76206400  0.43810000  1
  Li  Li2  1  0.24028300  0.90595800  0.43977900  1
  Li  Li3  1  0.33537800  0.66095500  0.11437500  1
  Li  Li4  1  0.08837400  0.76597300  0.93869700  1
  Li  Li5  1  0.23135600  0.32422300  0.93647600  1
  Li  Li6  1  0.90253200  0.66714300  0.56004100  1
  Li  Li7  1  0.09964700  0.33899300  0.43959700  1
  Li  Li8  1  0.76622100  0.09998200  0.56021500  1
  Li  Li9  1  0.33216600  0.09907000  0.05770300  1
  Li  Li10  1  0.95582900  0.98879100  0.00380000  1
  Li  Li11  1  0.05403300  0.03741600  0.50567500  1
  V  V12  1  0.99970300  0.56251300  0.75317300  1
  V  V13  1  0.99704200  0.43477600  0.24612700  1
  V  V14  1  0.56284900  0.55963300  0.25053400  1
  V  V15  1  0.43901800  0.43655300  0.74855200  1
  V  V16  1  0.56584300  0.00029200  0.74962000  1
  V  V17  1  0.43815100  0.00148200  0.25217000  1
  P  P18  1  0.68469800  0.90522500  0.15742900  1
  P  P19  1  0.68688700  0.77223100  0.65513500  1
  P  P20  1  0.22431700  0.90991700  0.65768000  1
  P  P21  1  0.33544500  0.66642100  0.87258700  1
  P  P22  1  0.33124800  0.66592500  0.37016900  1
  P  P23  1  0.09241300  0.77860500  0.15605500  1
  P  P24  1  0.91652100  0.69084200  0.34164700  1
  P  P25  1  0.22445700  0.31326100  0.15546700  1
  P  P26  1  0.77868900  0.69671300  0.84084300  1
  P  P27  1  0.08639100  0.31213800  0.65731800  1
  P  P28  1  0.91395800  0.22023600  0.84218900  1
  P  P29  1  0.66913200  0.33501700  0.63192100  1
  P  P30  1  0.66320000  0.33061600  0.12989800  1
  P  P31  1  0.77627000  0.08628800  0.34172300  1
  P  P32  1  0.30447000  0.22244900  0.34221800  1
  P  P33  1  0.31245600  0.08711100  0.84167700  1
  O  O34  1  0.77479400  0.99756200  0.43065800  1
  O  O35  1  0.66609900  0.91908000  0.65818200  1
  O  O36  1  0.79936700  0.80773300  0.92118700  1
  O  O37  1  0.65729200  0.73807800  0.16369700  1
  O  O38  1  0.52158900  0.89498600  0.17099700  1
  O  O39  1  0.48913000  0.81093300  0.83354500  1
  O  O40  1  0.38176900  0.91119800  0.67136600  1
  O  O41  1  0.22515400  0.99855800  0.93056400  1
  O  O42  1  0.26056700  0.92399700  0.16004700  1
  O  O43  1  0.48574200  0.67512400  0.33018500  1
  O  O44  1  0.52809000  0.62198700  0.67003000  1
  O  O45  1  0.32373100  0.81264900  0.32943000  1
  O  O46  1  0.33755600  0.66542200  0.98079900  1
  O  O47  1  0.32695900  0.66621500  0.47715800  1
  O  O48  1  0.19038300  0.67663300  0.83502500  1
  O  O49  1  0.37347500  0.47850000  0.16980300  1
  O  O50  1  0.32557500  0.51229000  0.83184300  1
  O  O51  1  0.08250100  0.74011200  0.66170900  1
  O  O52  1  0.00246200  0.79600500  0.24793600  1
  O  O53  1  0.00502500  0.78253700  0.43034000  1
  O  O54  1  0.01168000  0.78174200  0.06589400  1
  O  O55  1  0.10854600  0.62902500  0.16868000  1
  O  O56  1  0.18669200  0.51363300  0.32661900  1
  O  O57  1  0.91659000  0.66028600  0.84075100  1
  O  O58  1  0.08227500  0.46700900  0.67233200  1
  O  O59  1  0.25399800  0.34322700  0.66226900  1
  O  O60  1  0.80361300  0.79319900  0.74179800  1
  O  O61  1  0.76970800  0.77049400  0.56385600  1
  O  O62  1  0.19369900  0.20675200  0.42153200  1
  O  O63  1  0.74868700  0.66582700  0.34174400  1
  O  O64  1  0.91705600  0.53546800  0.33070400  1
  O  O65  1  0.08154500  0.33596400  0.15910600  1
  O  O66  1  0.81402600  0.48962300  0.67254300  1
  O  O67  1  0.91767500  0.37770300  0.83484400  1
  O  O68  1  0.00355000  0.20173300  0.92342000  1
  O  O69  1  0.00339100  0.22778100  0.56520700  1
  O  O70  1  0.98598800  0.19603800  0.74285000  1
  O  O71  1  0.91683600  0.25461500  0.34214400  1
  O  O72  1  0.65873100  0.47329400  0.17883700  1
  O  O73  1  0.61955000  0.54498100  0.83536800  1
  O  O74  1  0.81328100  0.33626700  0.17514200  1
  O  O75  1  0.65731200  0.32823600  0.02385400  1
  O  O76  1  0.67041900  0.33716200  0.52518800  1
  O  O77  1  0.67778400  0.18851300  0.67038000  1
  O  O78  1  0.45606900  0.38280700  0.33744400  1
  O  O79  1  0.52115300  0.33159800  0.67987500  1
  O  O80  1  0.74052800  0.08160600  0.84089000  1
  O  O81  1  0.79546600  0.00176700  0.24767600  1
  O  O82  1  0.76757900  0.98544400  0.06671500  1
  O  O83  1  0.61912600  0.08597800  0.33070800  1
  O  O84  1  0.51417900  0.18113900  0.17186100  1
  O  O85  1  0.46918300  0.09061500  0.82766700  1
  O  O86  1  0.33468700  0.25342300  0.84116100  1
  O  O87  1  0.23177900  0.23215600  0.06459700  1
  O  O88  1  0.21160900  0.20037600  0.24183100  1
  O  O89  1  0.33713700  0.08397000  0.34368000  1
  O  O90  1  0.21546500  0.98708000  0.56689100  1
  O  O91  1  0.20332600  0.99884100  0.74888700  1
