# generated using pymatgen
data_Li3MnFeCo(PO4)3
_symmetry_space_group_name_H-M   'P 1'
_cell_length_a   10.47933939
_cell_length_b   6.08136900
_cell_length_c   14.33390551
_cell_angle_alpha   90.00000000
_cell_angle_beta   89.60521274
_cell_angle_gamma   90.00000000
_symmetry_Int_Tables_number   1
_chemical_formula_structural   Li3MnFeCo(PO4)3
_chemical_formula_sum   'Li12 Mn4 Fe4 Co4 P12 O48'
_cell_volume   913.45990535
_cell_formula_units_Z   4
loop_
 _symmetry_equiv_pos_site_id
 _symmetry_equiv_pos_as_xyz
  1  'x, y, z'
loop_
 _atom_site_type_symbol
 _atom_site_label
 _atom_site_symmetry_multiplicity
 _atom_site_fract_x
 _atom_site_fract_y
 _atom_site_fract_z
 _atom_site_occupancy
  Li  Li0  1  0.99926800  0.49979500  0.66532800  1
  Li  Li1  1  0.99619300  0.99772700  0.00099700  1
  Li  Li2  1  0.99619300  0.50227300  0.00099700  1
  Li  Li3  1  0.99818300  0.00104700  0.33343400  1
  Li  Li4  1  0.99818300  0.49895300  0.33343400  1
  Li  Li5  1  0.99926800  0.00020500  0.66532800  1
  Li  Li6  1  0.50197400  0.99991300  0.50014200  1
  Li  Li7  1  0.50197400  0.50008700  0.50014200  1
  Li  Li8  1  0.50204900  0.99939600  0.16636500  1
  Li  Li9  1  0.50204900  0.50060400  0.16636500  1
  Li  Li10  1  0.50174600  0.99935100  0.83324100  1
  Li  Li11  1  0.50174600  0.50064900  0.83324100  1
  Mn  Mn12  1  0.21799000  0.75000000  0.16150400  1
  Mn  Mn13  1  0.21816600  0.75000000  0.82735700  1
  Mn  Mn14  1  0.28169900  0.25000000  0.99480900  1
  Mn  Mn15  1  0.28393900  0.25000000  0.33013900  1
  Fe  Fe16  1  0.21778400  0.75000000  0.49558000  1
  Fe  Fe17  1  0.28001400  0.25000000  0.66160700  1
  Fe  Fe18  1  0.72082200  0.75000000  0.00641200  1
  Fe  Fe19  1  0.71945600  0.75000000  0.33879800  1
  Co  Co20  1  0.71766200  0.75000000  0.67004500  1
  Co  Co21  1  0.78226000  0.25000000  0.83834700  1
  Co  Co22  1  0.77976900  0.25000000  0.50522400  1
  Co  Co23  1  0.77833300  0.25000000  0.16981900  1
  P  P24  1  0.09292600  0.25000000  0.80530600  1
  P  P25  1  0.09015600  0.25000000  0.13929400  1
  P  P26  1  0.09327100  0.25000000  0.47432600  1
  P  P27  1  0.40636800  0.75000000  0.30603300  1
  P  P28  1  0.40521000  0.75000000  0.63859100  1
  P  P29  1  0.40710500  0.75000000  0.97205300  1
  P  P30  1  0.59928100  0.25000000  0.36055100  1
  P  P31  1  0.59849100  0.25000000  0.02821500  1
  P  P32  1  0.59840500  0.25000000  0.69347900  1
  P  P33  1  0.90223500  0.75000000  0.86000100  1
  P  P34  1  0.90264500  0.75000000  0.19441800  1
  P  P35  1  0.90250300  0.75000000  0.52667300  1
  O  O36  1  0.04018900  0.75000000  0.23509200  1
  O  O37  1  0.04018800  0.75000000  0.56707600  1
  O  O38  1  0.03931600  0.75000000  0.90136700  1
  O  O39  1  0.09699600  0.25000000  0.58126100  1
  O  O40  1  0.09781000  0.25000000  0.91226700  1
  O  O41  1  0.09569900  0.25000000  0.24670900  1
  O  O42  1  0.16001700  0.04774000  0.09389400  1
  O  O43  1  0.16001700  0.45226000  0.09389400  1
  O  O44  1  0.16366600  0.04656200  0.42977400  1
  O  O45  1  0.16366600  0.45343800  0.42977400  1
  O  O46  1  0.16367100  0.04917800  0.75906000  1
  O  O47  1  0.16367100  0.45082200  0.75906000  1
  O  O48  1  0.33602900  0.54652000  0.59379600  1
  O  O49  1  0.33602900  0.95348000  0.59379600  1
  O  O50  1  0.33790700  0.54696900  0.26104000  1
  O  O51  1  0.33790700  0.95303100  0.26104000  1
  O  O52  1  0.33741900  0.54740400  0.92736500  1
  O  O53  1  0.33741900  0.95259600  0.92736500  1
  O  O54  1  0.40054800  0.75000000  0.41380500  1
  O  O55  1  0.40163400  0.75000000  0.07946500  1
  O  O56  1  0.40026100  0.75000000  0.74562000  1
  O  O57  1  0.46237200  0.25000000  0.40239500  1
  O  O58  1  0.46058400  0.25000000  0.06926200  1
  O  O59  1  0.45986500  0.25000000  0.73335500  1
  O  O60  1  0.54500300  0.75000000  0.26608800  1
  O  O61  1  0.54500100  0.75000000  0.93184500  1
  O  O62  1  0.54404400  0.75000000  0.59817300  1
  O  O63  1  0.60380200  0.25000000  0.25325000  1
  O  O64  1  0.60362300  0.25000000  0.92069500  1
  O  O65  1  0.60302500  0.25000000  0.58585700  1
  O  O66  1  0.66798700  0.04700100  0.07371800  1
  O  O67  1  0.66890700  0.04652900  0.40592100  1
  O  O68  1  0.66798500  0.04614700  0.73849500  1
  O  O69  1  0.66798500  0.45385300  0.73849500  1
  O  O70  1  0.66798700  0.45299900  0.07371800  1
  O  O71  1  0.66890700  0.45347100  0.40592100  1
  O  O72  1  0.83201100  0.54666900  0.90559200  1
  O  O73  1  0.83201100  0.95333100  0.90559200  1
  O  O74  1  0.83364300  0.54548700  0.23922400  1
  O  O75  1  0.83214000  0.54692800  0.57237600  1
  O  O76  1  0.83364300  0.95451300  0.23922400  1
  O  O77  1  0.83214000  0.95307200  0.57237600  1
  O  O78  1  0.89925400  0.75000000  0.75270300  1
  O  O79  1  0.90030400  0.75000000  0.41961300  1
  O  O80  1  0.90079900  0.75000000  0.08693500  1
  O  O81  1  0.95462800  0.25000000  0.76598300  1
  O  O82  1  0.95178700  0.25000000  0.09897700  1
  O  O83  1  0.95518500  0.25000000  0.43409100  1
