# generated using pymatgen
data_Li5BO4
_symmetry_space_group_name_H-M   'P 1'
_cell_length_a   4.96069400
_cell_length_b   8.64407900
_cell_length_c   15.18050200
_cell_angle_alpha   90.00000000
_cell_angle_beta   90.00000000
_cell_angle_gamma   90.00000000
_symmetry_Int_Tables_number   1
_chemical_formula_structural   Li5BO4
_chemical_formula_sum   'Li40 B8 O32'
_cell_volume   650.94950209
_cell_formula_units_Z   8
loop_
 _symmetry_equiv_pos_site_id
 _symmetry_equiv_pos_as_xyz
  1  'x, y, z'
loop_
 _atom_site_type_symbol
 _atom_site_label
 _atom_site_symmetry_multiplicity
 _atom_site_fract_x
 _atom_site_fract_y
 _atom_site_fract_z
 _atom_site_occupancy
  Li  Li0  1  0.91847500  0.94442500  0.43562800  1
  Li  Li1  1  0.58152500  0.94442500  0.93562800  1
  Li  Li2  1  0.39984600  0.92435400  0.75132300  1
  Li  Li3  1  0.10015400  0.92435400  0.25132300  1
  Li  Li4  1  0.08768200  0.84016000  0.00403700  1
  Li  Li5  1  0.41231800  0.84016000  0.50403700  1
  Li  Li6  1  0.89628600  0.82733300  0.82778300  1
  Li  Li7  1  0.60371400  0.82733300  0.32778300  1
  Li  Li8  1  0.42283800  0.79856400  0.13958000  1
  Li  Li9  1  0.07716200  0.79856400  0.63958000  1
  Li  Li10  1  0.92283800  0.70143600  0.13958000  1
  Li  Li11  1  0.57716200  0.70143600  0.63958000  1
  Li  Li12  1  0.39628600  0.67266700  0.82778300  1
  Li  Li13  1  0.10371400  0.67266700  0.32778300  1
  Li  Li14  1  0.58768200  0.65984000  0.00403700  1
  Li  Li15  1  0.91231800  0.65984000  0.50403700  1
  Li  Li16  1  0.60015400  0.57564600  0.25132300  1
  Li  Li17  1  0.89984600  0.57564600  0.75132300  1
  Li  Li18  1  0.08152500  0.55557500  0.93562800  1
  Li  Li19  1  0.41847500  0.55557500  0.43562800  1
  Li  Li20  1  0.91847500  0.44442500  0.06437200  1
  Li  Li21  1  0.58152500  0.44442500  0.56437200  1
  Li  Li22  1  0.10015400  0.42435400  0.24867700  1
  Li  Li23  1  0.39984600  0.42435400  0.74867700  1
  Li  Li24  1  0.41231800  0.34016000  0.99596300  1
  Li  Li25  1  0.08768200  0.34016000  0.49596300  1
  Li  Li26  1  0.60371400  0.32733300  0.17221700  1
  Li  Li27  1  0.89628600  0.32733300  0.67221700  1
  Li  Li28  1  0.42283800  0.29856400  0.36042000  1
  Li  Li29  1  0.07716200  0.29856400  0.86042000  1
  Li  Li30  1  0.92283800  0.20143600  0.36042000  1
  Li  Li31  1  0.57716200  0.20143600  0.86042000  1
  Li  Li32  1  0.39628600  0.17266700  0.67221700  1
  Li  Li33  1  0.10371400  0.17266700  0.17221700  1
  Li  Li34  1  0.58768200  0.15984000  0.49596300  1
  Li  Li35  1  0.91231800  0.15984000  0.99596300  1
  Li  Li36  1  0.89984600  0.07564600  0.74867700  1
  Li  Li37  1  0.60015400  0.07564600  0.24867700  1
  Li  Li38  1  0.08152500  0.05557500  0.56437200  1
  Li  Li39  1  0.41847500  0.05557500  0.06437200  1
  B  B40  1  0.82475500  0.95986400  0.12503100  1
  B  B41  1  0.67524500  0.95986400  0.62503100  1
  B  B42  1  0.32475500  0.54013600  0.12503100  1
  B  B43  1  0.17524500  0.54013600  0.62503100  1
  B  B44  1  0.82475500  0.45986400  0.37496900  1
  B  B45  1  0.67524500  0.45986400  0.87496900  1
  B  B46  1  0.32475500  0.04013600  0.37496900  1
  B  B47  1  0.17524500  0.04013600  0.87496900  1
  O  O48  1  0.12511000  0.95398500  0.12041400  1
  O  O49  1  0.37489000  0.95398500  0.62041400  1
  O  O50  1  0.73527000  0.87732000  0.20900500  1
  O  O51  1  0.76473000  0.87732000  0.70900500  1
  O  O52  1  0.69946000  0.87598800  0.04823000  1
  O  O53  1  0.80054000  0.87598800  0.54823000  1
  O  O54  1  0.23462400  0.87170000  0.37321500  1
  O  O55  1  0.26537600  0.87170000  0.87321500  1
  O  O56  1  0.73462400  0.62830000  0.37321500  1
  O  O57  1  0.76537600  0.62830000  0.87321500  1
  O  O58  1  0.19946000  0.62401200  0.04823000  1
  O  O59  1  0.30054000  0.62401200  0.54823000  1
  O  O60  1  0.26473000  0.62268000  0.70900500  1
  O  O61  1  0.23527000  0.62268000  0.20900500  1
  O  O62  1  0.62511000  0.54601500  0.12041400  1
  O  O63  1  0.87489000  0.54601500  0.62041400  1
  O  O64  1  0.12511000  0.45398500  0.37958600  1
  O  O65  1  0.37489000  0.45398500  0.87958600  1
  O  O66  1  0.76473000  0.37732000  0.79099500  1
  O  O67  1  0.73527000  0.37732000  0.29099500  1
  O  O68  1  0.80054000  0.37598800  0.95177000  1
  O  O69  1  0.69946000  0.37598800  0.45177000  1
  O  O70  1  0.23462400  0.37170000  0.12678500  1
  O  O71  1  0.26537600  0.37170000  0.62678500  1
  O  O72  1  0.76537600  0.12830000  0.62678500  1
  O  O73  1  0.73462400  0.12830000  0.12678500  1
  O  O74  1  0.19946000  0.12401200  0.45177000  1
  O  O75  1  0.30054000  0.12401200  0.95177000  1
  O  O76  1  0.26473000  0.12268000  0.79099500  1
  O  O77  1  0.23527000  0.12268000  0.29099500  1
  O  O78  1  0.62511000  0.04601500  0.37958600  1
  O  O79  1  0.87489000  0.04601500  0.87958600  1
