# generated using pymatgen
data_Li4Ti3Mn6O18
_symmetry_space_group_name_H-M   'P 1'
_cell_length_a   2.90935300
_cell_length_b   9.04317300
_cell_length_c   25.92411400
_cell_angle_alpha   90.00000000
_cell_angle_beta   90.00000000
_cell_angle_gamma   90.00000000
_symmetry_Int_Tables_number   1
_chemical_formula_structural   Li4Ti3Mn6O18
_chemical_formula_sum   'Li8 Ti6 Mn12 O36'
_cell_volume   682.05780077
_cell_formula_units_Z   2
loop_
 _symmetry_equiv_pos_site_id
 _symmetry_equiv_pos_as_xyz
  1  'x, y, z'
loop_
 _atom_site_type_symbol
 _atom_site_label
 _atom_site_symmetry_multiplicity
 _atom_site_fract_x
 _atom_site_fract_y
 _atom_site_fract_z
 _atom_site_occupancy
  Li  Li0  1  0.50000000  0.94457800  0.98751100  1
  Li  Li1  1  0.50000000  0.95559300  0.20227600  1
  Li  Li2  1  0.50000000  0.04440700  0.70227600  1
  Li  Li3  1  0.50000000  0.05542200  0.48751100  1
  Li  Li4  1  0.50000000  0.44494400  0.51769400  1
  Li  Li5  1  0.50000000  0.44699300  0.30487600  1
  Li  Li6  1  0.50000000  0.55300700  0.80487600  1
  Li  Li7  1  0.50000000  0.55505600  0.01769400  1
  Ti  Ti8  1  0.50000000  0.75005400  0.10297900  1
  Ti  Ti9  1  0.50000000  0.24994600  0.60297900  1
  Ti  Ti10  1  0.50000000  0.24738200  0.39637300  1
  Ti  Ti11  1  0.00000000  0.39545900  0.69314700  1
  Ti  Ti12  1  0.00000000  0.60454100  0.19314700  1
  Ti  Ti13  1  0.50000000  0.75261800  0.89637300  1
  Mn  Mn14  1  0.50000000  0.74800600  0.50035000  1
  Mn  Mn15  1  0.50000000  0.77339600  0.30814300  1
  Mn  Mn16  1  0.00000000  0.89976800  0.58704800  1
  Mn  Mn17  1  0.00000000  0.89774200  0.80723200  1
  Mn  Mn18  1  0.00000000  0.10225800  0.30723200  1
  Mn  Mn19  1  0.00000000  0.10023200  0.08704800  1
  Mn  Mn20  1  0.50000000  0.22660400  0.80814300  1
  Mn  Mn21  1  0.50000000  0.25199400  0.00035000  1
  Mn  Mn22  1  0.50000000  0.26499900  0.19238000  1
  Mn  Mn23  1  0.00000000  0.40014600  0.91279100  1
  Mn  Mn24  1  0.00000000  0.59985400  0.41279100  1
  Mn  Mn25  1  0.50000000  0.73500100  0.69238000  1
  O  O26  1  0.50000000  0.73805800  0.42584700  1
  O  O27  1  0.50000000  0.75935700  0.57510300  1
  O  O28  1  0.00000000  0.81035600  0.93960400  1
  O  O29  1  0.00000000  0.80137800  0.15695200  1
  O  O30  1  0.00000000  0.86090500  0.66772600  1
  O  O31  1  0.50000000  0.85410600  0.76156300  1
  O  O32  1  0.00000000  0.89208500  0.50006900  1
  O  O33  1  0.00000000  0.90022900  0.28235600  1
  O  O34  1  0.50000000  0.93952500  0.85508200  1
  O  O35  1  0.50000000  0.95559400  0.08264900  1
  O  O36  1  0.50000000  0.04440600  0.58264900  1
  O  O37  1  0.50000000  0.06047500  0.35508200  1
  O  O38  1  0.00000000  0.09977100  0.78235600  1
  O  O39  1  0.00000000  0.10791500  0.00006900  1
  O  O40  1  0.50000000  0.14589400  0.26156300  1
  O  O41  1  0.00000000  0.13909500  0.16772600  1
  O  O42  1  0.00000000  0.19862200  0.65695200  1
  O  O43  1  0.00000000  0.18964400  0.43960400  1
  O  O44  1  0.50000000  0.24064300  0.07510300  1
  O  O45  1  0.50000000  0.26194200  0.92584700  1
  O  O46  1  0.00000000  0.30744900  0.55880600  1
  O  O47  1  0.00000000  0.29783300  0.34072300  1
  O  O48  1  0.00000000  0.35231800  0.83352800  1
  O  O49  1  0.50000000  0.34965500  0.73859400  1
  O  O50  1  0.00000000  0.39663400  0.99994000  1
  O  O51  1  0.00000000  0.39583800  0.21375100  1
  O  O52  1  0.50000000  0.43571500  0.64252500  1
  O  O53  1  0.50000000  0.45351600  0.41274500  1
  O  O54  1  0.50000000  0.54648400  0.91274500  1
  O  O55  1  0.50000000  0.56428500  0.14252400  1
  O  O56  1  0.00000000  0.60416200  0.71375100  1
  O  O57  1  0.00000000  0.60336600  0.49994000  1
  O  O58  1  0.50000000  0.65034500  0.23859400  1
  O  O59  1  0.00000000  0.64768200  0.33352800  1
  O  O60  1  0.00000000  0.70216700  0.84072300  1
  O  O61  1  0.00000000  0.69255100  0.05880600  1
