# generated using pymatgen
data_Li2CrPO6
_symmetry_space_group_name_H-M   'P 1'
_cell_length_a   4.68843000
_cell_length_b   8.70830100
_cell_length_c   10.27098100
_cell_angle_alpha   90.00000000
_cell_angle_beta   90.00000000
_cell_angle_gamma   90.00000000
_symmetry_Int_Tables_number   1
_chemical_formula_structural   Li2CrPO6
_chemical_formula_sum   'Li8 Cr4 P4 O24'
_cell_volume   419.34627920
_cell_formula_units_Z   4
loop_
 _symmetry_equiv_pos_site_id
 _symmetry_equiv_pos_as_xyz
  1  'x, y, z'
loop_
 _atom_site_type_symbol
 _atom_site_label
 _atom_site_symmetry_multiplicity
 _atom_site_fract_x
 _atom_site_fract_y
 _atom_site_fract_z
 _atom_site_occupancy
  Li  Li0  1  0.02275300  0.31904000  0.08820600  1
  Li  Li1  1  0.53775400  0.62243300  0.13477400  1
  Li  Li2  1  0.03775400  0.12243300  0.36522600  1
  Li  Li3  1  0.52275300  0.81904000  0.41179400  1
  Li  Li4  1  0.47724700  0.31904000  0.58820600  1
  Li  Li5  1  0.96224600  0.62243300  0.63477400  1
  Li  Li6  1  0.46224600  0.12243300  0.86522600  1
  Li  Li7  1  0.97724700  0.81904000  0.91179400  1
  Cr  Cr8  1  0.48242100  0.99980000  0.11380700  1
  Cr  Cr9  1  0.98242100  0.49980000  0.38619300  1
  Cr  Cr10  1  0.01757900  0.99980000  0.61380700  1
  Cr  Cr11  1  0.51757900  0.49980000  0.88619300  1
  P  P12  1  0.08514200  0.80573200  0.21722200  1
  P  P13  1  0.58514200  0.30573200  0.28277800  1
  P  P14  1  0.41485800  0.80573200  0.71722200  1
  P  P15  1  0.91485800  0.30573200  0.78277800  1
  O  O16  1  0.29454900  0.46918100  0.00684500  1
  O  O17  1  0.24751700  0.12538700  0.05540100  1
  O  O18  1  0.22951800  0.81135200  0.07880700  1
  O  O19  1  0.74217600  0.44341500  0.21537100  1
  O  O20  1  0.76056400  0.81591000  0.21675900  1
  O  O21  1  0.69059900  0.15359100  0.21831400  1
  O  O22  1  0.19059900  0.65359100  0.28168600  1
  O  O23  1  0.26056400  0.31591000  0.28324100  1
  O  O24  1  0.24217600  0.94341500  0.28462900  1
  O  O25  1  0.72951800  0.31135200  0.42119300  1
  O  O26  1  0.74751700  0.62538700  0.44459900  1
  O  O27  1  0.79454900  0.96918100  0.49315500  1
  O  O28  1  0.20545100  0.46918100  0.50684500  1
  O  O29  1  0.25248300  0.12538700  0.55540100  1
  O  O30  1  0.27048200  0.81135200  0.57880700  1
  O  O31  1  0.75782400  0.44341500  0.71537100  1
  O  O32  1  0.73943600  0.81591000  0.71675900  1
  O  O33  1  0.80940100  0.15359100  0.71831400  1
  O  O34  1  0.30940100  0.65359100  0.78168600  1
  O  O35  1  0.23943600  0.31591000  0.78324100  1
  O  O36  1  0.25782400  0.94341500  0.78462900  1
  O  O37  1  0.77048200  0.31135200  0.92119300  1
  O  O38  1  0.75248300  0.62538700  0.94459900  1
  O  O39  1  0.70545100  0.96918100  0.99315500  1
