# generated using pymatgen
data_Li2VP4(H4O5)4
_symmetry_space_group_name_H-M   'P 1'
_cell_length_a   10.70936000
_cell_length_b   7.19374500
_cell_length_c   12.06450119
_cell_angle_alpha   64.27951996
_cell_angle_beta   90.00000000
_cell_angle_gamma   90.00000000
_symmetry_Int_Tables_number   1
_chemical_formula_structural   Li2VP4(H4O5)4
_chemical_formula_sum   'Li4 V2 P8 H32 O40'
_cell_volume   837.36556647
_cell_formula_units_Z   2
loop_
 _symmetry_equiv_pos_site_id
 _symmetry_equiv_pos_as_xyz
  1  'x, y, z'
loop_
 _atom_site_type_symbol
 _atom_site_label
 _atom_site_symmetry_multiplicity
 _atom_site_fract_x
 _atom_site_fract_y
 _atom_site_fract_z
 _atom_site_occupancy
  Li  Li0  1  0.84067400  0.20237200  0.04641800  1
  Li  Li1  1  0.34067400  0.79762800  0.45358200  1
  Li  Li2  1  0.65932600  0.20237200  0.54641800  1
  Li  Li3  1  0.15932600  0.79762800  0.95358200  1
  V  V4  1  0.50000000  0.50000000  0.00000000  1
  V  V5  1  0.00000000  0.50000000  0.50000000  1
  P  P6  1  0.74009900  0.68247800  0.58404300  1
  P  P7  1  0.24009900  0.31752200  0.91595700  1
  P  P8  1  0.54464200  0.03873600  0.22336900  1
  P  P9  1  0.04464200  0.96126400  0.27663100  1
  P  P10  1  0.95535800  0.03873600  0.72336900  1
  P  P11  1  0.45535800  0.96126400  0.77663100  1
  P  P12  1  0.75990100  0.68247800  0.08404300  1
  P  P13  1  0.25990100  0.31752200  0.41595700  1
  H  H14  1  0.09419400  0.74019000  0.60500800  1
  H  H15  1  0.46035100  0.66720900  0.69189900  1
  H  H16  1  0.06693800  0.48206800  0.89548300  1
  H  H17  1  0.87764200  0.50600300  0.81085800  1
  H  H18  1  0.66937200  0.46971100  0.84244900  1
  H  H19  1  0.20909800  0.13688400  0.28929400  1
  H  H20  1  0.16937200  0.53028900  0.65755100  1
  H  H21  1  0.37764200  0.49399700  0.68914200  1
  H  H22  1  0.91363400  0.91021500  0.42421000  1
  H  H23  1  0.60814200  0.89940400  0.44549500  1
  H  H24  1  0.56693800  0.51793200  0.60451700  1
  H  H25  1  0.96035100  0.33279100  0.80810100  1
  H  H26  1  0.59419400  0.25981000  0.89499200  1
  H  H27  1  0.10814200  0.10059600  0.05450500  1
  H  H28  1  0.41363400  0.08978500  0.07579000  1
  H  H29  1  0.70909800  0.86311600  0.21070600  1
  H  H30  1  0.29090200  0.13688400  0.78929400  1
  H  H31  1  0.58636600  0.91021500  0.92421000  1
  H  H32  1  0.89185800  0.89940400  0.94549500  1
  H  H33  1  0.40580600  0.74019000  0.10500800  1
  H  H34  1  0.03964900  0.66720900  0.19189900  1
  H  H35  1  0.43306200  0.48206800  0.39548300  1
  H  H36  1  0.39185800  0.10059600  0.55450500  1
  H  H37  1  0.08636600  0.08978500  0.57579000  1
  H  H38  1  0.62235800  0.50600300  0.31085800  1
  H  H39  1  0.83062800  0.46971100  0.34244900  1
  H  H40  1  0.79090200  0.86311600  0.71070600  1
  H  H41  1  0.33062800  0.53028900  0.15755100  1
  H  H42  1  0.12235800  0.49399700  0.18914200  1
  H  H43  1  0.93306200  0.51793200  0.10451700  1
  H  H44  1  0.53964900  0.33279100  0.30810100  1
  H  H45  1  0.90580600  0.25981000  0.39499200  1
  O  O46  1  0.66776000  0.89378000  0.51658800  1
  O  O47  1  0.75811000  0.64737500  0.71794100  1
  O  O48  1  0.15637800  0.49648100  0.92167600  1
  O  O49  1  0.52643100  0.26843500  0.18513500  1
  O  O50  1  0.43790900  0.60197800  0.63623900  1
  O  O51  1  0.13442100  0.64036000  0.58047500  1
  O  O52  1  0.86088500  0.69448400  0.51529400  1
  O  O53  1  0.36088500  0.30551600  0.98470600  1
  O  O54  1  0.63442100  0.35964000  0.91952500  1
  O  O55  1  0.93790900  0.39802200  0.86376100  1
  O  O56  1  0.96006100  0.03405200  0.35981900  1
  O  O57  1  0.18665800  0.98790300  0.30718400  1
  O  O58  1  0.65637800  0.50351900  0.57832400  1
  O  O59  1  0.01478800  0.10089900  0.14252300  1
  O  O60  1  0.25811000  0.35262500  0.78205900  1
  O  O61  1  0.51478800  0.89910100  0.35747700  1
  O  O62  1  0.68665800  0.01209700  0.19281600  1
  O  O63  1  0.16776000  0.10622000  0.98341200  1
  O  O64  1  0.46006100  0.96594800  0.14018100  1
  O  O65  1  0.97356900  0.26843500  0.68513500  1
  O  O66  1  0.02643100  0.73156500  0.31486500  1
  O  O67  1  0.53993900  0.03405200  0.85981900  1
  O  O68  1  0.83224000  0.89378000  0.01658800  1
  O  O69  1  0.31334200  0.98790300  0.80718400  1
  O  O70  1  0.48521200  0.10089900  0.64252300  1
  O  O71  1  0.74189000  0.64737500  0.21794100  1
  O  O72  1  0.98521200  0.89910100  0.85747700  1
  O  O73  1  0.34362200  0.49648100  0.42167600  1
  O  O74  1  0.81334200  0.01209700  0.69281600  1
  O  O75  1  0.03993900  0.96594800  0.64018100  1
  O  O76  1  0.06209100  0.60197800  0.13623900  1
  O  O77  1  0.36557900  0.64036000  0.08047500  1
  O  O78  1  0.63911500  0.69448400  0.01529400  1
  O  O79  1  0.13911500  0.30551600  0.48470600  1
  O  O80  1  0.86557900  0.35964000  0.41952500  1
  O  O81  1  0.56209100  0.39802200  0.36376100  1
  O  O82  1  0.47356900  0.73156500  0.81486500  1
  O  O83  1  0.84362200  0.50351900  0.07832400  1
  O  O84  1  0.24189000  0.35262500  0.28205900  1
  O  O85  1  0.33224000  0.10622000  0.48341200  1
