# generated using pymatgen
data_Li2Sn2(SO4)3
_symmetry_space_group_name_H-M   'P 1'
_cell_length_a   9.10033200
_cell_length_b   9.67083400
_cell_length_c   13.62643400
_cell_angle_alpha   90.00000000
_cell_angle_beta   90.00000000
_cell_angle_gamma   90.00000000
_symmetry_Int_Tables_number   1
_chemical_formula_structural   Li2Sn2(SO4)3
_chemical_formula_sum   'Li8 Sn8 S12 O48'
_cell_volume   1199.23247978
_cell_formula_units_Z   4
loop_
 _symmetry_equiv_pos_site_id
 _symmetry_equiv_pos_as_xyz
  1  'x, y, z'
loop_
 _atom_site_type_symbol
 _atom_site_label
 _atom_site_symmetry_multiplicity
 _atom_site_fract_x
 _atom_site_fract_y
 _atom_site_fract_z
 _atom_site_occupancy
  Li  Li0  1  0.21250700  0.27660900  0.18163000  1
  Li  Li1  1  0.78749300  0.77660900  0.18163000  1
  Li  Li2  1  0.28749300  0.77660900  0.31837000  1
  Li  Li3  1  0.71250700  0.27660900  0.31837000  1
  Li  Li4  1  0.28749300  0.72339100  0.68163000  1
  Li  Li5  1  0.71250700  0.22339100  0.68163000  1
  Li  Li6  1  0.21250700  0.22339100  0.81837000  1
  Li  Li7  1  0.78749300  0.72339100  0.81837000  1
  Sn  Sn8  1  0.24993100  0.95004800  0.09988200  1
  Sn  Sn9  1  0.75006900  0.45004800  0.09988200  1
  Sn  Sn10  1  0.74993100  0.95004800  0.40011800  1
  Sn  Sn11  1  0.25006900  0.45004800  0.40011800  1
  Sn  Sn12  1  0.25006900  0.04995200  0.59988200  1
  Sn  Sn13  1  0.74993100  0.54995200  0.59988200  1
  Sn  Sn14  1  0.24993100  0.54995200  0.90011800  1
  Sn  Sn15  1  0.75006900  0.04995200  0.90011800  1
  S  S16  1  0.43828600  0.25000000  0.00000000  1
  S  S17  1  0.56171400  0.75000000  0.00000000  1
  S  S18  1  0.10256900  0.60374600  0.15086000  1
  S  S19  1  0.89743100  0.10374600  0.15086000  1
  S  S20  1  0.39743100  0.10374600  0.34914000  1
  S  S21  1  0.60256900  0.60374600  0.34914000  1
  S  S22  1  0.06171400  0.75000000  0.50000000  1
  S  S23  1  0.93828600  0.25000000  0.50000000  1
  S  S24  1  0.39743100  0.39625400  0.65086000  1
  S  S25  1  0.60256900  0.89625400  0.65086000  1
  S  S26  1  0.10256900  0.89625400  0.84914000  1
  S  S27  1  0.89743100  0.39625400  0.84914000  1
  O  O28  1  0.12919900  0.59701100  0.04239100  1
  O  O29  1  0.87080100  0.09701100  0.04239100  1
  O  O30  1  0.52948700  0.36333600  0.04063500  1
  O  O31  1  0.47051300  0.86333600  0.04063500  1
  O  O32  1  0.34265200  0.19320500  0.07975500  1
  O  O33  1  0.65734800  0.69320500  0.07975500  1
  O  O34  1  0.05701400  0.13019300  0.16663200  1
  O  O35  1  0.94298600  0.63019300  0.16663200  1
  O  O36  1  0.18934200  0.72102400  0.19286200  1
  O  O37  1  0.81065800  0.22102400  0.19286200  1
  O  O38  1  0.85347100  0.97128300  0.19758200  1
  O  O39  1  0.14652900  0.47128300  0.19758200  1
  O  O40  1  0.35347100  0.97128300  0.30241800  1
  O  O41  1  0.64652900  0.47128300  0.30241800  1
  O  O42  1  0.68934200  0.72102400  0.30713800  1
  O  O43  1  0.31065800  0.22102400  0.30713800  1
  O  O44  1  0.44298600  0.63019300  0.33336800  1
  O  O45  1  0.55701400  0.13019300  0.33336800  1
  O  O46  1  0.15734800  0.69320500  0.42024500  1
  O  O47  1  0.84265200  0.19320500  0.42024500  1
  O  O48  1  0.02948700  0.36333600  0.45936500  1
  O  O49  1  0.97051300  0.86333600  0.45936500  1
  O  O50  1  0.62919900  0.59701100  0.45760900  1
  O  O51  1  0.37080100  0.09701100  0.45760900  1
  O  O52  1  0.37080100  0.40298900  0.54239100  1
  O  O53  1  0.62919900  0.90298900  0.54239100  1
  O  O54  1  0.02948700  0.13666400  0.54063500  1
  O  O55  1  0.97051300  0.63666400  0.54063500  1
  O  O56  1  0.15734800  0.80679500  0.57975500  1
  O  O57  1  0.84265200  0.30679500  0.57975500  1
  O  O58  1  0.44298600  0.86980700  0.66663200  1
  O  O59  1  0.55701400  0.36980700  0.66663200  1
  O  O60  1  0.31065800  0.27897600  0.69286200  1
  O  O61  1  0.68934200  0.77897600  0.69286200  1
  O  O62  1  0.35347100  0.52871700  0.69758200  1
  O  O63  1  0.64652900  0.02871700  0.69758200  1
  O  O64  1  0.14652900  0.02871700  0.80241800  1
  O  O65  1  0.85347100  0.52871700  0.80241800  1
  O  O66  1  0.18934200  0.77897600  0.80713800  1
  O  O67  1  0.81065800  0.27897600  0.80713800  1
  O  O68  1  0.05701400  0.36980700  0.83336800  1
  O  O69  1  0.94298600  0.86980700  0.83336800  1
  O  O70  1  0.34265200  0.30679500  0.92024500  1
  O  O71  1  0.65734800  0.80679500  0.92024500  1
  O  O72  1  0.47051300  0.63666400  0.95936500  1
  O  O73  1  0.52948700  0.13666400  0.95936500  1
  O  O74  1  0.12919900  0.90298900  0.95760900  1
  O  O75  1  0.87080100  0.40298900  0.95760900  1
