# generated using pymatgen
data_LiVCrP2(O4F)2
_symmetry_space_group_name_H-M   'P 1'
_cell_length_a   6.87950600
_cell_length_b   7.32622674
_cell_length_c   7.93949474
_cell_angle_alpha   87.31985265
_cell_angle_beta   87.96919781
_cell_angle_gamma   62.23224987
_symmetry_Int_Tables_number   1
_chemical_formula_structural   LiVCrP2(O4F)2
_chemical_formula_sum   'Li2 V2 Cr2 P4 O16 F4'
_cell_volume   353.64680509
_cell_formula_units_Z   2
loop_
 _symmetry_equiv_pos_site_id
 _symmetry_equiv_pos_as_xyz
  1  'x, y, z'
loop_
 _atom_site_type_symbol
 _atom_site_label
 _atom_site_symmetry_multiplicity
 _atom_site_fract_x
 _atom_site_fract_y
 _atom_site_fract_z
 _atom_site_occupancy
  Li  Li0  1  0.24893800  0.81926300  0.32043100  1
  Li  Li1  1  0.75106200  0.18073700  0.67956900  1
  V  V2  1  0.00000000  0.00000000  0.00000000  1
  V  V3  1  0.50000000  0.00000000  0.50000000  1
  Cr  Cr4  1  0.50000000  0.50000000  0.00000000  1
  Cr  Cr5  1  0.00000000  0.50000000  0.50000000  1
  P  P6  1  0.27510500  0.24438900  0.83962200  1
  P  P7  1  0.77819700  0.24120500  0.33800600  1
  P  P8  1  0.22180300  0.75879500  0.66199400  1
  P  P9  1  0.72489500  0.75561100  0.16037800  1
  O  O10  1  0.41305200  0.60252500  0.76510000  1
  O  O11  1  0.29306800  0.91138900  0.56308600  1
  O  O12  1  0.20372700  0.08643300  0.92979600  1
  O  O13  1  0.33780600  0.33879000  0.98103000  1
  O  O14  1  0.08048100  0.39634600  0.73483700  1
  O  O15  1  0.83615400  0.33418900  0.48657300  1
  O  O16  1  0.01463400  0.89598700  0.76834900  1
  O  O17  1  0.48137500  0.11860300  0.72435500  1
  O  O18  1  0.51862500  0.88139700  0.27564500  1
  O  O19  1  0.98536600  0.10401300  0.23165100  1
  O  O20  1  0.16384600  0.66581100  0.51342700  1
  O  O21  1  0.91951900  0.60365400  0.26516300  1
  O  O22  1  0.66219400  0.66121000  0.01897000  1
  O  O23  1  0.79627300  0.91356700  0.07020400  1
  O  O24  1  0.70693200  0.08861100  0.43691400  1
  O  O25  1  0.58694800  0.39747500  0.23490000  1
  F  F26  1  0.76567800  0.26291800  0.90582300  1
  F  F27  1  0.73112600  0.73859600  0.58419800  1
  F  F28  1  0.26887400  0.26140400  0.41580200  1
  F  F29  1  0.23432200  0.73708200  0.09417700  1
