# generated using pymatgen
data_Li2Ni(PO3)4
_symmetry_space_group_name_H-M   'P 1'
_cell_length_a   9.12555036
_cell_length_b   12.88696273
_cell_length_c   9.37787802
_cell_angle_alpha   68.65550263
_cell_angle_beta   90.00048359
_cell_angle_gamma   110.86212616
_symmetry_Int_Tables_number   1
_chemical_formula_structural   Li2Ni(PO3)4
_chemical_formula_sum   'Li8 Ni4 P16 O48'
_cell_volume   949.15301966
_cell_formula_units_Z   4
loop_
 _symmetry_equiv_pos_site_id
 _symmetry_equiv_pos_as_xyz
  1  'x, y, z'
loop_
 _atom_site_type_symbol
 _atom_site_label
 _atom_site_symmetry_multiplicity
 _atom_site_fract_x
 _atom_site_fract_y
 _atom_site_fract_z
 _atom_site_occupancy
  Li  Li0  1  0.50008500  0.99998700  0.15158400  1
  Li  Li1  1  0.75000100  0.49995800  0.40161900  1
  Li  Li2  1  0.00006700  0.99994600  0.65164300  1
  Li  Li3  1  0.24997200  0.50002600  0.90154500  1
  Li  Li4  1  0.49993300  0.99999700  0.85234000  1
  Li  Li5  1  0.74993300  0.49990400  0.10236200  1
  Li  Li6  1  0.99995000  0.00003500  0.35237600  1
  Li  Li7  1  0.24997600  0.49991500  0.60239000  1
  Ni  Ni8  1  0.87506300  0.25016500  0.18548400  1
  Ni  Ni9  1  0.12473400  0.74999400  0.43538200  1
  Ni  Ni10  1  0.37508100  0.25007500  0.68533400  1
  Ni  Ni11  1  0.62498500  0.74998600  0.93560100  1
  P  P12  1  0.79814500  0.00282000  0.94862000  1
  P  P13  1  0.04814400  0.50287100  0.19863100  1
  P  P14  1  0.29811100  0.00276700  0.44865300  1
  P  P15  1  0.54807700  0.50281700  0.69867300  1
  P  P16  1  0.45191600  0.49717900  0.20150600  1
  P  P17  1  0.70194400  0.99721900  0.45158400  1
  P  P18  1  0.95187500  0.49715500  0.70146800  1
  P  P19  1  0.20195800  0.99723400  0.95156900  1
  P  P20  1  0.60115700  0.18284000  0.45463600  1
  P  P21  1  0.85115100  0.68280500  0.70468200  1
  P  P22  1  0.10119200  0.18286100  0.95463400  1
  P  P23  1  0.35118400  0.68281300  0.20471000  1
  P  P24  1  0.64879400  0.31715000  0.88746300  1
  P  P25  1  0.89881500  0.81716900  0.13749800  1
  P  P26  1  0.14881800  0.31717200  0.38742300  1
  P  P27  1  0.39879600  0.81711600  0.63753800  1
  O  O28  1  0.66608400  0.03930500  0.97597100  1
  O  O29  1  0.91602400  0.53932000  0.22606500  1
  O  O30  1  0.16608700  0.03930600  0.47599600  1
  O  O31  1  0.41600000  0.53929400  0.72608600  1
  O  O32  1  0.58399200  0.46068000  0.26542100  1
  O  O33  1  0.83399500  0.96071600  0.51546300  1
  O  O34  1  0.08396300  0.46070600  0.76534700  1
  O  O35  1  0.33397400  0.96071100  0.01544700  1
  O  O36  1  0.45905900  0.12117100  0.37092700  1
  O  O37  1  0.70904100  0.62119900  0.62092800  1
  O  O38  1  0.95906100  0.12120300  0.87092900  1
  O  O39  1  0.20910800  0.62123300  0.12089600  1
  O  O40  1  0.29099500  0.37879000  0.24210700  1
  O  O41  1  0.54104700  0.87881600  0.49224600  1
  O  O42  1  0.79093300  0.37875500  0.74215200  1
  O  O43  1  0.04104600  0.87881200  0.99226200  1
  O  O44  1  0.03016900  0.43402400  0.09436900  1
  O  O45  1  0.28013200  0.93388500  0.34440600  1
  O  O46  1  0.53011200  0.43398900  0.59438700  1
  O  O47  1  0.78021300  0.93391200  0.84443200  1
  O  O48  1  0.71993900  0.06613200  0.27842800  1
  O  O49  1  0.96978600  0.56599300  0.52834100  1
  O  O50  1  0.21990100  0.06606900  0.77841200  1
  O  O51  1  0.46989900  0.56605500  0.02837300  1
  O  O52  1  0.73336800  0.28102100  0.33139200  1
  O  O53  1  0.98336100  0.78097600  0.58147800  1
  O  O54  1  0.23336300  0.28098200  0.83135900  1
  O  O55  1  0.48341900  0.78097700  0.08157600  1
  O  O56  1  0.51661600  0.21903200  0.86235800  1
  O  O57  1  0.76666200  0.71899900  0.11246900  1
  O  O58  1  0.01660900  0.21903600  0.36236700  1
  O  O59  1  0.26660900  0.71900800  0.61240000  1
  O  O60  1  0.03396100  0.20619300  0.07943600  1
  O  O61  1  0.28382900  0.70604500  0.32959700  1
  O  O62  1  0.53392600  0.20616800  0.57944800  1
  O  O63  1  0.78394300  0.70608400  0.82960100  1
  O  O64  1  0.71602400  0.29390900  0.03564400  1
  O  O65  1  0.96596100  0.79386900  0.28570900  1
  O  O66  1  0.21599600  0.29386300  0.53564100  1
  O  O67  1  0.46598500  0.79382400  0.78572500  1
  O  O68  1  0.16002000  0.07161000  0.04268600  1
  O  O69  1  0.40998200  0.57153400  0.29266200  1
  O  O70  1  0.66002100  0.07161900  0.54270500  1
  O  O71  1  0.91001600  0.57156300  0.79259500  1
  O  O72  1  0.58995800  0.42839300  0.86421100  1
  O  O73  1  0.84000400  0.92841500  0.11422200  1
  O  O74  1  0.08995500  0.42841200  0.36418500  1
  O  O75  1  0.33999800  0.92841500  0.61421200  1
