# generated using pymatgen
data_Li3VCr3O8
_symmetry_space_group_name_H-M   'P 1'
_cell_length_a   5.19303900
_cell_length_b   7.84168242
_cell_length_c   7.86775011
_cell_angle_alpha   94.37962193
_cell_angle_beta   109.14520811
_cell_angle_gamma   96.07087189
_symmetry_Int_Tables_number   1
_chemical_formula_structural   Li3VCr3O8
_chemical_formula_sum   'Li6 V2 Cr6 O16'
_cell_volume   298.86325504
_cell_formula_units_Z   2
loop_
 _symmetry_equiv_pos_site_id
 _symmetry_equiv_pos_as_xyz
  1  'x, y, z'
loop_
 _atom_site_type_symbol
 _atom_site_label
 _atom_site_symmetry_multiplicity
 _atom_site_fract_x
 _atom_site_fract_y
 _atom_site_fract_z
 _atom_site_occupancy
  Li  Li0  1  0.00328900  0.99894400  0.00218800  1
  Li  Li1  1  0.74578800  0.25614800  0.75210300  1
  Li  Li2  1  0.49333800  0.48786500  0.49755500  1
  Li  Li3  1  0.62504100  0.87363300  0.62989800  1
  Li  Li4  1  0.12693400  0.37744200  0.12241200  1
  Li  Li5  1  0.24682500  0.75091600  0.24306200  1
  V  V6  1  0.05635800  0.68367200  0.57073100  1
  V  V7  1  0.80532700  0.94040200  0.31276800  1
  Cr  Cr8  1  0.19752400  0.06338700  0.68476000  1
  Cr  Cr9  1  0.31368700  0.43978900  0.81539300  1
  Cr  Cr10  1  0.44152500  0.81196200  0.93834900  1
  Cr  Cr11  1  0.94007200  0.31059100  0.43230200  1
  Cr  Cr12  1  0.55410200  0.18820700  0.06292600  1
  Cr  Cr13  1  0.69475500  0.56310000  0.18583000  1
  O  O14  1  0.57414000  0.02977700  0.84769400  1
  O  O15  1  0.68939300  0.39958100  0.97408300  1
  O  O16  1  0.32067000  0.28507400  0.60357700  1
  O  O17  1  0.43066800  0.65827100  0.71781500  1
  O  O18  1  0.93028500  0.15018400  0.21823000  1
  O  O19  1  0.07813600  0.53149200  0.35169900  1
  O  O20  1  0.18459600  0.88625800  0.47478900  1
  O  O21  1  0.17140100  0.22001100  0.89687800  1
  O  O22  1  0.83272700  0.79488300  0.11515100  1
  O  O23  1  0.81354400  0.08719500  0.52117200  1
  O  O24  1  0.92422700  0.47372600  0.64051000  1
  O  O25  1  0.06035700  0.84725100  0.77418900  1
  O  O26  1  0.56156600  0.35314900  0.27392100  1
  O  O27  1  0.67990200  0.72342600  0.40563600  1
  O  O28  1  0.32096900  0.59780100  0.03243000  1
  O  O29  1  0.43285100  0.96586000  0.15194700  1
