# generated using pymatgen
data_LiMn3(BO3)3
_symmetry_space_group_name_H-M   'P 1'
_cell_length_a   5.26075500
_cell_length_b   6.17102565
_cell_length_c   11.80267644
_cell_angle_alpha   81.74502810
_cell_angle_beta   77.63820278
_cell_angle_gamma   87.91981980
_symmetry_Int_Tables_number   1
_chemical_formula_structural   LiMn3(BO3)3
_chemical_formula_sum   'Li2 Mn6 B6 O18'
_cell_volume   370.39741192
_cell_formula_units_Z   2
loop_
 _symmetry_equiv_pos_site_id
 _symmetry_equiv_pos_as_xyz
  1  'x, y, z'
loop_
 _atom_site_type_symbol
 _atom_site_label
 _atom_site_symmetry_multiplicity
 _atom_site_fract_x
 _atom_site_fract_y
 _atom_site_fract_z
 _atom_site_occupancy
  Li  Li0  1  0.30426000  0.03490400  0.70414500  1
  Li  Li1  1  0.69574000  0.96509600  0.29585500  1
  Mn  Mn2  1  0.84329800  0.87485500  0.61945500  1
  Mn  Mn3  1  0.48571000  0.45701600  0.71338400  1
  Mn  Mn4  1  0.15670200  0.12514500  0.38054500  1
  Mn  Mn5  1  0.51429000  0.54298400  0.28661600  1
  Mn  Mn6  1  0.16797600  0.21154100  0.96147600  1
  Mn  Mn7  1  0.83202400  0.78845900  0.03852400  1
  B  B8  1  0.57689600  0.22538400  0.49669900  1
  B  B9  1  0.91123500  0.57604800  0.83054000  1
  B  B10  1  0.25095100  0.92724700  0.16587800  1
  B  B11  1  0.42310400  0.77461600  0.50330100  1
  B  B12  1  0.74904900  0.07275300  0.83412200  1
  B  B13  1  0.08876500  0.42395200  0.16946000  1
  O  O14  1  0.49961600  0.13772500  0.82463400  1
  O  O15  1  0.93554700  0.02014100  0.74181500  1
  O  O16  1  0.82248800  0.14271300  0.50935700  1
  O  O17  1  0.40440300  0.29119600  0.58648300  1
  O  O18  1  0.51893500  0.21680600  0.38580100  1
  O  O19  1  0.85717200  0.59321600  0.71769800  1
  O  O20  1  0.50038400  0.86227500  0.17536600  1
  O  O21  1  0.48106500  0.78319400  0.61419900  1
  O  O22  1  0.06445300  0.97985900  0.25818500  1
  O  O23  1  0.59559700  0.70880400  0.41351700  1
  O  O24  1  0.16852900  0.92345700  0.05957200  1
  O  O25  1  0.17751200  0.85728700  0.49064300  1
  O  O26  1  0.83147100  0.07654300  0.94042800  1
  O  O27  1  0.14282800  0.40678400  0.28230200  1
  O  O28  1  0.26385300  0.34736400  0.08224700  1
  O  O29  1  0.85832900  0.53080600  0.15345300  1
  O  O30  1  0.73614700  0.65263600  0.91775300  1
  O  O31  1  0.14167100  0.46919400  0.84654700  1
