# generated using pymatgen
data_LiMnF3
_symmetry_space_group_name_H-M   'P 1'
_cell_length_a   9.27624800
_cell_length_b   5.71913100
_cell_length_c   10.28897418
_cell_angle_alpha   75.03034805
_cell_angle_beta   90.00000000
_cell_angle_gamma   90.00000000
_symmetry_Int_Tables_number   1
_chemical_formula_structural   LiMnF3
_chemical_formula_sum   'Li8 Mn8 F24'
_cell_volume   527.32677468
_cell_formula_units_Z   8
loop_
 _symmetry_equiv_pos_site_id
 _symmetry_equiv_pos_as_xyz
  1  'x, y, z'
loop_
 _atom_site_type_symbol
 _atom_site_label
 _atom_site_symmetry_multiplicity
 _atom_site_fract_x
 _atom_site_fract_y
 _atom_site_fract_z
 _atom_site_occupancy
  Li  Li0  1  0.16484000  0.24479000  0.95499400  1
  Li  Li1  1  0.33516000  0.74479000  0.95499400  1
  Li  Li2  1  0.33401800  0.15161600  0.56190300  1
  Li  Li3  1  0.16598200  0.65161600  0.56190300  1
  Li  Li4  1  0.83401800  0.34838400  0.43809700  1
  Li  Li5  1  0.66598200  0.84838400  0.43809700  1
  Li  Li6  1  0.66484000  0.25521000  0.04500600  1
  Li  Li7  1  0.83516000  0.75521000  0.04500600  1
  Mn  Mn8  1  0.65568500  0.05279500  0.74141900  1
  Mn  Mn9  1  0.03958500  0.05938600  0.74107000  1
  Mn  Mn10  1  0.84431500  0.55279500  0.74141900  1
  Mn  Mn11  1  0.46041500  0.55938600  0.74107000  1
  Mn  Mn12  1  0.53958500  0.44061400  0.25893000  1
  Mn  Mn13  1  0.15568500  0.44720500  0.25858100  1
  Mn  Mn14  1  0.96041500  0.94061400  0.25893000  1
  Mn  Mn15  1  0.34431500  0.94720500  0.25858100  1
  F  F16  1  0.98558200  0.31077300  0.86011700  1
  F  F17  1  0.65881700  0.33706000  0.84908100  1
  F  F18  1  0.30189700  0.47487700  0.88507000  1
  F  F19  1  0.51441800  0.81077300  0.86011700  1
  F  F20  1  0.84118300  0.83706000  0.84908100  1
  F  F21  1  0.19810300  0.97487700  0.88507000  1
  F  F22  1  0.48842900  0.28073700  0.64264300  1
  F  F23  1  0.83593000  0.26205600  0.63518900  1
  F  F24  1  0.16664200  0.30753500  0.60373600  1
  F  F25  1  0.01157100  0.78073700  0.64264300  1
  F  F26  1  0.66407000  0.76205600  0.63518900  1
  F  F27  1  0.33335800  0.80753500  0.60373600  1
  F  F28  1  0.66664200  0.19246500  0.39626400  1
  F  F29  1  0.33593000  0.23794400  0.36481100  1
  F  F30  1  0.98842900  0.21926300  0.35735700  1
  F  F31  1  0.83335800  0.69246500  0.39626400  1
  F  F32  1  0.16407000  0.73794400  0.36481100  1
  F  F33  1  0.51157100  0.71926300  0.35735700  1
  F  F34  1  0.80189700  0.02512300  0.11493000  1
  F  F35  1  0.15881700  0.16294000  0.15091900  1
  F  F36  1  0.48558200  0.18922700  0.13988300  1
  F  F37  1  0.69810300  0.52512300  0.11493000  1
  F  F38  1  0.34118300  0.66294000  0.15091900  1
  F  F39  1  0.01441800  0.68922700  0.13988300  1
