# generated using pymatgen
data_Li2MnV(PO4)3
_symmetry_space_group_name_H-M   'P 1'
_cell_length_a   9.21058283
_cell_length_b   8.33707456
_cell_length_c   8.28971082
_cell_angle_alpha   60.88306624
_cell_angle_beta   61.90450447
_cell_angle_gamma   91.98576109
_symmetry_Int_Tables_number   1
_chemical_formula_structural   Li2MnV(PO4)3
_chemical_formula_sum   'Li4 Mn2 V2 P6 O24'
_cell_volume   460.95030939
_cell_formula_units_Z   2
loop_
 _symmetry_equiv_pos_site_id
 _symmetry_equiv_pos_as_xyz
  1  'x, y, z'
loop_
 _atom_site_type_symbol
 _atom_site_label
 _atom_site_symmetry_multiplicity
 _atom_site_fract_x
 _atom_site_fract_y
 _atom_site_fract_z
 _atom_site_occupancy
  Li  Li0  1  0.13950112  0.74251353  0.17833745  1
  Li  Li1  1  0.12603467  0.06657519  0.60891763  1
  Li  Li2  1  0.87396533  0.93342481  0.39108237  1
  Li  Li3  1  0.86049888  0.25748647  0.82166255  1
  Mn  Mn4  1  0.56498678  0.84929574  0.28983116  1
  Mn  Mn5  1  0.43501322  0.15070426  0.71016884  1
  V  V6  1  0.04759783  0.35401481  0.29212442  1
  V  V7  1  0.95240217  0.64598519  0.70787558  1
  P  P8  1  0.25400944  0.04554607  0.20639711  1
  P  P9  1  0.24225325  0.46098705  0.49750116  1
  P  P10  1  0.25618629  0.75143018  0.77784019  1
  P  P11  1  0.74381371  0.24856982  0.22215981  1
  P  P12  1  0.75774675  0.53901295  0.50249884  1
  P  P13  1  0.74599056  0.95445393  0.79360289  1
  O  O14  1  0.09773279  0.83900491  0.37219424  1
  O  O15  1  0.27048235  0.12471263  0.98543914  1
  O  O16  1  0.17820455  0.17182630  0.29598683  1
  O  O17  1  0.19180633  0.49816453  0.32779329  1
  O  O18  1  0.08881330  0.47559276  0.68045086  1
  O  O19  1  0.11987946  0.79254225  0.71267378  1
  O  O20  1  0.41729401  0.02792209  0.20077813  1
  O  O21  1  0.24616617  0.25448581  0.61207287  1
  O  O22  1  0.41520599  0.61722518  0.37311030  1
  O  O23  1  0.18607547  0.53597108  0.98007182  1
  O  O24  1  0.26463365  0.88457008  0.85519525  1
  O  O25  1  0.43265542  0.79227769  0.58542577  1
  O  O26  1  0.56734458  0.20772231  0.41457423  1
  O  O27  1  0.73536635  0.11542992  0.14480475  1
  O  O28  1  0.81392453  0.46402892  0.01992818  1
  O  O29  1  0.58479401  0.38277482  0.62688970  1
  O  O30  1  0.75383383  0.74551419  0.38792713  1
  O  O31  1  0.58270599  0.97207791  0.79922187  1
  O  O32  1  0.88012054  0.20745775  0.28732622  1
  O  O33  1  0.91118670  0.52440724  0.31954914  1
  O  O34  1  0.80819367  0.50183547  0.67220671  1
  O  O35  1  0.82179545  0.82817370  0.70401317  1
  O  O36  1  0.72951765  0.87528737  0.01456086  1
  O  O37  1  0.90226721  0.16099509  0.62780576  1
