# generated using pymatgen
data_LiAlVO4
_symmetry_space_group_name_H-M   'P 1'
_cell_length_a   5.81273111
_cell_length_b   5.81278810
_cell_length_c   8.15699209
_cell_angle_alpha   89.98856585
_cell_angle_beta   90.01231301
_cell_angle_gamma   90.06965932
_symmetry_Int_Tables_number   1
_chemical_formula_structural   LiAlVO4
_chemical_formula_sum   'Li4 Al4 V4 O16'
_cell_volume   275.60965430
_cell_formula_units_Z   4
loop_
 _symmetry_equiv_pos_site_id
 _symmetry_equiv_pos_as_xyz
  1  'x, y, z'
loop_
 _atom_site_type_symbol
 _atom_site_label
 _atom_site_symmetry_multiplicity
 _atom_site_fract_x
 _atom_site_fract_y
 _atom_site_fract_z
 _atom_site_occupancy
  Li  Li0  1  0.00011100  0.22613800  0.00003000  1
  Li  Li1  1  0.99995800  0.77375800  0.49999400  1
  Li  Li2  1  0.22614300  0.00010900  0.24996000  1
  Li  Li3  1  0.77380600  0.99994800  0.75002700  1
  Al  Al4  1  0.25822900  0.25823400  0.62499700  1
  Al  Al5  1  0.25842200  0.74166700  0.87497400  1
  Al  Al6  1  0.74167000  0.25842800  0.37502700  1
  Al  Al7  1  0.74167100  0.74167800  0.12499900  1
  V  V8  1  0.49961800  0.77454300  0.49989200  1
  V  V9  1  0.77449500  0.49962000  0.75007800  1
  V  V10  1  0.22546600  0.50057000  0.25011600  1
  V  V11  1  0.50054400  0.22547800  0.99992300  1
  O  O12  1  0.00381600  0.26722000  0.26131300  1
  O  O13  1  0.00400400  0.73259700  0.23864400  1
  O  O14  1  0.26724100  0.00382400  0.98868800  1
  O  O15  1  0.26729000  0.99611200  0.51123600  1
  O  O16  1  0.73259600  0.99611800  0.48856200  1
  O  O17  1  0.73259900  0.00398800  0.01134800  1
  O  O18  1  0.99611200  0.26729600  0.73878500  1
  O  O19  1  0.99609900  0.73257200  0.76141400  1
  O  O20  1  0.26679000  0.49276300  0.00993700  1
  O  O21  1  0.26679600  0.50685400  0.49015200  1
  O  O22  1  0.49275100  0.26679000  0.24006300  1
  O  O23  1  0.49326800  0.73341100  0.25972200  1
  O  O24  1  0.50688300  0.26681500  0.75984000  1
  O  O25  1  0.50707900  0.73314000  0.73996200  1
  O  O26  1  0.73315900  0.50708100  0.51001500  1
  O  O27  1  0.73338500  0.49324500  0.99030300  1
