# generated using pymatgen
data_Li3Fe(PO4)2
_symmetry_space_group_name_H-M   'P 1'
_cell_length_a   8.74233100
_cell_length_b   8.75059846
_cell_length_c   9.20292301
_cell_angle_alpha   87.82702347
_cell_angle_beta   87.34893253
_cell_angle_gamma   66.62851832
_symmetry_Int_Tables_number   1
_chemical_formula_structural   Li3Fe(PO4)2
_chemical_formula_sum   'Li12 Fe4 P8 O32'
_cell_volume   645.42663508
_cell_formula_units_Z   4
loop_
 _symmetry_equiv_pos_site_id
 _symmetry_equiv_pos_as_xyz
  1  'x, y, z'
loop_
 _atom_site_type_symbol
 _atom_site_label
 _atom_site_symmetry_multiplicity
 _atom_site_fract_x
 _atom_site_fract_y
 _atom_site_fract_z
 _atom_site_occupancy
  Li  Li0  1  0.64817900  0.86606400  0.78411500  1
  Li  Li1  1  0.87786700  0.63540900  0.29137100  1
  Li  Li2  1  0.95603600  0.15490600  0.45144100  1
  Li  Li3  1  0.93120900  0.10464200  0.76897300  1
  Li  Li4  1  0.41807500  0.57919100  0.76031900  1
  Li  Li5  1  0.56426900  0.43665900  0.24683400  1
  Li  Li6  1  0.10421600  0.89505900  0.23488400  1
  Li  Li7  1  0.04005000  0.84230900  0.53762700  1
  Li  Li8  1  0.86336600  0.04489500  0.03440700  1
  Li  Li9  1  0.12143100  0.39711900  0.66723500  1
  Li  Li10  1  0.36818600  0.13973700  0.23505100  1
  Li  Li11  1  0.29026300  0.11088800  0.89113900  1
  Fe  Fe12  1  0.75263600  0.50031000  0.91191300  1
  Fe  Fe13  1  0.49381900  0.76248900  0.40967200  1
  Fe  Fe14  1  0.50742600  0.23343400  0.59495000  1
  Fe  Fe15  1  0.23466700  0.50488900  0.09166900  1
  P  P16  1  0.98671800  0.71139900  0.92904500  1
  P  P17  1  0.71080200  0.98313800  0.43210700  1
  P  P18  1  0.75610400  0.42623400  0.57064100  1
  P  P19  1  0.41766000  0.76770300  0.07202100  1
  P  P20  1  0.57132200  0.23960900  0.92676500  1
  P  P21  1  0.23792800  0.56899700  0.42989500  1
  P  P22  1  0.28380700  0.00983500  0.57601100  1
  P  P23  1  0.01506300  0.27750900  0.07766300  1
  O  O24  1  0.96590300  0.88754700  0.88092300  1
  O  O25  1  0.88656100  0.97419600  0.38921900  1
  O  O26  1  0.84658600  0.67035200  0.86056300  1
  O  O27  1  0.68607700  0.83324800  0.36899400  1
  O  O28  1  0.94321700  0.37709500  0.54752700  1
  O  O29  1  0.36568400  0.95431000  0.05452800  1
  O  O30  1  0.04452100  0.26244200  0.90885800  1
  O  O31  1  0.31420700  0.01882700  0.40739800  1
  O  O32  1  0.42239100  0.83891500  0.62342200  1
  O  O33  1  0.84573800  0.43367800  0.10555800  1
  O  O34  1  0.52173500  0.66812400  0.93695300  1
  O  O35  1  0.65395500  0.52769500  0.43869300  1
  O  O36  1  0.67990200  0.52629100  0.70933300  1
  O  O37  1  0.52842000  0.69139500  0.20549600  1
  O  O38  1  0.73117800  0.25913300  0.58127100  1
  O  O39  1  0.26098600  0.72671800  0.09365000  1
  O  O40  1  0.74299500  0.25689900  0.91502200  1
  O  O41  1  0.26720400  0.73402800  0.41756300  1
  O  O42  1  0.46810400  0.32621200  0.79242100  1
  O  O43  1  0.31642600  0.46392000  0.29429300  1
  O  O44  1  0.33188600  0.46367900  0.56385100  1
  O  O45  1  0.47402600  0.34335900  0.06128300  1
  O  O46  1  0.16033000  0.57337700  0.88064400  1
  O  O47  1  0.56926700  0.15174800  0.38123800  1
  O  O48  1  0.67989600  0.98486000  0.60222300  1
  O  O49  1  0.98229500  0.68722800  0.09941500  1
  O  O50  1  0.59982300  0.05710000  0.93850700  1
  O  O51  1  0.05054900  0.62076100  0.45315600  1
  O  O52  1  0.30965700  0.15340200  0.65555400  1
  O  O53  1  0.16040600  0.31383700  0.14068100  1
  O  O54  1  0.10607900  0.01893100  0.61164800  1
  O  O55  1  0.00027800  0.12408400  0.15313600  1
