# generated using pymatgen
data_Li3BePCO7
_symmetry_space_group_name_H-M   'P 1'
_cell_length_a   6.21803300
_cell_length_b   4.78290000
_cell_length_c   8.22117453
_cell_angle_alpha   87.21035114
_cell_angle_beta   90.00000000
_cell_angle_gamma   90.00000000
_symmetry_Int_Tables_number   1
_chemical_formula_structural   Li3BePCO7
_chemical_formula_sum   'Li6 Be2 P2 C2 O14'
_cell_volume   244.20987660
_cell_formula_units_Z   2
loop_
 _symmetry_equiv_pos_site_id
 _symmetry_equiv_pos_as_xyz
  1  'x, y, z'
loop_
 _atom_site_type_symbol
 _atom_site_label
 _atom_site_symmetry_multiplicity
 _atom_site_fract_x
 _atom_site_fract_y
 _atom_site_fract_z
 _atom_site_occupancy
  Li  Li0  1  0.75000000  0.24968400  0.87978700  1
  Li  Li1  1  0.01696900  0.77465700  0.75821800  1
  Li  Li2  1  0.48303100  0.77465700  0.75821800  1
  Li  Li3  1  0.51696900  0.22534300  0.24178200  1
  Li  Li4  1  0.98303100  0.22534300  0.24178200  1
  Li  Li5  1  0.25000000  0.75031600  0.12021300  1
  Be  Be6  1  0.25000000  0.22470100  0.63633000  1
  Be  Be7  1  0.75000000  0.77529900  0.36367000  1
  P  P8  1  0.75000000  0.26838400  0.57304500  1
  P  P9  1  0.25000000  0.73161600  0.42695500  1
  C  C10  1  0.25000000  0.25293800  0.94725600  1
  C  C11  1  0.75000000  0.74706200  0.05274400  1
  O  O12  1  0.25000000  0.98679000  0.92886900  1
  O  O13  1  0.75000000  0.64935400  0.90715500  1
  O  O14  1  0.25000000  0.42354600  0.81834500  1
  O  O15  1  0.94528200  0.18493900  0.68166500  1
  O  O16  1  0.55471800  0.18493900  0.68166500  1
  O  O17  1  0.75000000  0.58991300  0.53420800  1
  O  O18  1  0.25000000  0.87525500  0.59226100  1
  O  O19  1  0.75000000  0.12474500  0.40773900  1
  O  O20  1  0.25000000  0.41008700  0.46579200  1
  O  O21  1  0.44528200  0.81506100  0.31833500  1
  O  O22  1  0.05471800  0.81506100  0.31833500  1
  O  O23  1  0.75000000  0.57645400  0.18165500  1
  O  O24  1  0.25000000  0.35064600  0.09284500  1
  O  O25  1  0.75000000  0.01321000  0.07113100  1
