# generated using pymatgen
data_LiCo2OF5
_symmetry_space_group_name_H-M   'P 1'
_cell_length_a   4.57867249
_cell_length_b   4.57867249
_cell_length_c   18.36822503
_cell_angle_alpha   89.24174627
_cell_angle_beta   89.24174627
_cell_angle_gamma   89.94535186
_symmetry_Int_Tables_number   1
_chemical_formula_structural   LiCo2OF5
_chemical_formula_sum   'Li4 Co8 O4 F20'
_cell_volume   385.00835599
_cell_formula_units_Z   4
loop_
 _symmetry_equiv_pos_site_id
 _symmetry_equiv_pos_as_xyz
  1  'x, y, z'
loop_
 _atom_site_type_symbol
 _atom_site_label
 _atom_site_symmetry_multiplicity
 _atom_site_fract_x
 _atom_site_fract_y
 _atom_site_fract_z
 _atom_site_occupancy
  Li  Li0  1  0.00567600  0.01394600  0.00010300  1
  Li  Li1  1  0.01394600  0.00567600  0.50010300  1
  Li  Li2  1  0.50404200  0.48636300  0.24990900  1
  Li  Li3  1  0.48636300  0.50404200  0.74990900  1
  Co  Co4  1  0.99233700  0.99029700  0.33560200  1
  Co  Co5  1  0.02296100  0.97095700  0.16716600  1
  Co  Co6  1  0.97095700  0.02296100  0.66716600  1
  Co  Co7  1  0.99029700  0.99233700  0.83560200  1
  Co  Co8  1  0.50925500  0.49261000  0.58585900  1
  Co  Co9  1  0.49261000  0.50925500  0.08585900  1
  Co  Co10  1  0.52638700  0.52217800  0.41733800  1
  Co  Co11  1  0.52217800  0.52638700  0.91733800  1
  O  O12  1  0.79661700  0.79376400  0.40885800  1
  O  O13  1  0.79376400  0.79661700  0.90885800  1
  O  O14  1  0.70047400  0.29404900  0.65863700  1
  O  O15  1  0.29404900  0.70047400  0.15863700  1
  F  F16  1  0.79055900  0.80038800  0.08396500  1
  F  F17  1  0.80188500  0.79906100  0.25093000  1
  F  F18  1  0.80038800  0.79055900  0.58396500  1
  F  F19  1  0.79906100  0.80188500  0.75093000  1
  F  F20  1  0.68653700  0.31637800  0.00490000  1
  F  F21  1  0.70833200  0.28596000  0.16454600  1
  F  F22  1  0.70031100  0.29075300  0.83444900  1
  F  F23  1  0.70021700  0.30179900  0.50045800  1
  F  F24  1  0.70288200  0.28865200  0.33428000  1
  F  F25  1  0.30179900  0.70021700  0.00045800  1
  F  F26  1  0.29075300  0.70031100  0.33444900  1
  F  F27  1  0.31637800  0.68653700  0.50490000  1
  F  F28  1  0.28865200  0.70288200  0.83428000  1
  F  F29  1  0.28596000  0.70833200  0.66454600  1
  F  F30  1  0.18628000  0.18323200  0.25374100  1
  F  F31  1  0.20115500  0.21163200  0.08487200  1
  F  F32  1  0.21301000  0.20906500  0.41438900  1
  F  F33  1  0.21163200  0.20115500  0.58487200  1
  F  F34  1  0.18323200  0.18628000  0.75374100  1
  F  F35  1  0.20906500  0.21301000  0.91438900  1
