# generated using pymatgen
data_Li2VOF4
_symmetry_space_group_name_H-M   'P 1'
_cell_length_a   5.04808300
_cell_length_b   7.22002559
_cell_length_c   10.34605698
_cell_angle_alpha   108.97466729
_cell_angle_beta   89.78271864
_cell_angle_gamma   91.13500279
_symmetry_Int_Tables_number   1
_chemical_formula_structural   Li2VOF4
_chemical_formula_sum   'Li8 V4 O4 F16'
_cell_volume   356.52443723
_cell_formula_units_Z   4
loop_
 _symmetry_equiv_pos_site_id
 _symmetry_equiv_pos_as_xyz
  1  'x, y, z'
loop_
 _atom_site_type_symbol
 _atom_site_label
 _atom_site_symmetry_multiplicity
 _atom_site_fract_x
 _atom_site_fract_y
 _atom_site_fract_z
 _atom_site_occupancy
  Li  Li0  1  0.49293300  0.88468300  0.13842900  1
  Li  Li1  1  0.03320300  0.85203000  0.65991300  1
  Li  Li2  1  0.03590900  0.62860700  0.31302000  1
  Li  Li3  1  0.46803900  0.63951200  0.81295600  1
  Li  Li4  1  0.47661300  0.36777200  0.15730200  1
  Li  Li5  1  0.01627700  0.38314300  0.65900300  1
  Li  Li6  1  0.99711900  0.11624600  0.36157600  1
  Li  Li7  1  0.50956900  0.11840800  0.85406000  1
  V  V8  1  0.51789900  0.97277900  0.49947800  1
  V  V9  1  0.01309400  0.03439300  0.00533800  1
  V  V10  1  0.53567700  0.48387800  0.48924100  1
  V  V11  1  0.96891000  0.53447900  0.00060200  1
  O  O12  1  0.64965400  0.75491300  0.49960800  1
  O  O13  1  0.84047800  0.75058100  0.99951100  1
  O  O14  1  0.15325500  0.25295500  0.00996100  1
  O  O15  1  0.78946700  0.36675400  0.40062400  1
  F  F16  1  0.65073600  0.96621100  0.32231800  1
  F  F17  1  0.17675100  0.87847200  0.41519600  1
  F  F18  1  0.84007800  0.96431600  0.82662300  1
  F  F19  1  0.27419100  0.63768200  0.11731300  1
  F  F20  1  0.31598000  0.88104600  0.91457100  1
  F  F21  1  0.79468200  0.52508500  0.16634100  1
  F  F22  1  0.22707300  0.61111100  0.61486900  1
  F  F23  1  0.30749300  0.46390800  0.33202300  1
  F  F24  1  0.70323500  0.53497200  0.67037000  1
  F  F25  1  0.18529100  0.47331400  0.83745700  1
  F  F26  1  0.67329600  0.12119200  0.08804700  1
  F  F27  1  0.33737600  0.24030800  0.50303800  1
  F  F28  1  0.70479200  0.35832400  0.89483500  1
  F  F29  1  0.15532700  0.03439800  0.17967900  1
  F  F30  1  0.81508400  0.13659800  0.58040300  1
  F  F31  1  0.34051900  0.03192900  0.67629800  1
