# generated using pymatgen
data_Li2Mn2P2O9
_symmetry_space_group_name_H-M   'P 1'
_cell_length_a   5.63647600
_cell_length_b   8.43213200
_cell_length_c   15.34502400
_cell_angle_alpha   90.00000000
_cell_angle_beta   90.00000000
_cell_angle_gamma   90.00000000
_symmetry_Int_Tables_number   1
_chemical_formula_structural   Li2Mn2P2O9
_chemical_formula_sum   'Li8 Mn8 P8 O36'
_cell_volume   729.31077619
_cell_formula_units_Z   4
loop_
 _symmetry_equiv_pos_site_id
 _symmetry_equiv_pos_as_xyz
  1  'x, y, z'
loop_
 _atom_site_type_symbol
 _atom_site_label
 _atom_site_symmetry_multiplicity
 _atom_site_fract_x
 _atom_site_fract_y
 _atom_site_fract_z
 _atom_site_occupancy
  Li  Li0  1  0.25000000  0.03798200  0.75988400  1
  Li  Li1  1  0.25000000  0.18906800  0.13496900  1
  Li  Li2  1  0.75000000  0.31093200  0.63496900  1
  Li  Li3  1  0.75000000  0.46201800  0.25988400  1
  Li  Li4  1  0.25000000  0.53798200  0.74011600  1
  Li  Li5  1  0.25000000  0.68906800  0.36503100  1
  Li  Li6  1  0.75000000  0.81093200  0.86503100  1
  Li  Li7  1  0.75000000  0.96201800  0.24011600  1
  Mn  Mn8  1  0.50000000  0.00000000  0.50000000  1
  Mn  Mn9  1  0.00000000  0.00000000  0.50000000  1
  Mn  Mn10  1  0.25000000  0.20480700  0.93247200  1
  Mn  Mn11  1  0.75000000  0.29519300  0.43247200  1
  Mn  Mn12  1  0.00000000  0.50000000  0.00000000  1
  Mn  Mn13  1  0.50000000  0.50000000  0.00000000  1
  Mn  Mn14  1  0.25000000  0.70480700  0.56752800  1
  Mn  Mn15  1  0.75000000  0.79519300  0.06752800  1
  P  P16  1  0.75000000  0.17305200  0.08183600  1
  P  P17  1  0.25000000  0.20201700  0.33585300  1
  P  P18  1  0.75000000  0.29798300  0.83585300  1
  P  P19  1  0.25000000  0.32694800  0.58183600  1
  P  P20  1  0.75000000  0.67305200  0.41816400  1
  P  P21  1  0.25000000  0.70201700  0.16414700  1
  P  P22  1  0.75000000  0.79798300  0.66414700  1
  P  P23  1  0.25000000  0.82694800  0.91816400  1
  O  O24  1  0.25000000  0.99084000  0.96379600  1
  O  O25  1  0.25000000  0.06726000  0.41126300  1
  O  O26  1  0.75000000  0.06813500  0.42711600  1
  O  O27  1  0.25000000  0.11680600  0.24971600  1
  O  O28  1  0.75000000  0.16463400  0.18015400  1
  O  O29  1  0.52415400  0.19401800  0.84936500  1
  O  O30  1  0.97584600  0.19401800  0.84936500  1
  O  O31  1  0.01680600  0.23989200  0.54948400  1
  O  O32  1  0.48319400  0.23989200  0.54948400  1
  O  O33  1  0.51680600  0.26010800  0.04948400  1
  O  O34  1  0.98319400  0.26010800  0.04948400  1
  O  O35  1  0.02415400  0.30598200  0.34936500  1
  O  O36  1  0.47584600  0.30598200  0.34936500  1
  O  O37  1  0.25000000  0.33536600  0.68015400  1
  O  O38  1  0.75000000  0.38319400  0.74971600  1
  O  O39  1  0.25000000  0.43186500  0.92711600  1
  O  O40  1  0.75000000  0.43274000  0.91126300  1
  O  O41  1  0.75000000  0.50916000  0.46379600  1
  O  O42  1  0.25000000  0.49084000  0.53620400  1
  O  O43  1  0.25000000  0.56726000  0.08873700  1
  O  O44  1  0.75000000  0.56813500  0.07288400  1
  O  O45  1  0.25000000  0.61680600  0.25028400  1
  O  O46  1  0.75000000  0.66463400  0.31984600  1
  O  O47  1  0.52415400  0.69401800  0.65063500  1
  O  O48  1  0.97584600  0.69401800  0.65063500  1
  O  O49  1  0.01680600  0.73989200  0.95051600  1
  O  O50  1  0.48319400  0.73989200  0.95051600  1
  O  O51  1  0.51680600  0.76010800  0.45051600  1
  O  O52  1  0.98319400  0.76010800  0.45051600  1
  O  O53  1  0.02415400  0.80598200  0.15063500  1
  O  O54  1  0.47584600  0.80598200  0.15063500  1
  O  O55  1  0.25000000  0.83536600  0.81984600  1
  O  O56  1  0.75000000  0.88319400  0.75028400  1
  O  O57  1  0.25000000  0.93186500  0.57288400  1
  O  O58  1  0.75000000  0.93274000  0.58873700  1
  O  O59  1  0.75000000  0.00916000  0.03620400  1
