# generated using pymatgen
data_Li3Sn2(PO4)3
_symmetry_space_group_name_H-M   'P 1'
_cell_length_a   9.38908100
_cell_length_b   8.90706700
_cell_length_c   12.54289796
_cell_angle_alpha   85.96329431
_cell_angle_beta   90.00000000
_cell_angle_gamma   90.00000000
_symmetry_Int_Tables_number   1
_chemical_formula_structural   Li3Sn2(PO4)3
_chemical_formula_sum   'Li12 Sn8 P12 O48'
_cell_volume   1046.34990449
_cell_formula_units_Z   4
loop_
 _symmetry_equiv_pos_site_id
 _symmetry_equiv_pos_as_xyz
  1  'x, y, z'
loop_
 _atom_site_type_symbol
 _atom_site_label
 _atom_site_symmetry_multiplicity
 _atom_site_fract_x
 _atom_site_fract_y
 _atom_site_fract_z
 _atom_site_occupancy
  Li  Li0  1  0.23055100  0.70729200  0.91138900  1
  Li  Li1  1  0.57211900  0.50000000  0.75000000  1
  Li  Li2  1  0.23055100  0.29270800  0.58861100  1
  Li  Li3  1  0.50000000  0.50000000  0.50000000  1
  Li  Li4  1  0.00000000  0.00000000  0.50000000  1
  Li  Li5  1  0.76944900  0.70729200  0.41138900  1
  Li  Li6  1  0.86784200  0.00000000  0.75000000  1
  Li  Li7  1  0.42788100  0.50000000  0.25000000  1
  Li  Li8  1  0.13215800  0.00000000  0.25000000  1
  Li  Li9  1  0.00000000  0.00000000  0.00000000  1
  Li  Li10  1  0.50000000  0.50000000  0.00000000  1
  Li  Li11  1  0.76944900  0.29270800  0.08861100  1
  Sn  Sn12  1  0.99048700  0.70685400  0.64070200  1
  Sn  Sn13  1  0.51160900  0.82442500  0.83359800  1
  Sn  Sn14  1  0.99048700  0.29314600  0.85929800  1
  Sn  Sn15  1  0.48839100  0.82442500  0.33359800  1
  Sn  Sn16  1  0.00951300  0.70685400  0.14070200  1
  Sn  Sn17  1  0.51160900  0.17557500  0.66640200  1
  Sn  Sn18  1  0.00951300  0.29314600  0.35929800  1
  Sn  Sn19  1  0.48839100  0.17557500  0.16640200  1
  P  P20  1  0.27253800  0.50000000  0.75000000  1
  P  P21  1  0.84841500  0.65798800  0.89636400  1
  P  P22  1  0.65487600  0.79604600  0.59057400  1
  P  P23  1  0.15158500  0.65798800  0.39636400  1
  P  P24  1  0.65487600  0.20395400  0.90942600  1
  P  P25  1  0.15082700  0.00000000  0.75000000  1
  P  P26  1  0.84841500  0.34201200  0.60363600  1
  P  P27  1  0.34512400  0.79604600  0.09057400  1
  P  P28  1  0.34512400  0.20395400  0.40942600  1
  P  P29  1  0.15158500  0.34201200  0.10363600  1
  P  P30  1  0.72746200  0.50000000  0.25000000  1
  P  P31  1  0.84917300  0.00000000  0.25000000  1
  O  O32  1  0.23474600  0.87726100  0.81064200  1
  O  O33  1  0.62154400  0.04060800  0.88860300  1
  O  O34  1  0.04369000  0.93599200  0.66226600  1
  O  O35  1  0.36508800  0.56492100  0.83675200  1
  O  O36  1  0.17575300  0.37337700  0.80226000  1
  O  O37  1  0.68655100  0.64490000  0.91023200  1
  O  O38  1  0.91775100  0.74911900  0.98589200  1
  O  O39  1  0.17575300  0.62662300  0.69774000  1
  O  O40  1  0.58120800  0.26405400  0.00858200  1
  O  O41  1  0.08224900  0.74911900  0.48589200  1
  O  O42  1  0.04369000  0.06400800  0.83773400  1
  O  O43  1  0.62677700  0.68401900  0.68489800  1
  O  O44  1  0.37845600  0.04060800  0.38860300  1
  O  O45  1  0.92084900  0.50176100  0.89654200  1
  O  O46  1  0.88969700  0.74996800  0.78839300  1
  O  O47  1  0.36508800  0.43507900  0.66324800  1
  O  O48  1  0.62677700  0.31598100  0.81510200  1
  O  O49  1  0.11030300  0.74996800  0.28839300  1
  O  O50  1  0.82067700  0.79771100  0.55686400  1
  O  O51  1  0.58120800  0.73594600  0.49141800  1
  O  O52  1  0.07915100  0.50176100  0.39654200  1
  O  O53  1  0.23474600  0.12273900  0.68935800  1
  O  O54  1  0.82067700  0.20228900  0.94313600  1
  O  O55  1  0.31344900  0.64490000  0.41023200  1
  O  O56  1  0.68655100  0.35510000  0.58976800  1
  O  O57  1  0.17932300  0.79771100  0.05686400  1
  O  O58  1  0.92084900  0.49823900  0.60345800  1
  O  O59  1  0.76525400  0.87726100  0.31064200  1
  O  O60  1  0.41879200  0.26405400  0.50858200  1
  O  O61  1  0.17932300  0.20228900  0.44313600  1
  O  O62  1  0.37322300  0.68401900  0.18489800  1
  O  O63  1  0.88969700  0.25003200  0.71160700  1
  O  O64  1  0.63491200  0.56492100  0.33675200  1
  O  O65  1  0.11030300  0.25003200  0.21160700  1
  O  O66  1  0.62154400  0.95939200  0.61139700  1
  O  O67  1  0.07915100  0.49823900  0.10345800  1
  O  O68  1  0.37322300  0.31598100  0.31510200  1
  O  O69  1  0.95631000  0.93599200  0.16226600  1
  O  O70  1  0.91775100  0.25088100  0.51410800  1
  O  O71  1  0.41879200  0.73594600  0.99141800  1
  O  O72  1  0.82424700  0.37337700  0.30226000  1
  O  O73  1  0.31344900  0.35510000  0.08976800  1
  O  O74  1  0.08224900  0.25088100  0.01410800  1
  O  O75  1  0.82424700  0.62662300  0.19774000  1
  O  O76  1  0.63491200  0.43507900  0.16324800  1
  O  O77  1  0.95631000  0.06400800  0.33773400  1
  O  O78  1  0.37845600  0.95939200  0.11139700  1
  O  O79  1  0.76525400  0.12273900  0.18935800  1
