# generated using pymatgen
data_Li19(CoO4)4
_symmetry_space_group_name_H-M   'P 1'
_cell_length_a   6.72528800
_cell_length_b   7.18369700
_cell_length_c   7.86916250
_cell_angle_alpha   89.85996339
_cell_angle_beta   90.00000000
_cell_angle_gamma   90.00000000
_symmetry_Int_Tables_number   1
_chemical_formula_structural   Li19(CoO4)4
_chemical_formula_sum   'Li19 Co4 O16'
_cell_volume   380.17723677
_cell_formula_units_Z   1
loop_
 _symmetry_equiv_pos_site_id
 _symmetry_equiv_pos_as_xyz
  1  'x, y, z'
loop_
 _atom_site_type_symbol
 _atom_site_label
 _atom_site_symmetry_multiplicity
 _atom_site_fract_x
 _atom_site_fract_y
 _atom_site_fract_z
 _atom_site_occupancy
  Li  Li0  1  0.76278200  0.50224000  0.01967500  1
  Li  Li1  1  0.23721800  0.50224000  0.01967500  1
  Li  Li2  1  0.50000000  0.75438100  0.91552100  1
  Li  Li3  1  0.73911600  0.99820800  0.84207900  1
  Li  Li4  1  0.26088400  0.99820800  0.84207900  1
  Li  Li5  1  0.00000000  0.74025800  0.73720900  1
  Li  Li6  1  0.74633700  0.46269400  0.65996400  1
  Li  Li7  1  0.25366300  0.46269400  0.65996400  1
  Li  Li8  1  0.00000000  0.24732900  0.58594000  1
  Li  Li9  1  0.24613100  0.99758200  0.48774500  1
  Li  Li10  1  0.75386900  0.99758200  0.48774500  1
  Li  Li11  1  0.00000000  0.74353400  0.41831700  1
  Li  Li12  1  0.75400500  0.51527900  0.34150500  1
  Li  Li13  1  0.24599500  0.51527900  0.34150500  1
  Li  Li14  1  0.00000000  0.25743700  0.27022900  1
  Li  Li15  1  0.50000000  0.75689100  0.22350400  1
  Li  Li16  1  0.25716500  0.02152400  0.16375200  1
  Li  Li17  1  0.74283500  0.02152400  0.16375200  1
  Li  Li18  1  0.50000000  0.26448300  0.06104800  1
  Co  Co19  1  0.00000000  0.23619800  0.89679400  1
  Co  Co20  1  0.50000000  0.72968100  0.60228700  1
  Co  Co21  1  0.50000000  0.26344300  0.38249200  1
  Co  Co22  1  0.00000000  0.77638100  0.10934900  1
  O  O23  1  0.75677900  0.21940500  0.99778800  1
  O  O24  1  0.24322100  0.21940500  0.99778800  1
  O  O25  1  0.00000000  0.46611200  0.77583800  1
  O  O26  1  0.50000000  0.55244100  0.75756300  1
  O  O27  1  0.00000000  0.02825700  0.73274900  1
  O  O28  1  0.50000000  0.94030300  0.71189200  1
  O  O29  1  0.74926800  0.71216400  0.52383300  1
  O  O30  1  0.25073200  0.71216400  0.52383300  1
  O  O31  1  0.75612500  0.28183000  0.46641300  1
  O  O32  1  0.24387500  0.28183000  0.46641300  1
  O  O33  1  0.50000000  0.01844700  0.29482700  1
  O  O34  1  0.00000000  0.96908000  0.28209300  1
  O  O35  1  0.50000000  0.47566900  0.22256700  1
  O  O36  1  0.00000000  0.53777400  0.21652600  1
  O  O37  1  0.74629500  0.78972200  0.02356400  1
  O  O38  1  0.25370500  0.78972200  0.02356400  1
