# generated using pymatgen
data_Li2VBO4
_symmetry_space_group_name_H-M   'P 1'
_cell_length_a   4.71419000
_cell_length_b   5.88922500
_cell_length_c   10.90393700
_cell_angle_alpha   90.00000000
_cell_angle_beta   90.00000000
_cell_angle_gamma   90.00000000
_symmetry_Int_Tables_number   1
_chemical_formula_structural   Li2VBO4
_chemical_formula_sum   'Li8 V4 B4 O16'
_cell_volume   302.72519171
_cell_formula_units_Z   4
loop_
 _symmetry_equiv_pos_site_id
 _symmetry_equiv_pos_as_xyz
  1  'x, y, z'
loop_
 _atom_site_type_symbol
 _atom_site_label
 _atom_site_symmetry_multiplicity
 _atom_site_fract_x
 _atom_site_fract_y
 _atom_site_fract_z
 _atom_site_occupancy
  Li  Li0  1  0.19470100  0.99569100  0.58152300  1
  Li  Li1  1  0.30529900  0.99569100  0.08152300  1
  Li  Li2  1  0.30529900  0.50430900  0.08152300  1
  Li  Li3  1  0.19470100  0.50430900  0.58152300  1
  Li  Li4  1  0.69470100  0.49569100  0.91847700  1
  Li  Li5  1  0.80529900  0.49569100  0.41847700  1
  Li  Li6  1  0.80529900  0.00430900  0.41847700  1
  Li  Li7  1  0.69470100  0.00430900  0.91847700  1
  V  V8  1  0.19532700  0.25000000  0.82006900  1
  V  V9  1  0.30467300  0.25000000  0.32006900  1
  V  V10  1  0.69532700  0.75000000  0.67993100  1
  V  V11  1  0.80467300  0.75000000  0.17993100  1
  B  B12  1  0.67317300  0.25000000  0.66178100  1
  B  B13  1  0.82682700  0.25000000  0.16178100  1
  B  B14  1  0.32682700  0.75000000  0.33821900  1
  B  B15  1  0.17317300  0.75000000  0.83821900  1
  O  O16  1  0.77403400  0.03992100  0.59682200  1
  O  O17  1  0.72596600  0.03992100  0.09682200  1
  O  O18  1  0.35731200  0.25000000  0.66131200  1
  O  O19  1  0.72903700  0.25000000  0.29498300  1
  O  O20  1  0.14268800  0.25000000  0.16131200  1
  O  O21  1  0.77096300  0.25000000  0.79498300  1
  O  O22  1  0.72596600  0.46007900  0.09682200  1
  O  O23  1  0.77403400  0.46007900  0.59682200  1
  O  O24  1  0.27403400  0.53992100  0.90317800  1
  O  O25  1  0.22596600  0.53992100  0.40317800  1
  O  O26  1  0.64268800  0.75000000  0.33868800  1
  O  O27  1  0.85731200  0.75000000  0.83868800  1
  O  O28  1  0.27096300  0.75000000  0.70501700  1
  O  O29  1  0.22903700  0.75000000  0.20501700  1
  O  O30  1  0.22596600  0.96007900  0.40317800  1
  O  O31  1  0.27403400  0.96007900  0.90317800  1
