# generated using pymatgen
data_Li3V3O3F5
_symmetry_space_group_name_H-M   'P 1'
_cell_length_a   6.08395681
_cell_length_b   10.47973438
_cell_length_c   6.06291788
_cell_angle_alpha   73.78174447
_cell_angle_beta   119.40873669
_cell_angle_gamma   90.77914551
_symmetry_Int_Tables_number   1
_chemical_formula_structural   Li3V3O3F5
_chemical_formula_sum   'Li6 V6 O6 F10'
_cell_volume   319.80098691
_cell_formula_units_Z   2
loop_
 _symmetry_equiv_pos_site_id
 _symmetry_equiv_pos_as_xyz
  1  'x, y, z'
loop_
 _atom_site_type_symbol
 _atom_site_label
 _atom_site_symmetry_multiplicity
 _atom_site_fract_x
 _atom_site_fract_y
 _atom_site_fract_z
 _atom_site_occupancy
  Li  Li0  1  0.98937700  0.00270900  0.01549100  1
  Li  Li1  1  0.48932500  0.50256200  0.01565600  1
  Li  Li2  1  0.42082900  0.19363100  0.35894900  1
  Li  Li3  1  0.92109900  0.69338000  0.35943300  1
  Li  Li4  1  0.39409500  0.86819000  0.75667100  1
  Li  Li5  1  0.89392700  0.36816300  0.75652800  1
  V  V6  1  0.93798200  0.68600700  0.87695500  1
  V  V7  1  0.68111700  0.93264400  0.36204800  1
  V  V8  1  0.94470600  0.19272200  0.36434200  1
  V  V9  1  0.43800000  0.18607400  0.87658800  1
  V  V10  1  0.18073500  0.43296200  0.36214700  1
  V  V11  1  0.44444700  0.69278500  0.36402600  1
  O  O12  1  0.80031700  0.06675200  0.15496600  1
  O  O13  1  0.30103100  0.56625700  0.15541500  1
  O  O14  1  0.58077300  0.80855200  0.60177100  1
  O  O15  1  0.08111600  0.30859800  0.60270700  1
  O  O16  1  0.57242700  0.80859700  0.15635400  1
  O  O17  1  0.07212400  0.30857400  0.15635000  1
  F  F18  1  0.80237100  0.06710100  0.59928300  1
  F  F19  1  0.30224600  0.56706300  0.59946200  1
  F  F20  1  0.30471800  0.07053100  0.60841300  1
  F  F21  1  0.80396000  0.57033800  0.60827600  1
  F  F22  1  0.54372500  0.31216000  0.61084900  1
  F  F23  1  0.04361300  0.81217700  0.61081500  1
  F  F24  1  0.57396200  0.30377600  0.14287400  1
  F  F25  1  0.07392600  0.80400200  0.14284500  1
  F  F26  1  0.32915500  0.06183300  0.14026500  1
  F  F27  1  0.82889300  0.56186100  0.14051800  1
