# generated using pymatgen
data_Li4Ti2Nb3V3O16
_symmetry_space_group_name_H-M   'P 1'
_cell_length_a   6.05770344
_cell_length_b   6.05770344
_cell_length_c   9.82834915
_cell_angle_alpha   89.62655486
_cell_angle_beta   89.62655486
_cell_angle_gamma   59.20530105
_symmetry_Int_Tables_number   1
_chemical_formula_structural   Li4Ti2Nb3V3O16
_chemical_formula_sum   'Li4 Ti2 Nb3 V3 O16'
_cell_volume   309.79986784
_cell_formula_units_Z   1
loop_
 _symmetry_equiv_pos_site_id
 _symmetry_equiv_pos_as_xyz
  1  'x, y, z'
loop_
 _atom_site_type_symbol
 _atom_site_label
 _atom_site_symmetry_multiplicity
 _atom_site_fract_x
 _atom_site_fract_y
 _atom_site_fract_z
 _atom_site_occupancy
  Li  Li0  1  0.66763400  0.66763400  0.90124400  1
  Li  Li1  1  0.00433500  0.00433500  0.99109500  1
  Li  Li2  1  0.00840000  0.00840000  0.49200700  1
  Li  Li3  1  0.33479800  0.33479800  0.38848200  1
  Ti  Ti4  1  0.65773900  0.65773900  0.49517800  1
  Ti  Ti5  1  0.32719000  0.32719000  0.00032000  1
  Nb  Nb6  1  0.82667800  0.82667800  0.22301500  1
  Nb  Nb7  1  0.63535800  0.18231200  0.71582000  1
  Nb  Nb8  1  0.18231200  0.63535800  0.71582000  1
  V  V9  1  0.81881400  0.34958900  0.21166100  1
  V  V10  1  0.34958900  0.81881400  0.21166100  1
  V  V11  1  0.17244500  0.17244500  0.71164800  1
  O  O12  1  0.82136500  0.34018200  0.59475200  1
  O  O13  1  0.52501000  0.52501000  0.35116100  1
  O  O14  1  0.67662200  0.67662200  0.09783600  1
  O  O15  1  0.99877200  0.99877200  0.30645100  1
  O  O16  1  0.00119900  0.00119900  0.80620200  1
  O  O17  1  0.34018200  0.82136500  0.59475200  1
  O  O18  1  0.96482900  0.52300300  0.34299400  1
  O  O19  1  0.52300300  0.96482900  0.34299400  1
  O  O20  1  0.16949900  0.16949900  0.09271600  1
  O  O21  1  0.82952000  0.82952000  0.59309700  1
  O  O22  1  0.48850500  0.04099000  0.84706500  1
  O  O23  1  0.04099000  0.48850500  0.84706500  1
  O  O24  1  0.32776800  0.32776800  0.58124700  1
  O  O25  1  0.65692800  0.16213400  0.09723300  1
  O  O26  1  0.48695200  0.48695200  0.85710700  1
  O  O27  1  0.16213400  0.65692800  0.09723300  1
