# generated using pymatgen
data_Na3Li3Mn2P2(CO7)2
_symmetry_space_group_name_H-M   'P 1'
_cell_length_a   6.72374400
_cell_length_b   8.76739940
_cell_length_c   10.16680985
_cell_angle_alpha   90.74250306
_cell_angle_beta   90.25843126
_cell_angle_gamma   90.63791678
_symmetry_Int_Tables_number   1
_chemical_formula_structural   Na3Li3Mn2P2(CO7)2
_chemical_formula_sum   'Na6 Li6 Mn4 P4 C4 O28'
_cell_volume   599.23692843
_cell_formula_units_Z   2
loop_
 _symmetry_equiv_pos_site_id
 _symmetry_equiv_pos_as_xyz
  1  'x, y, z'
loop_
 _atom_site_type_symbol
 _atom_site_label
 _atom_site_symmetry_multiplicity
 _atom_site_fract_x
 _atom_site_fract_y
 _atom_site_fract_z
 _atom_site_occupancy
  Na  Na0  1  0.24853100  0.91690300  0.87892700  1
  Na  Na1  1  0.24620400  0.91675200  0.37890800  1
  Na  Na2  1  0.99949000  0.74625900  0.62495700  1
  Na  Na3  1  0.50055300  0.74560200  0.12423100  1
  Na  Na4  1  0.50142400  0.25453100  0.87635500  1
  Na  Na5  1  0.50162200  0.25482900  0.37612100  1
  Li  Li6  1  0.48334100  0.73224900  0.61824100  1
  Li  Li7  1  0.01679200  0.73190900  0.11912900  1
  Li  Li8  1  0.98372500  0.26713200  0.88304000  1
  Li  Li9  1  0.98357100  0.26770100  0.38391700  1
  Li  Li10  1  0.75308100  0.08564700  0.62419800  1
  Li  Li11  1  0.76569000  0.08512700  0.12417500  1
  Mn  Mn12  1  0.75100100  0.64024300  0.88881700  1
  Mn  Mn13  1  0.74750500  0.64009000  0.38881100  1
  Mn  Mn14  1  0.24479700  0.35721000  0.61149100  1
  Mn  Mn15  1  0.24646600  0.35747400  0.11129700  1
  P  P16  1  0.24886900  0.58776000  0.85129200  1
  P  P17  1  0.24064900  0.58793900  0.35150500  1
  P  P18  1  0.74884300  0.40597800  0.64874600  1
  P  P19  1  0.75795000  0.40655300  0.14867200  1
  C  C20  1  0.75687200  0.95312800  0.86600700  1
  C  C21  1  0.75868400  0.95326200  0.36631900  1
  C  C22  1  0.25555100  0.05429100  0.63282800  1
  C  C23  1  0.24011800  0.05403000  0.13265100  1
  O  O24  1  0.27534100  0.90733300  0.64205000  1
  O  O25  1  0.22674900  0.90631100  0.14169300  1
  O  O26  1  0.75036200  0.90598500  0.98736800  1
  O  O27  1  0.75214000  0.90585700  0.48758000  1
  O  O28  1  0.74710100  0.85415200  0.76903200  1
  O  O29  1  0.74975400  0.85449300  0.26924100  1
  O  O30  1  0.06714000  0.68476800  0.89499300  1
  O  O31  1  0.43654500  0.67501400  0.90253000  1
  O  O32  1  0.06170300  0.68376400  0.39968500  1
  O  O33  1  0.43114900  0.67664900  0.39854400  1
  O  O34  1  0.25915800  0.57958600  0.69738900  1
  O  O35  1  0.73421100  0.57105700  0.59449500  1
  O  O36  1  0.23588300  0.57983600  0.19753900  1
  O  O37  1  0.76789000  0.57215600  0.09464200  1
  O  O38  1  0.23379500  0.42282500  0.90356000  1
  O  O39  1  0.76868700  0.41963100  0.80183500  1
  O  O40  1  0.23450700  0.42278300  0.40385200  1
  O  O41  1  0.77047300  0.41927500  0.30215200  1
  O  O42  1  0.56314000  0.30690400  0.61172400  1
  O  O43  1  0.92813700  0.31541800  0.59309200  1
  O  O44  1  0.56448100  0.31910200  0.10841200  1
  O  O45  1  0.92968300  0.30539000  0.09582100  1
  O  O46  1  0.24214500  0.13966100  0.73768300  1
  O  O47  1  0.24472400  0.13991700  0.23775300  1
  O  O48  1  0.24800300  0.11805800  0.51814800  1
  O  O49  1  0.24994800  0.11794600  0.01830300  1
  O  O50  1  0.77272800  0.09662400  0.83988300  1
  O  O51  1  0.77309800  0.09690400  0.34036800  1
