# generated using pymatgen
data_LiVB2O5
_symmetry_space_group_name_H-M   'P 1'
_cell_length_a   10.84900700
_cell_length_b   5.48049500
_cell_length_c   12.09229846
_cell_angle_alpha   79.14431928
_cell_angle_beta   90.00000000
_cell_angle_gamma   90.00000000
_symmetry_Int_Tables_number   1
_chemical_formula_structural   LiVB2O5
_chemical_formula_sum   'Li8 V8 B16 O40'
_cell_volume   706.11659285
_cell_formula_units_Z   8
loop_
 _symmetry_equiv_pos_site_id
 _symmetry_equiv_pos_as_xyz
  1  'x, y, z'
loop_
 _atom_site_type_symbol
 _atom_site_label
 _atom_site_symmetry_multiplicity
 _atom_site_fract_x
 _atom_site_fract_y
 _atom_site_fract_z
 _atom_site_occupancy
  Li  Li0  1  0.62594000  0.36564000  0.05749200  1
  Li  Li1  1  0.87406000  0.86564000  0.05749200  1
  Li  Li2  1  0.11508900  0.12539700  0.44248800  1
  Li  Li3  1  0.38491100  0.62539700  0.44248800  1
  Li  Li4  1  0.61508900  0.37460300  0.55751200  1
  Li  Li5  1  0.88491100  0.87460300  0.55751200  1
  Li  Li6  1  0.12594000  0.13436000  0.94250800  1
  Li  Li7  1  0.37406000  0.63436000  0.94250800  1
  V  V8  1  0.37603300  0.27324300  0.23899200  1
  V  V9  1  0.87417300  0.25557300  0.25838600  1
  V  V10  1  0.12396700  0.77324300  0.23899200  1
  V  V11  1  0.62582700  0.75557300  0.25838600  1
  V  V12  1  0.37417300  0.24442700  0.74161400  1
  V  V13  1  0.87603300  0.22675700  0.76100800  1
  V  V14  1  0.12582700  0.74442700  0.74161400  1
  V  V15  1  0.62396700  0.72675700  0.76100800  1
  B  B16  1  0.36974200  0.14130900  0.00445000  1
  B  B17  1  0.13025800  0.64130900  0.00445000  1
  B  B18  1  0.11882700  0.30791100  0.16820500  1
  B  B19  1  0.38117300  0.80791100  0.16820500  1
  B  B20  1  0.62768100  0.20647900  0.33317700  1
  B  B21  1  0.87231900  0.70647900  0.33317700  1
  B  B22  1  0.38685900  0.15364800  0.50900600  1
  B  B23  1  0.88685900  0.34635200  0.49099400  1
  B  B24  1  0.11314100  0.65364800  0.50900600  1
  B  B25  1  0.61314100  0.84635200  0.49099400  1
  B  B26  1  0.12768100  0.29352100  0.66682300  1
  B  B27  1  0.37231900  0.79352100  0.66682300  1
  B  B28  1  0.61882700  0.19208900  0.83179500  1
  B  B29  1  0.88117300  0.69208900  0.83179500  1
  B  B30  1  0.86974200  0.35869100  0.99555000  1
  B  B31  1  0.63025800  0.85869100  0.99555000  1
  O  O32  1  0.39312400  0.31984100  0.06610800  1
  O  O33  1  0.10956100  0.38455600  0.05208500  1
  O  O34  1  0.82115500  0.31112700  0.10103300  1
  O  O35  1  0.10687600  0.81984100  0.06610800  1
  O  O36  1  0.39043900  0.88455600  0.05208500  1
  O  O37  1  0.67884500  0.81112700  0.10103300  1
  O  O38  1  0.04737700  0.11329100  0.22110700  1
  O  O39  1  0.55617500  0.10788200  0.25714000  1
  O  O40  1  0.19636000  0.43525300  0.22788400  1
  O  O41  1  0.45262300  0.61329100  0.22110700  1
  O  O42  1  0.70134600  0.40915800  0.29568700  1
  O  O43  1  0.94382500  0.60788200  0.25714000  1
  O  O44  1  0.30364000  0.93525300  0.22788400  1
  O  O45  1  0.79865400  0.90915800  0.29568700  1
  O  O46  1  0.35274100  0.24639800  0.40133200  1
  O  O47  1  0.62863000  0.10631100  0.44913800  1
  O  O48  1  0.92815400  0.19287100  0.42210600  1
  O  O49  1  0.14725900  0.74639800  0.40133200  1
  O  O50  1  0.87137000  0.60631100  0.44913800  1
  O  O51  1  0.57184600  0.69287100  0.42210600  1
  O  O52  1  0.42815400  0.30712900  0.57789400  1
  O  O53  1  0.12863000  0.39368900  0.55086200  1
  O  O54  1  0.85274100  0.25360200  0.59866800  1
  O  O55  1  0.07184600  0.80712900  0.57789400  1
  O  O56  1  0.37137000  0.89368900  0.55086200  1
  O  O57  1  0.64725900  0.75360200  0.59866800  1
  O  O58  1  0.20134600  0.09084200  0.70431300  1
  O  O59  1  0.69636000  0.06474700  0.77211600  1
  O  O60  1  0.05617500  0.39211800  0.74286000  1
  O  O61  1  0.29865400  0.59084200  0.70431300  1
  O  O62  1  0.54737700  0.38670900  0.77889300  1
  O  O63  1  0.80364000  0.56474700  0.77211600  1
  O  O64  1  0.44382500  0.89211800  0.74286000  1
  O  O65  1  0.95262300  0.88670900  0.77889300  1
  O  O66  1  0.32115500  0.18887300  0.89896700  1
  O  O67  1  0.60956100  0.11544400  0.94791500  1
  O  O68  1  0.89312400  0.18015900  0.93389200  1
  O  O69  1  0.17884500  0.68887300  0.89896700  1
  O  O70  1  0.89043900  0.61544400  0.94791500  1
  O  O71  1  0.60687600  0.68015900  0.93389200  1
