# generated using pymatgen
data_LiMnSiO4
_symmetry_space_group_name_H-M   'P 1'
_cell_length_a   5.93038000
_cell_length_b   7.36472000
_cell_length_c   15.64036100
_cell_angle_alpha   90.00000000
_cell_angle_beta   90.00000000
_cell_angle_gamma   90.00000000
_symmetry_Int_Tables_number   1
_chemical_formula_structural   LiMnSiO4
_chemical_formula_sum   'Li8 Mn8 Si8 O32'
_cell_volume   683.10196624
_cell_formula_units_Z   8
loop_
 _symmetry_equiv_pos_site_id
 _symmetry_equiv_pos_as_xyz
  1  'x, y, z'
loop_
 _atom_site_type_symbol
 _atom_site_label
 _atom_site_symmetry_multiplicity
 _atom_site_fract_x
 _atom_site_fract_y
 _atom_site_fract_z
 _atom_site_occupancy
  Li  Li0  1  0.09042200  0.26330500  0.26508300  1
  Li  Li1  1  0.59042200  0.26330500  0.23491700  1
  Li  Li2  1  0.59042200  0.23669500  0.73491700  1
  Li  Li3  1  0.09042200  0.23669500  0.76508300  1
  Li  Li4  1  0.40957800  0.76330500  0.26508300  1
  Li  Li5  1  0.90957800  0.76330500  0.23491700  1
  Li  Li6  1  0.40957800  0.73669500  0.76508300  1
  Li  Li7  1  0.90957800  0.73669500  0.73491700  1
  Mn  Mn8  1  0.38942300  0.17002200  0.53403700  1
  Mn  Mn9  1  0.88942300  0.17002200  0.96596300  1
  Mn  Mn10  1  0.38942300  0.32997800  0.03403700  1
  Mn  Mn11  1  0.88942300  0.32997800  0.46596300  1
  Mn  Mn12  1  0.11057700  0.67002200  0.53403700  1
  Mn  Mn13  1  0.61057700  0.67002200  0.96596300  1
  Mn  Mn14  1  0.11057700  0.82997800  0.03403700  1
  Mn  Mn15  1  0.61057700  0.82997800  0.46596300  1
  Si  Si16  1  0.90663200  0.03324300  0.61386100  1
  Si  Si17  1  0.40663200  0.03324300  0.88613900  1
  Si  Si18  1  0.90663200  0.46675700  0.11386100  1
  Si  Si19  1  0.40663200  0.46675700  0.38613900  1
  Si  Si20  1  0.59336800  0.53324300  0.61386100  1
  Si  Si21  1  0.09336800  0.53324300  0.88613900  1
  Si  Si22  1  0.59336800  0.96675700  0.11386100  1
  Si  Si23  1  0.09336800  0.96675700  0.38613900  1
  O  O24  1  0.83069400  0.98699500  0.05479700  1
  O  O25  1  0.33069400  0.98699500  0.44520300  1
  O  O26  1  0.35790900  0.10927200  0.79263800  1
  O  O27  1  0.85790900  0.10927200  0.70736200  1
  O  O28  1  0.46728400  0.16596600  0.12241800  1
  O  O29  1  0.96728400  0.16596600  0.37758200  1
  O  O30  1  0.06491100  0.17484600  0.55596800  1
  O  O31  1  0.56491100  0.17484600  0.94403200  1
  O  O32  1  0.06491100  0.32515400  0.05596800  1
  O  O33  1  0.56491100  0.32515400  0.44403200  1
  O  O34  1  0.46728400  0.33403400  0.62241800  1
  O  O35  1  0.96728400  0.33403400  0.87758200  1
  O  O36  1  0.85790900  0.39072800  0.20736200  1
  O  O37  1  0.35790900  0.39072800  0.29263800  1
  O  O38  1  0.83069400  0.51300500  0.55479700  1
  O  O39  1  0.33069400  0.51300500  0.94520300  1
  O  O40  1  0.16930600  0.48699500  0.44520300  1
  O  O41  1  0.66930600  0.48699500  0.05479700  1
  O  O42  1  0.64209100  0.60927200  0.70736200  1
  O  O43  1  0.14209100  0.60927200  0.79263800  1
  O  O44  1  0.03271600  0.66596600  0.12241800  1
  O  O45  1  0.53271600  0.66596600  0.37758200  1
  O  O46  1  0.43508900  0.67484600  0.55596800  1
  O  O47  1  0.93508900  0.67484600  0.94403200  1
  O  O48  1  0.43508900  0.82515400  0.05596800  1
  O  O49  1  0.93508900  0.82515400  0.44403200  1
  O  O50  1  0.03271600  0.83403400  0.62241800  1
  O  O51  1  0.53271600  0.83403400  0.87758200  1
  O  O52  1  0.64209100  0.89072800  0.20736200  1
  O  O53  1  0.14209100  0.89072800  0.29263800  1
  O  O54  1  0.66930600  0.01300500  0.55479700  1
  O  O55  1  0.16930600  0.01300500  0.94520300  1
