# generated using pymatgen
data_Li4Mn3Fe(PO4)4
_symmetry_space_group_name_H-M   'P 1'
_cell_length_a   12.18885383
_cell_length_b   12.18885383
_cell_length_c   4.78815915
_cell_angle_alpha   89.78761143
_cell_angle_beta   89.78761143
_cell_angle_gamma   60.64470952
_symmetry_Int_Tables_number   1
_chemical_formula_structural   Li4Mn3Fe(PO4)4
_chemical_formula_sum   'Li8 Mn6 Fe2 P8 O32'
_cell_volume   620.02020687
_cell_formula_units_Z   2
loop_
 _symmetry_equiv_pos_site_id
 _symmetry_equiv_pos_as_xyz
  1  'x, y, z'
loop_
 _atom_site_type_symbol
 _atom_site_label
 _atom_site_symmetry_multiplicity
 _atom_site_fract_x
 _atom_site_fract_y
 _atom_site_fract_z
 _atom_site_occupancy
  Li  Li0  1  0.49895900  0.25031100  0.49995300  1
  Li  Li1  1  0.25031100  0.49895900  0.49995300  1
  Li  Li2  1  0.74982100  0.99974200  0.49983500  1
  Li  Li3  1  0.99974200  0.74982100  0.49983500  1
  Li  Li4  1  0.49987500  0.74912200  0.00029700  1
  Li  Li5  1  0.74912200  0.49987500  0.00029700  1
  Li  Li6  1  0.24966300  0.00016200  0.99978500  1
  Li  Li7  1  0.00016200  0.24966300  0.99978500  1
  Mn  Mn8  1  0.51495700  0.01614700  0.97301600  1
  Mn  Mn9  1  0.01614700  0.51495700  0.97301600  1
  Mn  Mn10  1  0.26604900  0.76477500  0.52670400  1
  Mn  Mn11  1  0.76477500  0.26604900  0.52670400  1
  Mn  Mn12  1  0.73398700  0.73398700  0.47351900  1
  Mn  Mn13  1  0.98418800  0.98418800  0.02663900  1
  Fe  Fe14  1  0.23417000  0.23417000  0.47167000  1
  Fe  Fe15  1  0.48376400  0.48376400  0.02871100  1
  P  P16  1  0.82862800  0.82862800  0.91123100  1
  P  P17  1  0.32804600  0.32804600  0.91105400  1
  P  P18  1  0.57760300  0.57760300  0.58983300  1
  P  P19  1  0.07903300  0.07903300  0.58740000  1
  P  P20  1  0.92221300  0.41993400  0.41322600  1
  P  P21  1  0.41993400  0.92221300  0.41322600  1
  P  P22  1  0.67034300  0.17178300  0.08711700  1
  P  P23  1  0.17178300  0.67034300  0.08711700  1
  O  O24  1  0.89726700  0.89726700  0.78809100  1
  O  O25  1  0.39719700  0.39719700  0.79220000  1
  O  O26  1  0.39415300  0.19303200  0.77462300  1
  O  O27  1  0.89474900  0.69297300  0.77854800  1
  O  O28  1  0.69297300  0.89474900  0.77854800  1
  O  O29  1  0.19303200  0.39415300  0.77462300  1
  O  O30  1  0.67325300  0.17222000  0.76648400  1
  O  O31  1  0.17222000  0.67325300  0.76648400  1
  O  O32  1  0.42276800  0.92222100  0.73387600  1
  O  O33  1  0.92222100  0.42276800  0.73387600  1
  O  O34  1  0.64363500  0.44239700  0.72493200  1
  O  O35  1  0.44239700  0.64363500  0.72493200  1
  O  O36  1  0.14491700  0.94354100  0.72141200  1
  O  O37  1  0.94354100  0.14491700  0.72141200  1
  O  O38  1  0.14773800  0.14773800  0.70793400  1
  O  O39  1  0.64641200  0.64641200  0.70958000  1
  O  O40  1  0.85378400  0.35178200  0.28910800  1
  O  O41  1  0.35178200  0.85378400  0.28910800  1
  O  O42  1  0.55567200  0.85634000  0.27803200  1
  O  O43  1  0.05897700  0.35332100  0.28386100  1
  O  O44  1  0.35332100  0.05897700  0.28386100  1
  O  O45  1  0.85634000  0.55567200  0.27803200  1
  O  O46  1  0.07675600  0.07675600  0.26673200  1
  O  O47  1  0.57599600  0.57599600  0.26854500  1
  O  O48  1  0.82671400  0.82671400  0.23210500  1
  O  O49  1  0.32559400  0.32559400  0.23220800  1
  O  O50  1  0.30871200  0.60333300  0.21581200  1
  O  O51  1  0.80523900  0.10656000  0.22109400  1
  O  O52  1  0.60333300  0.30871200  0.21581200  1
  O  O53  1  0.10656000  0.80523900  0.22109400  1
  O  O54  1  0.60196200  0.10321100  0.21180800  1
  O  O55  1  0.10321100  0.60196200  0.21180800  1
