# generated using pymatgen
data_LiCoPO4
_symmetry_space_group_name_H-M   'P 1'
_cell_length_a   5.05391200
_cell_length_b   10.22178200
_cell_length_c   6.83658300
_cell_angle_alpha   89.99946276
_cell_angle_beta   90.00205707
_cell_angle_gamma   89.99985911
_symmetry_Int_Tables_number   1
_chemical_formula_structural   LiCoPO4
_chemical_formula_sum   'Li4 Co4 P4 O16'
_cell_volume   353.17778681
_cell_formula_units_Z   4
loop_
 _symmetry_equiv_pos_site_id
 _symmetry_equiv_pos_as_xyz
  1  'x, y, z'
loop_
 _atom_site_type_symbol
 _atom_site_label
 _atom_site_symmetry_multiplicity
 _atom_site_fract_x
 _atom_site_fract_y
 _atom_site_fract_z
 _atom_site_occupancy
  Li  Li0  1  0.24449900  0.14953400  0.50175300  1
  Li  Li1  1  0.74450100  0.35046800  0.00175500  1
  Li  Li2  1  0.24445600  0.64946900  0.99828200  1
  Li  Li3  1  0.74445600  0.85053000  0.49828200  1
  Co  Co4  1  0.24605000  0.66043100  0.49536500  1
  Co  Co5  1  0.74605200  0.83956900  0.99536500  1
  Co  Co6  1  0.24607200  0.16047100  0.00463100  1
  Co  Co7  1  0.74606500  0.33953100  0.50463100  1
  P  P8  1  0.75017000  0.09704100  0.75658600  1
  P  P9  1  0.25016400  0.40296100  0.25658300  1
  P  P10  1  0.75011800  0.59692100  0.74341200  1
  P  P11  1  0.25011900  0.90307600  0.24340900  1
  O  O12  1  0.19057300  0.05232200  0.24316700  1
  O  O13  1  0.69057300  0.44767600  0.74316300  1
  O  O14  1  0.19069600  0.55227900  0.25685100  1
  O  O15  1  0.69070500  0.94772400  0.75684900  1
  O  O16  1  0.05384100  0.12310800  0.75696900  1
  O  O17  1  0.55383800  0.37689700  0.25696200  1
  O  O18  1  0.05384600  0.62297000  0.74300200  1
  O  O19  1  0.55384600  0.87702200  0.24299900  1
  O  O20  1  0.62974600  0.15715900  0.56749400  1
  O  O21  1  0.12975000  0.34284200  0.06748900  1
  O  O22  1  0.62979000  0.65713600  0.93251600  1
  O  O23  1  0.12979300  0.84286600  0.43251800  1
  O  O24  1  0.63093900  0.16427800  0.94099000  1
  O  O25  1  0.13093500  0.33572100  0.44098900  1
  O  O26  1  0.63090100  0.66423500  0.55899700  1
  O  O27  1  0.13090700  0.83576500  0.05899100  1
