# generated using pymatgen
data_LiLa4MnO8
_symmetry_space_group_name_H-M   'P 1'
_cell_length_a   7.65592882
_cell_length_b   12.91039786
_cell_length_c   7.65590403
_cell_angle_alpha   89.99784201
_cell_angle_beta   90.00081322
_cell_angle_gamma   90.00170767
_symmetry_Int_Tables_number   1
_chemical_formula_structural   LiLa4MnO8
_chemical_formula_sum   'Li4 La16 Mn4 O32'
_cell_volume   756.71787510
_cell_formula_units_Z   4
loop_
 _symmetry_equiv_pos_site_id
 _symmetry_equiv_pos_as_xyz
  1  'x, y, z'
loop_
 _atom_site_type_symbol
 _atom_site_label
 _atom_site_symmetry_multiplicity
 _atom_site_fract_x
 _atom_site_fract_y
 _atom_site_fract_z
 _atom_site_occupancy
  Li  Li0  1  0.25000300  0.49999900  0.24999900  1
  Li  Li1  1  0.75000300  0.49999900  0.75000100  1
  Li  Li2  1  0.49999900  0.99999900  0.00000500  1
  Li  Li3  1  0.99999700  0.99999800  0.50000500  1
  La  La4  1  0.25002500  0.13863700  0.25000300  1
  La  La5  1  0.74999100  0.13863100  0.74997600  1
  La  La6  1  0.50000200  0.63862800  0.00000800  1
  La  La7  1  0.99998800  0.63862500  0.50000200  1
  La  La8  1  0.49998600  0.36136900  0.00001900  1
  La  La9  1  0.99999800  0.36136900  0.50001400  1
  La  La10  1  0.74998900  0.86136200  0.75000100  1
  La  La11  1  0.25001600  0.86136200  0.25002400  1
  La  La12  1  0.25003300  0.13695300  0.74995800  1
  La  La13  1  0.75001300  0.13695700  0.24998000  1
  La  La14  1  0.50001600  0.63694700  0.49997100  1
  La  La15  1  0.00002400  0.63694200  0.99996800  1
  La  La16  1  0.99997300  0.36305900  0.00002700  1
  La  La17  1  0.49997600  0.36305600  0.50003200  1
  La  La18  1  0.25000200  0.86304700  0.75001400  1
  La  La19  1  0.74996500  0.86305100  0.25003100  1
  Mn  Mn20  1  0.49999600  0.99999700  0.50002400  1
  Mn  Mn21  1  0.75001200  0.50000600  0.24998700  1
  Mn  Mn22  1  0.99999100  0.99999900  0.00000200  1
  Mn  Mn23  1  0.25000500  0.50000600  0.74998900  1
  O  O24  1  0.49991600  0.18063800  0.50008000  1
  O  O25  1  0.99991500  0.18063800  0.00007800  1
  O  O26  1  0.74991200  0.68063900  0.25008400  1
  O  O27  1  0.24991500  0.68064000  0.75008300  1
  O  O28  1  0.75008200  0.31936200  0.24991600  1
  O  O29  1  0.25008600  0.31935900  0.74991200  1
  O  O30  1  0.00008500  0.81936200  0.99991100  1
  O  O31  1  0.50008500  0.81936100  0.49991100  1
  O  O32  1  0.49996300  0.18223100  0.00002900  1
  O  O33  1  0.99996200  0.18223200  0.50003000  1
  O  O34  1  0.74995900  0.68223500  0.75003100  1
  O  O35  1  0.24996000  0.68223400  0.25003400  1
  O  O36  1  0.25003400  0.31776600  0.24996800  1
  O  O37  1  0.75003100  0.31776600  0.74996900  1
  O  O38  1  0.50003200  0.81776600  0.99996700  1
  O  O39  1  0.00003200  0.81776600  0.49996800  1
  O  O40  1  0.24699600  0.00001100  0.99923500  1
  O  O41  1  0.74700700  0.00001100  0.49923500  1
  O  O42  1  0.49697200  0.50001200  0.74921900  1
  O  O43  1  0.99697500  0.50001300  0.24922200  1
  O  O44  1  0.50076600  0.00001200  0.25299700  1
  O  O45  1  0.00076700  0.00001200  0.75300300  1
  O  O46  1  0.75078400  0.50001300  0.00302500  1
  O  O47  1  0.25078700  0.50001200  0.50302600  1
  O  O48  1  0.24923700  0.49998900  0.99698900  1
  O  O49  1  0.74923200  0.49998900  0.49699200  1
  O  O50  1  0.49921900  0.99998800  0.74698500  1
  O  O51  1  0.99921900  0.99999200  0.24697300  1
  O  O52  1  0.50300800  0.49998700  0.25076200  1
  O  O53  1  0.00300800  0.49998700  0.75076200  1
  O  O54  1  0.75302800  0.99998800  0.00077900  1
  O  O55  1  0.25301600  0.99998700  0.50077900  1
