# generated using pymatgen
data_Li2FeSiO4
_symmetry_space_group_name_H-M   'P 1'
_cell_length_a   5.04176700
_cell_length_b   6.33468600
_cell_length_c   10.76219800
_cell_angle_alpha   90.00000000
_cell_angle_beta   90.00000000
_cell_angle_gamma   90.00000000
_symmetry_Int_Tables_number   1
_chemical_formula_structural   Li2FeSiO4
_chemical_formula_sum   'Li8 Fe4 Si4 O16'
_cell_volume   343.72319628
_cell_formula_units_Z   4
loop_
 _symmetry_equiv_pos_site_id
 _symmetry_equiv_pos_as_xyz
  1  'x, y, z'
loop_
 _atom_site_type_symbol
 _atom_site_label
 _atom_site_symmetry_multiplicity
 _atom_site_fract_x
 _atom_site_fract_y
 _atom_site_fract_z
 _atom_site_occupancy
  Li  Li0  1  0.68326700  0.99872500  0.41235100  1
  Li  Li1  1  0.31673300  0.00127500  0.58764900  1
  Li  Li2  1  0.18326700  0.49872500  0.08764900  1
  Li  Li3  1  0.81673300  0.50127500  0.91235100  1
  Li  Li4  1  0.68326700  0.50127500  0.41235100  1
  Li  Li5  1  0.31673300  0.49872500  0.58764900  1
  Li  Li6  1  0.81673300  0.99872500  0.91235100  1
  Li  Li7  1  0.18326700  0.00127500  0.08764900  1
  Fe  Fe8  1  0.18559200  0.75000000  0.33813100  1
  Fe  Fe9  1  0.31440800  0.75000000  0.83813100  1
  Fe  Fe10  1  0.68559200  0.25000000  0.16186900  1
  Fe  Fe11  1  0.81440800  0.25000000  0.66186900  1
  Si  Si12  1  0.67463700  0.75000000  0.16467500  1
  Si  Si13  1  0.82536300  0.75000000  0.66467500  1
  Si  Si14  1  0.32536300  0.25000000  0.83532500  1
  Si  Si15  1  0.17463700  0.25000000  0.33532500  1
  O  O16  1  0.78580800  0.96444100  0.09326500  1
  O  O17  1  0.71419200  0.96444100  0.59326500  1
  O  O18  1  0.34707600  0.75000000  0.16101800  1
  O  O19  1  0.72615700  0.75000000  0.81185300  1
  O  O20  1  0.77384300  0.75000000  0.31185300  1
  O  O21  1  0.15292400  0.75000000  0.66101800  1
  O  O22  1  0.78580800  0.53555900  0.09326500  1
  O  O23  1  0.71419200  0.53555900  0.59326500  1
  O  O24  1  0.21419200  0.46444100  0.90673500  1
  O  O25  1  0.28580800  0.46444100  0.40673500  1
  O  O26  1  0.22615700  0.25000000  0.68814700  1
  O  O27  1  0.84707600  0.25000000  0.33898200  1
  O  O28  1  0.65292400  0.25000000  0.83898200  1
  O  O29  1  0.27384300  0.25000000  0.18814700  1
  O  O30  1  0.21419200  0.03555900  0.90673500  1
  O  O31  1  0.28580800  0.03555900  0.40673500  1
