# generated using pymatgen
data_LiV4O5F7
_symmetry_space_group_name_H-M   'P 1'
_cell_length_a   5.37875200
_cell_length_b   9.09816675
_cell_length_c   9.12873733
_cell_angle_alpha   69.83469069
_cell_angle_beta   88.00557269
_cell_angle_gamma   87.64553037
_symmetry_Int_Tables_number   1
_chemical_formula_structural   LiV4O5F7
_chemical_formula_sum   'Li2 V8 O10 F14'
_cell_volume   418.89179218
_cell_formula_units_Z   2
loop_
 _symmetry_equiv_pos_site_id
 _symmetry_equiv_pos_as_xyz
  1  'x, y, z'
loop_
 _atom_site_type_symbol
 _atom_site_label
 _atom_site_symmetry_multiplicity
 _atom_site_fract_x
 _atom_site_fract_y
 _atom_site_fract_z
 _atom_site_occupancy
  Li  Li0  1  0.97397400  0.37788400  0.86990300  1
  Li  Li1  1  0.51224800  0.88574000  0.88009400  1
  V  V2  1  0.99768000  0.48332500  0.49425900  1
  V  V3  1  0.02901900  0.24019400  0.25486800  1
  V  V4  1  0.45827200  0.25009600  0.74880900  1
  V  V5  1  0.02276600  0.01925000  0.00125900  1
  V  V6  1  0.52904000  0.74010600  0.25566900  1
  V  V7  1  0.95992500  0.74928700  0.74894700  1
  V  V8  1  0.52022900  0.52044600  0.00108500  1
  V  V9  1  0.49758800  0.98290200  0.49515700  1
  O  O10  1  0.00006100  0.17558500  0.06901000  1
  O  O11  1  0.28062600  0.12856800  0.33473000  1
  O  O12  1  0.99873200  0.34105500  0.41535500  1
  O  O13  1  0.30774700  0.06757700  0.87504800  1
  O  O14  1  0.78132300  0.62865300  0.33464400  1
  O  O15  1  0.20094600  0.37237800  0.68068000  1
  O  O16  1  0.50015800  0.67625500  0.06954800  1
  O  O17  1  0.80642700  0.56813200  0.87491600  1
  O  O18  1  0.49921100  0.84098300  0.41545100  1
  O  O19  1  0.70252300  0.87263600  0.68042200  1
  F  F20  1  0.79261600  0.08199000  0.37457000  1
  F  F21  1  0.79745500  0.12753300  0.82519200  1
  F  F22  1  0.50103700  0.16699300  0.57889400  1
  F  F23  1  0.71028100  0.37271400  0.17097000  1
  F  F24  1  0.71016500  0.41741000  0.63828500  1
  F  F25  1  0.20185700  0.42284200  0.11389200  1
  F  F26  1  0.50168200  0.32738000  0.92448500  1
  F  F27  1  0.29359300  0.58137300  0.37495100  1
  F  F28  1  0.69921400  0.92302400  0.11222600  1
  F  F29  1  0.29661600  0.62768100  0.82530400  1
  F  F30  1  0.00099200  0.66647600  0.57840900  1
  F  F31  1  0.20977300  0.87198700  0.17187200  1
  F  F32  1  0.20809400  0.91785100  0.63607800  1
  F  F33  1  0.99304800  0.82832600  0.92511000  1
