# generated using pymatgen
data_Li3MnFeCo(PO4)3
_symmetry_space_group_name_H-M   'P 1'
_cell_length_a   10.47070151
_cell_length_b   6.09832500
_cell_length_c   14.31770095
_cell_angle_alpha   90.00000000
_cell_angle_beta   89.84569841
_cell_angle_gamma   90.00000000
_symmetry_Int_Tables_number   1
_chemical_formula_structural   Li3MnFeCo(PO4)3
_chemical_formula_sum   'Li12 Mn4 Fe4 Co4 P12 O48'
_cell_volume   914.23545020
_cell_formula_units_Z   4
loop_
 _symmetry_equiv_pos_site_id
 _symmetry_equiv_pos_as_xyz
  1  'x, y, z'
loop_
 _atom_site_type_symbol
 _atom_site_label
 _atom_site_symmetry_multiplicity
 _atom_site_fract_x
 _atom_site_fract_y
 _atom_site_fract_z
 _atom_site_occupancy
  Li  Li0  1  0.99815500  0.50043100  0.66692200  1
  Li  Li1  1  0.99991000  0.00058500  0.00003200  1
  Li  Li2  1  0.99991000  0.49941500  0.00003200  1
  Li  Li3  1  0.99934100  0.00111900  0.33334100  1
  Li  Li4  1  0.99934100  0.49888100  0.33334100  1
  Li  Li5  1  0.99815500  0.99956900  0.66692200  1
  Li  Li6  1  0.50087400  0.00010200  0.50057700  1
  Li  Li7  1  0.50087400  0.49989800  0.50057700  1
  Li  Li8  1  0.50127700  0.00153700  0.16679400  1
  Li  Li9  1  0.50127700  0.49846300  0.16679400  1
  Li  Li10  1  0.50078200  0.00044200  0.83323500  1
  Li  Li11  1  0.50078200  0.49955800  0.83323500  1
  Mn  Mn12  1  0.21834100  0.75000000  0.15986500  1
  Mn  Mn13  1  0.21855900  0.75000000  0.49310500  1
  Mn  Mn14  1  0.28179100  0.25000000  0.65953600  1
  Mn  Mn15  1  0.71974400  0.75000000  0.00709400  1
  Fe  Fe16  1  0.21783500  0.75000000  0.82518400  1
  Fe  Fe17  1  0.28042900  0.25000000  0.99282100  1
  Fe  Fe18  1  0.28148500  0.25000000  0.32575000  1
  Fe  Fe19  1  0.72001900  0.75000000  0.34134900  1
  Co  Co20  1  0.72004700  0.75000000  0.67331800  1
  Co  Co21  1  0.78114600  0.25000000  0.83920900  1
  Co  Co22  1  0.77953300  0.25000000  0.50735300  1
  Co  Co23  1  0.78031700  0.25000000  0.17315800  1
  P  P24  1  0.09318300  0.25000000  0.80747200  1
  P  P25  1  0.09356200  0.25000000  0.13824900  1
  P  P26  1  0.09266400  0.25000000  0.47140600  1
  P  P27  1  0.40747600  0.75000000  0.30626300  1
  P  P28  1  0.40790700  0.75000000  0.63967000  1
  P  P29  1  0.40474900  0.75000000  0.97183700  1
  P  P30  1  0.59537300  0.25000000  0.36053600  1
  P  P31  1  0.59405400  0.25000000  0.02822200  1
  P  P32  1  0.59737600  0.25000000  0.69438200  1
  P  P33  1  0.90567400  0.75000000  0.85935700  1
  P  P34  1  0.90434900  0.75000000  0.19465100  1
  P  P35  1  0.90334800  0.75000000  0.52754300  1
  O  O36  1  0.04087200  0.75000000  0.23702500  1
  O  O37  1  0.04004400  0.75000000  0.56955800  1
  O  O38  1  0.04224300  0.75000000  0.90146900  1
  O  O39  1  0.09593400  0.25000000  0.57879400  1
  O  O40  1  0.09675100  0.25000000  0.91419200  1
  O  O41  1  0.09746900  0.25000000  0.24598200  1
  O  O42  1  0.16397800  0.04928700  0.09306500  1
  O  O43  1  0.16397800  0.45071300  0.09306500  1
  O  O44  1  0.16343900  0.04908200  0.42628000  1
  O  O45  1  0.16343900  0.45091800  0.42628000  1
  O  O46  1  0.16389700  0.04691800  0.76323400  1
  O  O47  1  0.16389700  0.45308200  0.76323400  1
  O  O48  1  0.33786100  0.54855200  0.59467500  1
  O  O49  1  0.33786100  0.95144800  0.59467500  1
  O  O50  1  0.33645400  0.54718900  0.26302500  1
  O  O51  1  0.33645400  0.95281100  0.26302500  1
  O  O52  1  0.33383700  0.54713400  0.92827500  1
  O  O53  1  0.33383700  0.95286600  0.92827500  1
  O  O54  1  0.40562100  0.75000000  0.41381100  1
  O  O55  1  0.40425200  0.75000000  0.07918700  1
  O  O56  1  0.40297300  0.75000000  0.74691400  1
  O  O57  1  0.45774800  0.25000000  0.40200400  1
  O  O58  1  0.45629700  0.25000000  0.06783900  1
  O  O59  1  0.46045800  0.25000000  0.73647400  1
  O  O60  1  0.54429400  0.75000000  0.26395500  1
  O  O61  1  0.54172400  0.75000000  0.92961500  1
  O  O62  1  0.54603100  0.75000000  0.59904000  1
  O  O63  1  0.59778000  0.25000000  0.25339600  1
  O  O64  1  0.59835300  0.25000000  0.92060400  1
  O  O65  1  0.59788800  0.25000000  0.58660500  1
  O  O66  1  0.66446700  0.04913200  0.07392300  1
  O  O67  1  0.66619300  0.04758100  0.40528400  1
  O  O68  1  0.66802600  0.04673700  0.73846500  1
  O  O69  1  0.66802600  0.45326300  0.73846500  1
  O  O70  1  0.66446700  0.45086800  0.07392300  1
  O  O71  1  0.66619300  0.45241900  0.40528400  1
  O  O72  1  0.83515300  0.54580400  0.90347400  1
  O  O73  1  0.83515300  0.95419600  0.90347400  1
  O  O74  1  0.83313600  0.54603300  0.23822900  1
  O  O75  1  0.83214100  0.54686200  0.57189500  1
  O  O76  1  0.83313600  0.95396700  0.23822900  1
  O  O77  1  0.83214100  0.95313800  0.57189500  1
  O  O78  1  0.90334200  0.75000000  0.75185200  1
  O  O79  1  0.90288300  0.75000000  0.42036200  1
  O  O80  1  0.90487800  0.75000000  0.08741500  1
  O  O81  1  0.95604400  0.25000000  0.76499800  1
  O  O82  1  0.95492300  0.25000000  0.09878000  1
  O  O83  1  0.95439400  0.25000000  0.43134400  1
