# generated using pymatgen
data_Li4Fe(BO3)2
_symmetry_space_group_name_H-M   'P 1'
_cell_length_a   6.72815991
_cell_length_b   9.89930699
_cell_length_c   7.84312772
_cell_angle_alpha   89.98682051
_cell_angle_beta   90.08528593
_cell_angle_gamma   70.13255234
_symmetry_Int_Tables_number   1
_chemical_formula_structural   Li4Fe(BO3)2
_chemical_formula_sum   'Li16 Fe4 B8 O24'
_cell_volume   491.29230669
_cell_formula_units_Z   4
loop_
 _symmetry_equiv_pos_site_id
 _symmetry_equiv_pos_as_xyz
  1  'x, y, z'
loop_
 _atom_site_type_symbol
 _atom_site_label
 _atom_site_symmetry_multiplicity
 _atom_site_fract_x
 _atom_site_fract_y
 _atom_site_fract_z
 _atom_site_occupancy
  Li  Li0  1  0.22314100  0.05403200  0.17561900  1
  Li  Li1  1  0.72312400  0.05385400  0.17550200  1
  Li  Li2  1  0.77718000  0.44610900  0.67548700  1
  Li  Li3  1  0.27677500  0.44581700  0.67569000  1
  Li  Li4  1  0.72322300  0.55418400  0.32430900  1
  Li  Li5  1  0.22282300  0.55389400  0.32451300  1
  Li  Li6  1  0.77685600  0.94597200  0.82437800  1
  Li  Li7  1  0.27687700  0.94615100  0.82449500  1
  Li  Li8  1  0.90047300  0.19929000  0.00840000  1
  Li  Li9  1  0.40010600  0.19979800  0.00845400  1
  Li  Li10  1  0.09990400  0.30030900  0.50855200  1
  Li  Li11  1  0.59972500  0.30065700  0.50848600  1
  Li  Li12  1  0.90009400  0.69969200  0.49145300  1
  Li  Li13  1  0.40027900  0.69934500  0.49151600  1
  Li  Li14  1  0.59989100  0.80020600  0.99154600  1
  Li  Li15  1  0.09952900  0.80071400  0.99160000  1
  Fe  Fe16  1  0.49999000  0.99998200  0.49998600  1
  Fe  Fe17  1  0.50002400  0.49993100  0.99994700  1
  Fe  Fe18  1  0.00004100  0.99993600  0.50003600  1
  Fe  Fe19  1  0.99995700  0.50007500  0.00001300  1
  B  B20  1  0.14882800  0.20151900  0.77019200  1
  B  B21  1  0.64900100  0.20167600  0.77006900  1
  B  B22  1  0.85084000  0.29841900  0.26991800  1
  B  B23  1  0.35090900  0.29843300  0.27041200  1
  B  B24  1  0.64908800  0.70157400  0.72958700  1
  B  B25  1  0.14915800  0.70158700  0.73008300  1
  B  B26  1  0.85117300  0.79848300  0.22981000  1
  B  B27  1  0.35099700  0.79832600  0.22993100  1
  O  O28  1  0.19137300  0.11559300  0.62077300  1
  O  O29  1  0.69138100  0.11576200  0.62039500  1
  O  O30  1  0.80807500  0.38450600  0.11994100  1
  O  O31  1  0.30795200  0.38413600  0.12080400  1
  O  O32  1  0.69204400  0.61586700  0.87919600  1
  O  O33  1  0.19192600  0.61549700  0.88005900  1
  O  O34  1  0.80863000  0.88440900  0.37922700  1
  O  O35  1  0.30862200  0.88424100  0.37960600  1
  O  O36  1  0.92565600  0.14902300  0.25671200  1
  O  O37  1  0.42620800  0.14887100  0.25720300  1
  O  O38  1  0.07408900  0.35094600  0.75652800  1
  O  O39  1  0.57477300  0.35117800  0.75686200  1
  O  O40  1  0.92591200  0.64905700  0.24347400  1
  O  O41  1  0.42522400  0.64882400  0.24314100  1
  O  O42  1  0.57379300  0.85113400  0.74279900  1
  O  O43  1  0.07434200  0.85097900  0.74328900  1
  O  O44  1  0.18210700  0.13582500  0.92607900  1
  O  O45  1  0.68213500  0.13580600  0.92573400  1
  O  O46  1  0.81772100  0.36422900  0.42541700  1
  O  O47  1  0.31784500  0.36413500  0.42613500  1
  O  O48  1  0.68215600  0.63586600  0.57386800  1
  O  O49  1  0.18227800  0.63577400  0.57458300  1
  O  O50  1  0.81789300  0.86417700  0.07392300  1
  O  O51  1  0.31786200  0.86419800  0.07426900  1
