# generated using pymatgen
data_Li3VOF5
_symmetry_space_group_name_H-M   'P 1'
_cell_length_a   5.04903600
_cell_length_b   8.61268712
_cell_length_c   9.84363866
_cell_angle_alpha   90.17877603
_cell_angle_beta   90.16845974
_cell_angle_gamma   90.12384277
_symmetry_Int_Tables_number   1
_chemical_formula_structural   Li3VOF5
_chemical_formula_sum   'Li12 V4 O4 F20'
_cell_volume   428.05323801
_cell_formula_units_Z   4
loop_
 _symmetry_equiv_pos_site_id
 _symmetry_equiv_pos_as_xyz
  1  'x, y, z'
loop_
 _atom_site_type_symbol
 _atom_site_label
 _atom_site_symmetry_multiplicity
 _atom_site_fract_x
 _atom_site_fract_y
 _atom_site_fract_z
 _atom_site_occupancy
  Li  Li0  1  0.51296400  0.54067900  0.89089000  1
  Li  Li1  1  0.98785200  0.14607500  0.87193300  1
  Li  Li2  1  0.50722000  0.95546000  0.85080500  1
  Li  Li3  1  0.99225800  0.45548700  0.65162600  1
  Li  Li4  1  0.49950600  0.64964100  0.62738100  1
  Li  Li5  1  0.99780100  0.04016500  0.60844800  1
  Li  Li6  1  0.50009200  0.95617700  0.39425000  1
  Li  Li7  1  0.99373600  0.35101500  0.37459200  1
  Li  Li8  1  0.49452300  0.54879100  0.35186500  1
  Li  Li9  1  0.99734800  0.04705400  0.14630800  1
  Li  Li10  1  0.48653900  0.84983900  0.12788500  1
  Li  Li11  1  0.00381100  0.45414900  0.10558300  1
  V  V12  1  0.02945300  0.75953600  0.89288000  1
  V  V13  1  0.47564000  0.25955900  0.61746000  1
  V  V14  1  0.97572500  0.74034400  0.38189000  1
  V  V15  1  0.49991400  0.23967100  0.12773900  1
  O  O16  1  0.16731100  0.90503500  0.98632700  1
  O  O17  1  0.14467000  0.60045200  0.96878700  1
  O  O18  1  0.19965400  0.25732200  0.52381600  1
  O  O19  1  0.69874200  0.74268100  0.47474400  1
  F  F20  1  0.68351900  0.75753700  0.97516100  1
  F  F21  1  0.85302400  0.93444900  0.77205700  1
  F  F22  1  0.30163900  0.76854100  0.75787800  1
  F  F23  1  0.81657300  0.61985700  0.75310500  1
  F  F24  1  0.32204500  0.11240500  0.75073400  1
  F  F25  1  0.80570000  0.26664900  0.73572400  1
  F  F26  1  0.35856300  0.44139200  0.72791800  1
  F  F27  1  0.66017600  0.09054400  0.52512500  1
  F  F28  1  0.68261100  0.41242900  0.50968100  1
  F  F29  1  0.18273400  0.58829900  0.48979000  1
  F  F30  1  0.16075300  0.90995400  0.47398600  1
  F  F31  1  0.85619800  0.55897500  0.27118600  1
  F  F32  1  0.30523000  0.73338200  0.26415400  1
  F  F33  1  0.82054500  0.88717800  0.24812600  1
  F  F34  1  0.31603300  0.38945300  0.24923200  1
  F  F35  1  0.82136500  0.23074700  0.24013500  1
  F  F36  1  0.35297100  0.05852100  0.22666800  1
  F  F37  1  0.65647200  0.41064300  0.02505400  1
  F  F38  1  0.17081300  0.24555300  0.02053200  1
  F  F39  1  0.67943400  0.08436400  0.00854400  1
