# generated using pymatgen
data_LiFePCO7
_symmetry_space_group_name_H-M   'P 1'
_cell_length_a   5.16647600
_cell_length_b   10.59116360
_cell_length_c   10.65512642
_cell_angle_alpha   74.76078976
_cell_angle_beta   85.87911090
_cell_angle_gamma   85.88470586
_symmetry_Int_Tables_number   1
_chemical_formula_structural   LiFePCO7
_chemical_formula_sum   'Li4 Fe4 P4 C4 O28'
_cell_volume   560.23442602
_cell_formula_units_Z   4
loop_
 _symmetry_equiv_pos_site_id
 _symmetry_equiv_pos_as_xyz
  1  'x, y, z'
loop_
 _atom_site_type_symbol
 _atom_site_label
 _atom_site_symmetry_multiplicity
 _atom_site_fract_x
 _atom_site_fract_y
 _atom_site_fract_z
 _atom_site_occupancy
  Li  Li0  1  0.77322400  0.93230000  0.17912800  1
  Li  Li1  1  0.77224000  0.43153300  0.67549500  1
  Li  Li2  1  0.23054200  0.07047300  0.81791200  1
  Li  Li3  1  0.75281800  0.58607200  0.13365800  1
  Fe  Fe4  1  0.19794500  0.71003000  0.95307700  1
  Fe  Fe5  1  0.79938100  0.79067500  0.54125300  1
  Fe  Fe6  1  0.19530000  0.21030200  0.45786900  1
  Fe  Fe7  1  0.80236000  0.29401100  0.04330400  1
  P  P8  1  0.27085600  0.91311000  0.66089300  1
  P  P9  1  0.72507500  0.58345000  0.83781800  1
  P  P10  1  0.26516900  0.41614600  0.16312200  1
  P  P11  1  0.72515300  0.08816700  0.33757700  1
  C  C12  1  0.71322500  0.65188500  0.39338800  1
  C  C13  1  0.70696400  0.14550500  0.89736500  1
  C  C14  1  0.29657200  0.84589400  0.10736200  1
  C  C15  1  0.29587100  0.35504900  0.60058400  1
  O  O16  1  0.20724200  0.87336400  0.81115800  1
  O  O17  1  0.86102700  0.65692500  0.92106700  1
  O  O18  1  0.56503800  0.88468500  0.63392300  1
  O  O19  1  0.42981000  0.60836300  0.86542500  1
  O  O20  1  0.12091600  0.83924500  0.58629200  1
  O  O21  1  0.79174400  0.93853100  0.37081400  1
  O  O22  1  0.80004300  0.62343000  0.69052700  1
  O  O23  1  0.79917100  0.43370900  0.87477900  1
  O  O24  1  0.54093600  0.20911400  0.96005600  1
  O  O25  1  0.53232500  0.70422900  0.45846000  1
  O  O26  1  0.38263000  0.91561000  0.17236500  1
  O  O27  1  0.37915100  0.42194500  0.66941900  1
  O  O28  1  0.94553900  0.67205300  0.42122700  1
  O  O29  1  0.94940500  0.15830800  0.91136000  1
  O  O30  1  0.05389500  0.83896300  0.08663700  1
  O  O31  1  0.05428700  0.33757200  0.58788500  1
  O  O32  1  0.61945700  0.07795200  0.82991600  1
  O  O33  1  0.66643600  0.59043900  0.31266700  1
  O  O34  1  0.46187000  0.77536200  0.04953700  1
  O  O35  1  0.46372400  0.29348400  0.53686700  1
  O  O36  1  0.15916100  0.56158900  0.12191600  1
  O  O37  1  0.20041100  0.37047200  0.31039200  1
  O  O38  1  0.20750800  0.06344900  0.62608100  1
  O  O39  1  0.87159300  0.16127800  0.41510700  1
  O  O40  1  0.56576000  0.40833400  0.12912500  1
  O  O41  1  0.43097000  0.11413300  0.36651400  1
  O  O42  1  0.13435900  0.33385600  0.08696600  1
  O  O43  1  0.78841100  0.13092000  0.18761100  1
