# generated using pymatgen
data_LiCr2P5O16
_symmetry_space_group_name_H-M   'P 1'
_cell_length_a   9.38624000
_cell_length_b   7.50166800
_cell_length_c   10.28019076
_cell_angle_alpha   68.26701156
_cell_angle_beta   90.00000000
_cell_angle_gamma   90.00000000
_symmetry_Int_Tables_number   1
_chemical_formula_structural   LiCr2P5O16
_chemical_formula_sum   'Li2 Cr4 P10 O32'
_cell_volume   672.40163857
_cell_formula_units_Z   2
loop_
 _symmetry_equiv_pos_site_id
 _symmetry_equiv_pos_as_xyz
  1  'x, y, z'
loop_
 _atom_site_type_symbol
 _atom_site_label
 _atom_site_symmetry_multiplicity
 _atom_site_fract_x
 _atom_site_fract_y
 _atom_site_fract_z
 _atom_site_occupancy
  Li  Li0  1  0.79419100  0.97448500  0.77499000  1
  Li  Li1  1  0.20580900  0.97448500  0.27499000  1
  Cr  Cr2  1  0.14119900  0.36020500  0.47604700  1
  Cr  Cr3  1  0.36848600  0.90893800  0.87587800  1
  Cr  Cr4  1  0.63151400  0.90893800  0.37587800  1
  Cr  Cr5  1  0.85880100  0.36020500  0.97604700  1
  P  P6  1  0.86336200  0.60229600  0.38206000  1
  P  P7  1  0.45759200  0.49916900  0.50072600  1
  P  P8  1  0.29398900  0.55422500  0.13922900  1
  P  P9  1  0.87362100  0.26247600  0.31121600  1
  P  P10  1  0.41523400  0.10118800  0.53928400  1
  P  P11  1  0.58476600  0.10118800  0.03928400  1
  P  P12  1  0.13663800  0.60229600  0.88206000  1
  P  P13  1  0.54240800  0.49916900  0.00072600  1
  P  P14  1  0.70601100  0.55422500  0.63922900  1
  P  P15  1  0.12637900  0.26247600  0.81121600  1
  O  O16  1  0.29497500  0.77180000  0.07941800  1
  O  O17  1  0.82250300  0.48317700  0.28919600  1
  O  O18  1  0.06328700  0.27524200  0.67106600  1
  O  O19  1  0.22988200  0.45489300  0.27928700  1
  O  O20  1  0.49459400  0.31191800  0.46924200  1
  O  O21  1  0.45350800  0.47028700  0.14318100  1
  O  O22  1  0.69949200  0.50287000  0.03034700  1
  O  O23  1  0.21500400  0.47905100  0.02955300  1
  O  O24  1  0.53753700  0.98899100  0.95135600  1
  O  O25  1  0.98757700  0.21106700  0.42565300  1
  O  O26  1  0.25480900  0.12803200  0.52030100  1
  O  O27  1  0.46466500  0.02472600  0.69074400  1
  O  O28  1  0.93671300  0.27524200  0.17106600  1
  O  O29  1  0.74024500  0.14302000  0.35864800  1
  O  O30  1  0.19706100  0.80059100  0.81587800  1
  O  O31  1  0.46246300  0.98899100  0.45135600  1
  O  O32  1  0.74519100  0.12803200  0.02030100  1
  O  O33  1  0.47998700  0.66989300  0.88589400  1
  O  O34  1  0.53533500  0.02472600  0.19074400  1
  O  O35  1  0.70502500  0.77180000  0.57941800  1
  O  O36  1  0.97766700  0.60168800  0.90888100  1
  O  O37  1  0.80293900  0.80059100  0.31587800  1
  O  O38  1  0.17749700  0.48317700  0.78919600  1
  O  O39  1  0.52001300  0.66989300  0.38589400  1
  O  O40  1  0.77011800  0.45489300  0.77928700  1
  O  O41  1  0.50540600  0.31191800  0.96924200  1
  O  O42  1  0.02233300  0.60168800  0.40888100  1
  O  O43  1  0.54649200  0.47028700  0.64318100  1
  O  O44  1  0.30050800  0.50287000  0.53034700  1
  O  O45  1  0.78499600  0.47905100  0.52955300  1
  O  O46  1  0.01242300  0.21106700  0.92565300  1
  O  O47  1  0.25975500  0.14302000  0.85864800  1
