# generated using pymatgen
data_Li3Mn(BO3)2
_symmetry_space_group_name_H-M   'P 1'
_cell_length_a   8.99817300
_cell_length_b   5.26012300
_cell_length_c   10.75983901
_cell_angle_alpha   62.56874448
_cell_angle_beta   90.00000000
_cell_angle_gamma   90.00000000
_symmetry_Int_Tables_number   1
_chemical_formula_structural   Li3Mn(BO3)2
_chemical_formula_sum   'Li12 Mn4 B8 O24'
_cell_volume   452.01806592
_cell_formula_units_Z   4
loop_
 _symmetry_equiv_pos_site_id
 _symmetry_equiv_pos_as_xyz
  1  'x, y, z'
loop_
 _atom_site_type_symbol
 _atom_site_label
 _atom_site_symmetry_multiplicity
 _atom_site_fract_x
 _atom_site_fract_y
 _atom_site_fract_z
 _atom_site_occupancy
  Li  Li0  1  0.97906200  0.50635200  0.33976900  1
  Li  Li1  1  0.65613000  0.45082000  0.37694600  1
  Li  Li2  1  0.99076800  0.93081500  0.89322500  1
  Li  Li3  1  0.15613000  0.54918000  0.12305400  1
  Li  Li4  1  0.49076800  0.06918500  0.60677500  1
  Li  Li5  1  0.47906200  0.49364800  0.16023100  1
  Li  Li6  1  0.52093800  0.50635200  0.83976900  1
  Li  Li7  1  0.50923200  0.93081500  0.39322500  1
  Li  Li8  1  0.84387000  0.45082000  0.87694600  1
  Li  Li9  1  0.00923200  0.06918500  0.10677500  1
  Li  Li10  1  0.34387000  0.54918000  0.62305400  1
  Li  Li11  1  0.02093800  0.49364800  0.66023100  1
  Mn  Mn12  1  0.31639900  0.97916700  0.87575000  1
  Mn  Mn13  1  0.81639900  0.02083300  0.62425000  1
  Mn  Mn14  1  0.18360100  0.97916700  0.37575000  1
  Mn  Mn15  1  0.68360100  0.02083300  0.12425000  1
  B  B16  1  0.32284900  0.45150200  0.37911300  1
  B  B17  1  0.66230500  0.96327800  0.86982100  1
  B  B18  1  0.82284900  0.54849800  0.12088700  1
  B  B19  1  0.16230500  0.03672200  0.63017900  1
  B  B20  1  0.83769500  0.96327800  0.36982100  1
  B  B21  1  0.17715100  0.45150200  0.87911300  1
  B  B22  1  0.33769500  0.03672200  0.13017900  1
  B  B23  1  0.67715100  0.54849800  0.62088700  1
  O  O24  1  0.32477100  0.83383000  0.07911400  1
  O  O25  1  0.66682200  0.31787300  0.59156000  1
  O  O26  1  0.94820000  0.69838200  0.11855600  1
  O  O27  1  0.02976000  0.14828700  0.64004700  1
  O  O28  1  0.29374500  0.11937200  0.67389700  1
  O  O29  1  0.68315800  0.62120600  0.15276000  1
  O  O30  1  0.18315800  0.37879400  0.34724000  1
  O  O31  1  0.79374500  0.88062800  0.82610300  1
  O  O32  1  0.52976000  0.85171300  0.85995300  1
  O  O33  1  0.44820000  0.30161800  0.38144400  1
  O  O34  1  0.82477100  0.16617000  0.42088600  1
  O  O35  1  0.16682200  0.68212700  0.90844000  1
  O  O36  1  0.83317800  0.31787300  0.09156000  1
  O  O37  1  0.17522900  0.83383000  0.57911400  1
  O  O38  1  0.55180000  0.69838200  0.61855600  1
  O  O39  1  0.47024000  0.14828700  0.14004700  1
  O  O40  1  0.20625500  0.11937200  0.17389700  1
  O  O41  1  0.81684200  0.62120600  0.65276000  1
  O  O42  1  0.31684200  0.37879400  0.84724000  1
  O  O43  1  0.70625500  0.88062800  0.32610300  1
  O  O44  1  0.97024000  0.85171300  0.35995300  1
  O  O45  1  0.05180000  0.30161800  0.88144400  1
  O  O46  1  0.33317800  0.68212700  0.40844000  1
  O  O47  1  0.67522900  0.16617000  0.92088600  1
