# generated using pymatgen
data_LiNiPO4
_symmetry_space_group_name_H-M   'P 1'
_cell_length_a   9.96174995
_cell_length_b   9.96174995
_cell_length_c   17.25821864
_cell_angle_alpha   73.06613225
_cell_angle_beta   73.06613225
_cell_angle_gamma   59.82986865
_symmetry_Int_Tables_number   1
_chemical_formula_structural   LiNiPO4
_chemical_formula_sum   'Li16 Ni16 P16 O64'
_cell_volume   1394.54194314
_cell_formula_units_Z   16
loop_
 _symmetry_equiv_pos_site_id
 _symmetry_equiv_pos_as_xyz
  1  'x, y, z'
loop_
 _atom_site_type_symbol
 _atom_site_label
 _atom_site_symmetry_multiplicity
 _atom_site_fract_x
 _atom_site_fract_y
 _atom_site_fract_z
 _atom_site_occupancy
  Li  Li0  1  0.37867500  0.24028100  0.06263600  1
  Li  Li1  1  0.87667900  0.24459400  0.06252400  1
  Li  Li2  1  0.13295300  0.00345400  0.31363900  1
  Li  Li3  1  0.05998700  0.64077400  0.81373300  1
  Li  Li4  1  0.24028100  0.37867500  0.56263600  1
  Li  Li5  1  0.24459400  0.87667900  0.56252400  1
  Li  Li6  1  0.74097900  0.82188900  0.56193500  1
  Li  Li7  1  0.55838300  0.63411800  0.81420100  1
  Li  Li8  1  0.64077400  0.05998700  0.31373300  1
  Li  Li9  1  0.12524100  0.50235300  0.31438800  1
  Li  Li10  1  0.50235300  0.12524100  0.81438800  1
  Li  Li11  1  0.74093800  0.31973200  0.56404300  1
  Li  Li12  1  0.00345400  0.13295300  0.81363900  1
  Li  Li13  1  0.31973200  0.74093800  0.06404300  1
  Li  Li14  1  0.63411800  0.55838300  0.31420100  1
  Li  Li15  1  0.82188900  0.74097900  0.06193500  1
  Ni  Ni16  1  0.75898000  0.12749900  0.43956300  1
  Ni  Ni17  1  0.26164500  0.18089800  0.43837100  1
  Ni  Ni18  1  0.62419300  0.76634100  0.93938900  1
  Ni  Ni19  1  0.87180400  0.49951900  0.68523900  1
  Ni  Ni20  1  0.26004100  0.68158000  0.43973500  1
  Ni  Ni21  1  0.18089800  0.26164500  0.93837100  1
  Ni  Ni22  1  0.86674300  0.99848600  0.68437300  1
  Ni  Ni23  1  0.12749900  0.75898000  0.93956300  1
  Ni  Ni24  1  0.37013900  0.45149100  0.68414700  1
  Ni  Ni25  1  0.99848600  0.86674300  0.18437300  1
  Ni  Ni26  1  0.76634100  0.62419300  0.43938900  1
  Ni  Ni27  1  0.94675200  0.36916200  0.18620800  1
  Ni  Ni28  1  0.36916200  0.94675200  0.68620800  1
  Ni  Ni29  1  0.49951900  0.87180400  0.18523900  1
  Ni  Ni30  1  0.45149100  0.37013900  0.18414700  1
  Ni  Ni31  1  0.68158000  0.26004100  0.93973500  1
  P  P32  1  0.37070900  0.44227600  0.87382200  1
  P  P33  1  0.81657800  0.94482000  0.87459900  1
  P  P34  1  0.31421300  0.94099700  0.87637100  1
  P  P35  1  0.12699700  0.56178100  0.12974900  1
  P  P36  1  0.06144500  0.18614100  0.62732800  1
  P  P37  1  0.68371100  0.06471800  0.12721500  1
  P  P38  1  0.44227600  0.37070900  0.37382200  1
  P  P39  1  0.56308700  0.63093700  0.62770500  1
  P  P40  1  0.94482000  0.81657800  0.37459900  1
  P  P41  1  0.63093700  0.56308700  0.12770500  1
  P  P42  1  0.06471800  0.68371100  0.62721500  1
  P  P43  1  0.56178100  0.12699700  0.62974900  1
  P  P44  1  0.94099700  0.31421300  0.37637100  1
  P  P45  1  0.18614100  0.06144500  0.12732800  1
  P  P46  1  0.44256800  0.87235800  0.37387700  1
  P  P47  1  0.87235800  0.44256800  0.87387700  1
  O  O48  1  0.37409000  0.91362800  0.29512300  1
  O  O49  1  0.86367500  0.41730000  0.29901500  1
  O  O50  1  0.55058700  0.48895400  0.61629300  1
  O  O51  1  0.32532800  0.33395500  0.95106100  1
  O  O52  1  0.60809500  0.23583400  0.36202700  1
  O  O53  1  0.60833300  0.72797500  0.36558800  1
  O  O54  1  0.39709100  0.82828300  0.95089900  1
  O  O55  1  0.04421700  0.85642100  0.61055600  1
  O  O56  1  0.72797500  0.60833300  0.86558800  1
  O  O57  1  0.13974600  0.58644100  0.70466000  1
  O  O58  1  0.01112500  0.45890900  0.88650800  1
  O  O59  1  0.33395500  0.32532800  0.45106100  1
  O  O60  1  0.44888200  0.51787900  0.38415100  1
  O  O61  1  0.58788200  0.64189600  0.20411600  1
  O  O62  1  0.16859100  0.67479400  0.05464600  1
  O  O63  1  0.63433800  0.08169300  0.70625500  1
  O  O64  1  0.10727700  0.80765700  0.36431900  1
  O  O65  1  0.91362800  0.37409000  0.79512300  1
  O  O66  1  0.60413900  0.17766400  0.05206500  1
  O  O67  1  0.82828300  0.39709100  0.45089900  1
  O  O68  1  0.87352100  0.91881800  0.29523900  1
  O  O69  1  0.85642100  0.04421700  0.11055600  1
  O  O70  1  0.89983300  0.69352000  0.63927800  1
  O  O71  1  0.39606300  0.77250900  0.63957400  1
  O  O72  1  0.27071800  0.39583200  0.14092000  1
  O  O73  1  0.64189600  0.58788200  0.70411600  1
  O  O74  1  0.10720200  0.30260400  0.36231100  1
  O  O75  1  0.08169300  0.63433800  0.20625500  1
  O  O76  1  0.48895400  0.55058700  0.11629300  1
  O  O77  1  0.07991600  0.13829200  0.20564500  1
  O  O78  1  0.14570100  0.95682800  0.89216900  1
  O  O79  1  0.18799900  0.90119800  0.14010000  1
  O  O80  1  0.91881800  0.87352100  0.79523900  1
  O  O81  1  0.36191200  0.41234000  0.29847400  1
  O  O82  1  0.45890900  0.01112500  0.38650800  1
  O  O83  1  0.82828300  0.33241700  0.94917200  1
  O  O84  1  0.54521600  0.99038500  0.61472600  1
  O  O85  1  0.17392000  0.10780100  0.55224500  1
  O  O86  1  0.99038500  0.54521600  0.11472600  1
  O  O87  1  0.17766400  0.60413900  0.55206500  1
  O  O88  1  0.39583200  0.27071800  0.64092000  1
  O  O89  1  0.64735900  0.96228700  0.89011000  1
  O  O90  1  0.04336100  0.35571900  0.61154400  1
  O  O91  1  0.23583400  0.60809500  0.86202700  1
  O  O92  1  0.69352000  0.89983300  0.13927800  1
  O  O93  1  0.33241700  0.82828300  0.44917200  1
  O  O94  1  0.58644100  0.13974600  0.20466000  1
  O  O95  1  0.67186500  0.67307600  0.05152200  1
  O  O96  1  0.67307600  0.67186500  0.55152200  1
  O  O97  1  0.10780100  0.17392000  0.05224500  1
  O  O98  1  0.96228700  0.64735900  0.39011000  1
  O  O99  1  0.80765700  0.10727700  0.86431900  1
  O  O100  1  0.41234000  0.36191200  0.79847400  1
  O  O101  1  0.89945200  0.82571900  0.94803400  1
  O  O102  1  0.41730000  0.86367500  0.79901500  1
  O  O103  1  0.82571900  0.89945200  0.44803400  1
  O  O104  1  0.30260400  0.10720200  0.86231100  1
  O  O105  1  0.67479400  0.16859100  0.55464600  1
  O  O106  1  0.95682800  0.14570100  0.39216900  1
  O  O107  1  0.51787900  0.44888200  0.88415100  1
  O  O108  1  0.77250900  0.39606300  0.13957400  1
  O  O109  1  0.35571900  0.04336100  0.11154400  1
  O  O110  1  0.90119800  0.18799900  0.64010000  1
  O  O111  1  0.13829200  0.07991600  0.70564500  1
