# generated using pymatgen
data_LiMnSiO4
_symmetry_space_group_name_H-M   'P 1'
_cell_length_a   5.57779517
_cell_length_b   5.57772317
_cell_length_c   8.65444800
_cell_angle_alpha   89.99823590
_cell_angle_beta   90.00145778
_cell_angle_gamma   90.02829988
_symmetry_Int_Tables_number   1
_chemical_formula_structural   LiMnSiO4
_chemical_formula_sum   'Li4 Mn4 Si4 O16'
_cell_volume   269.25193769
_cell_formula_units_Z   4
loop_
 _symmetry_equiv_pos_site_id
 _symmetry_equiv_pos_as_xyz
  1  'x, y, z'
loop_
 _atom_site_type_symbol
 _atom_site_label
 _atom_site_symmetry_multiplicity
 _atom_site_fract_x
 _atom_site_fract_y
 _atom_site_fract_z
 _atom_site_occupancy
  Li  Li0  1  0.00026500  0.22682100  0.00043100  1
  Li  Li1  1  0.99970900  0.77310600  0.50039500  1
  Li  Li2  1  0.22682900  0.00027700  0.24955900  1
  Li  Li3  1  0.77311800  0.99971900  0.74958200  1
  Mn  Mn4  1  0.49972900  0.76913200  0.49920800  1
  Mn  Mn5  1  0.76890700  0.49956100  0.75095500  1
  Mn  Mn6  1  0.23126700  0.50003900  0.25080700  1
  Mn  Mn7  1  0.50003900  0.23109400  0.99921200  1
  Si  Si8  1  0.26240100  0.26244600  0.62497900  1
  Si  Si9  1  0.26262900  0.73748400  0.87497200  1
  Si  Si10  1  0.73749900  0.26267200  0.37503200  1
  Si  Si11  1  0.73770700  0.73771600  0.12499700  1
  O  O12  1  0.98402700  0.25953200  0.26761800  1
  O  O13  1  0.98429700  0.74073100  0.23228000  1
  O  O14  1  0.25950700  0.98399400  0.98238000  1
  O  O15  1  0.25923900  0.01578600  0.51771100  1
  O  O16  1  0.74070900  0.98427700  0.01767100  1
  O  O17  1  0.74049200  0.01597900  0.48236500  1
  O  O18  1  0.01578500  0.25923500  0.73226200  1
  O  O19  1  0.01592000  0.74042400  0.76766200  1
  O  O20  1  0.25981900  0.49337000  0.98875200  1
  O  O21  1  0.25923200  0.50644900  0.51136600  1
  O  O22  1  0.49338500  0.25983600  0.26123100  1
  O  O23  1  0.49357500  0.74076200  0.23860700  1
  O  O24  1  0.50637600  0.25919100  0.73861900  1
  O  O25  1  0.50666100  0.74013900  0.76124300  1
  O  O26  1  0.74014400  0.50666900  0.48875000  1
  O  O27  1  0.74073500  0.49355900  0.01135600  1
