# generated using pymatgen
data_Li2MnF4
_symmetry_space_group_name_H-M   'P 1'
_cell_length_a   5.11512100
_cell_length_b   10.24213400
_cell_length_c   12.62980100
_cell_angle_alpha   90.00000000
_cell_angle_beta   90.00000000
_cell_angle_gamma   90.00000000
_symmetry_Int_Tables_number   1
_chemical_formula_structural   Li2MnF4
_chemical_formula_sum   'Li16 Mn8 F32'
_cell_volume   661.67217640
_cell_formula_units_Z   8
loop_
 _symmetry_equiv_pos_site_id
 _symmetry_equiv_pos_as_xyz
  1  'x, y, z'
loop_
 _atom_site_type_symbol
 _atom_site_label
 _atom_site_symmetry_multiplicity
 _atom_site_fract_x
 _atom_site_fract_y
 _atom_site_fract_z
 _atom_site_occupancy
  Li  Li0  1  0.00000000  0.00000000  0.32764300  1
  Li  Li1  1  0.00000000  0.00000000  0.68842200  1
  Li  Li2  1  0.50000000  0.00000000  0.55519700  1
  Li  Li3  1  0.00000000  0.00000000  0.96816000  1
  Li  Li4  1  0.96879300  0.29682100  0.84555900  1
  Li  Li5  1  0.00682100  0.24864300  0.19172300  1
  Li  Li6  1  0.50682100  0.25135700  0.69172300  1
  Li  Li7  1  0.46879300  0.20317900  0.34555900  1
  Li  Li8  1  0.50000000  0.50000000  0.46816000  1
  Li  Li9  1  0.00000000  0.50000000  0.05519700  1
  Li  Li10  1  0.50000000  0.50000000  0.18842200  1
  Li  Li11  1  0.50000000  0.50000000  0.82764300  1
  Li  Li12  1  0.53120700  0.79682100  0.34555900  1
  Li  Li13  1  0.49317900  0.74864300  0.69172300  1
  Li  Li14  1  0.99317900  0.75135700  0.19172300  1
  Li  Li15  1  0.03120700  0.70317900  0.84555900  1
  Mn  Mn16  1  0.50000000  0.00000000  0.13785300  1
  Mn  Mn17  1  0.50000000  0.00000000  0.84562200  1
  Mn  Mn18  1  0.00887400  0.22562400  0.50111800  1
  Mn  Mn19  1  0.50887400  0.27437600  0.00111800  1
  Mn  Mn20  1  0.00000000  0.50000000  0.34562200  1
  Mn  Mn21  1  0.00000000  0.50000000  0.63785300  1
  Mn  Mn22  1  0.49112600  0.72562400  0.00111800  1
  Mn  Mn23  1  0.99112600  0.77437600  0.50111800  1
  F  F24  1  0.28814100  0.10472100  0.73403000  1
  F  F25  1  0.26193300  0.11284000  0.23643000  1
  F  F26  1  0.30643800  0.09398700  0.99449700  1
  F  F27  1  0.75726500  0.15619800  0.10626700  1
  F  F28  1  0.80140000  0.13193100  0.87727600  1
  F  F29  1  0.30657900  0.10505300  0.46229200  1
  F  F30  1  0.77163500  0.12798300  0.61201300  1
  F  F31  1  0.82434400  0.16176400  0.36006400  1
  F  F32  1  0.32434400  0.33823600  0.86006400  1
  F  F33  1  0.27163500  0.37201700  0.11201300  1
  F  F34  1  0.80657900  0.39494700  0.96229200  1
  F  F35  1  0.30140000  0.36806900  0.37727600  1
  F  F36  1  0.25726500  0.34380200  0.60626700  1
  F  F37  1  0.80643800  0.40601300  0.49449700  1
  F  F38  1  0.76193300  0.38716000  0.73643000  1
  F  F39  1  0.78814100  0.39527900  0.23403000  1
  F  F40  1  0.21185900  0.60472100  0.23403000  1
  F  F41  1  0.23806700  0.61284000  0.73643000  1
  F  F42  1  0.19356200  0.59398700  0.49449700  1
  F  F43  1  0.69860000  0.63193100  0.37727600  1
  F  F44  1  0.74273500  0.65619800  0.60626700  1
  F  F45  1  0.19342100  0.60505300  0.96229200  1
  F  F46  1  0.72836500  0.62798300  0.11201300  1
  F  F47  1  0.67565600  0.66176400  0.86006400  1
  F  F48  1  0.17565600  0.83823600  0.36006400  1
  F  F49  1  0.22836500  0.87201700  0.61201300  1
  F  F50  1  0.69342100  0.89494700  0.46229200  1
  F  F51  1  0.24273500  0.84380200  0.10626700  1
  F  F52  1  0.19860000  0.86806900  0.87727600  1
  F  F53  1  0.69356200  0.90601300  0.99449700  1
  F  F54  1  0.73806700  0.88716000  0.23643000  1
  F  F55  1  0.71185900  0.89527900  0.73403000  1
