# generated using pymatgen
data_Li3Sn2(PO4)3
_symmetry_space_group_name_H-M   'P 1'
_cell_length_a   9.01282100
_cell_length_b   9.35433674
_cell_length_c   16.29933993
_cell_angle_alpha   86.99900412
_cell_angle_beta   106.01228033
_cell_angle_gamma   118.76806865
_symmetry_Int_Tables_number   1
_chemical_formula_structural   Li3Sn2(PO4)3
_chemical_formula_sum   'Li12 Sn8 P12 O48'
_cell_volume   1152.55451135
_cell_formula_units_Z   4
loop_
 _symmetry_equiv_pos_site_id
 _symmetry_equiv_pos_as_xyz
  1  'x, y, z'
loop_
 _atom_site_type_symbol
 _atom_site_label
 _atom_site_symmetry_multiplicity
 _atom_site_fract_x
 _atom_site_fract_y
 _atom_site_fract_z
 _atom_site_occupancy
  Li  Li0  1  0.32286800  0.44702900  0.34187500  1
  Li  Li1  1  0.76511000  0.66705200  0.96488000  1
  Li  Li2  1  0.57156200  0.75388300  0.24991900  1
  Li  Li3  1  0.13399500  0.83436700  0.53401900  1
  Li  Li4  1  0.52199800  0.05293600  0.15582200  1
  Li  Li5  1  0.50809100  0.00538000  0.49953200  1
  Li  Li6  1  0.47477800  0.94730700  0.84416900  1
  Li  Li7  1  0.86889900  0.16871800  0.46399500  1
  Li  Li8  1  0.43103500  0.24884100  0.74968600  1
  Li  Li9  1  0.23530900  0.33391500  0.03385100  1
  Li  Li10  1  0.68381300  0.55114700  0.65608600  1
  Li  Li11  1  0.99727900  0.49528300  0.00398600  1
  Sn  Sn12  1  0.28385000  0.54775500  0.52932500  1
  Sn  Sn13  1  0.22421200  0.51619900  0.83589100  1
  Sn  Sn14  1  0.87207000  0.98443200  0.66340900  1
  Sn  Sn15  1  0.20786200  0.95290600  0.96949000  1
  Sn  Sn16  1  0.79315100  0.04641400  0.02969600  1
  Sn  Sn17  1  0.12740700  0.01543500  0.33619500  1
  Sn  Sn18  1  0.77579700  0.48403400  0.16317300  1
  Sn  Sn19  1  0.71531700  0.45372400  0.47039200  1
  P  P20  1  0.04703600  0.63918400  0.38138900  1
  P  P21  1  0.44575700  0.76353000  0.67667500  1
  P  P22  1  0.41222300  0.74172200  0.04796200  1
  P  P23  1  0.62161600  0.75905200  0.45103300  1
  P  P24  1  0.00603700  0.73666800  0.82249800  1
  P  P25  1  0.02737700  0.86034300  0.11794100  1
  P  P26  1  0.97365100  0.13971300  0.88187300  1
  P  P27  1  0.99456600  0.26337200  0.17634700  1
  P  P28  1  0.37806400  0.24211700  0.54847200  1
  P  P29  1  0.58881700  0.25852400  0.95160100  1
  P  P30  1  0.55355700  0.23749400  0.32310800  1
  P  P31  1  0.95061300  0.36043800  0.61790600  1
  O  O32  1  0.12129100  0.27062100  0.26165200  1
  O  O33  1  0.05417500  0.23779900  0.09675800  1
  O  O34  1  0.02319700  0.31954200  0.89735600  1
  O  O35  1  0.04963300  0.37141800  0.54888500  1
  O  O36  1  0.31678500  0.36079200  0.49166100  1
  O  O37  1  0.08107500  0.40895400  0.70626000  1
  O  O38  1  0.13107000  0.52406000  0.40374400  1
  O  O39  1  0.45830000  0.60519900  0.65522900  1
  O  O40  1  0.36982300  0.56548700  0.03348900  1
  O  O41  1  0.02448600  0.58111300  0.82939400  1
  O  O42  1  0.49267900  0.81496800  0.14168900  1
  O  O43  1  0.40981200  0.76991800  0.76162200  1
  O  O44  1  0.47869600  0.75392200  0.49101500  1
  O  O45  1  0.28209200  0.73932300  0.59692400  1
  O  O46  1  0.23469800  0.74697500  0.00733100  1
  O  O47  1  0.19268100  0.81981600  0.39650200  1
  O  O48  1  0.53762300  0.68597200  0.35730600  1
  O  O49  1  0.86960200  0.86985800  0.04891200  1
  O  O50  1  0.61302000  0.91826600  0.66950600  1
  O  O51  1  0.53616800  0.85991100  0.99130000  1
  O  O52  1  0.03367900  0.91015900  0.20629500  1
  O  O53  1  0.76884500  0.93638200  0.46522400  1
  O  O54  1  0.20423600  0.97572700  0.09552600  1
  O  O55  1  0.19851000  0.89430000  0.84364500  1
  O  O56  1  0.80241800  0.10558700  0.15545800  1
  O  O57  1  0.79645500  0.02360800  0.90386600  1
  O  O58  1  0.22901400  0.06603300  0.53447200  1
  O  O59  1  0.96692300  0.08996100  0.79322600  1
  O  O60  1  0.46504200  0.14064300  0.00840200  1
  O  O61  1  0.38719300  0.08178100  0.33050600  1
  O  O62  1  0.13109900  0.12918100  0.95058100  1
  O  O63  1  0.46519800  0.31507900  0.64206900  1
  O  O64  1  0.80396400  0.18040600  0.60217200  1
  O  O65  1  0.76605400  0.25224100  0.99187300  1
  O  O66  1  0.71771100  0.26245400  0.40269800  1
  O  O67  1  0.51952400  0.24607000  0.50745300  1
  O  O68  1  0.58904800  0.23172100  0.23786000  1
  O  O69  1  0.50682400  0.18521900  0.85791700  1
  O  O70  1  0.97567400  0.41878000  0.16771700  1
  O  O71  1  0.63398500  0.43538100  0.96622400  1
  O  O72  1  0.53979400  0.39497100  0.34446000  1
  O  O73  1  0.86687200  0.47644500  0.59610600  1
  O  O74  1  0.91646900  0.59003300  0.29291200  1
  O  O75  1  0.68454100  0.64178600  0.50827500  1
  O  O76  1  0.94856000  0.62922100  0.45047100  1
  O  O77  1  0.97834900  0.68007400  0.10314700  1
  O  O78  1  0.94689400  0.76181800  0.90224800  1
  O  O79  1  0.87896000  0.73058500  0.73741300  1
