# generated using pymatgen
data_Li4Mn5Fe3O16
_symmetry_space_group_name_H-M   'P 1'
_cell_length_a   5.90344144
_cell_length_b   5.90344144
_cell_length_c   9.49848932
_cell_angle_alpha   88.89159690
_cell_angle_beta   88.89159690
_cell_angle_gamma   59.81141586
_symmetry_Int_Tables_number   1
_chemical_formula_structural   Li4Mn5Fe3O16
_chemical_formula_sum   'Li4 Mn5 Fe3 O16'
_cell_volume   286.06129349
_cell_formula_units_Z   1
loop_
 _symmetry_equiv_pos_site_id
 _symmetry_equiv_pos_as_xyz
  1  'x, y, z'
loop_
 _atom_site_type_symbol
 _atom_site_label
 _atom_site_symmetry_multiplicity
 _atom_site_fract_x
 _atom_site_fract_y
 _atom_site_fract_z
 _atom_site_occupancy
  Li  Li0  1  0.66982400  0.66982400  0.89736600  1
  Li  Li1  1  0.99787800  0.99787800  0.99604200  1
  Li  Li2  1  0.99976500  0.99976500  0.49219800  1
  Li  Li3  1  0.33720500  0.33720500  0.39590600  1
  Mn  Mn4  1  0.66570400  0.66570400  0.48454100  1
  Mn  Mn5  1  0.82722800  0.82722800  0.21339300  1
  Mn  Mn6  1  0.33058800  0.33058800  0.98534900  1
  Mn  Mn7  1  0.66224900  0.17122100  0.71337300  1
  Mn  Mn8  1  0.17122100  0.66224900  0.71337300  1
  Fe  Fe9  1  0.82581700  0.33800600  0.21243400  1
  Fe  Fe10  1  0.33800600  0.82581700  0.21243400  1
  Fe  Fe11  1  0.16969700  0.16969700  0.71237200  1
  O  O12  1  0.83428900  0.32974400  0.59979200  1
  O  O13  1  0.51868000  0.51868000  0.34427400  1
  O  O14  1  0.67326200  0.67326200  0.10393900  1
  O  O15  1  0.99073600  0.99073600  0.30583800  1
  O  O16  1  0.99477900  0.99477900  0.80760900  1
  O  O17  1  0.32974400  0.83428900  0.59979200  1
  O  O18  1  0.95912700  0.52745400  0.34296900  1
  O  O19  1  0.52745400  0.95912700  0.34296900  1
  O  O20  1  0.16566300  0.16566300  0.09446200  1
  O  O21  1  0.83675600  0.83675600  0.60463800  1
  O  O22  1  0.48576300  0.04400200  0.84237400  1
  O  O23  1  0.04400200  0.48576300  0.84237400  1
  O  O24  1  0.34089200  0.34089200  0.60768400  1
  O  O25  1  0.66388900  0.16059200  0.09957300  1
  O  O26  1  0.48091400  0.48091400  0.84127100  1
  O  O27  1  0.16059200  0.66388900  0.09957300  1
