# generated using pymatgen
data_LiCoPO4
_symmetry_space_group_name_H-M   'P 1'
_cell_length_a   5.11309400
_cell_length_b   8.65815080
_cell_length_c   8.49248664
_cell_angle_alpha   107.84850075
_cell_angle_beta   90.00245187
_cell_angle_gamma   89.99487672
_symmetry_Int_Tables_number   1
_chemical_formula_structural   LiCoPO4
_chemical_formula_sum   'Li4 Co4 P4 O16'
_cell_volume   357.86692468
_cell_formula_units_Z   4
loop_
 _symmetry_equiv_pos_site_id
 _symmetry_equiv_pos_as_xyz
  1  'x, y, z'
loop_
 _atom_site_type_symbol
 _atom_site_label
 _atom_site_symmetry_multiplicity
 _atom_site_fract_x
 _atom_site_fract_y
 _atom_site_fract_z
 _atom_site_occupancy
  Li  Li0  1  0.82376600  0.98595100  0.11037800  1
  Li  Li1  1  0.17627900  0.98591900  0.61035500  1
  Li  Li2  1  0.31756400  0.49557100  0.24594000  1
  Li  Li3  1  0.68243400  0.49557200  0.74592200  1
  Co  Co4  1  0.32043700  0.24777700  0.48441300  1
  Co  Co5  1  0.18037200  0.74163700  0.85099600  1
  Co  Co6  1  0.67950700  0.24777200  0.98438200  1
  Co  Co7  1  0.81965800  0.74166900  0.35098600  1
  P  P8  1  0.31294600  0.86515000  0.23459400  1
  P  P9  1  0.68708100  0.86509400  0.73453200  1
  P  P10  1  0.81128800  0.36900200  0.35798600  1
  P  P11  1  0.18871900  0.36899200  0.85798200  1
  O  O12  1  0.18230400  0.89141500  0.07963600  1
  O  O13  1  0.81770900  0.89137500  0.57964500  1
  O  O14  1  0.32443400  0.34573700  0.01299600  1
  O  O15  1  0.67550500  0.34569800  0.51296100  1
  O  O16  1  0.61219100  0.83927800  0.20594800  1
  O  O17  1  0.38780400  0.83928400  0.70596400  1
  O  O18  1  0.19035300  0.71444500  0.27074600  1
  O  O19  1  0.80967000  0.71444600  0.77072200  1
  O  O20  1  0.75212200  0.21899000  0.20609500  1
  O  O21  1  0.24791100  0.21896700  0.70610000  1
  O  O22  1  0.69500100  0.51894600  0.31772800  1
  O  O23  1  0.30501600  0.51889500  0.81772800  1
  O  O24  1  0.11046400  0.39149400  0.38944000  1
  O  O25  1  0.88948800  0.39148300  0.88940900  1
  O  O26  1  0.25235300  0.01351900  0.38700100  1
  O  O27  1  0.74762300  0.01352200  0.88700700  1
