# generated using pymatgen
data_Li8(CoO2)5
_symmetry_space_group_name_H-M   'P 1'
_cell_length_a   6.64378219
_cell_length_b   10.08942144
_cell_length_c   8.63692236
_cell_angle_alpha   105.93490891
_cell_angle_beta   104.47846859
_cell_angle_gamma   103.26323174
_symmetry_Int_Tables_number   1
_chemical_formula_structural   Li8(CoO2)5
_chemical_formula_sum   'Li16 Co10 O20'
_cell_volume   510.65350982
_cell_formula_units_Z   2
loop_
 _symmetry_equiv_pos_site_id
 _symmetry_equiv_pos_as_xyz
  1  'x, y, z'
loop_
 _atom_site_type_symbol
 _atom_site_label
 _atom_site_symmetry_multiplicity
 _atom_site_fract_x
 _atom_site_fract_y
 _atom_site_fract_z
 _atom_site_occupancy
  Li  Li0  1  0.42181800  0.07997700  0.06408900  1
  Li  Li1  1  0.92785100  0.58418600  0.06573600  1
  Li  Li2  1  0.37262800  0.31617600  0.13381700  1
  Li  Li3  1  0.87815700  0.82016300  0.13563900  1
  Li  Li4  1  0.52812500  0.36402800  0.44090400  1
  Li  Li5  1  0.02566000  0.86755300  0.44173200  1
  Li  Li6  1  0.77241900  0.53668500  0.75891600  1
  Li  Li7  1  0.27322200  0.03251000  0.75767300  1
  Li  Li8  1  0.20844400  0.49902500  0.26695800  1
  Li  Li9  1  0.71224500  0.00256300  0.27004100  1
  Li  Li10  1  0.58718900  0.89665400  0.93058200  1
  Li  Li11  1  0.09149600  0.39827800  0.93315600  1
  Li  Li12  1  0.49523400  0.61927300  0.55036400  1
  Li  Li13  1  0.99499600  0.11579000  0.54902900  1
  Li  Li14  1  0.30494600  0.78496100  0.65132400  1
  Li  Li15  1  0.80525600  0.28191200  0.64996300  1
  Co  Co16  1  0.14992300  0.45020800  0.59967300  1
  Co  Co17  1  0.64980000  0.95010900  0.59984000  1
  Co  Co18  1  0.04759100  0.14703200  0.19761800  1
  Co  Co19  1  0.54706600  0.64928300  0.19858100  1
  Co  Co20  1  0.75254700  0.25020000  0.00183400  1
  Co  Co21  1  0.25271000  0.75236700  0.00340300  1
  Co  Co22  1  0.85718900  0.55855800  0.40694300  1
  Co  Co23  1  0.35607500  0.05972500  0.40446500  1
  Co  Co24  1  0.94430200  0.84079900  0.79523800  1
  Co  Co25  1  0.44331000  0.34189000  0.79255200  1
  O  O26  1  0.36512800  0.18176400  0.26299200  1
  O  O27  1  0.84725700  0.67816300  0.26061500  1
  O  O28  1  0.93551600  0.71876000  0.93699400  1
  O  O29  1  0.45248100  0.22215700  0.93898300  1
  O  O30  1  0.72772100  0.09995000  0.08889800  1
  O  O31  1  0.24543500  0.59491300  0.10297700  1
  O  O32  1  0.05432600  0.30337300  0.09690200  1
  O  O33  1  0.57156500  0.79961100  0.11213700  1
  O  O34  1  0.85755000  0.44384500  0.56214800  1
  O  O35  1  0.35685600  0.94220200  0.55826100  1
  O  O36  1  0.44237000  0.45661100  0.63737600  1
  O  O37  1  0.94280600  0.95783800  0.64110100  1
  O  O38  1  0.52850800  0.51932300  0.32058400  1
  O  O39  1  0.02968700  0.01371400  0.32920700  1
  O  O40  1  0.27047400  0.88625400  0.87126200  1
  O  O41  1  0.77180900  0.38051500  0.87972700  1
  O  O42  1  0.17469900  0.58253200  0.48798900  1
  O  O43  1  0.67614100  0.08400200  0.48995900  1
  O  O44  1  0.62405600  0.81666700  0.71038800  1
  O  O45  1  0.12541300  0.31790200  0.71143100  1
