# generated using pymatgen
data_LiVP2HO8
_symmetry_space_group_name_H-M   'P 1'
_cell_length_a   7.47448600
_cell_length_b   7.98374634
_cell_length_c   9.71584410
_cell_angle_alpha   90.04069245
_cell_angle_beta   105.46432266
_cell_angle_gamma   90.04382721
_symmetry_Int_Tables_number   1
_chemical_formula_structural   LiVP2HO8
_chemical_formula_sum   'Li4 V4 P8 H4 O32'
_cell_volume   558.79652952
_cell_formula_units_Z   4
loop_
 _symmetry_equiv_pos_site_id
 _symmetry_equiv_pos_as_xyz
  1  'x, y, z'
loop_
 _atom_site_type_symbol
 _atom_site_label
 _atom_site_symmetry_multiplicity
 _atom_site_fract_x
 _atom_site_fract_y
 _atom_site_fract_z
 _atom_site_occupancy
  Li  Li0  1  0.14365100  0.13095700  0.79746800  1
  Li  Li1  1  0.64556100  0.36908400  0.54604800  1
  Li  Li2  1  0.85722100  0.86976700  0.20870300  1
  Li  Li3  1  0.64781700  0.36859500  0.04676400  1
  V  V4  1  0.00027600  0.50953000  0.75367600  1
  V  V5  1  0.50000400  0.99404700  0.50146700  1
  V  V6  1  0.01016400  0.49680200  0.25376000  1
  V  V7  1  0.49937500  0.99411900  0.00086000  1
  P  P8  1  0.73342600  0.64987900  0.93458600  1
  P  P9  1  0.76716900  0.15156600  0.81414000  1
  P  P10  1  0.23620600  0.84478400  0.68296500  1
  P  P11  1  0.26413400  0.34266400  0.56623400  1
  P  P12  1  0.73250700  0.65256600  0.43246000  1
  P  P13  1  0.76924100  0.15199600  0.31732900  1
  P  P14  1  0.23808600  0.84569900  0.18708000  1
  P  P15  1  0.26432800  0.34778500  0.06402400  1
  H  H16  1  0.49174200  0.49621300  0.74026300  1
  H  H17  1  0.00832400  0.99320200  0.51246200  1
  H  H18  1  0.50070900  0.49770600  0.24998100  1
  H  H19  1  0.00997800  0.99420800  0.01378200  1
  O  O20  1  0.14579800  0.44475900  0.93009200  1
  O  O21  1  0.68742900  0.82341700  0.98852700  1
  O  O22  1  0.64423000  0.17083500  0.92036800  1
  O  O23  1  0.55979700  0.54648400  0.87064100  1
  O  O24  1  0.34604900  0.94700500  0.81862200  1
  O  O25  1  0.18191900  0.67334800  0.72770100  1
  O  O26  1  0.94862200  0.06201900  0.88220500  1
  O  O27  1  0.86287100  0.67223700  0.83542400  1
  O  O28  1  0.14420400  0.32707900  0.67265400  1
  O  O29  1  0.06216500  0.95521800  0.62436400  1
  O  O30  1  0.80917200  0.32390800  0.75574400  1
  O  O31  1  0.64843900  0.05185300  0.68205900  1
  O  O32  1  0.44470700  0.44312500  0.62882100  1
  O  O33  1  0.36239700  0.82747900  0.58255100  1
  O  O34  1  0.31770600  0.17250000  0.51735100  1
  O  O35  1  0.14599300  0.44176900  0.43385000  1
  O  O36  1  0.84350800  0.55147400  0.56747500  1
  O  O37  1  0.68116700  0.82560800  0.47757400  1
  O  O38  1  0.64482700  0.17415600  0.42101000  1
  O  O39  1  0.56091100  0.54325200  0.36906000  1
  O  O40  1  0.34890600  0.94514000  0.32019100  1
  O  O41  1  0.18429300  0.67291600  0.23207400  1
  O  O42  1  0.93978200  0.04431900  0.37703100  1
  O  O43  1  0.86015000  0.67231700  0.33068800  1
  O  O44  1  0.14139000  0.33074300  0.16759700  1
  O  O45  1  0.05312300  0.94012200  0.12090400  1
  O  O46  1  0.81309800  0.32222000  0.25923600  1
  O  O47  1  0.64985300  0.05077000  0.18250700  1
  O  O48  1  0.44690300  0.44045900  0.12863800  1
  O  O49  1  0.36016200  0.83204800  0.08271600  1
  O  O50  1  0.31159800  0.17637800  0.00757200  1
  O  O51  1  0.84505500  0.54989700  0.07060700  1
