# generated using pymatgen
data_LiP3W2O13
_symmetry_space_group_name_H-M   'P 1'
_cell_length_a   19.04374300
_cell_length_b   6.48898500
_cell_length_c   9.82190568
_cell_angle_alpha   72.87569725
_cell_angle_beta   90.00000000
_cell_angle_gamma   90.00000000
_symmetry_Int_Tables_number   1
_chemical_formula_structural   LiP3W2O13
_chemical_formula_sum   'Li4 P12 W8 O52'
_cell_volume   1159.93053174
_cell_formula_units_Z   4
loop_
 _symmetry_equiv_pos_site_id
 _symmetry_equiv_pos_as_xyz
  1  'x, y, z'
loop_
 _atom_site_type_symbol
 _atom_site_label
 _atom_site_symmetry_multiplicity
 _atom_site_fract_x
 _atom_site_fract_y
 _atom_site_fract_z
 _atom_site_occupancy
  Li  Li0  1  0.07488900  0.81519900  0.61993300  1
  Li  Li1  1  0.84533200  0.76561300  0.02995400  1
  Li  Li2  1  0.34533200  0.23438700  0.97004600  1
  Li  Li3  1  0.57488900  0.18480100  0.38006700  1
  P  P4  1  0.66820300  0.90826300  0.96463800  1
  P  P5  1  0.93285300  0.97993100  0.29296200  1
  P  P6  1  0.30742300  0.75566000  0.70265200  1
  P  P7  1  0.37274000  0.74300000  0.30873400  1
  P  P8  1  0.51209800  0.40899200  0.97255500  1
  P  P9  1  0.74752200  0.52071600  0.69679300  1
  P  P10  1  0.24752200  0.47928400  0.30320700  1
  P  P11  1  0.01209800  0.59100800  0.02744500  1
  P  P12  1  0.87274000  0.25700000  0.69126600  1
  P  P13  1  0.80742300  0.24434000  0.29734800  1
  P  P14  1  0.43285300  0.02006900  0.70703800  1
  P  P15  1  0.16820300  0.09173700  0.03536200  1
  W  W16  1  0.21317100  0.93316300  0.39301700  1
  W  W17  1  0.18005100  0.62963400  0.94378500  1
  W  W18  1  0.50276000  0.86785600  0.07361800  1
  W  W19  1  0.46765800  0.56232300  0.62030300  1
  W  W20  1  0.96765800  0.43767700  0.37969700  1
  W  W21  1  0.00276000  0.13214400  0.92638200  1
  W  W22  1  0.68005100  0.37036600  0.05621500  1
  W  W23  1  0.71317100  0.06683700  0.60698300  1
  O  O24  1  0.19413900  0.93565100  0.95433200  1
  O  O25  1  0.44802600  0.97781800  0.86542300  1
  O  O26  1  0.58863700  0.91732400  0.93918100  1
  O  O27  1  0.70622700  0.95995100  0.82069300  1
  O  O28  1  0.34927400  0.97387200  0.69884100  1
  O  O29  1  0.98879400  0.81556100  0.93150400  1
  O  O30  1  0.47113000  0.87880500  0.63073700  1
  O  O31  1  0.12474700  0.92467300  0.44841000  1
  O  O32  1  0.24646700  0.83062300  0.60136800  1
  O  O33  1  0.12779000  0.70180100  0.78804500  1
  O  O34  1  0.28049800  0.65726600  0.85652200  1
  O  O35  1  0.32183500  0.89689100  0.34904500  1
  O  O36  1  0.73942000  0.75761700  0.61228400  1
  O  O37  1  0.94063000  0.74437700  0.38242600  1
  O  O38  1  0.40006300  0.84650000  0.15570400  1
  O  O39  1  0.35660000  0.59688000  0.66427500  1
  O  O40  1  0.55265000  0.80340900  0.22916400  1
  O  O41  1  0.99189200  0.43631400  0.94140600  1
  O  O42  1  0.43366900  0.67010600  0.41093100  1
  O  O43  1  0.72993500  0.47132700  0.85496200  1
  O  O44  1  0.46510400  0.45631900  0.83868600  1
  O  O45  1  0.59022000  0.42100200  0.93007400  1
  O  O46  1  0.55699400  0.54990300  0.58779300  1
  O  O47  1  0.21044700  0.62103300  0.37972800  1
  O  O48  1  0.83123400  0.47455000  0.69155100  1
  O  O49  1  0.19545000  0.31557500  0.94520400  1
  O  O50  1  0.69545000  0.68442500  0.05479600  1
  O  O51  1  0.33123400  0.52545000  0.30844900  1
  O  O52  1  0.71044700  0.37896700  0.62027200  1
  O  O53  1  0.05699400  0.45009700  0.41220700  1
  O  O54  1  0.09022000  0.57899800  0.06992600  1
  O  O55  1  0.96510400  0.54368100  0.16131400  1
  O  O56  1  0.22993500  0.52867300  0.14503800  1
  O  O57  1  0.93366900  0.32989400  0.58906900  1
  O  O58  1  0.49189200  0.56368600  0.05859400  1
  O  O59  1  0.05265000  0.19659100  0.77083600  1
  O  O60  1  0.85660000  0.40312000  0.33572500  1
  O  O61  1  0.90006300  0.15350000  0.84429600  1
  O  O62  1  0.44063000  0.25562300  0.61757400  1
  O  O63  1  0.23942000  0.24238300  0.38771600  1
  O  O64  1  0.82183500  0.10310900  0.65095500  1
  O  O65  1  0.78049800  0.34273400  0.14347800  1
  O  O66  1  0.62779000  0.29819900  0.21195500  1
  O  O67  1  0.74646700  0.16937700  0.39863200  1
  O  O68  1  0.62474700  0.07532700  0.55159000  1
  O  O69  1  0.97113000  0.12119500  0.36926300  1
  O  O70  1  0.48879400  0.18443900  0.06849600  1
  O  O71  1  0.84927400  0.02612800  0.30115900  1
  O  O72  1  0.20622700  0.04004900  0.17930700  1
  O  O73  1  0.08863700  0.08267600  0.06081900  1
  O  O74  1  0.94802600  0.02218200  0.13457700  1
  O  O75  1  0.69413900  0.06434900  0.04566800  1
