# generated using pymatgen
data_Li6Mn3(PO4)4
_symmetry_space_group_name_H-M   'P 1'
_cell_length_a   8.33815900
_cell_length_b   9.10423676
_cell_length_c   13.74444703
_cell_angle_alpha   83.24535865
_cell_angle_beta   89.85104566
_cell_angle_gamma   89.18291193
_symmetry_Int_Tables_number   1
_chemical_formula_structural   Li6Mn3(PO4)4
_chemical_formula_sum   'Li18 Mn9 P12 O48'
_cell_volume   1036.02839587
_cell_formula_units_Z   3
loop_
 _symmetry_equiv_pos_site_id
 _symmetry_equiv_pos_as_xyz
  1  'x, y, z'
loop_
 _atom_site_type_symbol
 _atom_site_label
 _atom_site_symmetry_multiplicity
 _atom_site_fract_x
 _atom_site_fract_y
 _atom_site_fract_z
 _atom_site_occupancy
  Li  Li0  1  0.57672300  0.88422200  0.97008600  1
  Li  Li1  1  0.91346500  0.36570900  0.97006700  1
  Li  Li2  1  0.86460000  0.76500700  0.84213500  1
  Li  Li3  1  0.62058700  0.26295100  0.85132700  1
  Li  Li4  1  0.36653400  0.08115600  0.83019200  1
  Li  Li5  1  0.10125600  0.95297100  0.70169900  1
  Li  Li6  1  0.90687700  0.70512700  0.63072700  1
  Li  Li7  1  0.55758600  0.22147100  0.65132400  1
  Li  Li8  1  0.62136200  0.58158300  0.51387300  1
  Li  Li9  1  0.13827300  0.90541700  0.49046200  1
  Li  Li10  1  0.36016900  0.41383400  0.48495100  1
  Li  Li11  1  0.40853800  0.76916900  0.39400100  1
  Li  Li12  1  0.76892600  0.59305800  0.27602200  1
  Li  Li13  1  0.90981800  0.08201600  0.27605700  1
  Li  Li14  1  0.62580300  0.94228900  0.17823700  1
  Li  Li15  1  0.86803900  0.40601400  0.17347200  1
  Li  Li16  1  0.14681000  0.24381300  0.15932800  1
  Li  Li17  1  0.09276100  0.60270600  0.06263100  1
  Mn  Mn18  1  0.50798200  0.65677300  0.82655100  1
  Mn  Mn19  1  0.14074200  0.56175400  0.81501200  1
  Mn  Mn20  1  0.99708000  0.16243300  0.83347300  1
  Mn  Mn21  1  0.49058800  0.01333500  0.49561500  1
  Mn  Mn22  1  0.00371100  0.49758500  0.49193100  1
  Mn  Mn23  1  0.87091000  0.10654800  0.50811000  1
  Mn  Mn24  1  0.99994200  0.84483700  0.16745100  1
  Mn  Mn25  1  0.37110600  0.72965700  0.15980900  1
  Mn  Mn26  1  0.49823300  0.32787900  0.16461100  1
  P  P27  1  0.20117000  0.85400100  0.94129500  1
  P  P28  1  0.29963800  0.35322400  0.94892100  1
  P  P29  1  0.70415400  0.97904300  0.72317000  1
  P  P30  1  0.79647100  0.47358300  0.72156900  1
  P  P31  1  0.29533900  0.69844600  0.60475100  1
  P  P32  1  0.20347500  0.19322000  0.61300500  1
  P  P33  1  0.79354600  0.81576100  0.38756600  1
  P  P34  1  0.69471700  0.32316700  0.38795100  1
  P  P35  1  0.19382100  0.51617400  0.27579500  1
  P  P36  1  0.29640000  0.02278900  0.27962300  1
  P  P37  1  0.70745200  0.64306800  0.05496200  1
  P  P38  1  0.79796500  0.13991000  0.05725200  1
  O  O39  1  0.71293900  0.70254100  0.94430800  1
  O  O40  1  0.79199600  0.19715300  0.94496300  1
  O  O41  1  0.37827500  0.84896300  0.90486000  1
  O  O42  1  0.09050300  0.74752000  0.89187800  1
  O  O43  1  0.34745400  0.51772600  0.91604600  1
  O  O44  1  0.11821000  0.35244400  0.90775500  1
  O  O45  1  0.40604600  0.24449700  0.90116300  1
  O  O46  1  0.14019900  0.01357600  0.92215500  1
  O  O47  1  0.88428700  0.97778700  0.75687900  1
  O  O48  1  0.90556000  0.59105300  0.76541200  1
  O  O49  1  0.62862700  0.47037800  0.77029400  1
  O  O50  1  0.64942800  0.81838900  0.74382800  1
  O  O51  1  0.87001300  0.31804100  0.74025300  1
  O  O52  1  0.59761400  0.08921300  0.77313500  1
  O  O53  1  0.30765300  0.65406900  0.71787600  1
  O  O54  1  0.20741900  0.13660800  0.72488500  1
  O  O55  1  0.78956800  0.53042300  0.60966600  1
  O  O56  1  0.34629200  0.86108000  0.58310800  1
  O  O57  1  0.69405600  0.03560700  0.60994800  1
  O  O58  1  0.39622100  0.59840400  0.54545400  1
  O  O59  1  0.13346500  0.34907400  0.59037100  1
  O  O60  1  0.11297800  0.69548700  0.57374200  1
  O  O61  1  0.37712600  0.19374300  0.56955700  1
  O  O62  1  0.09733800  0.07508500  0.56870400  1
  O  O63  1  0.91120400  0.91473000  0.43739800  1
  O  O64  1  0.62276800  0.81959200  0.43291100  1
  O  O65  1  0.84919200  0.65099500  0.39883200  1
  O  O66  1  0.57753100  0.42078300  0.43778000  1
  O  O67  1  0.86657500  0.32293200  0.43679900  1
  O  O68  1  0.29610400  0.96445900  0.39124300  1
  O  O69  1  0.65194500  0.15510600  0.40263200  1
  O  O70  1  0.19764600  0.48164800  0.38809900  1
  O  O71  1  0.79247400  0.87144200  0.27500400  1
  O  O72  1  0.71085300  0.38107400  0.27695800  1
  O  O73  1  0.40920600  0.91042100  0.23336000  1
  O  O74  1  0.14383900  0.68368600  0.24851300  1
  O  O75  1  0.36872700  0.51143500  0.23124700  1
  O  O76  1  0.35624800  0.18057300  0.25923700  1
  O  O77  1  0.08090100  0.41858400  0.22443200  1
  O  O78  1  0.12163400  0.02153700  0.23698700  1
  O  O79  1  0.87595200  0.63817600  0.10670400  1
  O  O80  1  0.59887000  0.75934200  0.10195000  1
  O  O81  1  0.85597900  0.97757100  0.07150000  1
  O  O82  1  0.91703800  0.24430500  0.10283500  1
  O  O83  1  0.64392400  0.48558200  0.07271800  1
  O  O84  1  0.63200000  0.14509500  0.10784100  1
  O  O85  1  0.19479500  0.79533700  0.05427500  1
  O  O86  1  0.29436100  0.32587600  0.06097900  1
