# generated using pymatgen
data_LiMnBO3
_symmetry_space_group_name_H-M   'P 1'
_cell_length_a   3.24418700
_cell_length_b   14.49657849
_cell_length_c   14.50128228
_cell_angle_alpha   119.95098944
_cell_angle_beta   90.05318950
_cell_angle_gamma   90.05420670
_symmetry_Int_Tables_number   1
_chemical_formula_structural   LiMnBO3
_chemical_formula_sum   'Li9 Mn9 B9 O27'
_cell_volume   590.91081365
_cell_formula_units_Z   9
loop_
 _symmetry_equiv_pos_site_id
 _symmetry_equiv_pos_as_xyz
  1  'x, y, z'
loop_
 _atom_site_type_symbol
 _atom_site_label
 _atom_site_symmetry_multiplicity
 _atom_site_fract_x
 _atom_site_fract_y
 _atom_site_fract_z
 _atom_site_occupancy
  Li  Li0  1  0.50298400  0.87924100  0.09771800  1
  Li  Li1  1  0.51305300  0.56555700  0.11170600  1
  Li  Li2  1  0.44813100  0.88727100  0.45346100  1
  Li  Li3  1  0.50482900  0.21868200  0.12004100  1
  Li  Li4  1  0.54059600  0.54695100  0.43387400  1
  Li  Li5  1  0.48625600  0.25154500  0.45123000  1
  Li  Li6  1  0.49531100  0.90228700  0.78141300  1
  Li  Li7  1  0.50582300  0.54942900  0.80058700  1
  Li  Li8  1  0.50830000  0.19971300  0.74756100  1
  Mn  Mn9  1  0.94067200  0.80105600  0.24940100  1
  Mn  Mn10  1  0.00222200  0.44758600  0.19744000  1
  Mn  Mn11  1  0.98793000  0.10437700  0.22121400  1
  Mn  Mn12  1  0.04718800  0.75109800  0.55186900  1
  Mn  Mn13  1  0.02566800  0.46700100  0.57758800  1
  Mn  Mn14  1  0.97758800  0.11042800  0.53217500  1
  Mn  Mn15  1  0.01479300  0.77881200  0.88214100  1
  Mn  Mn16  1  0.01050800  0.42178100  0.88845400  1
  Mn  Mn17  1  0.99147200  0.11702100  0.89546900  1
  B  B18  1  0.99606100  0.66300000  0.00711300  1
  B  B19  1  0.99891200  0.66678100  0.33307900  1
  B  B20  1  0.00621300  0.34447000  0.33605800  1
  B  B21  1  0.99353800  0.99239200  0.65545200  1
  B  B22  1  0.46989200  0.01107000  0.33129800  1
  B  B23  1  0.53151000  0.66811800  0.67894100  1
  B  B24  1  0.00218200  0.33299300  0.66598700  1
  B  B25  1  0.99657100  0.99972700  0.99968000  1
  B  B26  1  0.49813100  0.32039500  0.98799300  1
  O  O27  1  0.00052000  0.91993300  0.02655200  1
  O  O28  1  0.02570400  0.57233500  0.01736400  1
  O  O29  1  0.90710200  0.76195100  0.09568900  1
  O  O30  1  0.43887300  0.91222800  0.32290700  1
  O  O31  1  0.49683300  0.41080300  0.08657400  1
  O  O32  1  0.98550200  0.60168500  0.22398200  1
  O  O33  1  0.93205300  0.77531700  0.37778300  1
  O  O34  1  0.98493400  0.10622900  0.07915900  1
  O  O35  1  0.95938300  0.98185400  0.55440700  1
  O  O36  1  0.92375900  0.33393700  0.23674900  1
  O  O37  1  0.07982400  0.62414000  0.39801300  1
  O  O38  1  0.09974000  0.90447600  0.66574900  1
  O  O39  1  0.05935400  0.25446800  0.34555500  1
  O  O40  1  0.03270100  0.44560300  0.42678200  1
  O  O41  1  0.49113600  0.01992800  0.24035400  1
  O  O42  1  0.55315800  0.67669400  0.58852600  1
  O  O43  1  0.52570200  0.56740100  0.66959600  1
  O  O44  1  0.47957900  0.10233500  0.43193100  1
  O  O45  1  0.00459800  0.97276700  0.89301100  1
  O  O46  1  0.51519100  0.75910200  0.77862700  1
  O  O47  1  0.98407900  0.31886400  0.56385200  1
  O  O48  1  0.01262400  0.24485800  0.68002000  1
  O  O49  1  0.01009100  0.43496600  0.75367300  1
  O  O50  1  0.05145700  0.65364400  0.90768000  1
  O  O51  1  0.92599600  0.09077600  0.74520500  1
  O  O52  1  0.50897200  0.32941100  0.89640700  1
  O  O53  1  0.48898200  0.22042600  0.97938300  1
