# generated using pymatgen
data_Na2LiFePCO7
_symmetry_space_group_name_H-M   'P 1'
_cell_length_a   6.61533100
_cell_length_b   8.91014800
_cell_length_c   10.30112079
_cell_angle_alpha   88.38739231
_cell_angle_beta   90.00000000
_cell_angle_gamma   90.00000000
_symmetry_Int_Tables_number   1
_chemical_formula_structural   Na2LiFePCO7
_chemical_formula_sum   'Na8 Li4 Fe4 P4 C4 O28'
_cell_volume   606.94444223
_cell_formula_units_Z   4
loop_
 _symmetry_equiv_pos_site_id
 _symmetry_equiv_pos_as_xyz
  1  'x, y, z'
loop_
 _atom_site_type_symbol
 _atom_site_label
 _atom_site_symmetry_multiplicity
 _atom_site_fract_x
 _atom_site_fract_y
 _atom_site_fract_z
 _atom_site_occupancy
  Na  Na0  1  0.50117100  0.08335400  0.88016000  1
  Na  Na1  1  0.49882900  0.08335400  0.38016000  1
  Na  Na2  1  0.24940400  0.26172500  0.62652800  1
  Na  Na3  1  0.75059600  0.26172500  0.12652800  1
  Na  Na4  1  0.75218300  0.73901400  0.87412700  1
  Na  Na5  1  0.24935500  0.73795800  0.87467700  1
  Na  Na6  1  0.75064500  0.73795800  0.37467700  1
  Na  Na7  1  0.24781700  0.73901400  0.37412700  1
  Li  Li8  1  0.74054200  0.27333900  0.62259300  1
  Li  Li9  1  0.25945800  0.27333900  0.12259300  1
  Li  Li10  1  0.99210000  0.91575500  0.62554000  1
  Li  Li11  1  0.00790000  0.91575500  0.12554000  1
  Fe  Fe12  1  0.00221900  0.34894700  0.89180100  1
  Fe  Fe13  1  0.99778100  0.34894700  0.39180100  1
  Fe  Fe14  1  0.49893600  0.64837300  0.60950300  1
  Fe  Fe15  1  0.50106400  0.64837300  0.10950300  1
  P  P16  1  0.50527900  0.41126300  0.85295100  1
  P  P17  1  0.49472100  0.41126300  0.35295100  1
  P  P18  1  0.99407200  0.58709600  0.64999400  1
  P  P19  1  0.00592800  0.58709600  0.14999400  1
  C  C20  1  0.99810200  0.05325700  0.86089200  1
  C  C21  1  0.00189800  0.05325700  0.36089200  1
  C  C22  1  0.50844000  0.94678800  0.63438000  1
  C  C23  1  0.49156000  0.94678800  0.13438000  1
  O  O24  1  0.52679000  0.09098900  0.63976000  1
  O  O25  1  0.47321000  0.09098900  0.13976000  1
  O  O26  1  0.99998300  0.09447700  0.98115000  1
  O  O27  1  0.00001700  0.09447700  0.48115000  1
  O  O28  1  0.99423900  0.15441000  0.76625200  1
  O  O29  1  0.00576100  0.15441000  0.26625200  1
  O  O30  1  0.31582300  0.31576400  0.89316200  1
  O  O31  1  0.69179200  0.31653600  0.89797500  1
  O  O32  1  0.30820800  0.31653600  0.39797500  1
  O  O33  1  0.68417700  0.31576400  0.39316200  1
  O  O34  1  0.51407000  0.43075000  0.70150000  1
  O  O35  1  0.97883300  0.43364600  0.58439300  1
  O  O36  1  0.48593000  0.43075000  0.20150000  1
  O  O37  1  0.02116700  0.43364600  0.08439300  1
  O  O38  1  0.50105300  0.56533900  0.91654300  1
  O  O39  1  0.99861500  0.56184200  0.80006000  1
  O  O40  1  0.49894700  0.56533900  0.41654300  1
  O  O41  1  0.00138500  0.56184200  0.30006000  1
  O  O42  1  0.81209900  0.69252800  0.61301900  1
  O  O43  1  0.18497500  0.67965200  0.60741000  1
  O  O44  1  0.81502500  0.67965200  0.10741000  1
  O  O45  1  0.18790100  0.69252800  0.11301900  1
  O  O46  1  0.49794100  0.86335000  0.74064400  1
  O  O47  1  0.50205900  0.86335000  0.24064400  1
  O  O48  1  0.49919500  0.88098200  0.52323100  1
  O  O49  1  0.50080500  0.88098200  0.02323100  1
  O  O50  1  0.00059700  0.91286400  0.83175500  1
  O  O51  1  0.99940300  0.91286400  0.33175500  1
