# generated using pymatgen
data_Li2Fe(PO3)4
_symmetry_space_group_name_H-M   'P 1'
_cell_length_a   12.73383900
_cell_length_b   7.82565600
_cell_length_c   11.77086125
_cell_angle_alpha   61.82515781
_cell_angle_beta   90.00000000
_cell_angle_gamma   90.00000000
_symmetry_Int_Tables_number   1
_chemical_formula_structural   Li2Fe(PO3)4
_chemical_formula_sum   'Li8 Fe4 P16 O48'
_cell_volume   1033.98922811
_cell_formula_units_Z   4
loop_
 _symmetry_equiv_pos_site_id
 _symmetry_equiv_pos_as_xyz
  1  'x, y, z'
loop_
 _atom_site_type_symbol
 _atom_site_label
 _atom_site_symmetry_multiplicity
 _atom_site_fract_x
 _atom_site_fract_y
 _atom_site_fract_z
 _atom_site_occupancy
  Li  Li0  1  0.79255900  0.44516300  0.66078100  1
  Li  Li1  1  0.41328000  0.06918100  0.07457400  1
  Li  Li2  1  0.29255900  0.55483700  0.83921900  1
  Li  Li3  1  0.91328000  0.93081900  0.42542600  1
  Li  Li4  1  0.08672000  0.06918100  0.57457400  1
  Li  Li5  1  0.70744100  0.44516300  0.16078100  1
  Li  Li6  1  0.58672000  0.93081900  0.92542600  1
  Li  Li7  1  0.20744100  0.55483700  0.33921900  1
  Fe  Fe8  1  0.34551100  0.76304900  0.48834300  1
  Fe  Fe9  1  0.84551100  0.23695100  0.01165700  1
  Fe  Fe10  1  0.15448900  0.76304900  0.98834300  1
  Fe  Fe11  1  0.65448900  0.23695100  0.51165700  1
  P  P12  1  0.16600500  0.41207600  0.64356900  1
  P  P13  1  0.56585100  0.57119600  0.63957800  1
  P  P14  1  0.67995900  0.88597700  0.19115000  1
  P  P15  1  0.06585100  0.42880400  0.86042200  1
  P  P16  1  0.08342900  0.05500700  0.09884400  1
  P  P17  1  0.66600500  0.58792400  0.85643100  1
  P  P18  1  0.58342900  0.94499300  0.40115600  1
  P  P19  1  0.17995900  0.11402300  0.30885000  1
  P  P20  1  0.82004100  0.88597700  0.69115000  1
  P  P21  1  0.41657100  0.05500700  0.59884400  1
  P  P22  1  0.33399500  0.41207600  0.14356900  1
  P  P23  1  0.91657100  0.94499300  0.90115600  1
  P  P24  1  0.93414900  0.57119600  0.13957800  1
  P  P25  1  0.32004100  0.11402300  0.80885000  1
  P  P26  1  0.43414900  0.42880400  0.36042200  1
  P  P27  1  0.83399500  0.58792400  0.35643100  1
  O  O28  1  0.25508500  0.31769100  0.75800100  1
  O  O29  1  0.64310900  0.41791600  0.65070800  1
  O  O30  1  0.11651000  0.22212800  0.95788500  1
  O  O31  1  0.85895500  0.70812100  0.42122800  1
  O  O32  1  0.60101700  0.89641900  0.09364300  1
  O  O33  1  0.45302700  0.55877200  0.60711900  1
  O  O34  1  0.06493000  0.41458700  0.72651000  1
  O  O35  1  0.14967700  0.87873100  0.12891100  1
  O  O36  1  0.70137800  0.38378500  0.94337300  1
  O  O37  1  0.20137800  0.61621500  0.55662700  1
  O  O38  1  0.62024900  0.83809600  0.32069600  1
  O  O39  1  0.56493000  0.58541300  0.77349000  1
  O  O40  1  0.95302700  0.44122800  0.89288100  1
  O  O41  1  0.61651000  0.77787200  0.54211500  1
  O  O42  1  0.96656500  0.03847800  0.11368700  1
  O  O43  1  0.75422700  0.05073800  0.16039000  1
  O  O44  1  0.25422700  0.94926200  0.33961000  1
  O  O45  1  0.46656500  0.96152200  0.38631300  1
  O  O46  1  0.14310900  0.58208400  0.84929200  1
  O  O47  1  0.75508500  0.68230900  0.74199900  1
  O  O48  1  0.12024900  0.16190400  0.17930400  1
  O  O49  1  0.64104500  0.70812100  0.92122800  1
  O  O50  1  0.89898300  0.89641900  0.59364300  1
  O  O51  1  0.35032300  0.87873100  0.62891100  1
  O  O52  1  0.64967700  0.12126900  0.37108900  1
  O  O53  1  0.10101700  0.10358100  0.40635700  1
  O  O54  1  0.35895500  0.29187900  0.07877200  1
  O  O55  1  0.87975100  0.83809600  0.82069600  1
  O  O56  1  0.24491500  0.31769100  0.25800100  1
  O  O57  1  0.85689100  0.41791600  0.15070800  1
  O  O58  1  0.53343500  0.03847800  0.61368700  1
  O  O59  1  0.74577300  0.05073800  0.66039000  1
  O  O60  1  0.24577300  0.94926200  0.83961000  1
  O  O61  1  0.03343500  0.96152200  0.88631300  1
  O  O62  1  0.38349000  0.22212800  0.45788500  1
  O  O63  1  0.04697300  0.55877200  0.10711900  1
  O  O64  1  0.43507000  0.41458700  0.22651000  1
  O  O65  1  0.37975100  0.16190400  0.67930400  1
  O  O66  1  0.79862200  0.38378500  0.44337300  1
  O  O67  1  0.29862200  0.61621500  0.05662700  1
  O  O68  1  0.85032300  0.12126900  0.87108900  1
  O  O69  1  0.93507000  0.58541300  0.27349000  1
  O  O70  1  0.54697300  0.44122800  0.39288100  1
  O  O71  1  0.39898300  0.10358100  0.90635700  1
  O  O72  1  0.14104500  0.29187900  0.57877200  1
  O  O73  1  0.88349000  0.77787200  0.04211500  1
  O  O74  1  0.35689100  0.58208400  0.34929200  1
  O  O75  1  0.74491500  0.68230900  0.24199900  1
