# generated using pymatgen
data_LiCoPO4
_symmetry_space_group_name_H-M   'P 1'
_cell_length_a   5.09875409
_cell_length_b   10.95503800
_cell_length_c   6.28789512
_cell_angle_alpha   90.00174043
_cell_angle_beta   90.02153453
_cell_angle_gamma   89.99992429
_symmetry_Int_Tables_number   1
_chemical_formula_structural   LiCoPO4
_chemical_formula_sum   'Li4 Co4 P4 O16'
_cell_volume   351.22321409
_cell_formula_units_Z   4
loop_
 _symmetry_equiv_pos_site_id
 _symmetry_equiv_pos_as_xyz
  1  'x, y, z'
loop_
 _atom_site_type_symbol
 _atom_site_label
 _atom_site_symmetry_multiplicity
 _atom_site_fract_x
 _atom_site_fract_y
 _atom_site_fract_z
 _atom_site_occupancy
  Li  Li0  1  0.24714500  0.16750800  0.53399400  1
  Li  Li1  1  0.74714600  0.33248700  0.03399700  1
  Li  Li2  1  0.24700800  0.66756000  0.96599200  1
  Li  Li3  1  0.74700600  0.83244200  0.46599600  1
  Co  Co4  1  0.74618900  0.58531700  0.70300900  1
  Co  Co5  1  0.24620600  0.91468200  0.20301500  1
  Co  Co6  1  0.74633900  0.08528500  0.79701000  1
  Co  Co7  1  0.24633300  0.41471600  0.29702200  1
  P  P8  1  0.25019200  0.17168800  0.03659100  1
  P  P9  1  0.75018700  0.32830100  0.53659400  1
  P  P10  1  0.24999600  0.67171100  0.46345900  1
  P  P11  1  0.75000500  0.82830200  0.96346300  1
  O  O12  1  0.18352800  0.09146600  0.23616300  1
  O  O13  1  0.68352600  0.40852900  0.73616800  1
  O  O14  1  0.18333100  0.59150500  0.26395800  1
  O  O15  1  0.68333100  0.90850300  0.76395400  1
  O  O16  1  0.13295800  0.11185600  0.83218000  1
  O  O17  1  0.63295500  0.38813500  0.33219000  1
  O  O18  1  0.13277500  0.61193000  0.66775600  1
  O  O19  1  0.63277700  0.88808200  0.16777100  1
  O  O20  1  0.63365400  0.19811000  0.56373300  1
  O  O21  1  0.13365600  0.30188500  0.06374000  1
  O  O22  1  0.63354000  0.69812700  0.93621600  1
  O  O23  1  0.13353900  0.80187500  0.43622100  1
  O  O24  1  0.55261900  0.17895900  0.01376000  1
  O  O25  1  0.05262100  0.32103000  0.51375300  1
  O  O26  1  0.55241200  0.67896300  0.48614900  1
  O  O27  1  0.05242400  0.82104800  0.98614600  1
