# generated using pymatgen
data_Li4Mn7O12
_symmetry_space_group_name_H-M   'P 1'
_cell_length_a   5.24574000
_cell_length_b   10.02083997
_cell_length_c   13.80620631
_cell_angle_alpha   79.32417815
_cell_angle_beta   79.90898779
_cell_angle_gamma   84.59974930
_symmetry_Int_Tables_number   1
_chemical_formula_structural   Li4Mn7O12
_chemical_formula_sum   'Li12 Mn21 O36'
_cell_volume   700.72541992
_cell_formula_units_Z   3
loop_
 _symmetry_equiv_pos_site_id
 _symmetry_equiv_pos_as_xyz
  1  'x, y, z'
loop_
 _atom_site_type_symbol
 _atom_site_label
 _atom_site_symmetry_multiplicity
 _atom_site_fract_x
 _atom_site_fract_y
 _atom_site_fract_z
 _atom_site_occupancy
  Li  Li0  1  0.47628000  0.75104000  0.30538600  1
  Li  Li1  1  0.05760400  0.50646600  0.89145200  1
  Li  Li2  1  0.39059100  0.50147900  0.21811000  1
  Li  Li3  1  0.27294000  0.51164800  0.44549500  1
  Li  Li4  1  0.22157600  0.99055900  0.05026200  1
  Li  Li5  1  0.78614200  0.99207200  0.94692900  1
  Li  Li6  1  0.11438800  0.99385100  0.28514400  1
  Li  Li7  1  0.81147700  0.75167900  0.63914900  1
  Li  Li8  1  0.72095900  0.50119900  0.55503500  1
  Li  Li9  1  0.58357100  0.51123000  0.78353400  1
  Li  Li10  1  0.44806500  0.99444000  0.61134300  1
  Li  Li11  1  0.13844800  0.74196700  0.97402600  1
  Mn  Mn12  1  0.86143400  0.25095100  0.02517400  1
  Mn  Mn13  1  0.66576000  0.99159800  0.17042100  1
  Mn  Mn14  1  0.37872100  0.75159600  0.52447500  1
  Mn  Mn15  1  0.59454700  0.74987500  0.08310600  1
  Mn  Mn16  1  0.15782500  0.50852200  0.66981600  1
  Mn  Mn17  1  0.20532900  0.24790400  0.36194200  1
  Mn  Mn18  1  0.07744100  0.24949500  0.58443600  1
  Mn  Mn19  1  0.96222600  0.24543400  0.80794400  1
  Mn  Mn20  1  0.99464200  0.99134200  0.49830500  1
  Mn  Mn21  1  0.29134700  0.25088200  0.13763600  1
  Mn  Mn22  1  0.69989900  0.75525900  0.86152900  1
  Mn  Mn23  1  0.04586100  0.74608800  0.19136600  1
  Mn  Mn24  1  0.91251000  0.75100000  0.41637500  1
  Mn  Mn25  1  0.49113300  0.50626400  0.00337800  1
  Mn  Mn26  1  0.82627800  0.50706100  0.33108400  1
  Mn  Mn27  1  0.52783000  0.25164800  0.69202300  1
  Mn  Mn28  1  0.41218900  0.24951900  0.91389200  1
  Mn  Mn29  1  0.74938200  0.24880500  0.24998400  1
  Mn  Mn30  1  0.32423800  0.99301800  0.83321900  1
  Mn  Mn31  1  0.63456200  0.24824500  0.47300600  1
  Mn  Mn32  1  0.24242000  0.75289400  0.75285200  1
  O  O33  1  0.87325000  0.86988900  0.07423800  1
  O  O34  1  0.72891500  0.63779000  0.20645800  1
  O  O35  1  0.50692400  0.36620000  0.35535400  1
  O  O36  1  0.57696400  0.37097900  0.12277500  1
  O  O37  1  0.40329900  0.37647400  0.58116200  1
  O  O38  1  0.15581900  0.87512200  0.60562800  1
  O  O39  1  0.43174200  0.12862700  0.24590200  1
  O  O40  1  0.04361600  0.86686100  0.84431100  1
  O  O41  1  0.35644700  0.86128600  0.16967000  1
  O  O42  1  0.31519400  0.14919800  0.48722800  1
  O  O43  1  0.23556300  0.13962300  0.70075800  1
  O  O44  1  0.56935800  0.13333600  0.03280800  1
  O  O45  1  0.18622700  0.86934400  0.40833000  1
  O  O46  1  0.93825500  0.64441700  0.76904200  1
  O  O47  1  0.30149100  0.63833900  0.09912500  1
  O  O48  1  0.06797400  0.63038100  0.54095600  1
  O  O49  1  0.79260000  0.64518000  0.98427800  1
  O  O50  1  0.12761200  0.63222800  0.33043600  1
  O  O51  1  0.84291200  0.36004800  0.67764400  1
  O  O52  1  0.18258900  0.35310400  0.01145600  1
  O  O53  1  0.92803500  0.36577000  0.46577600  1
  O  O54  1  0.73841500  0.37541900  0.91301400  1
  O  O55  1  0.06960700  0.36558100  0.25314200  1
  O  O56  1  0.48492300  0.86951100  0.95386900  1
  O  O57  1  0.76429300  0.11916300  0.57975100  1
  O  O58  1  0.82649000  0.86542800  0.28143500  1
  O  O59  1  0.69121700  0.85393900  0.51011900  1
  O  O60  1  0.61246400  0.13699100  0.81694900  1
  O  O61  1  0.99109100  0.13721700  0.14212600  1
  O  O62  1  0.91957100  0.12756100  0.37691500  1
  O  O63  1  0.53397300  0.86395000  0.75041000  1
  O  O64  1  0.61287000  0.63690900  0.43378700  1
  O  O65  1  0.38158800  0.61742200  0.88563400  1
  O  O66  1  0.45432300  0.63554100  0.66735000  1
  O  O67  1  0.28053400  0.37466500  0.79678500  1
  O  O68  1  0.10359000  0.10911400  0.92281400  1
