# generated using pymatgen
data_Li3V2(O2F)2
_symmetry_space_group_name_H-M   'P 1'
_cell_length_a   5.28340534
_cell_length_b   14.97931066
_cell_length_c   5.89211982
_cell_angle_alpha   100.62400068
_cell_angle_beta   91.38468044
_cell_angle_gamma   87.02975482
_symmetry_Int_Tables_number   1
_chemical_formula_structural   Li3V2(O2F)2
_chemical_formula_sum   'Li12 V8 O16 F8'
_cell_volume   457.65291936
_cell_formula_units_Z   4
loop_
 _symmetry_equiv_pos_site_id
 _symmetry_equiv_pos_as_xyz
  1  'x, y, z'
loop_
 _atom_site_type_symbol
 _atom_site_label
 _atom_site_symmetry_multiplicity
 _atom_site_fract_x
 _atom_site_fract_y
 _atom_site_fract_z
 _atom_site_occupancy
  Li  Li0  1  0.32012900  0.30939500  0.18208500  1
  Li  Li1  1  0.81996600  0.80958100  0.18243100  1
  Li  Li2  1  0.18004700  0.19046100  0.81746500  1
  Li  Li3  1  0.67982800  0.69058800  0.81780700  1
  Li  Li4  1  0.70084500  0.17690800  0.09521300  1
  Li  Li5  1  0.20074000  0.67699000  0.09524600  1
  Li  Li6  1  0.79909500  0.32304200  0.90473100  1
  Li  Li7  1  0.29895300  0.82313300  0.90477500  1
  Li  Li8  1  0.85825000  0.31483800  0.41092800  1
  Li  Li9  1  0.35849000  0.81506800  0.41101200  1
  Li  Li10  1  0.64172200  0.18489000  0.58891300  1
  Li  Li11  1  0.14200000  0.68510500  0.58898300  1
  V  V12  1  0.49977400  0.50000100  0.99988700  1
  V  V13  1  0.00017400  0.00004600  0.00029600  1
  V  V14  1  0.00028100  0.00000500  0.50023300  1
  V  V15  1  0.49971600  0.49997600  0.49992000  1
  V  V16  1  0.49171200  0.00584700  0.25142800  1
  V  V17  1  0.99088700  0.50596000  0.25110100  1
  V  V18  1  0.00862900  0.49404200  0.74861800  1
  V  V19  1  0.50870300  0.99421000  0.74896400  1
  O  O20  1  0.34190500  0.06999600  0.03455400  1
  O  O21  1  0.84164500  0.56992000  0.03445200  1
  O  O22  1  0.15811800  0.43007300  0.96532000  1
  O  O23  1  0.65831400  0.93004500  0.96554500  1
  O  O24  1  0.68167100  0.43014600  0.21804000  1
  O  O25  1  0.18251200  0.93030100  0.21889100  1
  O  O26  1  0.81841700  0.06975100  0.78175700  1
  O  O27  1  0.31723700  0.56977100  0.78129300  1
  O  O28  1  0.81368100  0.06982200  0.27986900  1
  O  O29  1  0.31359600  0.56992100  0.27907600  1
  O  O30  1  0.68627100  0.43010300  0.72061700  1
  O  O31  1  0.18653100  0.93014000  0.72067200  1
  O  O32  1  0.15901000  0.42939800  0.45091100  1
  O  O33  1  0.65880100  0.92916100  0.45111500  1
  O  O34  1  0.34162000  0.07079300  0.54899100  1
  O  O35  1  0.84073200  0.57058000  0.54884600  1
  F  F36  1  0.99960900  0.25480200  0.10924100  1
  F  F37  1  0.49983900  0.75468600  0.10913600  1
  F  F38  1  0.50019100  0.24532700  0.89083300  1
  F  F39  1  0.00039400  0.74498400  0.89062800  1
  F  F40  1  0.54804500  0.25123200  0.35693400  1
  F  F41  1  0.04793900  0.75128800  0.35662600  1
  F  F42  1  0.95199900  0.24878200  0.64336200  1
  F  F43  1  0.45198200  0.74889500  0.64325300  1
