# generated using pymatgen
data_Li4Cr3FeO8
_symmetry_space_group_name_H-M   'P 1'
_cell_length_a   5.89702449
_cell_length_b   5.89702449
_cell_length_c   5.89702457
_cell_angle_alpha   59.79657911
_cell_angle_beta   59.79657911
_cell_angle_gamma   59.79658362
_symmetry_Int_Tables_number   1
_chemical_formula_structural   Li4Cr3FeO8
_chemical_formula_sum   'Li4 Cr3 Fe1 O8'
_cell_volume   144.33565677
_cell_formula_units_Z   1
loop_
 _symmetry_equiv_pos_site_id
 _symmetry_equiv_pos_as_xyz
  1  'x, y, z'
loop_
 _atom_site_type_symbol
 _atom_site_label
 _atom_site_symmetry_multiplicity
 _atom_site_fract_x
 _atom_site_fract_y
 _atom_site_fract_z
 _atom_site_occupancy
  Li  Li0  1  0.00000000  0.50000000  0.00000000  1
  Li  Li1  1  0.50000000  0.00000000  0.00000000  1
  Li  Li2  1  0.00000000  0.00000000  0.50000000  1
  Li  Li3  1  0.50000000  0.50000000  0.50000000  1
  Cr  Cr4  1  0.00000000  0.50000000  0.50000000  1
  Cr  Cr5  1  0.50000000  0.00000000  0.50000000  1
  Cr  Cr6  1  0.50000000  0.50000000  0.00000000  1
  Fe  Fe7  1  0.00000000  0.00000000  0.00000000  1
  O  O8  1  0.74208700  0.74208700  0.74208700  1
  O  O9  1  0.76031400  0.25492800  0.76031400  1
  O  O10  1  0.23968600  0.23968600  0.74507200  1
  O  O11  1  0.74507200  0.23968600  0.23968600  1
  O  O12  1  0.25492800  0.76031400  0.76031400  1
  O  O13  1  0.76031400  0.76031400  0.25492800  1
  O  O14  1  0.23968600  0.74507200  0.23968600  1
  O  O15  1  0.25791300  0.25791300  0.25791300  1
