# generated using pymatgen
data_Li8Mn7Co(PO4)12
_symmetry_space_group_name_H-M   'P 1'
_cell_length_a   8.54058100
_cell_length_b   8.77337404
_cell_length_c   11.92066354
_cell_angle_alpha   89.81051036
_cell_angle_beta   89.86069524
_cell_angle_gamma   89.46250708
_symmetry_Int_Tables_number   1
_chemical_formula_structural   Li8Mn7Co(PO4)12
_chemical_formula_sum   'Li8 Mn7 Co1 P12 O48'
_cell_volume   893.16512084
_cell_formula_units_Z   1
loop_
 _symmetry_equiv_pos_site_id
 _symmetry_equiv_pos_as_xyz
  1  'x, y, z'
loop_
 _atom_site_type_symbol
 _atom_site_label
 _atom_site_symmetry_multiplicity
 _atom_site_fract_x
 _atom_site_fract_y
 _atom_site_fract_z
 _atom_site_occupancy
  Li  Li0  1  0.21556100  0.72165800  0.18139400  1
  Li  Li1  1  0.21486000  0.77633600  0.81890300  1
  Li  Li2  1  0.28601300  0.22305000  0.31861300  1
  Li  Li3  1  0.28487100  0.27970400  0.68120000  1
  Li  Li4  1  0.71623700  0.72070400  0.32036100  1
  Li  Li5  1  0.71528800  0.77511700  0.68135300  1
  Li  Li6  1  0.78450900  0.22346600  0.18149500  1
  Li  Li7  1  0.78415300  0.27922500  0.81662200  1
  Mn  Mn8  1  0.24625100  0.96231500  0.61289800  1
  Mn  Mn9  1  0.24974100  0.53431600  0.38555600  1
  Mn  Mn10  1  0.25160700  0.03637600  0.11343000  1
  Mn  Mn11  1  0.24995100  0.46509800  0.88538200  1
  Mn  Mn12  1  0.74842300  0.53568600  0.11490800  1
  Mn  Mn13  1  0.74780400  0.96403500  0.88679400  1
  Mn  Mn14  1  0.75209800  0.03656400  0.38576600  1
  Co  Co15  1  0.75234500  0.46499700  0.61552700  1
  P  P16  1  0.03346700  0.24896600  0.50158700  1
  P  P17  1  0.10530300  0.39437600  0.14674600  1
  P  P18  1  0.10536000  0.10510200  0.85158800  1
  P  P19  1  0.39628900  0.60606800  0.64489500  1
  P  P20  1  0.39415400  0.89343600  0.35243200  1
  P  P21  1  0.46488400  0.75197800  0.99951600  1
  P  P22  1  0.53540100  0.24870100  0.99975900  1
  P  P23  1  0.60711700  0.39581900  0.35590700  1
  P  P24  1  0.60596600  0.10836600  0.64584500  1
  P  P25  1  0.89312300  0.60578100  0.85336400  1
  P  P26  1  0.89412300  0.89430100  0.14768400  1
  P  P27  1  0.96429100  0.74638800  0.50141400  1
  O  O28  1  0.05930400  0.64207900  0.42457800  1
  O  O29  1  0.05768900  0.85600800  0.57671300  1
  O  O30  1  0.07535400  0.89717200  0.15798700  1
  O  O31  1  0.07421300  0.60569100  0.84276500  1
  O  O32  1  0.14336500  0.15815600  0.58471900  1
  O  O33  1  0.14370900  0.33215800  0.41975200  1
  O  O34  1  0.15503400  0.43850800  0.02860900  1
  O  O35  1  0.15469400  0.05973600  0.97102800  1
  O  O36  1  0.15975000  0.23102500  0.17991000  1
  O  O37  1  0.15717200  0.26409400  0.81762200  1
  O  O38  1  0.17779800  0.51440700  0.22658400  1
  O  O39  1  0.17874800  0.98122200  0.77292600  1
  O  O40  1  0.32077500  0.01703800  0.27375300  1
  O  O41  1  0.32102800  0.48799300  0.72564600  1
  O  O42  1  0.34069800  0.77025200  0.67740900  1
  O  O43  1  0.34152000  0.73426000  0.31930500  1
  O  O44  1  0.34504700  0.56233600  0.52734800  1
  O  O45  1  0.34552600  0.93900500  0.47226000  1
  O  O46  1  0.35717300  0.83981800  0.08467100  1
  O  O47  1  0.35860800  0.66928400  0.91708300  1
  O  O48  1  0.42399400  0.10346400  0.65694600  1
  O  O49  1  0.42580100  0.39633800  0.34232600  1
  O  O50  1  0.44174700  0.14066300  0.07614500  1
  O  O51  1  0.44186200  0.35647000  0.92423600  1
  O  O52  1  0.55742700  0.64397100  0.07545800  1
  O  O53  1  0.55924200  0.86026200  0.92351200  1
  O  O54  1  0.57681700  0.60421700  0.65672700  1
  O  O55  1  0.57493100  0.89587300  0.34211200  1
  O  O56  1  0.64290600  0.33257500  0.08119800  1
  O  O57  1  0.64460700  0.15992400  0.91568200  1
  O  O58  1  0.65474100  0.06034700  0.52734400  1
  O  O59  1  0.65635000  0.44144200  0.47263100  1
  O  O60  1  0.65918200  0.23239100  0.32085500  1
  O  O61  1  0.65802900  0.27035400  0.67752400  1
  O  O62  1  0.67765500  0.51509500  0.27316900  1
  O  O63  1  0.67873800  0.98582300  0.72615800  1
  O  O64  1  0.82122100  0.01742500  0.22682300  1
  O  O65  1  0.82099900  0.48611000  0.77335300  1
  O  O66  1  0.84256200  0.73505100  0.18154900  1
  O  O67  1  0.83931800  0.77028500  0.82098600  1
  O  O68  1  0.84506800  0.56278100  0.97228500  1
  O  O69  1  0.84526200  0.93979200  0.02817300  1
  O  O70  1  0.85539300  0.65934300  0.58304300  1
  O  O71  1  0.85648400  0.83711700  0.41876400  1
  O  O72  1  0.92402100  0.10223900  0.84117200  1
  O  O73  1  0.92496800  0.39523000  0.15889900  1
  O  O74  1  0.94345100  0.14068900  0.42408800  1
  O  O75  1  0.94083200  0.35655200  0.57723600  1
