# generated using pymatgen
data_NaLi2MnPCO7
_symmetry_space_group_name_H-M   'P 1'
_cell_length_a   8.46295623
_cell_length_b   8.46318887
_cell_length_c   8.68638145
_cell_angle_alpha   88.10623503
_cell_angle_beta   88.10392081
_cell_angle_gamma   106.29088908
_symmetry_Int_Tables_number   1
_chemical_formula_structural   NaLi2MnPCO7
_chemical_formula_sum   'Na4 Li8 Mn4 P4 C4 O28'
_cell_volume   596.26230182
_cell_formula_units_Z   4
loop_
 _symmetry_equiv_pos_site_id
 _symmetry_equiv_pos_as_xyz
  1  'x, y, z'
loop_
 _atom_site_type_symbol
 _atom_site_label
 _atom_site_symmetry_multiplicity
 _atom_site_fract_x
 _atom_site_fract_y
 _atom_site_fract_z
 _atom_site_occupancy
  Na  Na0  1  0.62823500  0.63121400  0.24544700  1
  Na  Na1  1  0.12826600  0.13121800  0.24547700  1
  Na  Na2  1  0.61876700  0.12174600  0.75457500  1
  Na  Na3  1  0.11878600  0.62177500  0.75456300  1
  Li  Li4  1  0.51273100  0.24963400  0.10336800  1
  Li  Li5  1  0.01271900  0.74962900  0.10331800  1
  Li  Li6  1  0.50036500  0.73724900  0.89667600  1
  Li  Li7  1  0.00035000  0.23724900  0.89668800  1
  Li  Li8  1  0.35234500  0.88961700  0.27866300  1
  Li  Li9  1  0.85235700  0.38964800  0.27857200  1
  Li  Li10  1  0.86032200  0.89761100  0.72131600  1
  Li  Li11  1  0.36042200  0.39770100  0.72141200  1
  Mn  Mn12  1  0.26058400  0.51897700  0.35090400  1
  Mn  Mn13  1  0.73108500  0.48936000  0.64898400  1
  Mn  Mn14  1  0.76065300  0.01901300  0.35087300  1
  Mn  Mn15  1  0.23118900  0.98952900  0.64905800  1
  P  P16  1  0.48240300  0.23720800  0.41007500  1
  P  P17  1  0.98243600  0.73723800  0.41006200  1
  P  P18  1  0.51280900  0.76760300  0.58992600  1
  P  P19  1  0.01278600  0.26755500  0.58994900  1
  C  C20  1  0.74109400  0.97635100  0.03894000  1
  C  C21  1  0.24112000  0.47637400  0.03896700  1
  C  C22  1  0.27362100  0.00887200  0.96109400  1
  C  C23  1  0.77360600  0.50884300  0.96102500  1
  O  O24  1  0.32279500  0.04047800  0.10003800  1
  O  O25  1  0.82278700  0.54052000  0.09995400  1
  O  O26  1  0.70950900  0.92720000  0.89998800  1
  O  O27  1  0.20950000  0.42719500  0.90003300  1
  O  O28  1  0.86750600  0.09828200  0.06655200  1
  O  O29  1  0.36754300  0.59830200  0.06654000  1
  O  O30  1  0.15169400  0.88247500  0.93349300  1
  O  O31  1  0.65167000  0.38241400  0.93349900  1
  O  O32  1  0.64103500  0.90098900  0.15296300  1
  O  O33  1  0.14107000  0.40102500  0.15301300  1
  O  O34  1  0.34900200  0.10894000  0.84707300  1
  O  O35  1  0.84896100  0.60884000  0.84695300  1
  O  O36  1  0.42808000  0.36579800  0.30868900  1
  O  O37  1  0.92813400  0.86583300  0.30865200  1
  O  O38  1  0.38416700  0.82182800  0.69135900  1
  O  O39  1  0.88412100  0.32179200  0.69133400  1
  O  O40  1  0.63146500  0.20730300  0.31686300  1
  O  O41  1  0.13150600  0.70733500  0.31685300  1
  O  O42  1  0.54280700  0.61856900  0.68311500  1
  O  O43  1  0.04273200  0.11851000  0.68314300  1
  O  O44  1  0.33976500  0.07278500  0.42641000  1
  O  O45  1  0.83979100  0.57280200  0.42632300  1
  O  O46  1  0.67718400  0.91030700  0.57355900  1
  O  O47  1  0.17718000  0.41023300  0.57364400  1
  O  O48  1  0.45457800  0.72409800  0.42499200  1
  O  O49  1  0.95460100  0.22409200  0.42499100  1
  O  O50  1  0.52585700  0.29539500  0.57503600  1
  O  O51  1  0.02590500  0.79544700  0.57501000  1
