# generated using pymatgen
data_Li6FeO4
_symmetry_space_group_name_H-M   'P 1'
_cell_length_a   6.68641903
_cell_length_b   8.16087126
_cell_length_c   8.15925516
_cell_angle_alpha   110.17051265
_cell_angle_beta   89.99800706
_cell_angle_gamma   90.01037626
_symmetry_Int_Tables_number   1
_chemical_formula_structural   Li6FeO4
_chemical_formula_sum   'Li24 Fe4 O16'
_cell_volume   417.92066134
_cell_formula_units_Z   4
loop_
 _symmetry_equiv_pos_site_id
 _symmetry_equiv_pos_as_xyz
  1  'x, y, z'
loop_
 _atom_site_type_symbol
 _atom_site_label
 _atom_site_symmetry_multiplicity
 _atom_site_fract_x
 _atom_site_fract_y
 _atom_site_fract_z
 _atom_site_occupancy
  Li  Li0  1  0.24999400  0.47417600  0.22411400  1
  Li  Li1  1  0.24998000  0.97418800  0.72413800  1
  Li  Li2  1  0.24997400  0.22417000  0.97410300  1
  Li  Li3  1  0.24998800  0.72416400  0.47410000  1
  Li  Li4  1  0.75004800  0.52587900  0.77584300  1
  Li  Li5  1  0.75003700  0.02587000  0.27582300  1
  Li  Li6  1  0.75001900  0.77588200  0.02586000  1
  Li  Li7  1  0.75005100  0.27589500  0.52585900  1
  Li  Li8  1  0.03513700  0.64261700  0.10734000  1
  Li  Li9  1  0.03519000  0.14262500  0.60736000  1
  Li  Li10  1  0.03510900  0.85747700  0.89251200  1
  Li  Li11  1  0.03513300  0.35746900  0.39251100  1
  Li  Li12  1  0.46496300  0.64257700  0.10741500  1
  Li  Li13  1  0.46492400  0.14259600  0.60741500  1
  Li  Li14  1  0.46479600  0.85743600  0.89257200  1
  Li  Li15  1  0.46480600  0.35743600  0.39256800  1
  Li  Li16  1  0.53501400  0.14260100  0.10747700  1
  Li  Li17  1  0.53505700  0.64259600  0.60746700  1
  Li  Li18  1  0.53519200  0.35744600  0.89257400  1
  Li  Li19  1  0.53520700  0.85743500  0.39257600  1
  Li  Li20  1  0.96484300  0.14263400  0.10740000  1
  Li  Li21  1  0.96481300  0.64264000  0.60740000  1
  Li  Li22  1  0.96489800  0.35748100  0.89249500  1
  Li  Li23  1  0.96488900  0.85747600  0.39250000  1
  Fe  Fe24  1  0.25024900  0.99981900  0.25017800  1
  Fe  Fe25  1  0.74964900  0.99972700  0.75009400  1
  Fe  Fe26  1  0.25039700  0.50008700  0.74995800  1
  Fe  Fe27  1  0.74974800  0.49971000  0.25016900  1
  O  O28  1  0.01625700  0.60543100  0.35537200  1
  O  O29  1  0.01623600  0.10541900  0.85537600  1
  O  O30  1  0.25008100  0.23842400  0.22235900  1
  O  O31  1  0.25007800  0.73855500  0.72217900  1
  O  O32  1  0.25013200  0.47243000  0.98841600  1
  O  O33  1  0.25010100  0.97226200  0.48853600  1
  O  O34  1  0.48360100  0.60537800  0.35520800  1
  O  O35  1  0.48359900  0.10542100  0.85522400  1
  O  O36  1  0.51648400  0.39476300  0.64457800  1
  O  O37  1  0.51628700  0.89470600  0.14456800  1
  O  O38  1  0.74998300  0.76130700  0.77799800  1
  O  O39  1  0.74994600  0.26142500  0.27788300  1
  O  O40  1  0.74992300  0.52761600  0.01157600  1
  O  O41  1  0.75002300  0.02761300  0.51156900  1
  O  O42  1  0.98376900  0.39468300  0.64455500  1
  O  O43  1  0.98374700  0.89463300  0.14460400  1
