# generated using pymatgen
data_Li2Mn2Si5O13
_symmetry_space_group_name_H-M   'P 1'
_cell_length_a   7.59775700
_cell_length_b   7.81693571
_cell_length_c   10.00901230
_cell_angle_alpha   83.36207739
_cell_angle_beta   68.39021764
_cell_angle_gamma   72.09894414
_symmetry_Int_Tables_number   1
_chemical_formula_structural   Li2Mn2Si5O13
_chemical_formula_sum   'Li4 Mn4 Si10 O26'
_cell_volume   525.90834297
_cell_formula_units_Z   2
loop_
 _symmetry_equiv_pos_site_id
 _symmetry_equiv_pos_as_xyz
  1  'x, y, z'
loop_
 _atom_site_type_symbol
 _atom_site_label
 _atom_site_symmetry_multiplicity
 _atom_site_fract_x
 _atom_site_fract_y
 _atom_site_fract_z
 _atom_site_occupancy
  Li  Li0  1  0.21017100  0.07052600  0.84724300  1
  Li  Li1  1  0.15368300  0.40074700  0.74406400  1
  Li  Li2  1  0.84631700  0.59925300  0.25593600  1
  Li  Li3  1  0.78982900  0.92947400  0.15275700  1
  Mn  Mn4  1  0.03976600  0.15893600  0.59998800  1
  Mn  Mn5  1  0.41916900  0.82455000  0.40040300  1
  Mn  Mn6  1  0.58083100  0.17545000  0.59959700  1
  Mn  Mn7  1  0.96023400  0.84106400  0.40001200  1
  Si  Si8  1  0.15998800  0.22091400  0.25789200  1
  Si  Si9  1  0.21021900  0.69480600  0.04232400  1
  Si  Si10  1  0.31059600  0.44708100  0.40758700  1
  Si  Si11  1  0.25106300  0.75751600  0.73276100  1
  Si  Si12  1  0.62355700  0.70495200  0.04745500  1
  Si  Si13  1  0.37644300  0.29504800  0.95254500  1
  Si  Si14  1  0.74893700  0.24248400  0.26723900  1
  Si  Si15  1  0.68940400  0.55291900  0.59241300  1
  Si  Si16  1  0.78978100  0.30519400  0.95767600  1
  Si  Si17  1  0.84001200  0.77908600  0.74210800  1
  O  O18  1  0.01531800  0.76980800  0.17918100  1
  O  O19  1  0.16848600  0.05207500  0.36849700  1
  O  O20  1  0.30477100  0.16303700  0.09110500  1
  O  O21  1  0.21418000  0.38734200  0.30306100  1
  O  O22  1  0.06545100  0.68135400  0.74766900  1
  O  O23  1  0.40616600  0.69067100  0.07184400  1
  O  O24  1  0.22293700  0.66395400  0.42841200  1
  O  O25  1  0.28304600  0.31805000  0.54926600  1
  O  O26  1  0.55191300  0.41336400  0.31601900  1
  O  O27  1  0.37074900  0.22147400  0.81066300  1
  O  O28  1  0.22000800  0.49746300  0.99392900  1
  O  O29  1  0.27336300  0.92691100  0.62550700  1
  O  O30  1  0.20912800  0.82569400  0.89685700  1
  O  O31  1  0.79087200  0.17430600  0.10314300  1
  O  O32  1  0.72663700  0.07308900  0.37449300  1
  O  O33  1  0.77999200  0.50253700  0.00607100  1
  O  O34  1  0.62925100  0.77852600  0.18933700  1
  O  O35  1  0.44808700  0.58663600  0.68398100  1
  O  O36  1  0.71695400  0.68195000  0.45073400  1
  O  O37  1  0.77706300  0.33604600  0.57158800  1
  O  O38  1  0.59383400  0.30932900  0.92815600  1
  O  O39  1  0.93454900  0.31864600  0.25233100  1
  O  O40  1  0.78582000  0.61265800  0.69693900  1
  O  O41  1  0.69522900  0.83696300  0.90889500  1
  O  O42  1  0.83151400  0.94792500  0.63150300  1
  O  O43  1  0.98468200  0.23019200  0.82081900  1
