# generated using pymatgen
data_LiFe3P4O15
_symmetry_space_group_name_H-M   'P 1'
_cell_length_a   10.81182200
_cell_length_b   6.44177100
_cell_length_c   17.45581898
_cell_angle_alpha   88.79990181
_cell_angle_beta   90.00000000
_cell_angle_gamma   90.00000000
_symmetry_Int_Tables_number   1
_chemical_formula_structural   LiFe3P4O15
_chemical_formula_sum   'Li4 Fe12 P16 O60'
_cell_volume   1215.48365881
_cell_formula_units_Z   4
loop_
 _symmetry_equiv_pos_site_id
 _symmetry_equiv_pos_as_xyz
  1  'x, y, z'
loop_
 _atom_site_type_symbol
 _atom_site_label
 _atom_site_symmetry_multiplicity
 _atom_site_fract_x
 _atom_site_fract_y
 _atom_site_fract_z
 _atom_site_occupancy
  Li  Li0  1  0.80531400  0.82979100  0.00640700  1
  Li  Li1  1  0.59319800  0.40587800  0.41954100  1
  Li  Li2  1  0.40680200  0.40587800  0.91954100  1
  Li  Li3  1  0.19468600  0.82979100  0.50640700  1
  Fe  Fe4  1  0.25777100  0.60538300  0.15869000  1
  Fe  Fe5  1  0.50872000  0.80990000  0.75162100  1
  Fe  Fe6  1  0.23944500  0.08139200  0.36497900  1
  Fe  Fe7  1  0.76055500  0.08139200  0.86497900  1
  Fe  Fe8  1  0.49128000  0.80990000  0.25162100  1
  Fe  Fe9  1  0.77476800  0.08716300  0.35510600  1
  Fe  Fe10  1  0.74222900  0.60538300  0.65869000  1
  Fe  Fe11  1  0.99164100  0.31414800  0.24587600  1
  Fe  Fe12  1  0.25686500  0.58154100  0.63495500  1
  Fe  Fe13  1  0.74313500  0.58154100  0.13495500  1
  Fe  Fe14  1  0.22523200  0.08716300  0.85510600  1
  Fe  Fe15  1  0.00835900  0.31414800  0.74587600  1
  P  P16  1  0.48634500  0.65371200  0.05427900  1
  P  P17  1  0.01100600  0.46749000  0.07349800  1
  P  P18  1  0.22637800  0.58036600  0.32151100  1
  P  P19  1  0.98899400  0.46749000  0.57349800  1
  P  P20  1  0.51365500  0.65371200  0.55427900  1
  P  P21  1  0.75409300  0.59184600  0.29567300  1
  P  P22  1  0.74673600  0.09607600  0.70420700  1
  P  P23  1  0.25326400  0.09607600  0.20420700  1
  P  P24  1  0.01865100  0.16945500  0.94024800  1
  P  P25  1  0.50868100  0.94686800  0.42407600  1
  P  P26  1  0.72652900  0.08318100  0.18044500  1
  P  P27  1  0.98134900  0.16945500  0.44024800  1
  P  P28  1  0.49131900  0.94686800  0.92407600  1
  P  P29  1  0.77362200  0.58036600  0.82151100  1
  P  P30  1  0.27347100  0.08318100  0.68044500  1
  P  P31  1  0.24590700  0.59184600  0.79567300  1
  O  O32  1  0.64227100  0.04354600  0.76585500  1
  O  O33  1  0.87519300  0.60160900  0.58425800  1
  O  O34  1  0.64051900  0.61776400  0.23839700  1
  O  O35  1  0.23878700  0.90258500  0.62856800  1
  O  O36  1  0.76879200  0.91248000  0.65290500  1
  O  O37  1  0.50952100  0.76751800  0.36692600  1
  O  O38  1  0.13335600  0.03508700  0.95457000  1
  O  O39  1  0.41213700  0.48211300  0.02031700  1
  O  O40  1  0.49047900  0.76751800  0.86692600  1
  O  O41  1  0.14023600  0.54615100  0.73651700  1
  O  O42  1  0.97091900  0.36986500  0.49096700  1
  O  O43  1  0.75321600  0.38513300  0.87145100  1
  O  O44  1  0.12015300  0.55121100  0.26078000  1
  O  O45  1  0.20629300  0.76897200  0.37231700  1
  O  O46  1  0.24678400  0.38513300  0.37145100  1
  O  O47  1  0.44231000  0.69783400  0.13763300  1
  O  O48  1  0.76121300  0.90258500  0.12856800  1
  O  O49  1  0.79370700  0.76897200  0.87231700  1
  O  O50  1  0.65964900  0.61658700  0.76571400  1
  O  O51  1  0.86066100  0.11972100  0.76155600  1
  O  O52  1  0.61886700  0.04680100  0.93305200  1
  O  O53  1  0.83191600  0.11621400  0.24320200  1
  O  O54  1  0.13933900  0.11972100  0.26155600  1
  O  O55  1  0.00024900  0.29380300  0.63453600  1
  O  O56  1  0.86664400  0.03508700  0.45457000  1
  O  O57  1  0.54773300  0.86731000  0.50748100  1
  O  O58  1  0.35948100  0.61776400  0.73839700  1
  O  O59  1  0.87984700  0.55121100  0.76078000  1
  O  O60  1  0.89218400  0.06834900  0.95260600  1
  O  O61  1  0.45226700  0.86731000  0.00748100  1
  O  O62  1  0.23120800  0.91248000  0.15290500  1
  O  O63  1  0.39307700  0.10914200  0.90220200  1
  O  O64  1  0.58786300  0.48211300  0.52031700  1
  O  O65  1  0.26906500  0.40662300  0.84999800  1
  O  O66  1  0.22171500  0.78777500  0.84051500  1
  O  O67  1  0.35772900  0.04354600  0.26585500  1
  O  O68  1  0.72070300  0.29923600  0.66107100  1
  O  O69  1  0.60692300  0.10914200  0.40220200  1
  O  O70  1  0.10950000  0.59379200  0.56606100  1
  O  O71  1  0.12480700  0.60160900  0.08425800  1
  O  O72  1  0.62741500  0.63368900  0.04986000  1
  O  O73  1  0.85976400  0.54615100  0.23651700  1
  O  O74  1  0.71117400  0.28534200  0.13357700  1
  O  O75  1  0.03561500  0.25238500  0.85694800  1
  O  O76  1  0.10781600  0.06834900  0.45260600  1
  O  O77  1  0.77828500  0.78777500  0.34051500  1
  O  O78  1  0.37258500  0.63368900  0.54986000  1
  O  O79  1  0.73093500  0.40662300  0.34999800  1
  O  O80  1  0.39289200  0.03602400  0.72757300  1
  O  O81  1  0.34035100  0.61658700  0.26571400  1
  O  O82  1  0.96438500  0.25238500  0.35694800  1
  O  O83  1  0.60710800  0.03602400  0.22757300  1
  O  O84  1  0.38113300  0.04680100  0.43305200  1
  O  O85  1  0.27929700  0.29923600  0.16107100  1
  O  O86  1  0.99975100  0.29380300  0.13453600  1
  O  O87  1  0.28882600  0.28534200  0.63357700  1
  O  O88  1  0.02908100  0.36986500  0.99096700  1
  O  O89  1  0.55769000  0.69783400  0.63763300  1
  O  O90  1  0.16808400  0.11621400  0.74320200  1
  O  O91  1  0.89050000  0.59379200  0.06606100  1
