# generated using pymatgen
data_LiMn2F7
_symmetry_space_group_name_H-M   'P 1'
_cell_length_a   8.22962600
_cell_length_b   9.71642047
_cell_length_c   13.00137421
_cell_angle_alpha   93.13744543
_cell_angle_beta   103.00132593
_cell_angle_gamma   91.03832984
_symmetry_Int_Tables_number   1
_chemical_formula_structural   LiMn2F7
_chemical_formula_sum   'Li8 Mn16 F56'
_cell_volume   1010.95826566
_cell_formula_units_Z   8
loop_
 _symmetry_equiv_pos_site_id
 _symmetry_equiv_pos_as_xyz
  1  'x, y, z'
loop_
 _atom_site_type_symbol
 _atom_site_label
 _atom_site_symmetry_multiplicity
 _atom_site_fract_x
 _atom_site_fract_y
 _atom_site_fract_z
 _atom_site_occupancy
  Li  Li0  1  0.97315700  0.86667200  0.29622700  1
  Li  Li1  1  0.97156700  0.36928800  0.29331000  1
  Li  Li2  1  0.38240500  0.84034900  0.80730900  1
  Li  Li3  1  0.60434100  0.59743600  0.18543900  1
  Li  Li4  1  0.60023900  0.09237300  0.17624400  1
  Li  Li5  1  0.01747900  0.35856800  0.89498200  1
  Li  Li6  1  0.04444600  0.63606900  0.72660300  1
  Li  Li7  1  0.06018700  0.12268600  0.72127900  1
  Mn  Mn8  1  0.31532800  0.62804700  0.95466100  1
  Mn  Mn9  1  0.32084200  0.12925400  0.95078600  1
  Mn  Mn10  1  0.17520000  0.85640400  0.54078200  1
  Mn  Mn11  1  0.17533800  0.35581000  0.53796400  1
  Mn  Mn12  1  0.21827700  0.87351900  0.17079000  1
  Mn  Mn13  1  0.21531800  0.37400400  0.16738400  1
  Mn  Mn14  1  0.38139800  0.59437800  0.37546800  1
  Mn  Mn15  1  0.37256000  0.09663800  0.37082500  1
  Mn  Mn16  1  0.58391900  0.85062800  0.61566500  1
  Mn  Mn17  1  0.57933900  0.35167300  0.61448100  1
  Mn  Mn18  1  0.80343000  0.11049600  0.83879000  1
  Mn  Mn19  1  0.78655000  0.61964300  0.84152100  1
  Mn  Mn20  1  0.80742600  0.59429100  0.46550600  1
  Mn  Mn21  1  0.80643900  0.09599200  0.46635200  1
  Mn  Mn22  1  0.68096200  0.37538000  0.03925100  1
  Mn  Mn23  1  0.69500700  0.87222200  0.03494200  1
  F  F24  1  0.01458800  0.53173500  0.84523700  1
  F  F25  1  0.02687500  0.03218300  0.84485500  1
  F  F26  1  0.01510500  0.74870100  0.43593700  1
  F  F27  1  0.01183600  0.24933800  0.43291000  1
  F  F28  1  0.20863800  0.76307000  0.87212200  1
  F  F29  1  0.20772500  0.26519400  0.87551900  1
  F  F30  1  0.14799000  0.24677100  0.64201300  1
  F  F31  1  0.15583400  0.74900600  0.64932800  1
  F  F32  1  0.21703500  0.97085300  0.43816300  1
  F  F33  1  0.21304000  0.47182700  0.43339100  1
  F  F34  1  0.12967500  0.50676800  0.24379200  1
  F  F35  1  0.13672900  0.00631700  0.25135500  1
  F  F36  1  0.15015100  0.96790000  0.05529300  1
  F  F37  1  0.14653800  0.46381600  0.04522400  1
  F  F38  1  0.34670400  0.53596900  0.83727600  1
  F  F39  1  0.34747200  0.03246700  0.82978600  1
  F  F40  1  0.35750400  0.94927400  0.63282400  1
  F  F41  1  0.36013300  0.44839300  0.62781900  1
  F  F42  1  0.28676100  0.26949400  0.28669400  1
  F  F43  1  0.29421600  0.76876100  0.29145900  1
  F  F44  1  0.30301600  0.73426100  0.09020600  1
  F  F45  1  0.30137900  0.23451500  0.08630200  1
  F  F46  1  0.40896600  0.73176100  0.51351500  1
  F  F47  1  0.39991900  0.23120100  0.50627700  1
  F  F48  1  0.54218500  0.24523500  0.94957100  1
  F  F49  1  0.53074300  0.75727800  0.94101300  1
  F  F50  1  0.54393500  0.75687300  0.72871500  1
  F  F51  1  0.55971700  0.24506400  0.72020000  1
  F  F52  1  0.41704900  0.48079300  0.22765400  1
  F  F53  1  0.42031800  0.98109600  0.22603900  1
  F  F54  1  0.46719500  0.00965600  0.03408900  1
  F  F55  1  0.47088500  0.51342500  0.04046400  1
  F  F56  1  0.60329200  0.95932200  0.50145400  1
  F  F57  1  0.59438000  0.46553300  0.49937600  1
  F  F58  1  0.70877900  0.97995500  0.91418300  1
  F  F59  1  0.72094100  0.47455000  0.92016000  1
  F  F60  1  0.71339500  0.99612200  0.70892700  1
  F  F61  1  0.70461000  0.50178900  0.71288600  1
  F  F62  1  0.62522800  0.66437400  0.36417500  1
  F  F63  1  0.62020200  0.16089100  0.36638700  1
  F  F64  1  0.65876500  0.27745800  0.15521400  1
  F  F65  1  0.66385200  0.77767400  0.14982000  1
  F  F66  1  0.84805800  0.73426700  0.96514600  1
  F  F67  1  0.86917700  0.23428200  0.95802700  1
  F  F68  1  0.88561200  0.24556900  0.76692800  1
  F  F69  1  0.86757400  0.74728100  0.76668800  1
  F  F70  1  0.76567300  0.72417800  0.56698100  1
  F  F71  1  0.76007300  0.22851700  0.56582700  1
  F  F72  1  0.83796800  0.97911900  0.35720500  1
  F  F73  1  0.83511300  0.47783600  0.35545000  1
  F  F74  1  0.79052100  0.51082100  0.13507200  1
  F  F75  1  0.79473500  0.01189100  0.13005500  1
  F  F76  1  0.97515500  0.00754900  0.56652500  1
  F  F77  1  0.97508300  0.50762800  0.56476300  1
  F  F78  1  0.01485300  0.28551500  0.15421900  1
  F  F79  1  0.01852400  0.78505900  0.16024800  1
