# generated using pymatgen
data_Ba2LiVP2O9
_symmetry_space_group_name_H-M   'P 1'
_cell_length_a   9.52554571
_cell_length_b   9.52554571
_cell_length_c   9.76514051
_cell_angle_alpha   70.93426475
_cell_angle_beta   70.93426475
_cell_angle_gamma   32.89344204
_symmetry_Int_Tables_number   1
_chemical_formula_structural   Ba2LiVP2O9
_chemical_formula_sum   'Ba4 Li2 V2 P4 O18'
_cell_volume   452.42513667
_cell_formula_units_Z   2
loop_
 _symmetry_equiv_pos_site_id
 _symmetry_equiv_pos_as_xyz
  1  'x, y, z'
loop_
 _atom_site_type_symbol
 _atom_site_label
 _atom_site_symmetry_multiplicity
 _atom_site_fract_x
 _atom_site_fract_y
 _atom_site_fract_z
 _atom_site_occupancy
  Ba  Ba0  1  0.70868700  0.69133700  0.42187300  1
  Ba  Ba1  1  0.69133700  0.70868700  0.92187300  1
  Ba  Ba2  1  0.37551500  0.35802900  0.58563100  1
  Ba  Ba3  1  0.35802900  0.37551500  0.08563100  1
  Li  Li4  1  0.59977400  0.48425300  0.31155300  1
  Li  Li5  1  0.48425300  0.59977400  0.81155300  1
  V  V6  1  0.97576000  0.08829600  0.99937200  1
  V  V7  1  0.08829600  0.97576000  0.49937200  1
  P  P8  1  0.92915600  0.87319000  0.32594900  1
  P  P9  1  0.87319000  0.92915600  0.82594900  1
  P  P10  1  0.19462700  0.12959500  0.67510300  1
  P  P11  1  0.12959500  0.19462700  0.17510300  1
  O  O12  1  0.96655600  0.21206000  0.30837800  1
  O  O13  1  0.97348100  0.41386500  0.70161700  1
  O  O14  1  0.97423400  0.47289200  0.15075300  1
  O  O15  1  0.63575700  0.42906600  0.98399300  1
  O  O16  1  0.92820500  0.92551700  0.46241700  1
  O  O17  1  0.92551700  0.92820500  0.96241700  1
  O  O18  1  0.87154800  0.07646000  0.69196600  1
  O  O19  1  0.42906600  0.63575700  0.48399300  1
  O  O20  1  0.64457500  0.08298600  0.30590900  1
  O  O21  1  0.59051600  0.09203200  0.85247400  1
  O  O22  1  0.47289200  0.97423400  0.65075300  1
  O  O23  1  0.41386500  0.97348100  0.20161700  1
  O  O24  1  0.21206000  0.96655600  0.80837800  1
  O  O25  1  0.15248900  0.12274900  0.53730800  1
  O  O26  1  0.12274900  0.15248900  0.03730800  1
  O  O27  1  0.09203200  0.59051600  0.35247400  1
  O  O28  1  0.08298600  0.64457500  0.80590900  1
  O  O29  1  0.07646000  0.87154800  0.19196600  1
