# generated using pymatgen
data_LiV2P4(HO8)2
_symmetry_space_group_name_H-M   'P 1'
_cell_length_a   4.88946073
_cell_length_b   7.93609828
_cell_length_c   14.33169805
_cell_angle_alpha   89.53890274
_cell_angle_beta   85.06040126
_cell_angle_gamma   89.87340058
_symmetry_Int_Tables_number   1
_chemical_formula_structural   LiV2P4(HO8)2
_chemical_formula_sum   'Li2 V4 P8 H4 O32'
_cell_volume   554.03234615
_cell_formula_units_Z   2
loop_
 _symmetry_equiv_pos_site_id
 _symmetry_equiv_pos_as_xyz
  1  'x, y, z'
loop_
 _atom_site_type_symbol
 _atom_site_label
 _atom_site_symmetry_multiplicity
 _atom_site_fract_x
 _atom_site_fract_y
 _atom_site_fract_z
 _atom_site_occupancy
  Li  Li0  1  0.97282700  0.86600300  0.42581300  1
  Li  Li1  1  0.47285900  0.86600800  0.92582600  1
  V  V2  1  0.99508700  0.49433800  0.50213000  1
  V  V3  1  0.74524600  0.00599300  0.24333400  1
  V  V4  1  0.49507000  0.49443700  0.00213200  1
  V  V5  1  0.24517600  0.00594900  0.74341700  1
  P  P6  1  0.99183500  0.35687300  0.13587500  1
  P  P7  1  0.49168500  0.35673400  0.63581900  1
  P  P8  1  0.25427300  0.84825000  0.11606700  1
  P  P9  1  0.75441700  0.84815500  0.61602000  1
  P  P10  1  0.24148300  0.15447700  0.38011800  1
  P  P11  1  0.74147700  0.15448400  0.88013500  1
  P  P12  1  0.51172000  0.65333600  0.36613700  1
  P  P13  1  0.01178800  0.65325700  0.86610100  1
  H  H14  1  0.28135700  0.50938800  0.25664700  1
  H  H15  1  0.78139100  0.50940400  0.75665900  1
  H  H16  1  0.46797800  0.01037300  0.49258000  1
  H  H17  1  0.96787100  0.01036200  0.99257800  1
  O  O18  1  0.72579900  0.56026800  0.42200300  1
  O  O19  1  0.22585400  0.56015700  0.92196600  1
  O  O20  1  0.87437100  0.17226100  0.16377200  1
  O  O21  1  0.37420900  0.17219100  0.66366700  1
  O  O22  1  0.98807100  0.84278900  0.18428900  1
  O  O23  1  0.48804400  0.84275700  0.68419700  1
  O  O24  1  0.04223000  0.44398500  0.22468900  1
  O  O25  1  0.54210700  0.44393000  0.72465400  1
  O  O26  1  0.02312500  0.05603600  0.32970100  1
  O  O27  1  0.52310000  0.05608900  0.82971200  1
  O  O28  1  0.14860600  0.32982000  0.40909200  1
  O  O29  1  0.64868100  0.32983700  0.90911600  1
  O  O30  1  0.21568600  0.95028300  0.02839000  1
  O  O31  1  0.71579000  0.95029900  0.52836000  1
  O  O32  1  0.24375600  0.32924700  0.06463200  1
  O  O33  1  0.74313700  0.32922300  0.56446300  1
  O  O34  1  0.24217800  0.67563000  0.43046100  1
  O  O35  1  0.74225000  0.67556000  0.93045100  1
  O  O36  1  0.27803900  0.04108400  0.46754600  1
  O  O37  1  0.77804900  0.04110800  0.96757800  1
  O  O38  1  0.35897300  0.67159600  0.09286700  1
  O  O39  1  0.85902400  0.67141900  0.59281800  1
  O  O40  1  0.47201100  0.93987100  0.17433400  1
  O  O41  1  0.97198400  0.93979000  0.67430100  1
  O  O42  1  0.47060900  0.55882200  0.27598400  1
  O  O43  1  0.97057200  0.55881000  0.77593100  1
  O  O44  1  0.51117300  0.16140200  0.31440000  1
  O  O45  1  0.01117200  0.16136500  0.81440500  1
  O  O46  1  0.64178000  0.82972600  0.34023100  1
  O  O47  1  0.14181800  0.82972100  0.84023100  1
  O  O48  1  0.76438900  0.44134300  0.08157600  1
  O  O49  1  0.26405500  0.44122300  0.58149300  1
