# generated using pymatgen
data_LiV3OF11
_symmetry_space_group_name_H-M   'P 1'
_cell_length_a   5.28681300
_cell_length_b   5.45257527
_cell_length_c   15.46025668
_cell_angle_alpha   80.23247797
_cell_angle_beta   89.90826153
_cell_angle_gamma   89.51883203
_symmetry_Int_Tables_number   1
_chemical_formula_structural   LiV3OF11
_chemical_formula_sum   'Li2 V6 O2 F22'
_cell_volume   439.19307821
_cell_formula_units_Z   2
loop_
 _symmetry_equiv_pos_site_id
 _symmetry_equiv_pos_as_xyz
  1  'x, y, z'
loop_
 _atom_site_type_symbol
 _atom_site_label
 _atom_site_symmetry_multiplicity
 _atom_site_fract_x
 _atom_site_fract_y
 _atom_site_fract_z
 _atom_site_occupancy
  Li  Li0  1  0.81293200  0.69988000  0.16068700  1
  Li  Li1  1  0.23072100  0.18565500  0.17656600  1
  V  V2  1  0.47279300  0.85858700  0.33969600  1
  V  V3  1  0.01296600  0.00843900  0.99859800  1
  V  V4  1  0.00057400  0.66645300  0.66727900  1
  V  V5  1  0.50537700  0.50626000  0.98950200  1
  V  V6  1  0.00161200  0.32765700  0.34437800  1
  V  V7  1  0.50045600  0.16632400  0.66733200  1
  O  O8  1  0.06912000  0.95929700  0.10876800  1
  O  O9  1  0.28148300  0.12343500  0.31242500  1
  F  F10  1  0.19901300  0.97566300  0.64454300  1
  F  F11  1  0.31470200  0.81188400  0.97075700  1
  F  F12  1  0.69882400  0.85563100  0.69081000  1
  F  F13  1  0.08705400  0.62444500  0.77906500  1
  F  F14  1  0.43436600  0.76115100  0.45497800  1
  F  F15  1  0.92043800  0.70792900  0.55457900  1
  F  F16  1  0.57613400  0.87671000  0.21842200  1
  F  F17  1  0.60090900  0.53937300  0.88026500  1
  F  F18  1  0.20323700  0.62769900  0.31519700  1
  F  F19  1  0.30241500  0.47595000  0.64334900  1
  F  F20  1  0.20340800  0.32545800  0.96994800  1
  F  F21  1  0.79460800  0.68243100  0.02771300  1
  F  F22  1  0.71043300  0.53667600  0.35111300  1
  F  F23  1  0.80110500  0.35820600  0.68925000  1
  F  F24  1  0.41426000  0.45820300  0.10822100  1
  F  F25  1  0.08503400  0.29062300  0.45491500  1
  F  F26  1  0.41574200  0.12893200  0.77908300  1
  F  F27  1  0.94085500  0.37967300  0.22027700  1
  F  F28  1  0.58394000  0.20114100  0.55491200  1
  F  F29  1  0.89763100  0.02694400  0.88732400  1
  F  F30  1  0.69115000  0.20002000  0.01943700  1
  F  F31  1  0.78840500  0.04038100  0.35926500  1
