# generated using pymatgen
data_LiMn2(PO4)2
_symmetry_space_group_name_H-M   'P 1'
_cell_length_a   5.19433900
_cell_length_b   8.66705400
_cell_length_c   17.03697891
_cell_angle_alpha   80.39776804
_cell_angle_beta   90.00000000
_cell_angle_gamma   90.00000000
_symmetry_Int_Tables_number   1
_chemical_formula_structural   LiMn2(PO4)2
_chemical_formula_sum   'Li4 Mn8 P8 O32'
_cell_volume   756.25226032
_cell_formula_units_Z   4
loop_
 _symmetry_equiv_pos_site_id
 _symmetry_equiv_pos_as_xyz
  1  'x, y, z'
loop_
 _atom_site_type_symbol
 _atom_site_label
 _atom_site_symmetry_multiplicity
 _atom_site_fract_x
 _atom_site_fract_y
 _atom_site_fract_z
 _atom_site_occupancy
  Li  Li0  1  0.32666000  0.00185100  0.25130300  1
  Li  Li1  1  0.67334000  0.00185100  0.75130300  1
  Li  Li2  1  0.83486800  0.61030600  0.49097700  1
  Li  Li3  1  0.16513200  0.61030600  0.99097700  1
  Mn  Mn4  1  0.32303000  0.37309400  0.13138100  1
  Mn  Mn5  1  0.67697000  0.37309400  0.63138100  1
  Mn  Mn6  1  0.19607400  0.46653800  0.36121000  1
  Mn  Mn7  1  0.80392600  0.46653800  0.86121000  1
  Mn  Mn8  1  0.68306600  0.88120900  0.11498300  1
  Mn  Mn9  1  0.31693400  0.88120900  0.61498300  1
  Mn  Mn10  1  0.83228400  0.97606100  0.37432300  1
  Mn  Mn11  1  0.16771600  0.97606100  0.87432300  1
  P  P12  1  0.82102100  0.17524500  0.18946900  1
  P  P13  1  0.17897900  0.17524500  0.68946900  1
  P  P14  1  0.68729700  0.29763100  0.43724700  1
  P  P15  1  0.31270300  0.29763100  0.93724700  1
  P  P16  1  0.17873500  0.69314800  0.18014100  1
  P  P17  1  0.82126500  0.69314800  0.68014100  1
  P  P18  1  0.32550800  0.78690700  0.42924400  1
  P  P19  1  0.67449200  0.78690700  0.92924400  1
  O  O20  1  0.69924400  0.06594100  0.26129300  1
  O  O21  1  0.76730200  0.09490000  0.11430400  1
  O  O22  1  0.11506200  0.19171700  0.20177900  1
  O  O23  1  0.77052700  0.12545600  0.45164000  1
  O  O24  1  0.30075600  0.06594100  0.76129300  1
  O  O25  1  0.23269800  0.09490000  0.61430400  1
  O  O26  1  0.27331700  0.37893900  0.01020800  1
  O  O27  1  0.39219200  0.29647200  0.41489900  1
  O  O28  1  0.69132900  0.33605200  0.17166100  1
  O  O29  1  0.88493800  0.19171700  0.70177900  1
  O  O30  1  0.22947300  0.12545600  0.95164000  1
  O  O31  1  0.83337100  0.39354300  0.36551600  1
  O  O32  1  0.72668300  0.37893900  0.51020800  1
  O  O33  1  0.60780800  0.29647200  0.91489900  1
  O  O34  1  0.30867100  0.33605200  0.67166100  1
  O  O35  1  0.25062500  0.57000300  0.25391800  1
  O  O36  1  0.22797700  0.61366000  0.10669600  1
  O  O37  1  0.16662900  0.39354300  0.86551600  1
  O  O38  1  0.89288800  0.73853600  0.18943200  1
  O  O39  1  0.19453500  0.62261100  0.43419700  1
  O  O40  1  0.74937500  0.57000300  0.75391800  1
  O  O41  1  0.77202300  0.61366000  0.60669600  1
  O  O42  1  0.75122300  0.83998000  0.00792900  1
  O  O43  1  0.62026600  0.77346000  0.41965900  1
  O  O44  1  0.34266800  0.84422100  0.17555800  1
  O  O45  1  0.10711200  0.73853600  0.68943200  1
  O  O46  1  0.80546500  0.62261100  0.93419700  1
  O  O47  1  0.20998300  0.90342100  0.35870400  1
  O  O48  1  0.24877700  0.83998000  0.50792900  1
  O  O49  1  0.37973400  0.77346000  0.91965900  1
  O  O50  1  0.65733200  0.84422100  0.67555800  1
  O  O51  1  0.79001700  0.90342100  0.85870400  1
