# generated using pymatgen
data_LiNi(PO3)3
_symmetry_space_group_name_H-M   'P 1'
_cell_length_a   9.35778000
_cell_length_b   9.43299878
_cell_length_c   9.60279108
_cell_angle_alpha   108.91327264
_cell_angle_beta   104.68258998
_cell_angle_gamma   110.22962869
_symmetry_Int_Tables_number   1
_chemical_formula_structural   LiNi(PO3)3
_chemical_formula_sum   'Li4 Ni4 P12 O36'
_cell_volume   685.66389737
_cell_formula_units_Z   4
loop_
 _symmetry_equiv_pos_site_id
 _symmetry_equiv_pos_as_xyz
  1  'x, y, z'
loop_
 _atom_site_type_symbol
 _atom_site_label
 _atom_site_symmetry_multiplicity
 _atom_site_fract_x
 _atom_site_fract_y
 _atom_site_fract_z
 _atom_site_occupancy
  Li  Li0  1  0.23316400  0.77136100  0.73469400  1
  Li  Li1  1  0.92609900  0.69561900  0.78426400  1
  Li  Li2  1  0.07390100  0.30438100  0.21573600  1
  Li  Li3  1  0.76683600  0.22863900  0.26530600  1
  Ni  Ni4  1  0.66623200  0.06468100  0.49213400  1
  Ni  Ni5  1  0.62062200  0.82803200  0.69117100  1
  Ni  Ni6  1  0.37937800  0.17196800  0.30882900  1
  Ni  Ni7  1  0.33376800  0.93531900  0.50786600  1
  P  P8  1  0.19615700  0.08254000  0.92003200  1
  P  P9  1  0.52141800  0.14468900  0.89451800  1
  P  P10  1  0.00732900  0.39554000  0.64537000  1
  P  P11  1  0.95201000  0.21371200  0.84454800  1
  P  P12  1  0.58359700  0.34027500  0.70976400  1
  P  P13  1  0.32596800  0.43148600  0.59129100  1
  P  P14  1  0.67403200  0.56851400  0.40870900  1
  P  P15  1  0.41640300  0.65972500  0.29023600  1
  P  P16  1  0.04799000  0.78628800  0.15545200  1
  P  P17  1  0.99267100  0.60446000  0.35463000  1
  P  P18  1  0.47858200  0.85531100  0.10548200  1
  P  P19  1  0.80384300  0.91746000  0.07996800  1
  O  O20  1  0.05645200  0.73313400  0.99795400  1
  O  O21  1  0.36933200  0.18065000  0.90756200  1
  O  O22  1  0.10460900  0.17403700  0.84578800  1
  O  O23  1  0.00880300  0.37063700  0.80278700  1
  O  O24  1  0.61721300  0.30009300  0.85946600  1
  O  O25  1  0.37003100  0.83339000  0.95224600  1
  O  O26  1  0.11046800  0.90083300  0.80155400  1
  O  O27  1  0.03541200  0.56870200  0.67508500  1
  O  O28  1  0.16418100  0.37063300  0.62705000  1
  O  O29  1  0.43363900  0.38360500  0.71305000  1
  O  O30  1  0.79063800  0.06413300  0.69800100  1
  O  O31  1  0.77455300  0.86263700  0.90480200  1
  O  O32  1  0.73261500  0.47935700  0.73010900  1
  O  O33  1  0.50891300  0.16942300  0.55108300  1
  O  O34  1  0.40825100  0.61948900  0.64741400  1
  O  O35  1  0.45720500  0.98005800  0.74034900  1
  O  O36  1  0.28333200  0.31088600  0.42162800  1
  O  O37  1  0.14815500  0.75267200  0.49756600  1
  O  O38  1  0.85184500  0.24732800  0.50243400  1
  O  O39  1  0.71666800  0.68911400  0.57837200  1
  O  O40  1  0.54279500  0.01994200  0.25965100  1
  O  O41  1  0.59174900  0.38051100  0.35258600  1
  O  O42  1  0.49108700  0.83057700  0.44891700  1
  O  O43  1  0.26738500  0.52064300  0.26989100  1
  O  O44  1  0.22544700  0.13736300  0.09519800  1
  O  O45  1  0.20936200  0.93586700  0.30199900  1
  O  O46  1  0.56636100  0.61639500  0.28695000  1
  O  O47  1  0.83581900  0.62936700  0.37295000  1
  O  O48  1  0.96458800  0.43129800  0.32491500  1
  O  O49  1  0.88953200  0.09916700  0.19844600  1
  O  O50  1  0.62996900  0.16661000  0.04775400  1
  O  O51  1  0.38278700  0.69990700  0.14053400  1
  O  O52  1  0.99119700  0.62936300  0.19721300  1
  O  O53  1  0.89539100  0.82596300  0.15421200  1
  O  O54  1  0.63066800  0.81935000  0.09243800  1
  O  O55  1  0.94354800  0.26686600  0.00204600  1
