# generated using pymatgen
data_Li7Mn8O20
_symmetry_space_group_name_H-M   'P 1'
_cell_length_a   5.83596306
_cell_length_b   5.83596306
_cell_length_c   24.11983409
_cell_angle_alpha   83.38206662
_cell_angle_beta   83.38206662
_cell_angle_gamma   59.82919747
_symmetry_Int_Tables_number   1
_chemical_formula_structural   Li7Mn8O20
_chemical_formula_sum   'Li14 Mn16 O40'
_cell_volume   703.89302682
_cell_formula_units_Z   2
loop_
 _symmetry_equiv_pos_site_id
 _symmetry_equiv_pos_as_xyz
  1  'x, y, z'
loop_
 _atom_site_type_symbol
 _atom_site_label
 _atom_site_symmetry_multiplicity
 _atom_site_fract_x
 _atom_site_fract_y
 _atom_site_fract_z
 _atom_site_occupancy
  Li  Li0  1  0.07203200  0.07203200  0.27653100  1
  Li  Li1  1  0.12340100  0.12340100  0.12742500  1
  Li  Li2  1  0.73090500  0.73090500  0.32633900  1
  Li  Li3  1  0.47958800  0.47958800  0.06844000  1
  Li  Li4  1  0.20091700  0.20091700  0.90067900  1
  Li  Li5  1  0.79908300  0.79908300  0.09932100  1
  Li  Li6  1  0.52041200  0.52041200  0.93156000  1
  Li  Li7  1  0.87659900  0.87659900  0.87257500  1
  Li  Li8  1  0.92796800  0.92796800  0.72346900  1
  Li  Li9  1  0.80284500  0.80284500  0.59986400  1
  Li  Li10  1  0.66778700  0.66778700  0.47618100  1
  Li  Li11  1  0.26909500  0.26909500  0.67366100  1
  Li  Li12  1  0.33221300  0.33221300  0.52381900  1
  Li  Li13  1  0.19715500  0.19715500  0.40013600  1
  Mn  Mn14  1  0.40039200  0.40039200  0.30183600  1
  Mn  Mn15  1  0.60336300  0.09631600  0.19973700  1
  Mn  Mn16  1  0.60295300  0.60295300  0.19964200  1
  Mn  Mn17  1  0.09631600  0.60336300  0.19973700  1
  Mn  Mn18  1  0.00000000  0.50000000  0.00000000  1
  Mn  Mn19  1  0.90368400  0.39663700  0.80026300  1
  Mn  Mn20  1  0.50000000  0.00000000  0.00000000  1
  Mn  Mn21  1  0.39704700  0.39704700  0.80035800  1
  Mn  Mn22  1  0.00000000  0.00000000  0.00000000  1
  Mn  Mn23  1  0.59960800  0.59960800  0.69816400  1
  Mn  Mn24  1  0.39663700  0.90368400  0.80026300  1
  Mn  Mn25  1  0.30199400  0.80211600  0.59924100  1
  Mn  Mn26  1  0.19788400  0.69800600  0.40075900  1
  Mn  Mn27  1  0.00000000  0.00000000  0.50000000  1
  Mn  Mn28  1  0.80211600  0.30199400  0.59924100  1
  Mn  Mn29  1  0.69800600  0.19788400  0.40075900  1
  O  O30  1  0.93440500  0.93440500  0.15858000  1
  O  O31  1  0.47427800  0.93405200  0.15858700  1
  O  O32  1  0.71596300  0.27102500  0.24704900  1
  O  O33  1  0.27082000  0.27082000  0.24853200  1
  O  O34  1  0.66805000  0.12675700  0.04259200  1
  O  O35  1  0.27102500  0.71596300  0.24704900  1
  O  O36  1  0.44752700  0.44752700  0.15787500  1
  O  O37  1  0.75377200  0.75377200  0.24299800  1
  O  O38  1  0.93405200  0.47427800  0.15858700  1
  O  O39  1  0.15338700  0.15338700  0.04385700  1
  O  O40  1  0.33396200  0.33396200  0.95799600  1
  O  O41  1  0.87324300  0.33195000  0.95740800  1
  O  O42  1  0.66603800  0.66603800  0.04200400  1
  O  O43  1  0.12675700  0.66805000  0.04259200  1
  O  O44  1  0.06594800  0.52572200  0.84141300  1
  O  O45  1  0.84661300  0.84661300  0.95614300  1
  O  O46  1  0.55247300  0.55247300  0.84212500  1
  O  O47  1  0.33195000  0.87324300  0.95740800  1
  O  O48  1  0.72918000  0.72918000  0.75146800  1
  O  O49  1  0.28403700  0.72897500  0.75295100  1
  O  O50  1  0.46728600  0.46728600  0.64669200  1
  O  O51  1  0.06559500  0.06559500  0.84142000  1
  O  O52  1  0.52572200  0.06594800  0.84141300  1
  O  O53  1  0.91085000  0.45450100  0.65063400  1
  O  O54  1  0.24622800  0.24622800  0.75700200  1
  O  O55  1  0.45450100  0.91085000  0.65063400  1
  O  O56  1  0.63830400  0.63830400  0.55827300  1
  O  O57  1  0.72897500  0.28403700  0.75295100  1
  O  O58  1  0.96862300  0.96862300  0.64155300  1
  O  O59  1  0.15333100  0.68914700  0.54994900  1
  O  O60  1  0.13726600  0.13726600  0.55179100  1
  O  O61  1  0.68914700  0.15333100  0.54994900  1
  O  O62  1  0.31085300  0.84666900  0.45005100  1
  O  O63  1  0.86273400  0.86273400  0.44820900  1
  O  O64  1  0.84666900  0.31085300  0.45005100  1
  O  O65  1  0.03137700  0.03137700  0.35844700  1
  O  O66  1  0.36169600  0.36169600  0.44172700  1
  O  O67  1  0.54549900  0.08915000  0.34936600  1
  O  O68  1  0.53271400  0.53271400  0.35330800  1
  O  O69  1  0.08915000  0.54549900  0.34936600  1
