# generated using pymatgen
data_Li2CrCu(PO4)2
_symmetry_space_group_name_H-M   'P 1'
_cell_length_a   6.12847500
_cell_length_b   4.76663300
_cell_length_c   10.18698646
_cell_angle_alpha   89.98280618
_cell_angle_beta   90.00000000
_cell_angle_gamma   90.00000000
_symmetry_Int_Tables_number   1
_chemical_formula_structural   Li2CrCu(PO4)2
_chemical_formula_sum   'Li4 Cr2 Cu2 P4 O16'
_cell_volume   297.58418253
_cell_formula_units_Z   2
loop_
 _symmetry_equiv_pos_site_id
 _symmetry_equiv_pos_as_xyz
  1  'x, y, z'
loop_
 _atom_site_type_symbol
 _atom_site_label
 _atom_site_symmetry_multiplicity
 _atom_site_fract_x
 _atom_site_fract_y
 _atom_site_fract_z
 _atom_site_occupancy
  Li  Li0  1  0.00000000  0.00000000  0.00000000  1
  Li  Li1  1  0.50000000  0.00000000  0.00000000  1
  Li  Li2  1  0.00000000  0.50000000  0.50000000  1
  Li  Li3  1  0.50000000  0.50000000  0.50000000  1
  Cr  Cr4  1  0.25000000  0.48131000  0.21990300  1
  Cr  Cr5  1  0.75000000  0.51869000  0.78009700  1
  Cu  Cu6  1  0.75000000  0.95805700  0.28345500  1
  Cu  Cu7  1  0.25000000  0.04194300  0.71654500  1
  P  P8  1  0.75000000  0.42258800  0.09205900  1
  P  P9  1  0.25000000  0.91451100  0.40382100  1
  P  P10  1  0.75000000  0.08548900  0.59617900  1
  P  P11  1  0.25000000  0.57741200  0.90794100  1
  O  O12  1  0.25000000  0.70545700  0.05065700  1
  O  O13  1  0.75000000  0.74364400  0.09238600  1
  O  O14  1  0.95590200  0.29248500  0.15972400  1
  O  O15  1  0.54409800  0.29248500  0.15972400  1
  O  O16  1  0.44816400  0.77295800  0.33141400  1
  O  O17  1  0.05183600  0.77295800  0.33141400  1
  O  O18  1  0.25000000  0.23860500  0.39574200  1
  O  O19  1  0.75000000  0.19606500  0.45389300  1
  O  O20  1  0.25000000  0.80393500  0.54610700  1
  O  O21  1  0.75000000  0.76139500  0.60425800  1
  O  O22  1  0.94816400  0.22704200  0.66858600  1
  O  O23  1  0.55183600  0.22704200  0.66858600  1
  O  O24  1  0.45590200  0.70751500  0.84027600  1
  O  O25  1  0.04409800  0.70751500  0.84027600  1
  O  O26  1  0.25000000  0.25635600  0.90761400  1
  O  O27  1  0.75000000  0.29454300  0.94934300  1
