# generated using pymatgen
data_Li2Mn3SnO8
_symmetry_space_group_name_H-M   'P 1'
_cell_length_a   6.06575235
_cell_length_b   6.06575235
_cell_length_c   9.76400600
_cell_angle_alpha   90.00000000
_cell_angle_beta   90.00000000
_cell_angle_gamma   122.27920652
_symmetry_Int_Tables_number   1
_chemical_formula_structural   Li2Mn3SnO8
_chemical_formula_sum   'Li4 Mn6 Sn2 O16'
_cell_volume   303.73038856
_cell_formula_units_Z   2
loop_
 _symmetry_equiv_pos_site_id
 _symmetry_equiv_pos_as_xyz
  1  'x, y, z'
loop_
 _atom_site_type_symbol
 _atom_site_label
 _atom_site_symmetry_multiplicity
 _atom_site_fract_x
 _atom_site_fract_y
 _atom_site_fract_z
 _atom_site_occupancy
  Li  Li0  1  0.15721200  0.84278800  0.10432400  1
  Li  Li1  1  0.49479800  0.50520200  0.00759500  1
  Li  Li2  1  0.50520200  0.49479800  0.50759500  1
  Li  Li3  1  0.84278800  0.15721200  0.60432400  1
  Mn  Mn4  1  0.83717400  0.66993900  0.78486900  1
  Mn  Mn5  1  0.33006100  0.16282600  0.78486900  1
  Mn  Mn6  1  0.32927600  0.67072400  0.78584100  1
  Mn  Mn7  1  0.67072400  0.32927600  0.28584100  1
  Mn  Mn8  1  0.66993900  0.83717400  0.28486900  1
  Mn  Mn9  1  0.16282600  0.33006100  0.28486900  1
  Sn  Sn10  1  0.18016700  0.81983300  0.50951500  1
  Sn  Sn11  1  0.81983300  0.18016700  0.00951500  1
  O  O12  1  0.83076700  0.64134700  0.40475600  1
  O  O13  1  0.02576400  0.97423600  0.66099900  1
  O  O14  1  0.16978700  0.83021300  0.88538900  1
  O  O15  1  0.49414700  0.50585300  0.69581300  1
  O  O16  1  0.50585300  0.49414700  0.19581300  1
  O  O17  1  0.35865300  0.16923300  0.40475600  1
  O  O18  1  0.03740000  0.52282700  0.66040700  1
  O  O19  1  0.47717300  0.96260000  0.66040700  1
  O  O20  1  0.65021500  0.34978500  0.89847100  1
  O  O21  1  0.34978500  0.65021500  0.39847100  1
  O  O22  1  0.52282700  0.03740000  0.16040700  1
  O  O23  1  0.96260000  0.47717300  0.16040700  1
  O  O24  1  0.83021300  0.16978700  0.38538900  1
  O  O25  1  0.64134700  0.83076700  0.90475600  1
  O  O26  1  0.97423600  0.02576400  0.16099900  1
  O  O27  1  0.16923300  0.35865300  0.90475600  1
