# generated using pymatgen
data_LiP2WO7
_symmetry_space_group_name_H-M   'P 1'
_cell_length_a   8.29882100
_cell_length_b   7.37456300
_cell_length_c   9.88065731
_cell_angle_alpha   69.09843528
_cell_angle_beta   90.00000000
_cell_angle_gamma   90.00000000
_symmetry_Int_Tables_number   1
_chemical_formula_structural   LiP2WO7
_chemical_formula_sum   'Li4 P8 W4 O28'
_cell_volume   564.90567530
_cell_formula_units_Z   4
loop_
 _symmetry_equiv_pos_site_id
 _symmetry_equiv_pos_as_xyz
  1  'x, y, z'
loop_
 _atom_site_type_symbol
 _atom_site_label
 _atom_site_symmetry_multiplicity
 _atom_site_fract_x
 _atom_site_fract_y
 _atom_site_fract_z
 _atom_site_occupancy
  Li  Li0  1  0.52184000  0.70139300  0.77318700  1
  Li  Li1  1  0.97816000  0.70139300  0.27318700  1
  Li  Li2  1  0.02184000  0.29860700  0.72681300  1
  Li  Li3  1  0.47816000  0.29860700  0.22681300  1
  P  P4  1  0.74282300  0.91742800  0.95821500  1
  P  P5  1  0.75717700  0.91742800  0.45821500  1
  P  P6  1  0.28365300  0.66626100  0.54966600  1
  P  P7  1  0.78365300  0.33373900  0.95033400  1
  P  P8  1  0.21634700  0.66626100  0.04966600  1
  P  P9  1  0.71634700  0.33373900  0.45033400  1
  P  P10  1  0.24282300  0.08257200  0.54178500  1
  P  P11  1  0.25717700  0.08257200  0.04178500  1
  W  W12  1  0.99875900  0.74407800  0.74854200  1
  W  W13  1  0.50124100  0.74407800  0.24854200  1
  W  W14  1  0.49875900  0.25592200  0.75145800  1
  W  W15  1  0.00124100  0.25592200  0.25145800  1
  O  O16  1  0.58736200  0.95534300  0.86610700  1
  O  O17  1  0.87227000  0.81458600  0.90633800  1
  O  O18  1  0.91263800  0.95534300  0.36610700  1
  O  O19  1  0.32502800  0.87310200  0.56628200  1
  O  O20  1  0.20912900  0.68388100  0.89139800  1
  O  O21  1  0.78151800  0.81444400  0.62091100  1
  O  O22  1  0.62773000  0.81458600  0.40633800  1
  O  O23  1  0.11221600  0.60578300  0.60861800  1
  O  O24  1  0.17497200  0.87310200  0.06628200  1
  O  O25  1  0.29087100  0.68388100  0.39139800  1
  O  O26  1  0.91666900  0.45163300  0.84975300  1
  O  O27  1  0.71848200  0.81444400  0.12091100  1
  O  O28  1  0.41666900  0.54836700  0.65024700  1
  O  O29  1  0.61221600  0.39421700  0.89138200  1
  O  O30  1  0.38778400  0.60578300  0.10861800  1
  O  O31  1  0.58333100  0.45163300  0.34975300  1
  O  O32  1  0.28151800  0.18555600  0.87908900  1
  O  O33  1  0.08333100  0.54836700  0.15024700  1
  O  O34  1  0.70912900  0.31611900  0.60860200  1
  O  O35  1  0.82502800  0.12689800  0.93371800  1
  O  O36  1  0.88778400  0.39421700  0.39138200  1
  O  O37  1  0.37227000  0.18541400  0.59366200  1
  O  O38  1  0.21848200  0.18555600  0.37908900  1
  O  O39  1  0.79087100  0.31611900  0.10860200  1
  O  O40  1  0.67497200  0.12689800  0.43371800  1
  O  O41  1  0.08736200  0.04465700  0.63389300  1
  O  O42  1  0.12773000  0.18541400  0.09366200  1
  O  O43  1  0.41263800  0.04465700  0.13389300  1
