# generated using pymatgen
data_Li4CrS4
_symmetry_space_group_name_H-M   'P 1'
_cell_length_a   6.11183400
_cell_length_b   7.75691500
_cell_length_c   14.20032900
_cell_angle_alpha   90.00000000
_cell_angle_beta   90.00000000
_cell_angle_gamma   90.00000000
_symmetry_Int_Tables_number   1
_chemical_formula_structural   Li4CrS4
_chemical_formula_sum   'Li16 Cr4 S16'
_cell_volume   673.22306857
_cell_formula_units_Z   4
loop_
 _symmetry_equiv_pos_site_id
 _symmetry_equiv_pos_as_xyz
  1  'x, y, z'
loop_
 _atom_site_type_symbol
 _atom_site_label
 _atom_site_symmetry_multiplicity
 _atom_site_fract_x
 _atom_site_fract_y
 _atom_site_fract_z
 _atom_site_occupancy
  Li  Li0  1  0.50000000  0.00000000  0.00000000  1
  Li  Li1  1  0.50000000  0.50000000  0.00000000  1
  Li  Li2  1  0.86961900  0.25000000  0.08637700  1
  Li  Li3  1  0.30314000  0.49854000  0.17767600  1
  Li  Li4  1  0.30314000  0.00146000  0.17767600  1
  Li  Li5  1  0.80314000  0.99854000  0.32232400  1
  Li  Li6  1  0.80314000  0.50146000  0.32232400  1
  Li  Li7  1  0.36961900  0.75000000  0.41362300  1
  Li  Li8  1  0.00000000  0.00000000  0.50000000  1
  Li  Li9  1  0.00000000  0.50000000  0.50000000  1
  Li  Li10  1  0.63038100  0.25000000  0.58637700  1
  Li  Li11  1  0.19686000  0.49854000  0.67767600  1
  Li  Li12  1  0.19686000  0.00146000  0.67767600  1
  Li  Li13  1  0.69686000  0.99854000  0.82232400  1
  Li  Li14  1  0.69686000  0.50146000  0.82232400  1
  Li  Li15  1  0.13038100  0.75000000  0.91362300  1
  Cr  Cr16  1  0.84779500  0.75000000  0.08739800  1
  Cr  Cr17  1  0.34779500  0.25000000  0.41260200  1
  Cr  Cr18  1  0.65220500  0.75000000  0.58739800  1
  Cr  Cr19  1  0.15220500  0.25000000  0.91260200  1
  S  S20  1  0.26710700  0.25000000  0.06046800  1
  S  S21  1  0.20562300  0.75000000  0.08373800  1
  S  S22  1  0.71874100  0.51645200  0.15549200  1
  S  S23  1  0.71874100  0.98354800  0.15549200  1
  S  S24  1  0.21874100  0.01645200  0.34450800  1
  S  S25  1  0.21874100  0.48354800  0.34450800  1
  S  S26  1  0.70562300  0.25000000  0.41626200  1
  S  S27  1  0.76710700  0.75000000  0.43953200  1
  S  S28  1  0.23289300  0.25000000  0.56046800  1
  S  S29  1  0.29437700  0.75000000  0.58373800  1
  S  S30  1  0.78125900  0.51645200  0.65549200  1
  S  S31  1  0.78125900  0.98354800  0.65549200  1
  S  S32  1  0.28125900  0.01645200  0.84450800  1
  S  S33  1  0.28125900  0.48354800  0.84450800  1
  S  S34  1  0.79437700  0.25000000  0.91626200  1
  S  S35  1  0.73289300  0.75000000  0.93953200  1
