# generated using pymatgen
data_LiSb(SO4)2
_symmetry_space_group_name_H-M   'P 1'
_cell_length_a   9.70459200
_cell_length_b   9.81985000
_cell_length_c   14.56763187
_cell_angle_alpha   89.79213584
_cell_angle_beta   90.00000000
_cell_angle_gamma   90.00000000
_symmetry_Int_Tables_number   1
_chemical_formula_structural   LiSb(SO4)2
_chemical_formula_sum   'Li8 Sb8 S16 O64'
_cell_volume   1388.25176866
_cell_formula_units_Z   8
loop_
 _symmetry_equiv_pos_site_id
 _symmetry_equiv_pos_as_xyz
  1  'x, y, z'
loop_
 _atom_site_type_symbol
 _atom_site_label
 _atom_site_symmetry_multiplicity
 _atom_site_fract_x
 _atom_site_fract_y
 _atom_site_fract_z
 _atom_site_occupancy
  Li  Li0  1  0.29461600  0.78531600  0.36875500  1
  Li  Li1  1  0.70538400  0.78531600  0.86875500  1
  Li  Li2  1  0.20222900  0.70915600  0.87169200  1
  Li  Li3  1  0.79777100  0.70915600  0.37169200  1
  Li  Li4  1  0.80914600  0.22440200  0.12865900  1
  Li  Li5  1  0.19085400  0.22440200  0.62865900  1
  Li  Li6  1  0.48230300  0.04783900  0.62932200  1
  Li  Li7  1  0.51769700  0.04783900  0.12932200  1
  Sb  Sb8  1  0.13757500  0.86069600  0.12424200  1
  Sb  Sb9  1  0.86242500  0.86069600  0.62424200  1
  Sb  Sb10  1  0.63870400  0.63087000  0.12660300  1
  Sb  Sb11  1  0.36129600  0.63087000  0.62660300  1
  Sb  Sb12  1  0.14949400  0.36088600  0.37171700  1
  Sb  Sb13  1  0.85050600  0.36088600  0.87171700  1
  Sb  Sb14  1  0.65389300  0.14717900  0.38044100  1
  Sb  Sb15  1  0.34610700  0.14717900  0.88044100  1
  S  S16  1  0.18111100  0.93104600  0.73229900  1
  S  S17  1  0.81888900  0.93104600  0.23229900  1
  S  S18  1  0.56173600  0.84504900  0.48670000  1
  S  S19  1  0.43826400  0.84504900  0.98670000  1
  S  S20  1  0.06324200  0.65783200  0.48276200  1
  S  S21  1  0.93675800  0.65783200  0.98276200  1
  S  S22  1  0.32529200  0.57653200  0.23069000  1
  S  S23  1  0.67470800  0.57653200  0.73069000  1
  S  S24  1  0.82553400  0.43018400  0.26836500  1
  S  S25  1  0.17446600  0.43018400  0.76836500  1
  S  S26  1  0.56764400  0.33166700  0.01814600  1
  S  S27  1  0.43235600  0.33166700  0.51814600  1
  S  S28  1  0.06173900  0.15565600  0.01161700  1
  S  S29  1  0.93826100  0.15565600  0.51161700  1
  S  S30  1  0.67239700  0.06951200  0.76828100  1
  S  S31  1  0.32760300  0.06951200  0.26828100  1
  O  O32  1  0.55704100  0.00050400  0.48027300  1
  O  O33  1  0.44295900  0.00050400  0.98027300  1
  O  O34  1  0.27095400  0.97633600  0.33648700  1
  O  O35  1  0.72904600  0.97633600  0.83648700  1
  O  O36  1  0.79307300  0.97750400  0.32933600  1
  O  O37  1  0.20692700  0.97750400  0.82933600  1
  O  O38  1  0.02803500  0.94167900  0.71666100  1
  O  O39  1  0.97196500  0.94167900  0.21666100  1
  O  O40  1  0.50107500  0.81922000  0.07954600  1
  O  O41  1  0.49892500  0.81922000  0.57954600  1
  O  O42  1  0.29128900  0.79873500  0.98776800  1
  O  O43  1  0.70871100  0.79873500  0.48776800  1
  O  O44  1  0.22377500  0.78516500  0.73072700  1
  O  O45  1  0.77622500  0.78516500  0.23072700  1
  O  O46  1  0.48769800  0.78080000  0.41204800  1
  O  O47  1  0.51230200  0.78080000  0.91204800  1
  O  O48  1  0.98876800  0.72241500  0.40709400  1
  O  O49  1  0.01123200  0.72241500  0.90709400  1
  O  O50  1  0.28614600  0.72465800  0.23331600  1
  O  O51  1  0.71385400  0.72465800  0.73331600  1
  O  O52  1  0.20963400  0.70526900  0.48454900  1
  O  O53  1  0.79036600  0.70526900  0.98454900  1
  O  O54  1  0.00070800  0.68962600  0.07446300  1
  O  O55  1  0.99929200  0.68962600  0.57446300  1
  O  O56  1  0.48387200  0.57076700  0.22336300  1
  O  O57  1  0.51612800  0.57076700  0.72336300  1
  O  O58  1  0.70373700  0.52591000  0.82787700  1
  O  O59  1  0.29626300  0.52591000  0.32787700  1
  O  O60  1  0.75811600  0.51684400  0.33559700  1
  O  O61  1  0.24188400  0.51684400  0.83559700  1
  O  O62  1  0.06044800  0.50428900  0.47487500  1
  O  O63  1  0.93955200  0.50428900  0.97487500  1
  O  O64  1  0.55181100  0.48300700  0.03470700  1
  O  O65  1  0.44818900  0.48300700  0.53470700  1
  O  O66  1  0.74191800  0.49956000  0.66056100  1
  O  O67  1  0.25808200  0.49956000  0.16056100  1
  O  O68  1  0.78543400  0.46952300  0.17048300  1
  O  O69  1  0.21456600  0.46952300  0.67048300  1
  O  O70  1  0.97860000  0.43614300  0.27351700  1
  O  O71  1  0.02140000  0.43614300  0.77351700  1
  O  O72  1  0.50468100  0.30793900  0.42931800  1
  O  O73  1  0.49531900  0.30793900  0.92931800  1
  O  O74  1  0.71892700  0.29930700  0.00525800  1
  O  O75  1  0.28107300  0.29930700  0.50525800  1
  O  O76  1  0.78091000  0.28331200  0.27435400  1
  O  O77  1  0.21909000  0.28331200  0.77435400  1
  O  O78  1  0.51566900  0.24972900  0.09406700  1
  O  O79  1  0.48433100  0.24972900  0.59406700  1
  O  O80  1  0.99889600  0.22276500  0.08974100  1
  O  O81  1  0.00110400  0.22276500  0.58974100  1
  O  O82  1  0.72141900  0.21082700  0.78110500  1
  O  O83  1  0.27858100  0.21082700  0.28110500  1
  O  O84  1  0.78989500  0.19886300  0.50102200  1
  O  O85  1  0.21010500  0.19886300  0.00102200  1
  O  O86  1  0.01131000  0.18266200  0.42342800  1
  O  O87  1  0.98869000  0.18266200  0.92342800  1
  O  O88  1  0.51599500  0.06876100  0.76795200  1
  O  O89  1  0.48400500  0.06876100  0.26795200  1
  O  O90  1  0.70798600  0.02592700  0.67065200  1
  O  O91  1  0.29201400  0.02592700  0.17065200  1
  O  O92  1  0.25610400  0.01625700  0.66494700  1
  O  O93  1  0.74389600  0.01625700  0.16494700  1
  O  O94  1  0.05855100  0.00097200  0.02353800  1
  O  O95  1  0.94144900  0.00097200  0.52353800  1
