# generated using pymatgen
data_Li10Mn2Fe3Co3O16
_symmetry_space_group_name_H-M   'P 1'
_cell_length_a   5.87664100
_cell_length_b   6.03510472
_cell_length_c   9.86041610
_cell_angle_alpha   89.73430567
_cell_angle_beta   89.78379549
_cell_angle_gamma   61.07543261
_symmetry_Int_Tables_number   1
_chemical_formula_structural   Li10Mn2Fe3Co3O16
_chemical_formula_sum   'Li10 Mn2 Fe3 Co3 O16'
_cell_volume   306.08326337
_cell_formula_units_Z   1
loop_
 _symmetry_equiv_pos_site_id
 _symmetry_equiv_pos_as_xyz
  1  'x, y, z'
loop_
 _atom_site_type_symbol
 _atom_site_label
 _atom_site_symmetry_multiplicity
 _atom_site_fract_x
 _atom_site_fract_y
 _atom_site_fract_z
 _atom_site_occupancy
  Li  Li0  1  0.98248300  0.03029400  0.97513300  1
  Li  Li1  1  0.00597400  0.98147500  0.48524700  1
  Li  Li2  1  0.20831500  0.59269300  0.53435400  1
  Li  Li3  1  0.18838900  0.20569700  0.55428400  1
  Li  Li4  1  0.31132900  0.37828800  0.76748800  1
  Li  Li5  1  0.37878500  0.80551700  0.05163000  1
  Li  Li6  1  0.61771100  0.21176300  0.55598400  1
  Li  Li7  1  0.82425500  0.79622800  0.04877500  1
  Li  Li8  1  0.79731000  0.41450900  0.04012300  1
  Li  Li9  1  0.67439100  0.65119600  0.26909000  1
  Mn  Mn10  1  0.32494200  0.34089700  0.02134200  1
  Mn  Mn11  1  0.65354200  0.69600800  0.52656900  1
  Fe  Fe12  1  0.17570400  0.15454900  0.27926600  1
  Fe  Fe13  1  0.67017700  0.15374300  0.27789900  1
  Fe  Fe14  1  0.81106200  0.37645800  0.77797100  1
  Co  Co15  1  0.17395000  0.65079200  0.27967900  1
  Co  Co16  1  0.31686400  0.86605700  0.78016300  1
  Co  Co17  1  0.80913900  0.86936400  0.78159800  1
  O  O18  1  0.00593400  0.98947700  0.16545900  1
  O  O19  1  0.96194600  0.04461200  0.67345900  1
  O  O20  1  0.12827100  0.71398100  0.89566100  1
  O  O21  1  0.02754500  0.47149300  0.15331300  1
  O  O22  1  0.49894900  0.47157800  0.14740700  1
  O  O23  1  0.34416700  0.31436600  0.39857600  1
  O  O24  1  0.13958800  0.21224900  0.90406100  1
  O  O25  1  0.50260400  0.99575300  0.16245000  1
  O  O26  1  0.34061000  0.82696200  0.40701700  1
  O  O27  1  0.64824500  0.19676100  0.89561900  1
  O  O28  1  0.49896500  0.02047100  0.66691100  1
  O  O29  1  0.50251000  0.53650700  0.64886300  1
  O  O30  1  0.83381800  0.82227200  0.40377100  1
  O  O31  1  0.66237500  0.69274600  0.89459600  1
  O  O32  1  0.96039900  0.55346700  0.65712600  1
  O  O33  1  0.85104600  0.29821300  0.39596400  1
