# generated using pymatgen
data_Li15Cr2O12
_symmetry_space_group_name_H-M   'P 1'
_cell_length_a   5.45328600
_cell_length_b   5.78262882
_cell_length_c   7.96766602
_cell_angle_alpha   94.57760939
_cell_angle_beta   90.15685109
_cell_angle_gamma   90.13819061
_symmetry_Int_Tables_number   1
_chemical_formula_structural   Li15Cr2O12
_chemical_formula_sum   'Li15 Cr2 O12'
_cell_volume   250.45172215
_cell_formula_units_Z   1
loop_
 _symmetry_equiv_pos_site_id
 _symmetry_equiv_pos_as_xyz
  1  'x, y, z'
loop_
 _atom_site_type_symbol
 _atom_site_label
 _atom_site_symmetry_multiplicity
 _atom_site_fract_x
 _atom_site_fract_y
 _atom_site_fract_z
 _atom_site_occupancy
  Li  Li0  1  0.99514100  0.67386300  0.64417700  1
  Li  Li1  1  0.12751100  0.26290400  0.62726900  1
  Li  Li2  1  0.20209400  0.59658600  0.91785200  1
  Li  Li3  1  0.18776700  0.94740500  0.30378800  1
  Li  Li4  1  0.30278200  0.56025500  0.20881400  1
  Li  Li5  1  0.33636500  0.90429300  0.58379000  1
  Li  Li6  1  0.37489800  0.19769900  0.87508600  1
  Li  Li7  1  0.50219800  0.19372400  0.16649800  1
  Li  Li8  1  0.62692200  0.78705400  0.10619000  1
  Li  Li9  1  0.66554200  0.07524700  0.43233700  1
  Li  Li10  1  0.69071100  0.47240000  0.79382100  1
  Li  Li11  1  0.78184800  0.04072000  0.71301000  1
  Li  Li12  1  0.84986400  0.43008700  0.07264000  1
  Li  Li13  1  0.85641500  0.72447700  0.36304300  1
  Li  Li14  1  0.99521700  0.32222200  0.34863000  1
  Cr  Cr15  1  0.49722400  0.49496500  0.50085600  1
  Cr  Cr16  1  0.00171700  0.00036700  0.99848600  1
  O  O17  1  0.12408200  0.99996400  0.77190900  1
  O  O18  1  0.17085100  0.30562400  0.06531600  1
  O  O19  1  0.18911700  0.66293500  0.42616200  1
  O  O20  1  0.28551600  0.85902000  0.07845700  1
  O  O21  1  0.33964600  0.19613200  0.42985500  1
  O  O22  1  0.35745900  0.48161900  0.71998700  1
  O  O23  1  0.63884800  0.49949300  0.26509900  1
  O  O24  1  0.66186400  0.79074500  0.55979300  1
  O  O25  1  0.72096900  0.16650100  0.93975200  1
  O  O26  1  0.80076200  0.33120600  0.57661000  1
  O  O27  1  0.86468100  0.70304100  0.93526500  1
  O  O28  1  0.85413200  0.00123000  0.22866000  1
