# generated using pymatgen
data_Li3AlNiO4
_symmetry_space_group_name_H-M   'P 1'
_cell_length_a   9.99287919
_cell_length_b   9.99287919
_cell_length_c   9.99287919
_cell_angle_alpha   118.87515645
_cell_angle_beta   118.87515645
_cell_angle_gamma   91.95958427
_symmetry_Int_Tables_number   1
_chemical_formula_structural   Li3AlNiO4
_chemical_formula_sum   'Li24 Al8 Ni8 O32'
_cell_volume   717.14005394
_cell_formula_units_Z   8
loop_
 _symmetry_equiv_pos_site_id
 _symmetry_equiv_pos_as_xyz
  1  'x, y, z'
loop_
 _atom_site_type_symbol
 _atom_site_label
 _atom_site_symmetry_multiplicity
 _atom_site_fract_x
 _atom_site_fract_y
 _atom_site_fract_z
 _atom_site_occupancy
  Li  Li0  1  0.93796600  0.11025400  0.16500100  1
  Li  Li1  1  0.81203400  0.13974600  0.33499900  1
  Li  Li2  1  0.88974600  0.05474700  0.82771300  1
  Li  Li3  1  0.52296600  0.18796600  0.32771300  1
  Li  Li4  1  0.44382800  0.28639100  0.12756200  1
  Li  Li5  1  0.71763900  0.55470300  0.13048700  1
  Li  Li6  1  0.86025400  0.19525300  0.67228700  1
  Li  Li7  1  0.22703400  0.06203400  0.17228700  1
  Li  Li8  1  0.71360900  0.84117000  0.15743600  1
  Li  Li9  1  0.44529700  0.57578400  0.16293600  1
  Li  Li10  1  0.80474700  0.47703400  0.66500100  1
  Li  Li11  1  0.94525300  0.77296600  0.83499900  1
  Li  Li12  1  0.41284800  0.28236100  0.83706400  1
  Li  Li13  1  0.30470300  0.67421600  0.33706400  1
  Li  Li14  1  0.03639100  0.40883000  0.34256400  1
  Li  Li15  1  0.68373400  0.55617200  0.84256400  1
  Li  Li16  1  0.03236100  0.69529700  0.36951300  1
  Li  Li17  1  0.42421600  0.58715200  0.86951300  1
  Li  Li18  1  0.59117000  0.93373400  0.62756200  1
  Li  Li19  1  0.15883000  0.31626600  0.87243800  1
  Li  Li20  1  0.30617200  0.96360900  0.37243800  1
  Li  Li21  1  0.32578400  0.66284800  0.63048700  1
  Li  Li22  1  0.06626600  0.69382800  0.65743600  1
  Li  Li23  1  0.33715200  0.96763900  0.66293600  1
  Al  Al24  1  0.74786100  0.42416000  0.30996100  1
  Al  Al25  1  0.56210000  0.25213900  0.67629900  1
  Al  Al26  1  0.17416000  0.36419900  0.17629900  1
  Al  Al27  1  0.57584000  0.88580100  0.32370100  1
  Al  Al28  1  0.63580100  0.81210000  0.80996100  1
  Al  Al29  1  0.00213900  0.82584000  0.19003900  1
  Al  Al30  1  0.11419900  0.43790000  0.69003900  1
  Al  Al31  1  0.18790000  0.99786100  0.82370100  1
  Ni  Ni32  1  0.44205300  0.92507900  0.99253300  1
  Ni  Ni33  1  0.67507900  0.18254600  0.98302600  1
  Ni  Ni34  1  0.55048000  0.55794700  0.48302600  1
  Ni  Ni35  1  0.81745400  0.80048000  0.49253300  1
  Ni  Ni36  1  0.30794700  0.32492100  0.50746700  1
  Ni  Ni37  1  0.07492100  0.06745400  0.51697400  1
  Ni  Ni38  1  0.19952000  0.69205300  0.01697400  1
  Ni  Ni39  1  0.93254600  0.44952000  0.00746700  1
  O  O40  1  0.83072100  0.26841900  0.24381000  1
  O  O41  1  0.33691100  0.08072100  0.06230200  1
  O  O42  1  0.59345000  0.35430800  0.07583500  1
  O  O43  1  0.86630700  0.63655100  0.09029700  1
  O  O44  1  0.88369300  0.61344900  0.40970300  1
  O  O45  1  0.64712300  0.39906200  0.40367100  1
  O  O46  1  0.41308900  0.16927900  0.43769800  1
  O  O47  1  0.36344900  0.45374600  0.22975700  1
  O  O48  1  0.52601000  0.11630700  0.72975700  1
  O  O49  1  0.91927900  0.98158100  0.25619000  1
  O  O50  1  0.14906200  0.24539100  0.25193900  1
  O  O51  1  0.75654800  0.35287700  0.75193900  1
  O  O52  1  0.64569200  0.72152700  0.23914300  1
  O  O53  1  0.10430800  0.52847300  0.26085700  1
  O  O54  1  0.48238400  0.40655000  0.76085700  1
  O  O55  1  0.60093800  0.00460900  0.24806100  1
  O  O56  1  0.72539100  0.66308900  0.74381000  1
  O  O57  1  0.38655100  0.79625400  0.27024300  1
  O  O58  1  0.22399000  0.13369300  0.77024300  1
  O  O59  1  0.73158100  0.97539100  0.56230200  1
  O  O60  1  0.47152700  0.73238400  0.57583500  1
  O  O61  1  0.10287700  0.85093800  0.09632900  1
  O  O62  1  0.99539100  0.24345200  0.59632900  1
  O  O63  1  0.20374600  0.47399000  0.59029700  1
  O  O64  1  0.54625400  0.77601000  0.90970300  1
  O  O65  1  0.75460900  0.00654800  0.90367100  1
  O  O66  1  0.27847300  0.51761600  0.92416500  1
  O  O67  1  0.15655000  0.89569200  0.42416500  1
  O  O68  1  0.01841900  0.27460900  0.93769800  1
  O  O69  1  0.02460900  0.58691100  0.75619000  1
  O  O70  1  0.26761600  0.84345000  0.73914300  1
  O  O71  1  0.99345200  0.89712300  0.74806100  1
