# generated using pymatgen
data_Li2MnNb3O8
_symmetry_space_group_name_H-M   'P 1'
_cell_length_a   6.13445760
_cell_length_b   6.13445760
_cell_length_c   10.26159800
_cell_angle_alpha   90.00000000
_cell_angle_beta   90.00000000
_cell_angle_gamma   119.99999564
_symmetry_Int_Tables_number   1
_chemical_formula_structural   Li2MnNb3O8
_chemical_formula_sum   'Li4 Mn2 Nb6 O16'
_cell_volume   334.42442221
_cell_formula_units_Z   2
loop_
 _symmetry_equiv_pos_site_id
 _symmetry_equiv_pos_as_xyz
  1  'x, y, z'
loop_
 _atom_site_type_symbol
 _atom_site_label
 _atom_site_symmetry_multiplicity
 _atom_site_fract_x
 _atom_site_fract_y
 _atom_site_fract_z
 _atom_site_occupancy
  Li  Li0  1  0.33333300  0.66666700  0.89036300  1
  Li  Li1  1  0.00000000  0.00000000  0.99527300  1
  Li  Li2  1  0.00000000  0.00000000  0.49527300  1
  Li  Li3  1  0.66666700  0.33333300  0.39036300  1
  Mn  Mn4  1  0.33333300  0.66666700  0.50118500  1
  Mn  Mn5  1  0.66666700  0.33333300  0.00118500  1
  Nb  Nb6  1  0.17679000  0.82321000  0.21410100  1
  Nb  Nb7  1  0.17679000  0.35358100  0.21410100  1
  Nb  Nb8  1  0.64641900  0.82321000  0.21410100  1
  Nb  Nb9  1  0.35358100  0.17679000  0.71410100  1
  Nb  Nb10  1  0.82321000  0.64641900  0.71410100  1
  Nb  Nb11  1  0.82321000  0.17679000  0.71410100  1
  O  O12  1  0.15650700  0.84349300  0.60618600  1
  O  O13  1  0.02561200  0.51280600  0.33586100  1
  O  O14  1  0.33333300  0.66666700  0.08454200  1
  O  O15  1  0.00000000  0.00000000  0.31411500  1
  O  O16  1  0.00000000  0.00000000  0.81411500  1
  O  O17  1  0.15650700  0.31301400  0.60618600  1
  O  O18  1  0.48719400  0.97438800  0.33586100  1
  O  O19  1  0.48719400  0.51280600  0.33586100  1
  O  O20  1  0.31301400  0.15650700  0.10618600  1
  O  O21  1  0.68698600  0.84349300  0.60618600  1
  O  O22  1  0.51280600  0.48719400  0.83586100  1
  O  O23  1  0.51280600  0.02561200  0.83586100  1
  O  O24  1  0.66666700  0.33333300  0.58454200  1
  O  O25  1  0.84349300  0.68698600  0.10618600  1
  O  O26  1  0.97438800  0.48719400  0.83586100  1
  O  O27  1  0.84349300  0.15650700  0.10618600  1
