# generated using pymatgen
data_Li8Mn7Fe(BO3)8
_symmetry_space_group_name_H-M   'P 1'
_cell_length_a   7.96094000
_cell_length_b   8.07471350
_cell_length_c   8.30504461
_cell_angle_alpha   80.46778047
_cell_angle_beta   79.27179906
_cell_angle_gamma   81.66511219
_symmetry_Int_Tables_number   1
_chemical_formula_structural   Li8Mn7Fe(BO3)8
_chemical_formula_sum   'Li8 Mn7 Fe1 B8 O24'
_cell_volume   513.69263816
_cell_formula_units_Z   1
loop_
 _symmetry_equiv_pos_site_id
 _symmetry_equiv_pos_as_xyz
  1  'x, y, z'
loop_
 _atom_site_type_symbol
 _atom_site_label
 _atom_site_symmetry_multiplicity
 _atom_site_fract_x
 _atom_site_fract_y
 _atom_site_fract_z
 _atom_site_occupancy
  Li  Li0  1  0.30312900  0.15066400  0.22007900  1
  Li  Li1  1  0.19725200  0.34763000  0.78095400  1
  Li  Li2  1  0.69703500  0.34807500  0.28170600  1
  Li  Li3  1  0.19808500  0.84973800  0.28353700  1
  Li  Li4  1  0.80278600  0.15132500  0.71813900  1
  Li  Li5  1  0.30216200  0.65135900  0.71769500  1
  Li  Li6  1  0.80338900  0.65117200  0.21867700  1
  Li  Li7  1  0.69703600  0.84884900  0.78138900  1
  Mn  Mn8  1  0.67655300  0.00863800  0.08035800  1
  Mn  Mn9  1  0.17738800  0.50873700  0.07967400  1
  Mn  Mn10  1  0.32366600  0.49240600  0.41953700  1
  Mn  Mn11  1  0.67625800  0.50834700  0.58086100  1
  Mn  Mn12  1  0.82358300  0.49138600  0.91934300  1
  Mn  Mn13  1  0.32243000  0.99131900  0.91782000  1
  Mn  Mn14  1  0.82292200  0.98920300  0.41947500  1
  Fe  Fe15  1  0.17260400  0.01157500  0.58170200  1
  B  B16  1  0.00401800  0.33140800  0.40438500  1
  B  B17  1  0.49737600  0.16743600  0.59497800  1
  B  B18  1  0.50167700  0.33173900  0.90389400  1
  B  B19  1  0.00186400  0.83292600  0.90156300  1
  B  B20  1  0.99883400  0.16783900  0.09635900  1
  B  B21  1  0.49857700  0.66858300  0.09595000  1
  B  B22  1  0.49970300  0.83251400  0.40611600  1
  B  B23  1  0.99842900  0.66805300  0.59607500  1
  O  O24  1  0.13290800  0.04275100  0.12243100  1
  O  O25  1  0.16777600  0.34830400  0.31069200  1
  O  O26  1  0.47336400  0.18669300  0.01706500  1
  O  O27  1  0.02628800  0.31340600  0.98364100  1
  O  O28  1  0.33237000  0.15095900  0.68686000  1
  O  O29  1  0.63245800  0.04346300  0.62224000  1
  O  O30  1  0.13190100  0.54260000  0.62292900  1
  O  O31  1  0.52570300  0.31327900  0.48293000  1
  O  O32  1  0.02636600  0.81286800  0.48270100  1
  O  O33  1  0.83383100  0.15176700  0.18924500  1
  O  O34  1  0.33361100  0.65283200  0.18820000  1
  O  O35  1  0.36799600  0.45689900  0.87635600  1
  O  O36  1  0.63297700  0.54378900  0.12281700  1
  O  O37  1  0.66704200  0.34730500  0.81194000  1
  O  O38  1  0.16594700  0.84917500  0.80657900  1
  O  O39  1  0.97940300  0.18564400  0.51877100  1
  O  O40  1  0.47338800  0.68566900  0.51737400  1
  O  O41  1  0.86809100  0.45409800  0.37867700  1
  O  O42  1  0.36555600  0.95758200  0.38295200  1
  O  O43  1  0.66446900  0.84814100  0.31185400  1
  O  O44  1  0.97544900  0.68784000  0.01560500  1
  O  O45  1  0.52598300  0.81377200  0.98254900  1
  O  O46  1  0.83305000  0.65254800  0.68828100  1
  O  O47  1  0.86731900  0.95769600  0.87704000  1
