# generated using pymatgen
data_Li4Co2Ni3O10
_symmetry_space_group_name_H-M   'P 1'
_cell_length_a   20.66049343
_cell_length_b   2.86858300
_cell_length_c   5.80807122
_cell_angle_alpha   90.00000000
_cell_angle_beta   82.79090068
_cell_angle_gamma   90.00000000
_symmetry_Int_Tables_number   1
_chemical_formula_structural   Li4Co2Ni3O10
_chemical_formula_sum   'Li8 Co4 Ni6 O20'
_cell_volume   341.50196699
_cell_formula_units_Z   2
loop_
 _symmetry_equiv_pos_site_id
 _symmetry_equiv_pos_as_xyz
  1  'x, y, z'
loop_
 _atom_site_type_symbol
 _atom_site_label
 _atom_site_symmetry_multiplicity
 _atom_site_fract_x
 _atom_site_fract_y
 _atom_site_fract_z
 _atom_site_occupancy
  Li  Li0  1  0.20000000  0.00000000  0.90000000  1
  Li  Li1  1  0.39352100  0.00000000  0.28716000  1
  Li  Li2  1  0.49742100  0.50000000  0.49848400  1
  Li  Li3  1  0.59938300  0.00000000  0.69955200  1
  Li  Li4  1  0.70000000  0.50000000  0.90000000  1
  Li  Li5  1  0.80061700  0.00000000  0.10044800  1
  Li  Li6  1  0.90257900  0.50000000  0.30151600  1
  Li  Li7  1  0.00647900  0.00000000  0.51284000  1
  Co  Co8  1  0.10187800  0.50000000  0.20127300  1
  Co  Co9  1  0.20000000  0.00000000  0.40000000  1
  Co  Co10  1  0.29812200  0.50000000  0.59872700  1
  Co  Co11  1  0.70000000  0.50000000  0.40000000  1
  Ni  Ni12  1  0.39778900  0.00000000  0.80148000  1
  Ni  Ni13  1  0.49978800  0.50000000  0.99708300  1
  Ni  Ni14  1  0.59948600  0.00000000  0.20043500  1
  Ni  Ni15  1  0.80051400  0.00000000  0.59956500  1
  Ni  Ni16  1  0.90021200  0.50000000  0.80291700  1
  Ni  Ni17  1  0.00221100  0.00000000  0.99852000  1
  O  O18  1  0.00887100  0.50000000  0.23473200  1
  O  O19  1  0.10610600  0.00000000  0.41604800  1
  O  O20  1  0.10127300  0.00000000  0.98947600  1
  O  O21  1  0.19327000  0.50000000  0.18075700  1
  O  O22  1  0.20673000  0.50000000  0.61924300  1
  O  O23  1  0.29389400  0.00000000  0.38395200  1
  O  O24  1  0.29872700  0.00000000  0.81052400  1
  O  O25  1  0.40899200  0.50000000  0.02857700  1
  O  O26  1  0.39112900  0.50000000  0.56526800  1
  O  O27  1  0.49920300  0.00000000  0.23176900  1
  O  O28  1  0.50000900  0.00000000  0.76311700  1
  O  O29  1  0.60697400  0.50000000  0.43012200  1
  O  O30  1  0.59326800  0.50000000  0.96822300  1
  O  O31  1  0.70017200  0.00000000  0.17298100  1
  O  O32  1  0.69982800  0.00000000  0.62701900  1
  O  O33  1  0.79302600  0.50000000  0.36987800  1
  O  O34  1  0.80673200  0.50000000  0.83177700  1
  O  O35  1  0.89999100  0.00000000  0.03688300  1
  O  O36  1  0.90079700  0.00000000  0.56823100  1
  O  O37  1  0.99100800  0.50000000  0.77142300  1
