# generated using pymatgen
data_Li4Ti9O20
_symmetry_space_group_name_H-M   'P 1'
_cell_length_a   5.97384200
_cell_length_b   5.97630308
_cell_length_c   24.67335461
_cell_angle_alpha   89.99961366
_cell_angle_beta   96.93028120
_cell_angle_gamma   119.91516534
_symmetry_Int_Tables_number   1
_chemical_formula_structural   Li4Ti9O20
_chemical_formula_sum   'Li8 Ti18 O40'
_cell_volume   756.07799576
_cell_formula_units_Z   2
loop_
 _symmetry_equiv_pos_site_id
 _symmetry_equiv_pos_as_xyz
  1  'x, y, z'
loop_
 _atom_site_type_symbol
 _atom_site_label
 _atom_site_symmetry_multiplicity
 _atom_site_fract_x
 _atom_site_fract_y
 _atom_site_fract_z
 _atom_site_occupancy
  Li  Li0  1  0.99833500  0.99999400  0.99915000  1
  Li  Li1  1  0.49968900  0.74814600  0.25118100  1
  Li  Li2  1  0.59705900  0.80141700  0.39866800  1
  Li  Li3  1  0.30295200  0.15157600  0.45386300  1
  Li  Li4  1  0.95505500  0.47382700  0.42548000  1
  Li  Li5  1  0.19881500  0.60294800  0.80222900  1
  Li  Li6  1  0.44379400  0.46864400  0.92441100  1
  Li  Li7  1  0.90258600  0.94489500  0.85028900  1
  Ti  Ti8  1  0.74327200  0.88522600  0.12655500  1
  Ti  Ti9  1  0.35822700  0.65919200  0.01918900  1
  Ti  Ti10  1  0.04767600  0.28509600  0.32463000  1
  Ti  Ti11  1  0.23541000  0.85899500  0.12118100  1
  Ti  Ti12  1  0.25723800  0.37461900  0.12505700  1
  Ti  Ti13  1  0.55807400  0.27812800  0.32742800  1
  Ti  Ti14  1  0.15422500  0.06620900  0.22358100  1
  Ti  Ti15  1  0.04576900  0.77264400  0.32799900  1
  Ti  Ti16  1  0.85400500  0.18483400  0.52308100  1
  Ti  Ti17  1  0.74723800  0.87872700  0.62042800  1
  Ti  Ti18  1  0.33764500  0.67022300  0.52448400  1
  Ti  Ti19  1  0.65973400  0.08895600  0.72642800  1
  Ti  Ti20  1  0.63825100  0.57633800  0.72202000  1
  Ti  Ti21  1  0.84899600  0.67383600  0.52188600  1
  Ti  Ti22  1  0.53987200  0.28576700  0.82870900  1
  Ti  Ti23  1  0.14559600  0.06033000  0.72199900  1
  Ti  Ti24  1  0.93680600  0.46924900  0.92647100  1
  Ti  Ti25  1  0.44814900  0.96560800  0.92290700  1
  O  O26  1  0.52957600  0.54605100  0.08050000  1
  O  O27  1  0.53233700  0.98659200  0.08214500  1
  O  O28  1  0.44377500  0.72061200  0.16888400  1
  O  O29  1  0.08918700  0.54355300  0.08166800  1
  O  O30  1  0.89232800  0.94455600  0.27754400  1
  O  O31  1  0.05233100  0.02631500  0.08291400  1
  O  O32  1  0.96958400  0.76706100  0.17247300  1
  O  O33  1  0.96604600  0.19919100  0.17225400  1
  O  O34  1  0.75484800  0.14397000  0.36635000  1
  O  O35  1  0.33335700  0.94539400  0.27726100  1
  O  O36  1  0.33147400  0.38550000  0.27755000  1
  O  O37  1  0.14476700  0.33932800  0.48300400  1
  O  O38  1  0.67755100  0.34031600  0.48245100  1
  O  O39  1  0.04414100  0.52392700  0.56504500  1
  O  O40  1  0.24725100  0.12177300  0.36809900  1
  O  O41  1  0.85645300  0.42938000  0.28442400  1
  O  O42  1  0.22280100  0.61178000  0.36662800  1
  O  O43  1  0.40343900  0.20445300  0.17223400  1
  O  O44  1  0.65669100  0.82974300  0.48090900  1
  O  O45  1  0.36614900  0.40636900  0.77214300  1
  O  O46  1  0.57148300  0.00376000  0.57228600  1
  O  O47  1  0.57239000  0.57259600  0.57204800  1
  O  O48  1  0.75508700  0.61187100  0.36706400  1
  O  O49  1  0.93260600  0.18084800  0.67963600  1
  O  O50  1  0.14590400  0.80617100  0.48248500  1
  O  O51  1  0.49568800  0.74428000  0.67949100  1
  O  O52  1  0.84619200  0.91935600  0.76798100  1
  O  O53  1  0.81532200  0.40354400  0.77042000  1
  O  O54  1  0.00259600  0.00199600  0.57218500  1
  O  O55  1  0.45515100  0.22678900  0.68465000  1
  O  O56  1  0.61564300  0.82030400  0.97608900  1
  O  O57  1  0.24844500  0.64104200  0.88360100  1
  O  O58  1  0.36505100  0.95470700  0.76996100  1
  O  O59  1  0.15390200  0.35900300  0.97613100  1
  O  O60  1  0.16648800  0.80415500  0.97434000  1
  O  O61  1  0.73303900  0.13710600  0.87502300  1
  O  O62  1  0.74614800  0.58615100  0.87327800  1
  O  O63  1  0.93249200  0.74398400  0.67956200  1
  O  O64  1  0.65370400  0.30871900  0.96265600  1
  O  O65  1  0.28395100  0.12337000  0.87308000  1
