# generated using pymatgen
data_Li3V2(PO4)3
_symmetry_space_group_name_H-M   'P 1'
_cell_length_a   9.81814790
_cell_length_b   9.81814790
_cell_length_c   9.79098611
_cell_angle_alpha   86.33123025
_cell_angle_beta   86.33123025
_cell_angle_gamma   85.41769404
_symmetry_Int_Tables_number   1
_chemical_formula_structural   Li3V2(PO4)3
_chemical_formula_sum   'Li12 V8 P12 O48'
_cell_volume   937.22146511
_cell_formula_units_Z   4
loop_
 _symmetry_equiv_pos_site_id
 _symmetry_equiv_pos_as_xyz
  1  'x, y, z'
loop_
 _atom_site_type_symbol
 _atom_site_label
 _atom_site_symmetry_multiplicity
 _atom_site_fract_x
 _atom_site_fract_y
 _atom_site_fract_z
 _atom_site_occupancy
  Li  Li0  1  0.98543300  0.50484200  0.24043900  1
  Li  Li1  1  0.62085400  0.75002500  0.80554500  1
  Li  Li2  1  0.78160800  0.56354400  0.46738100  1
  Li  Li3  1  0.76529600  0.73402300  0.17975700  1
  Li  Li4  1  0.29744300  0.92437300  0.97543200  1
  Li  Li5  1  0.00249100  0.25641700  0.38759900  1
  Li  Li6  1  0.74358300  0.99750900  0.61240100  1
  Li  Li7  1  0.07562700  0.70255700  0.02456800  1
  Li  Li8  1  0.26597700  0.23470400  0.82024300  1
  Li  Li9  1  0.43645600  0.21839200  0.53261900  1
  Li  Li10  1  0.24997500  0.37914600  0.19445500  1
  Li  Li11  1  0.49515800  0.01456700  0.75956100  1
  V  V12  1  0.97049600  0.24913600  0.78244500  1
  V  V13  1  0.25346700  0.96616600  0.28092000  1
  V  V14  1  0.25150700  0.74849300  0.50000000  1
  V  V15  1  0.46856800  0.53143200  0.50000000  1
  V  V16  1  0.75125200  0.24874800  0.00000000  1
  V  V17  1  0.53180700  0.46819300  0.00000000  1
  V  V18  1  0.03383400  0.74653300  0.71908000  1
  V  V19  1  0.75086400  0.02950400  0.21755500  1
  P  P20  1  0.82592300  0.94547500  0.90288500  1
  P  P21  1  0.94973000  0.82144300  0.40485700  1
  P  P22  1  0.84380100  0.55241600  0.92860700  1
  P  P23  1  0.55773700  0.83783800  0.42923000  1
  P  P24  1  0.34819100  0.68143800  0.80349000  1
  P  P25  1  0.65919100  0.31899300  0.69777900  1
  P  P26  1  0.68100700  0.34080900  0.30222100  1
  P  P27  1  0.31856200  0.65180900  0.19651000  1
  P  P28  1  0.16216200  0.44226300  0.57077000  1
  P  P29  1  0.44758400  0.15619900  0.07139300  1
  P  P30  1  0.17855700  0.05027000  0.59514300  1
  P  P31  1  0.05452500  0.17407700  0.09711500  1
  O  O32  1  0.96791900  0.87236000  0.86869700  1
  O  O33  1  0.88838800  0.96040500  0.34435700  1
  O  O34  1  0.91855500  0.82074100  0.56317200  1
  O  O35  1  0.79161000  0.90829100  0.05820500  1
  O  O36  1  0.71496100  0.91155500  0.81059400  1
  O  O37  1  0.89694600  0.69761900  0.34251200  1
  O  O38  1  0.90964200  0.61237100  0.79250300  1
  O  O39  1  0.59686100  0.90732800  0.55258700  1
  O  O40  1  0.62939400  0.88034500  0.28965200  1
  O  O41  1  0.90221400  0.60259300  0.05685100  1
  O  O42  1  0.87689000  0.39145700  0.92488100  1
  O  O43  1  0.68693000  0.59009400  0.92734500  1
  O  O44  1  0.42195800  0.80311900  0.84457500  1
  O  O45  1  0.59352400  0.67776200  0.44487700  1
  O  O46  1  0.39650500  0.87046900  0.41716300  1
  O  O47  1  0.80647000  0.40455700  0.34883300  1
  O  O48  1  0.81682900  0.31212000  0.66884200  1
  O  O49  1  0.29694200  0.80806400  0.15568400  1
  O  O50  1  0.60612700  0.45749200  0.63028600  1
  O  O51  1  0.37765200  0.67121800  0.64239600  1
  O  O52  1  0.17602000  0.88952300  0.62990200  1
  O  O53  1  0.83621800  0.10593200  0.87560300  1
  O  O54  1  0.45866100  0.59799100  0.13387100  1
  O  O55  1  0.62140900  0.32668400  0.85951200  1
  O  O56  1  0.67331600  0.37859100  0.14048800  1
  O  O57  1  0.40200900  0.54133900  0.86612900  1
  O  O58  1  0.89406800  0.16378200  0.12439700  1
  O  O59  1  0.11047700  0.82398000  0.37009800  1
  O  O60  1  0.32878200  0.62234800  0.35760400  1
  O  O61  1  0.54250800  0.39387300  0.36971400  1
  O  O62  1  0.19193600  0.70305800  0.84431600  1
  O  O63  1  0.68788000  0.18317100  0.33115800  1
  O  O64  1  0.59544300  0.19353000  0.65116700  1
  O  O65  1  0.12953100  0.60349500  0.58283700  1
  O  O66  1  0.32223800  0.40647600  0.55512300  1
  O  O67  1  0.19688100  0.57804200  0.15542500  1
  O  O68  1  0.40990600  0.31307000  0.07265500  1
  O  O69  1  0.60854300  0.12311000  0.07511900  1
  O  O70  1  0.39740700  0.09778600  0.94314900  1
  O  O71  1  0.11965500  0.37060600  0.71034800  1
  O  O72  1  0.09267200  0.40313900  0.44741300  1
  O  O73  1  0.38762900  0.09035800  0.20749700  1
  O  O74  1  0.30238100  0.10305400  0.65748800  1
  O  O75  1  0.08844500  0.28503900  0.18940600  1
  O  O76  1  0.09170900  0.20839000  0.94179500  1
  O  O77  1  0.17925900  0.08144500  0.43682800  1
  O  O78  1  0.03959500  0.11161200  0.65564300  1
  O  O79  1  0.12764000  0.03208100  0.13130300  1
