# generated using pymatgen
data_Li5Nb2V3O10
_symmetry_space_group_name_H-M   'P 1'
_cell_length_a   5.24002820
_cell_length_b   7.91992783
_cell_length_c   10.51719333
_cell_angle_alpha   107.55248950
_cell_angle_beta   79.00652925
_cell_angle_gamma   108.12277642
_symmetry_Int_Tables_number   1
_chemical_formula_structural   Li5Nb2V3O10
_chemical_formula_sum   'Li10 Nb4 V6 O20'
_cell_volume   393.23707372
_cell_formula_units_Z   2
loop_
 _symmetry_equiv_pos_site_id
 _symmetry_equiv_pos_as_xyz
  1  'x, y, z'
loop_
 _atom_site_type_symbol
 _atom_site_label
 _atom_site_symmetry_multiplicity
 _atom_site_fract_x
 _atom_site_fract_y
 _atom_site_fract_z
 _atom_site_occupancy
  Li  Li0  1  0.49985800  0.49997900  0.50002600  1
  Li  Li1  1  0.50014300  0.50002200  0.99997300  1
  Li  Li2  1  0.22853800  0.40362300  0.24111100  1
  Li  Li3  1  0.22844000  0.40367900  0.74113800  1
  Li  Li4  1  0.77156200  0.59632100  0.75886200  1
  Li  Li5  1  0.77146400  0.59637800  0.25889000  1
  Li  Li6  1  0.39583100  0.78608700  0.74442700  1
  Li  Li7  1  0.39612700  0.78624800  0.24446400  1
  Li  Li8  1  0.60387300  0.21375100  0.25553500  1
  Li  Li9  1  0.60417200  0.21391200  0.75557300  1
  Nb  Nb10  1  0.09108700  0.67661700  0.49576700  1
  Nb  Nb11  1  0.09131500  0.67673500  0.99580200  1
  Nb  Nb12  1  0.90868700  0.32326700  0.50419800  1
  Nb  Nb13  1  0.90891400  0.32338300  0.00423300  1
  V  V14  1  0.00001500  0.99999600  0.24999300  1
  V  V15  1  0.69405100  0.90136700  0.50247300  1
  V  V16  1  0.30595400  0.09863400  0.99752600  1
  V  V17  1  0.99996700  0.99998800  0.75001400  1
  V  V18  1  0.69394000  0.90136600  0.00239400  1
  V  V19  1  0.30604400  0.09863500  0.49760500  1
  O  O20  1  0.04937200  0.85482400  0.87549700  1
  O  O21  1  0.04925400  0.85475700  0.37547400  1
  O  O22  1  0.95074700  0.14524300  0.12452500  1
  O  O23  1  0.95063100  0.14517800  0.62450200  1
  O  O24  1  0.32820300  0.93772600  0.62544700  1
  O  O25  1  0.32845000  0.93789000  0.12552300  1
  O  O26  1  0.67155100  0.06211000  0.37447700  1
  O  O27  1  0.67180000  0.06227500  0.87455200  1
  O  O28  1  0.16093300  0.54598500  0.62609500  1
  O  O29  1  0.16114000  0.54607200  0.12604800  1
  O  O30  1  0.83886100  0.45392800  0.37395200  1
  O  O31  1  0.83906800  0.45401500  0.87390400  1
  O  O32  1  0.22748900  0.24641200  0.37445200  1
  O  O33  1  0.22769000  0.24649700  0.87441400  1
  O  O34  1  0.77231300  0.75350500  0.62558600  1
  O  O35  1  0.77251200  0.75358800  0.12554700  1
  O  O36  1  0.43183200  0.65563000  0.38328700  1
  O  O37  1  0.43206900  0.65568000  0.88326000  1
  O  O38  1  0.56793200  0.34432100  0.61673900  1
  O  O39  1  0.56817000  0.34437100  0.11671300  1
