# generated using pymatgen
data_Li3Mn(BO3)2
_symmetry_space_group_name_H-M   'P 1'
_cell_length_a   8.03690300
_cell_length_b   6.12827600
_cell_length_c   10.93640565
_cell_angle_alpha   62.97514464
_cell_angle_beta   90.00000000
_cell_angle_gamma   90.00000000
_symmetry_Int_Tables_number   1
_chemical_formula_structural   Li3Mn(BO3)2
_chemical_formula_sum   'Li12 Mn4 B8 O24'
_cell_volume   479.82899897
_cell_formula_units_Z   4
loop_
 _symmetry_equiv_pos_site_id
 _symmetry_equiv_pos_as_xyz
  1  'x, y, z'
loop_
 _atom_site_type_symbol
 _atom_site_label
 _atom_site_symmetry_multiplicity
 _atom_site_fract_x
 _atom_site_fract_y
 _atom_site_fract_z
 _atom_site_occupancy
  Li  Li0  1  0.21312800  0.80779500  0.64483400  1
  Li  Li1  1  0.70509300  0.65887200  0.86802700  1
  Li  Li2  1  0.04958800  0.37158000  0.89824600  1
  Li  Li3  1  0.54958800  0.62842000  0.60175400  1
  Li  Li4  1  0.20509300  0.34112800  0.63197300  1
  Li  Li5  1  0.71312800  0.19220500  0.85516600  1
  Li  Li6  1  0.28687200  0.80779500  0.14483400  1
  Li  Li7  1  0.79490700  0.65887200  0.36802700  1
  Li  Li8  1  0.45041200  0.37158000  0.39824600  1
  Li  Li9  1  0.95041200  0.62842000  0.10175400  1
  Li  Li10  1  0.29490700  0.34112800  0.13197300  1
  Li  Li11  1  0.78687200  0.19220500  0.35516600  1
  Mn  Mn12  1  0.09216100  0.93283600  0.38032500  1
  Mn  Mn13  1  0.59216100  0.06716400  0.11967500  1
  Mn  Mn14  1  0.40783900  0.93283600  0.88032500  1
  Mn  Mn15  1  0.90783900  0.06716400  0.61967500  1
  B  B16  1  0.36188700  0.43627400  0.85101800  1
  B  B17  1  0.93018200  0.12826000  0.13126800  1
  B  B18  1  0.43018200  0.87174000  0.36873200  1
  B  B19  1  0.86188700  0.56372600  0.64898200  1
  B  B20  1  0.13811300  0.43627400  0.35101800  1
  B  B21  1  0.56981800  0.12826000  0.63126800  1
  B  B22  1  0.06981800  0.87174000  0.86873200  1
  B  B23  1  0.63811300  0.56372600  0.14898200  1
  O  O24  1  0.41084400  0.62041400  0.88218200  1
  O  O25  1  0.95470900  0.78260500  0.58709600  1
  O  O26  1  0.73219600  0.53831800  0.73408200  1
  O  O27  1  0.07710200  0.24468400  0.09195600  1
  O  O28  1  0.31366700  0.87369600  0.46419000  1
  O  O29  1  0.88580900  0.00256000  0.27120000  1
  O  O30  1  0.38580900  0.99744000  0.22880000  1
  O  O31  1  0.81366700  0.12630400  0.03581000  1
  O  O32  1  0.23219600  0.46168200  0.76591800  1
  O  O33  1  0.57710200  0.75531600  0.40804400  1
  O  O34  1  0.45470900  0.21739500  0.91290400  1
  O  O35  1  0.91084400  0.37958600  0.61781800  1
  O  O36  1  0.08915600  0.62041400  0.38218200  1
  O  O37  1  0.54529100  0.78260500  0.08709600  1
  O  O38  1  0.42289800  0.24468400  0.59195600  1
  O  O39  1  0.76780400  0.53831800  0.23408200  1
  O  O40  1  0.18633300  0.87369600  0.96419000  1
  O  O41  1  0.61419100  0.00256000  0.77120000  1
  O  O42  1  0.11419100  0.99744000  0.72880000  1
  O  O43  1  0.68633300  0.12630400  0.53581000  1
  O  O44  1  0.92289800  0.75531600  0.90804400  1
  O  O45  1  0.26780400  0.46168200  0.26591800  1
  O  O46  1  0.04529100  0.21739500  0.41290400  1
  O  O47  1  0.58915600  0.37958600  0.11781800  1
