# generated using pymatgen
data_Li4Mn3Cr3(CoO8)2
_symmetry_space_group_name_H-M   'P 1'
_cell_length_a   5.84821025
_cell_length_b   5.84821025
_cell_length_c   9.64980139
_cell_angle_alpha   89.47989675
_cell_angle_beta   89.47989675
_cell_angle_gamma   60.05294796
_symmetry_Int_Tables_number   1
_chemical_formula_structural   Li4Mn3Cr3(CoO8)2
_chemical_formula_sum   'Li4 Mn3 Cr3 Co2 O16'
_cell_volume   285.95820160
_cell_formula_units_Z   1
loop_
 _symmetry_equiv_pos_site_id
 _symmetry_equiv_pos_as_xyz
  1  'x, y, z'
loop_
 _atom_site_type_symbol
 _atom_site_label
 _atom_site_symmetry_multiplicity
 _atom_site_fract_x
 _atom_site_fract_y
 _atom_site_fract_z
 _atom_site_occupancy
  Li  Li0  1  0.33226200  0.33226200  0.10444400  1
  Li  Li1  1  0.99632500  0.99632500  0.00288700  1
  Li  Li2  1  0.99712700  0.99712700  0.50324600  1
  Li  Li3  1  0.66787100  0.66787100  0.60385600  1
  Mn  Mn4  1  0.16970800  0.16970800  0.78497200  1
  Mn  Mn5  1  0.83122700  0.33550500  0.28562600  1
  Mn  Mn6  1  0.33550500  0.83122700  0.28562600  1
  Cr  Cr7  1  0.66357000  0.17055000  0.78554600  1
  Cr  Cr8  1  0.17055000  0.66357000  0.78554600  1
  Cr  Cr9  1  0.83009800  0.83009800  0.28559100  1
  Co  Co10  1  0.33205200  0.33205200  0.50563100  1
  Co  Co11  1  0.66590400  0.66590400  0.00662300  1
  O  O12  1  0.68213500  0.15433300  0.39425000  1
  O  O13  1  0.48451900  0.48451900  0.67502300  1
  O  O14  1  0.32839600  0.32839600  0.89412200  1
  O  O15  1  0.00626300  0.00626300  0.68657300  1
  O  O16  1  0.00400100  0.00400100  0.18772900  1
  O  O17  1  0.15433300  0.68213500  0.39425000  1
  O  O18  1  0.48498500  0.03769000  0.66962300  1
  O  O19  1  0.03769000  0.48498500  0.66962300  1
  O  O20  1  0.83923500  0.83923500  0.89137700  1
  O  O21  1  0.15669400  0.15669400  0.39451500  1
  O  O22  1  0.96725800  0.51751300  0.17329200  1
  O  O23  1  0.51751300  0.96725800  0.17329200  1
  O  O24  1  0.65982900  0.65982900  0.39240200  1
  O  O25  1  0.83876400  0.31422400  0.89464100  1
  O  O26  1  0.51907900  0.51907900  0.16786100  1
  O  O27  1  0.31422400  0.83876400  0.89464100  1
