# generated using pymatgen
data_Li6V3P8O29
_symmetry_space_group_name_H-M   'P 1'
_cell_length_a   9.83442332
_cell_length_b   9.83442332
_cell_length_c   14.02305779
_cell_angle_alpha   89.15072988
_cell_angle_beta   89.15072988
_cell_angle_gamma   59.50360822
_symmetry_Int_Tables_number   1
_chemical_formula_structural   Li6V3P8O29
_chemical_formula_sum   'Li12 V6 P16 O58'
_cell_volume   1168.45964319
_cell_formula_units_Z   2
loop_
 _symmetry_equiv_pos_site_id
 _symmetry_equiv_pos_as_xyz
  1  'x, y, z'
loop_
 _atom_site_type_symbol
 _atom_site_label
 _atom_site_symmetry_multiplicity
 _atom_site_fract_x
 _atom_site_fract_y
 _atom_site_fract_z
 _atom_site_occupancy
  Li  Li0  1  0.75936800  0.89815100  0.06341400  1
  Li  Li1  1  0.89815100  0.75936800  0.56341400  1
  Li  Li2  1  0.33395500  0.89693000  0.55694100  1
  Li  Li3  1  0.33334500  0.76530100  0.06070400  1
  Li  Li4  1  0.89693000  0.33395500  0.05694100  1
  Li  Li5  1  0.76530100  0.33334500  0.56070400  1
  Li  Li6  1  0.34727900  0.34010100  0.60764900  1
  Li  Li7  1  0.34010100  0.34727900  0.10764900  1
  Li  Li8  1  0.08977500  0.22989800  0.43639300  1
  Li  Li9  1  0.22989800  0.08977500  0.93639300  1
  Li  Li10  1  0.96673300  0.98124700  0.99622800  1
  Li  Li11  1  0.98124700  0.96673300  0.49622800  1
  V  V12  1  0.43563400  0.56284900  0.25408600  1
  V  V13  1  0.56284900  0.43563400  0.75408600  1
  V  V14  1  0.99910700  0.56794900  0.75204000  1
  V  V15  1  0.99759600  0.43792100  0.24851700  1
  V  V16  1  0.56794900  0.99910700  0.25204000  1
  V  V17  1  0.43792100  0.99759600  0.74851700  1
  P  P18  1  0.77018900  0.91494900  0.84493300  1
  P  P19  1  0.91494900  0.77018900  0.34493300  1
  P  P20  1  0.31210500  0.91233400  0.34045300  1
  P  P21  1  0.66249200  0.66856500  0.12968800  1
  P  P22  1  0.66856500  0.66249200  0.62968800  1
  P  P23  1  0.30907200  0.77401600  0.84653400  1
  P  P24  1  0.21819400  0.69561800  0.66188400  1
  P  P25  1  0.91233400  0.31210500  0.84045300  1
  P  P26  1  0.08794300  0.69530400  0.16008300  1
  P  P27  1  0.77401600  0.30907200  0.34653400  1
  P  P28  1  0.69561800  0.21819400  0.16188400  1
  P  P29  1  0.33300200  0.32936200  0.36836300  1
  P  P30  1  0.32936200  0.33300200  0.86836300  1
  P  P31  1  0.69530400  0.08794300  0.66008300  1
  P  P32  1  0.09365200  0.22913200  0.65688300  1
  P  P33  1  0.22913200  0.09365200  0.15688300  1
  O  O34  1  0.80351400  0.98554200  0.58228700  1
  O  O35  1  0.74551000  0.90956400  0.33212000  1
  O  O36  1  0.98554200  0.80351400  0.08228700  1
  O  O37  1  0.90956400  0.74551000  0.83212000  1
  O  O38  1  0.61278800  0.91795900  0.82932100  1
  O  O39  1  0.66734900  0.81459900  0.16774300  1
  O  O40  1  0.46815800  0.90954400  0.32514600  1
  O  O41  1  0.23691400  0.00224800  0.06935700  1
  O  O42  1  0.33115000  0.91925900  0.83270700  1
  O  O43  1  0.81459900  0.66734900  0.66774300  1
  O  O44  1  0.91795900  0.61278800  0.32932100  1
  O  O45  1  0.51464000  0.81314800  0.66741100  1
  O  O46  1  0.65723000  0.66915600  0.02320800  1
  O  O47  1  0.66915600  0.65723000  0.52320800  1
  O  O48  1  0.51361500  0.66953400  0.17430500  1
  O  O49  1  0.90954400  0.46815800  0.82514600  1
  O  O50  1  0.81314800  0.51464000  0.16741100  1
  O  O51  1  0.33427100  0.74806700  0.33705400  1
  O  O52  1  0.19494500  0.78542600  0.76160200  1
  O  O53  1  0.20421400  0.80530400  0.58196400  1
  O  O54  1  0.22527200  0.79052300  0.93976400  1
  O  O55  1  0.46741500  0.61944900  0.83406200  1
  O  O56  1  0.66953400  0.51361500  0.67430500  1
  O  O57  1  0.25776600  0.66445700  0.15560100  1
  O  O58  1  0.61944900  0.46741500  0.33406200  1
  O  O59  1  0.91925900  0.33115000  0.33270700  1
  O  O60  1  0.01783000  0.78601900  0.26037900  1
  O  O61  1  0.98119500  0.77960500  0.43832000  1
  O  O62  1  0.00224800  0.23691400  0.56935700  1
  O  O63  1  0.07931800  0.66313500  0.65841100  1
  O  O64  1  0.37388800  0.53343500  0.66641600  1
  O  O65  1  0.74806700  0.33427100  0.83705400  1
  O  O66  1  0.33057900  0.47825400  0.32252300  1
  O  O67  1  0.53343500  0.37388800  0.16641600  1
  O  O68  1  0.80530400  0.20421400  0.08196400  1
  O  O69  1  0.79052300  0.22527200  0.43976400  1
  O  O70  1  0.78542600  0.19494500  0.26160200  1
  O  O71  1  0.66445700  0.25776600  0.65560100  1
  O  O72  1  0.18799100  0.48330000  0.82539400  1
  O  O73  1  0.09869900  0.53205800  0.16774300  1
  O  O74  1  0.47825400  0.33057900  0.82252300  1
  O  O75  1  0.33191700  0.32999000  0.97470500  1
  O  O76  1  0.32999000  0.33191700  0.47470500  1
  O  O77  1  0.48330000  0.18799100  0.32539400  1
  O  O78  1  0.10775200  0.37735700  0.67015600  1
  O  O79  1  0.18515000  0.32526200  0.32998000  1
  O  O80  1  0.66313500  0.07931800  0.15841100  1
  O  O81  1  0.78601900  0.01783000  0.76037900  1
  O  O82  1  0.77960500  0.98119500  0.93832000  1
  O  O83  1  0.53205800  0.09869900  0.66774300  1
  O  O84  1  0.32526200  0.18515000  0.82998000  1
  O  O85  1  0.37735700  0.10775200  0.17015600  1
  O  O86  1  0.08366100  0.26311500  0.15410400  1
  O  O87  1  0.00088700  0.22155000  0.93030400  1
  O  O88  1  0.01142900  0.20199100  0.74918500  1
  O  O89  1  0.26311500  0.08366100  0.65410400  1
  O  O90  1  0.22155000  0.00088700  0.43030400  1
  O  O91  1  0.20199100  0.01142900  0.24918500  1
