# generated using pymatgen
data_Li4Ti3Mn3(TeO8)2
_symmetry_space_group_name_H-M   'P 1'
_cell_length_a   6.01818176
_cell_length_b   10.31577541
_cell_length_c   10.56219022
_cell_angle_alpha   89.90794911
_cell_angle_beta   90.00966787
_cell_angle_gamma   90.00083604
_symmetry_Int_Tables_number   1
_chemical_formula_structural   Li4Ti3Mn3(TeO8)2
_chemical_formula_sum   'Li8 Ti6 Mn6 Te4 O32'
_cell_volume   655.72327000
_cell_formula_units_Z   2
loop_
 _symmetry_equiv_pos_site_id
 _symmetry_equiv_pos_as_xyz
  1  'x, y, z'
loop_
 _atom_site_type_symbol
 _atom_site_label
 _atom_site_symmetry_multiplicity
 _atom_site_fract_x
 _atom_site_fract_y
 _atom_site_fract_z
 _atom_site_occupancy
  Li  Li0  1  0.49994900  0.90172000  0.17070700  1
  Li  Li1  1  0.99994900  0.90172000  0.67071400  1
  Li  Li2  1  0.00001000  0.99014800  0.00828500  1
  Li  Li3  1  0.50001200  0.99015400  0.50827500  1
  Li  Li4  1  0.99994900  0.49181000  0.00036500  1
  Li  Li5  1  0.49995200  0.49179700  0.50036100  1
  Li  Li6  1  0.00003200  0.40015200  0.33101300  1
  Li  Li7  1  0.50003200  0.40017800  0.83102300  1
  Ti  Ti8  1  0.99987000  0.72161500  0.17651700  1
  Ti  Ti9  1  0.49986700  0.72161000  0.67650500  1
  Ti  Ti10  1  0.74873600  0.22195100  0.08808600  1
  Ti  Ti11  1  0.24874400  0.22194600  0.58807800  1
  Ti  Ti12  1  0.25143500  0.22178800  0.08806900  1
  Ti  Ti13  1  0.75142900  0.22178000  0.58806000  1
  Mn  Mn14  1  0.00003100  0.21243900  0.83158000  1
  Mn  Mn15  1  0.25004100  0.71146200  0.41734800  1
  Mn  Mn16  1  0.75009200  0.71143900  0.41738800  1
  Mn  Mn17  1  0.50001300  0.21244400  0.33157400  1
  Mn  Mn18  1  0.74997200  0.71153700  0.91732400  1
  Mn  Mn19  1  0.25013800  0.71149300  0.91736600  1
  Te  Te20  1  0.49984900  0.49370600  0.16609800  1
  Te  Te21  1  0.99983900  0.49367300  0.66611400  1
  Te  Te22  1  0.00001500  0.99386800  0.35953400  1
  Te  Te23  1  0.50001700  0.99387800  0.85954300  1
  O  O24  1  0.50002300  0.31798200  0.00442300  1
  O  O25  1  0.00002200  0.31798500  0.50443100  1
  O  O26  1  0.49995300  0.11486000  0.15640900  1
  O  O27  1  0.99995300  0.11486800  0.65641000  1
  O  O28  1  0.99996200  0.31139100  0.00128100  1
  O  O29  1  0.49996100  0.31139000  0.50128100  1
  O  O30  1  0.50012200  0.80401400  0.49758100  1
  O  O31  1  0.00011900  0.80402200  0.99756200  1
  O  O32  1  0.00009600  0.11954200  0.14977700  1
  O  O33  1  0.50009500  0.11954800  0.64977400  1
  O  O34  1  0.49994600  0.57855600  0.33125300  1
  O  O35  1  0.99994500  0.57856500  0.83125700  1
  O  O36  1  0.99996500  0.61533500  0.33717400  1
  O  O37  1  0.49996500  0.61534300  0.83713400  1
  O  O38  1  0.00002600  0.85773300  0.48840100  1
  O  O39  1  0.50002400  0.85772500  0.98840000  1
  O  O40  1  0.76898300  0.60760900  0.07616200  1
  O  O41  1  0.26900300  0.60759600  0.57619700  1
  O  O42  1  0.23115700  0.60746600  0.07626500  1
  O  O43  1  0.73114500  0.60745600  0.57629500  1
  O  O44  1  0.73641700  0.34366100  0.22584500  1
  O  O45  1  0.23641900  0.34367400  0.72584500  1
  O  O46  1  0.26374200  0.34384100  0.22579200  1
  O  O47  1  0.76374300  0.34385600  0.72579200  1
  O  O48  1  0.23126200  0.81609000  0.25516900  1
  O  O49  1  0.73127800  0.81610600  0.75514300  1
  O  O50  1  0.76866000  0.81604900  0.25516500  1
  O  O51  1  0.26864500  0.81606000  0.75514400  1
  O  O52  1  0.25161000  0.09075000  0.43216600  1
  O  O53  1  0.75161600  0.09074300  0.93217300  1
  O  O54  1  0.74838700  0.09078200  0.43218400  1
  O  O55  1  0.24838400  0.09077500  0.93219300  1
