# generated using pymatgen
data_Li3Mn4(BO3)4
_symmetry_space_group_name_H-M   'P 1'
_cell_length_a   5.29615800
_cell_length_b   9.04933439
_cell_length_c   10.87957717
_cell_angle_alpha   100.18448352
_cell_angle_beta   100.91701517
_cell_angle_gamma   89.39505911
_symmetry_Int_Tables_number   1
_chemical_formula_structural   Li3Mn4(BO3)4
_chemical_formula_sum   'Li6 Mn8 B8 O24'
_cell_volume   503.77691189
_cell_formula_units_Z   2
loop_
 _symmetry_equiv_pos_site_id
 _symmetry_equiv_pos_as_xyz
  1  'x, y, z'
loop_
 _atom_site_type_symbol
 _atom_site_label
 _atom_site_symmetry_multiplicity
 _atom_site_fract_x
 _atom_site_fract_y
 _atom_site_fract_z
 _atom_site_occupancy
  Li  Li0  1  0.50459500  0.10804400  0.15862300  1
  Li  Li1  1  0.75126000  0.63294900  0.32715800  1
  Li  Li2  1  0.23826700  0.13961800  0.34098400  1
  Li  Li3  1  0.24880700  0.35911600  0.65459400  1
  Li  Li4  1  0.98977100  0.39478300  0.84058600  1
  Li  Li5  1  0.50296500  0.88158000  0.82960200  1
  Mn  Mn6  1  0.97474500  0.26922200  0.11944100  1
  Mn  Mn7  1  0.47997300  0.75529900  0.12174900  1
  Mn  Mn8  1  0.76523900  0.98398600  0.38126600  1
  Mn  Mn9  1  0.27100200  0.49421500  0.37448700  1
  Mn  Mn10  1  0.72342400  0.52334900  0.62247000  1
  Mn  Mn11  1  0.23260200  0.00513700  0.62005000  1
  Mn  Mn12  1  0.51624800  0.23300700  0.87360800  1
  Mn  Mn13  1  0.02713600  0.74941400  0.87703800  1
  B  B14  1  0.98340700  0.93638400  0.12238900  1
  B  B15  1  0.49437600  0.42354600  0.13641600  1
  B  B16  1  0.75600600  0.31996000  0.37071900  1
  B  B17  1  0.26274400  0.81664700  0.37093900  1
  B  B18  1  0.73975100  0.18732000  0.62880000  1
  B  B19  1  0.24029500  0.67656000  0.63333900  1
  B  B20  1  0.50738400  0.56900700  0.86971000  1
  B  B21  1  0.01463700  0.06861600  0.87182500  1
  O  O22  1  0.56925100  0.28194900  0.08187300  1
  O  O23  1  0.63796300  0.54929500  0.14449300  1
  O  O24  1  0.14117700  0.06315400  0.15084900  1
  O  O25  1  0.00194500  0.31387900  0.34221100  1
  O  O26  1  0.74729700  0.93767600  0.15989400  1
  O  O27  1  0.26902400  0.42728200  0.18880300  1
  O  O28  1  0.07686300  0.80049600  0.06247800  1
  O  O29  1  0.60051900  0.19427800  0.35021200  1
  O  O30  1  0.66349600  0.46346800  0.41400100  1
  O  O31  1  0.49747400  0.80100900  0.33082200  1
  O  O32  1  0.83948700  0.05320700  0.58032300  1
  O  O33  1  0.10813700  0.69282500  0.36810600  1
  O  O34  1  0.88727700  0.31923600  0.65162200  1
  O  O35  1  0.17612400  0.95931000  0.41197200  1
  O  O36  1  0.49377400  0.19179000  0.65985200  1
  O  O37  1  0.30750900  0.53388000  0.56823300  1
  O  O38  1  0.39392600  0.79882600  0.64679900  1
  O  O39  1  0.92945600  0.21346800  0.91299000  1
  O  O40  1  0.75187600  0.56757400  0.84063900  1
  O  O41  1  0.25246800  0.05026200  0.83599200  1
  O  O42  1  0.02579600  0.67692900  0.69096400  1
  O  O43  1  0.85664200  0.94609600  0.86810800  1
  O  O44  1  0.35456200  0.44191400  0.84859400  1
  O  O45  1  0.40979100  0.70995900  0.91289600  1
