# generated using pymatgen
data_LiTiMnO4
_symmetry_space_group_name_H-M   'P 1'
_cell_length_a   6.30650300
_cell_length_b   6.30642000
_cell_length_c   7.23323100
_cell_angle_alpha   89.99967012
_cell_angle_beta   90.00027886
_cell_angle_gamma   89.99994549
_symmetry_Int_Tables_number   1
_chemical_formula_structural   LiTiMnO4
_chemical_formula_sum   'Li4 Ti4 Mn4 O16'
_cell_volume   287.67613315
_cell_formula_units_Z   4
loop_
 _symmetry_equiv_pos_site_id
 _symmetry_equiv_pos_as_xyz
  1  'x, y, z'
loop_
 _atom_site_type_symbol
 _atom_site_label
 _atom_site_symmetry_multiplicity
 _atom_site_fract_x
 _atom_site_fract_y
 _atom_site_fract_z
 _atom_site_occupancy
  Li  Li0  1  0.99999200  0.22055500  0.00000300  1
  Li  Li1  1  0.99999800  0.77944500  0.49999600  1
  Li  Li2  1  0.22053300  0.00000400  0.24999800  1
  Li  Li3  1  0.77945100  0.99999600  0.75000100  1
  Ti  Ti4  1  0.21643700  0.49998800  0.24999700  1
  Ti  Ti5  1  0.50001700  0.21640200  0.00001100  1
  Ti  Ti6  1  0.49997900  0.78359300  0.49999600  1
  Ti  Ti7  1  0.78354900  0.50001600  0.74999700  1
  Mn  Mn8  1  0.25829600  0.25832200  0.62508500  1
  Mn  Mn9  1  0.25830200  0.74169700  0.87496100  1
  Mn  Mn10  1  0.74170800  0.25828500  0.37500700  1
  Mn  Mn11  1  0.74170500  0.74168200  0.12505100  1
  O  O12  1  0.03336500  0.26989600  0.28785600  1
  O  O13  1  0.03337300  0.73010300  0.21212900  1
  O  O14  1  0.26987700  0.03337500  0.96210200  1
  O  O15  1  0.26987900  0.96664700  0.53788600  1
  O  O16  1  0.26562900  0.45881600  0.98394900  1
  O  O17  1  0.26563300  0.54118300  0.51603800  1
  O  O18  1  0.45882000  0.26563000  0.26602000  1
  O  O19  1  0.45880100  0.73437700  0.23397100  1
  O  O20  1  0.54120600  0.26563100  0.73397600  1
  O  O21  1  0.54119500  0.73437300  0.76601600  1
  O  O22  1  0.73437200  0.54118600  0.48395100  1
  O  O23  1  0.73436700  0.45881800  0.01603600  1
  O  O24  1  0.73012700  0.03335800  0.03787700  1
  O  O25  1  0.73013600  0.96661700  0.46210900  1
  O  O26  1  0.96662000  0.26989600  0.71211700  1
  O  O27  1  0.96663400  0.73010800  0.78786400  1
