# generated using pymatgen
data_Li4Fe2O5
_symmetry_space_group_name_H-M   'P 1'
_cell_length_a   5.59099900
_cell_length_b   7.76355100
_cell_length_c   12.09723762
_cell_angle_alpha   64.89144951
_cell_angle_beta   90.00000000
_cell_angle_gamma   90.00000000
_symmetry_Int_Tables_number   1
_chemical_formula_structural   Li4Fe2O5
_chemical_formula_sum   'Li16 Fe8 O20'
_cell_volume   475.47438007
_cell_formula_units_Z   4
loop_
 _symmetry_equiv_pos_site_id
 _symmetry_equiv_pos_as_xyz
  1  'x, y, z'
loop_
 _atom_site_type_symbol
 _atom_site_label
 _atom_site_symmetry_multiplicity
 _atom_site_fract_x
 _atom_site_fract_y
 _atom_site_fract_z
 _atom_site_occupancy
  Li  Li0  1  0.93683100  0.16990300  0.98710900  1
  Li  Li1  1  0.54918900  0.69943400  0.97993200  1
  Li  Li2  1  0.10681400  0.57640900  0.89727700  1
  Li  Li3  1  0.43272000  0.14266500  0.88495400  1
  Li  Li4  1  0.60681400  0.42359100  0.60272300  1
  Li  Li5  1  0.93272000  0.85733500  0.61504600  1
  Li  Li6  1  0.43683100  0.83009700  0.51289100  1
  Li  Li7  1  0.95081100  0.69943400  0.47993200  1
  Li  Li8  1  0.04918900  0.30056600  0.52006800  1
  Li  Li9  1  0.56316900  0.16990300  0.48710900  1
  Li  Li10  1  0.06728000  0.14266500  0.38495400  1
  Li  Li11  1  0.39318600  0.57640900  0.39727700  1
  Li  Li12  1  0.56728000  0.85733500  0.11504600  1
  Li  Li13  1  0.89318600  0.42359100  0.10272300  1
  Li  Li14  1  0.45081100  0.30056600  0.02006800  1
  Li  Li15  1  0.06316900  0.83009700  0.01289100  1
  Fe  Fe16  1  0.62863500  0.55959700  0.80112400  1
  Fe  Fe17  1  0.12863500  0.44040300  0.69887600  1
  Fe  Fe18  1  0.78304000  0.00428300  0.79457100  1
  Fe  Fe19  1  0.28304000  0.99571700  0.70542900  1
  Fe  Fe20  1  0.71696000  0.00428300  0.29457100  1
  Fe  Fe21  1  0.21696000  0.99571700  0.20542900  1
  Fe  Fe22  1  0.87136500  0.55959700  0.30112400  1
  Fe  Fe23  1  0.37136500  0.44040300  0.19887600  1
  O  O24  1  0.77995800  0.41867900  0.95010800  1
  O  O25  1  0.32111200  0.41974300  0.83761800  1
  O  O26  1  0.74793800  0.97313300  0.95860800  1
  O  O27  1  0.01962000  0.82615600  0.78545700  1
  O  O28  1  0.53314100  0.79844800  0.79925100  1
  O  O29  1  0.82111200  0.58025700  0.66238200  1
  O  O30  1  0.03314100  0.20155200  0.70074900  1
  O  O31  1  0.51962000  0.17384400  0.71454300  1
  O  O32  1  0.27995800  0.58132100  0.54989200  1
  O  O33  1  0.24793800  0.02686700  0.54139200  1
  O  O34  1  0.75206200  0.97313300  0.45860800  1
  O  O35  1  0.72004200  0.41867900  0.45010800  1
  O  O36  1  0.48038000  0.82615600  0.28545700  1
  O  O37  1  0.96685900  0.79844800  0.29925100  1
  O  O38  1  0.17888800  0.41974300  0.33761800  1
  O  O39  1  0.46685900  0.20155200  0.20074900  1
  O  O40  1  0.98038000  0.17384400  0.21454300  1
  O  O41  1  0.25206200  0.02686700  0.04139200  1
  O  O42  1  0.67888800  0.58025700  0.16238200  1
  O  O43  1  0.22004200  0.58132100  0.04989200  1
