# generated using pymatgen
data_Li2V(OF)2
_symmetry_space_group_name_H-M   'P 1'
_cell_length_a   6.31989080
_cell_length_b   7.67517121
_cell_length_c   7.67427508
_cell_angle_alpha   60.57476467
_cell_angle_beta   69.59738985
_cell_angle_gamma   69.59900162
_symmetry_Int_Tables_number   1
_chemical_formula_structural   Li2V(OF)2
_chemical_formula_sum   'Li8 V4 O8 F8'
_cell_volume   296.63372396
_cell_formula_units_Z   4
loop_
 _symmetry_equiv_pos_site_id
 _symmetry_equiv_pos_as_xyz
  1  'x, y, z'
loop_
 _atom_site_type_symbol
 _atom_site_label
 _atom_site_symmetry_multiplicity
 _atom_site_fract_x
 _atom_site_fract_y
 _atom_site_fract_z
 _atom_site_occupancy
  Li  Li0  1  0.78337600  0.50595400  0.26457000  1
  Li  Li1  1  0.78330100  0.00600100  0.76458500  1
  Li  Li2  1  0.21649200  0.48566900  0.74393000  1
  Li  Li3  1  0.21657400  0.98560200  0.24392500  1
  Li  Li4  1  0.59236900  0.67465100  0.93310800  1
  Li  Li5  1  0.59244300  0.17462000  0.43309800  1
  Li  Li6  1  0.40757100  0.31696200  0.07525400  1
  Li  Li7  1  0.40749400  0.81700200  0.57526600  1
  V  V8  1  0.20598700  0.06147800  0.81976200  1
  V  V9  1  0.79411400  0.93025000  0.18846200  1
  V  V10  1  0.20602500  0.56156000  0.31969700  1
  V  V11  1  0.79411900  0.43015700  0.68848000  1
  O  O12  1  0.14580000  0.84033000  0.09848300  1
  O  O13  1  0.14578100  0.34039900  0.59848100  1
  O  O14  1  0.85432200  0.15135100  0.90979200  1
  O  O15  1  0.85435300  0.65129300  0.40977500  1
  O  O16  1  0.49203800  0.46484400  0.22350000  1
  O  O17  1  0.49196000  0.96475200  0.72351900  1
  O  O18  1  0.50806900  0.52668000  0.78488200  1
  O  O19  1  0.50811400  0.02680800  0.28486200  1
  F  F20  1  0.72430000  0.79510900  0.05376200  1
  F  F21  1  0.72422100  0.29520000  0.55369900  1
  F  F22  1  0.27557300  0.19655300  0.95462900  1
  F  F23  1  0.27566300  0.69644900  0.45469500  1
  F  F24  1  0.88858700  0.55731100  0.81546700  1
  F  F25  1  0.88867600  0.05719800  0.31547800  1
  F  F26  1  0.11138600  0.43499900  0.19226900  1
  F  F27  1  0.11127700  0.93511700  0.69227600  1
