# generated using pymatgen
data_Li6V3P8O29
_symmetry_space_group_name_H-M   'P 1'
_cell_length_a   9.79847500
_cell_length_b   9.79930219
_cell_length_c   13.92572899
_cell_angle_alpha   89.73533745
_cell_angle_beta   89.70808739
_cell_angle_gamma   60.18627411
_symmetry_Int_Tables_number   1
_chemical_formula_structural   Li6V3P8O29
_chemical_formula_sum   'Li12 V6 P16 O58'
_cell_volume   1160.13209612
_cell_formula_units_Z   2
loop_
 _symmetry_equiv_pos_site_id
 _symmetry_equiv_pos_as_xyz
  1  'x, y, z'
loop_
 _atom_site_type_symbol
 _atom_site_label
 _atom_site_symmetry_multiplicity
 _atom_site_fract_x
 _atom_site_fract_y
 _atom_site_fract_z
 _atom_site_occupancy
  Li  Li0  1  0.08788600  0.69158300  0.94384400  1
  Li  Li1  1  0.09803200  0.23409600  0.43874000  1
  Li  Li2  1  0.33413700  0.33828600  0.11500100  1
  Li  Li3  1  0.22355900  0.07982500  0.93930500  1
  Li  Li4  1  0.69048900  0.22453300  0.94028400  1
  Li  Li5  1  0.33608200  0.89608400  0.55753000  1
  Li  Li6  1  0.66692300  0.09497100  0.43891200  1
  Li  Li7  1  0.77640400  0.90669100  0.05993400  1
  Li  Li8  1  0.90392500  0.76053000  0.55997700  1
  Li  Li9  1  0.76507200  0.33032500  0.55840700  1
  Li  Li10  1  0.91184800  0.31651100  0.05955300  1
  Li  Li11  1  0.03334700  0.95286600  0.49128100  1
  V  V12  1  0.43272800  0.99828100  0.74974900  1
  V  V13  1  0.56129800  0.00177900  0.24904000  1
  V  V14  1  0.43191100  0.56694100  0.25157400  1
  V  V15  1  0.56041600  0.44023200  0.74892400  1
  V  V16  1  0.00025400  0.56774600  0.75085200  1
  V  V17  1  0.99758700  0.43904000  0.25286100  1
  P  P18  1  0.09208300  0.68208500  0.15996300  1
  P  P19  1  0.22324900  0.69439500  0.65739200  1
  P  P20  1  0.08816500  0.22835900  0.65713700  1
  P  P21  1  0.33331900  0.33349600  0.87195300  1
  P  P22  1  0.33410500  0.33127000  0.37093100  1
  P  P23  1  0.22640100  0.09452200  0.15582800  1
  P  P24  1  0.31070900  0.91380700  0.34001200  1
  P  P25  1  0.68105200  0.23032700  0.15696800  1
  P  P26  1  0.31511100  0.77006300  0.84422600  1
  P  P27  1  0.68552600  0.08686900  0.65733800  1
  P  P28  1  0.76714200  0.91143300  0.84194400  1
  P  P29  1  0.66639200  0.66709300  0.62787500  1
  P  P30  1  0.66805400  0.66602400  0.13012800  1
  P  P31  1  0.91052000  0.77691900  0.34409400  1
  P  P32  1  0.77080500  0.31284200  0.34387700  1
  P  P33  1  0.91183000  0.31877800  0.84135400  1
  O  O34  1  0.98892400  0.78631400  0.43449100  1
  O  O35  1  0.08151600  0.66366100  0.66125400  1
  O  O36  1  0.23208200  0.76254200  0.93153600  1
  O  O37  1  0.25647700  0.66205700  0.15834500  1
  O  O38  1  0.11203700  0.51479800  0.17631400  1
  O  O39  1  0.18546900  0.48747300  0.83489500  1
  O  O40  1  0.09284500  0.38080700  0.67029800  1
  O  O41  1  0.00385400  0.24477900  0.93136000  1
  O  O42  1  0.07624800  0.25822400  0.15789600  1
  O  O43  1  0.33095400  0.47876300  0.32531300  1
  O  O44  1  0.37889200  0.53776600  0.66568700  1
  O  O45  1  0.18479500  0.32641200  0.33129300  1
  O  O46  1  0.33901500  0.33118000  0.97991400  1
  O  O47  1  0.33865500  0.32062900  0.47745900  1
  O  O48  1  0.32788700  0.18719100  0.83242800  1
  O  O49  1  0.51409600  0.37208800  0.17257600  1
  O  O50  1  0.48463200  0.33184400  0.82967200  1
  O  O51  1  0.25555700  0.08216300  0.65822600  1
  O  O52  1  0.20652800  0.00475700  0.24749900  1
  O  O53  1  0.21924600  0.00080000  0.42950000  1
  O  O54  1  0.24553300  0.00575600  0.06588400  1
  O  O55  1  0.36923800  0.12067800  0.17565400  1
  O  O56  1  0.48792200  0.18505300  0.32793500  1
  O  O57  1  0.33464700  0.91846600  0.84046500  1
  O  O58  1  0.52842400  0.09030700  0.67170000  1
  O  O59  1  0.66437400  0.25311800  0.65748800  1
  O  O60  1  0.20449300  0.79526300  0.75190800  1
  O  O61  1  0.20789800  0.79622600  0.57265000  1
  O  O62  1  0.77408400  0.21834500  0.43143300  1
  O  O63  1  0.33565200  0.74784300  0.33732500  1
  O  O64  1  0.46722700  0.91482900  0.33109000  1
  O  O65  1  0.66854200  0.07953400  0.15402100  1
  O  O66  1  0.50917200  0.81051700  0.66688000  1
  O  O67  1  0.62012000  0.89743500  0.82309600  1
  O  O68  1  0.75350400  0.00271400  0.93172700  1
  O  O69  1  0.77499900  0.99613500  0.56900800  1
  O  O70  1  0.79150000  0.00041100  0.75125400  1
  O  O71  1  0.74379100  0.92122700  0.33814200  1
  O  O72  1  0.52821800  0.65640200  0.17686300  1
  O  O73  1  0.47702100  0.62312200  0.82499700  1
  O  O74  1  0.66436200  0.81904600  0.17038100  1
  O  O75  1  0.67853500  0.66019200  0.02394300  1
  O  O76  1  0.66748500  0.66127500  0.52062300  1
  O  O77  1  0.80986400  0.67869200  0.66794000  1
  O  O78  1  0.61704600  0.46881800  0.33391900  1
  O  O79  1  0.67575400  0.51157400  0.67090100  1
  O  O80  1  0.91711300  0.74729500  0.84336300  1
  O  O81  1  0.00205200  0.79127200  0.25115800  1
  O  O82  1  0.99528600  0.75648000  0.07153300  1
  O  O83  1  0.90779400  0.62183700  0.33367800  1
  O  O84  1  0.82024800  0.51951400  0.17475700  1
  O  O85  1  0.90125800  0.47948200  0.82101000  1
  O  O86  1  0.74783500  0.33554600  0.84248400  1
  O  O87  1  0.75894300  0.24856400  0.06802300  1
  O  O88  1  0.78957700  0.20999800  0.24838000  1
  O  O89  1  0.91654600  0.33358300  0.34431100  1
  O  O90  1  0.00074200  0.22552800  0.56854700  1
  O  O91  1  0.00225300  0.20665200  0.75094000  1
