# generated using pymatgen
data_Li8Fe2O7
_symmetry_space_group_name_H-M   'P 1'
_cell_length_a   10.01925800
_cell_length_b   7.84505100
_cell_length_c   9.32621553
_cell_angle_alpha   71.99826939
_cell_angle_beta   90.00000000
_cell_angle_gamma   90.00000000
_symmetry_Int_Tables_number   1
_chemical_formula_structural   Li8Fe2O7
_chemical_formula_sum   'Li32 Fe8 O28'
_cell_volume   697.17024331
_cell_formula_units_Z   4
loop_
 _symmetry_equiv_pos_site_id
 _symmetry_equiv_pos_as_xyz
  1  'x, y, z'
loop_
 _atom_site_type_symbol
 _atom_site_label
 _atom_site_symmetry_multiplicity
 _atom_site_fract_x
 _atom_site_fract_y
 _atom_site_fract_z
 _atom_site_occupancy
  Li  Li0  1  0.52203700  0.86951800  0.93488100  1
  Li  Li1  1  0.53364300  0.91742700  0.63851000  1
  Li  Li2  1  0.26300600  0.89496200  0.53408500  1
  Li  Li3  1  0.97796300  0.86951800  0.43488100  1
  Li  Li4  1  0.04998900  0.74967800  0.70212200  1
  Li  Li5  1  0.96635700  0.91742700  0.13851000  1
  Li  Li6  1  0.74081300  0.71895200  0.56737300  1
  Li  Li7  1  0.23699400  0.89496200  0.03408500  1
  Li  Li8  1  0.52852900  0.56104000  0.84762200  1
  Li  Li9  1  0.49503900  0.65621200  0.52141400  1
  Li  Li10  1  0.45001100  0.74967800  0.20212200  1
  Li  Li11  1  0.76778300  0.49587000  0.87925100  1
  Li  Li12  1  0.75918700  0.71895200  0.06737300  1
  Li  Li13  1  0.26778300  0.50413000  0.62074900  1
  Li  Li14  1  0.97147100  0.56104000  0.34762200  1
  Li  Li15  1  0.99503900  0.34378800  0.97858600  1
  Li  Li16  1  0.00496100  0.65621200  0.02141400  1
  Li  Li17  1  0.02852900  0.43896000  0.65237800  1
  Li  Li18  1  0.73221700  0.49587000  0.37925100  1
  Li  Li19  1  0.24081300  0.28104800  0.93262700  1
  Li  Li20  1  0.23221700  0.50413000  0.12074900  1
  Li  Li21  1  0.54998900  0.25032200  0.79787800  1
  Li  Li22  1  0.50496100  0.34378800  0.47858600  1
  Li  Li23  1  0.47147100  0.43896000  0.15237800  1
  Li  Li24  1  0.76300600  0.10503800  0.96591500  1
  Li  Li25  1  0.25918700  0.28104800  0.43262700  1
  Li  Li26  1  0.03364300  0.08257300  0.86149000  1
  Li  Li27  1  0.95001100  0.25032200  0.29787800  1
  Li  Li28  1  0.02203700  0.13048200  0.56511900  1
  Li  Li29  1  0.73699400  0.10503800  0.46591500  1
  Li  Li30  1  0.46635700  0.08257300  0.36149000  1
  Li  Li31  1  0.47796300  0.13048200  0.06511900  1
  Fe  Fe32  1  0.79491500  0.89975600  0.77780100  1
  Fe  Fe33  1  0.70508500  0.89975600  0.27780100  1
  Fe  Fe34  1  0.28067000  0.68165500  0.85175000  1
  Fe  Fe35  1  0.21933000  0.68165500  0.35175000  1
  Fe  Fe36  1  0.78067000  0.31834500  0.64825000  1
  Fe  Fe37  1  0.71933000  0.31834500  0.14825000  1
  Fe  Fe38  1  0.29491500  0.10024400  0.72219900  1
  Fe  Fe39  1  0.20508500  0.10024400  0.22219900  1
  O  O40  1  0.89082800  0.89989600  0.95227100  1
  O  O41  1  0.17290300  0.89711300  0.78140500  1
  O  O42  1  0.89217800  0.89170800  0.60948100  1
  O  O43  1  0.60917200  0.89989600  0.45227100  1
  O  O44  1  0.66440400  0.72333100  0.82989400  1
  O  O45  1  0.32709700  0.89711300  0.28140500  1
  O  O46  1  0.60782200  0.89170800  0.10948100  1
  O  O47  1  0.38807500  0.66451700  0.69262000  1
  O  O48  1  0.83559600  0.72333100  0.32989400  1
  O  O49  1  0.13966300  0.51709300  0.91434400  1
  O  O50  1  0.11313600  0.67444500  0.52401800  1
  O  O51  1  0.11192500  0.66451700  0.19262000  1
  O  O52  1  0.36033700  0.51709300  0.41434400  1
  O  O53  1  0.61313600  0.32555500  0.97598200  1
  O  O54  1  0.38686400  0.67444500  0.02401800  1
  O  O55  1  0.63966300  0.48290700  0.58565600  1
  O  O56  1  0.88807500  0.33548300  0.80738000  1
  O  O57  1  0.88686400  0.32555500  0.47598200  1
  O  O58  1  0.86033700  0.48290700  0.08565600  1
  O  O59  1  0.16440400  0.27666900  0.67010600  1
  O  O60  1  0.61192500  0.33548300  0.30738000  1
  O  O61  1  0.39217800  0.10829200  0.89051900  1
  O  O62  1  0.67290300  0.10288700  0.71859500  1
  O  O63  1  0.33559600  0.27666900  0.17010600  1
  O  O64  1  0.39082800  0.10010400  0.54772900  1
  O  O65  1  0.10782200  0.10829200  0.39051900  1
  O  O66  1  0.82709700  0.10288700  0.21859500  1
  O  O67  1  0.10917200  0.10010400  0.04772900  1
