# generated using pymatgen
data_LiP3W2O13
_symmetry_space_group_name_H-M   'P 1'
_cell_length_a   19.29378400
_cell_length_b   6.50937500
_cell_length_c   9.59885247
_cell_angle_alpha   73.24653700
_cell_angle_beta   90.00000000
_cell_angle_gamma   90.00000000
_symmetry_Int_Tables_number   1
_chemical_formula_structural   LiP3W2O13
_chemical_formula_sum   'Li4 P12 W8 O52'
_cell_volume   1154.35468020
_cell_formula_units_Z   4
loop_
 _symmetry_equiv_pos_site_id
 _symmetry_equiv_pos_as_xyz
  1  'x, y, z'
loop_
 _atom_site_type_symbol
 _atom_site_label
 _atom_site_symmetry_multiplicity
 _atom_site_fract_x
 _atom_site_fract_y
 _atom_site_fract_z
 _atom_site_occupancy
  Li  Li0  1  0.72392900  0.41499500  0.38027000  1
  Li  Li1  1  0.77607100  0.91499500  0.38027000  1
  Li  Li2  1  0.22392900  0.08500500  0.61973000  1
  Li  Li3  1  0.27607100  0.58500500  0.61973000  1
  P  P4  1  0.32612000  0.34389200  0.02418200  1
  P  P5  1  0.17388000  0.84389200  0.02418200  1
  P  P6  1  0.09478400  0.23196400  0.29699600  1
  P  P7  1  0.97008200  0.48892600  0.29912500  1
  P  P8  1  0.40521600  0.73196400  0.29699600  1
  P  P9  1  0.52991800  0.98892600  0.29912500  1
  P  P10  1  0.47008200  0.01107400  0.70087500  1
  P  P11  1  0.59478400  0.26803600  0.70300400  1
  P  P12  1  0.02991800  0.51107400  0.70087500  1
  P  P13  1  0.90521600  0.76803600  0.70300400  1
  P  P14  1  0.82612000  0.15610800  0.97581800  1
  P  P15  1  0.67388000  0.65610800  0.97581800  1
  W  W16  1  0.66153100  0.11824700  0.06920900  1
  W  W17  1  0.83846900  0.61824700  0.06920900  1
  W  W18  1  0.37359500  0.18663200  0.38611400  1
  W  W19  1  0.12640500  0.68663200  0.38611400  1
  W  W20  1  0.87359500  0.31336800  0.61388600  1
  W  W21  1  0.62640500  0.81336800  0.61388600  1
  W  W22  1  0.16153100  0.38175300  0.93079100  1
  W  W23  1  0.33846900  0.88175300  0.93079100  1
  O  O24  1  0.84824200  0.30920500  0.06400900  1
  O  O25  1  0.24812800  0.32747200  0.06152700  1
  O  O26  1  0.65294800  0.43066300  0.07130600  1
  O  O27  1  0.56124500  0.08479000  0.14792100  1
  O  O28  1  0.11535400  0.28590200  0.13793100  1
  O  O29  1  0.65175800  0.80920500  0.06400900  1
  O  O30  1  0.71330900  0.05292500  0.22993700  1
  O  O31  1  0.36589100  0.28940800  0.16886300  1
  O  O32  1  0.25187200  0.82747200  0.06152700  1
  O  O33  1  0.84705200  0.93066300  0.07130600  1
  O  O34  1  0.93875500  0.58479000  0.14792100  1
  O  O35  1  0.38464600  0.78590200  0.13793100  1
  O  O36  1  0.78669100  0.55292500  0.22993700  1
  O  O37  1  0.13410900  0.78940800  0.16886300  1
  O  O38  1  0.01269200  0.27510000  0.29884200  1
  O  O39  1  0.48006100  0.14324600  0.33980800  1
  O  O40  1  0.13091900  0.36740000  0.38324200  1
  O  O41  1  0.48730800  0.77510000  0.29884200  1
  O  O42  1  0.01993900  0.64324600  0.33980800  1
  O  O43  1  0.28703900  0.17688200  0.45100900  1
  O  O44  1  0.39631100  0.49589000  0.38395900  1
  O  O45  1  0.91099600  0.40786900  0.40614700  1
  O  O46  1  0.36908100  0.86740000  0.38324200  1
  O  O47  1  0.21296100  0.67688200  0.45100900  1
  O  O48  1  0.10368900  0.99589000  0.38395900  1
  O  O49  1  0.58900400  0.90786900  0.40614700  1
  O  O50  1  0.41099600  0.09213100  0.59385300  1
  O  O51  1  0.89631100  0.00411000  0.61604100  1
  O  O52  1  0.78703900  0.32311800  0.54899100  1
  O  O53  1  0.63091900  0.13260000  0.61675800  1
  O  O54  1  0.08900400  0.59213100  0.59385300  1
  O  O55  1  0.60368900  0.50411000  0.61604100  1
  O  O56  1  0.71296100  0.82311800  0.54899100  1
  O  O57  1  0.98006100  0.35675400  0.66019200  1
  O  O58  1  0.51269200  0.22490000  0.70115800  1
  O  O59  1  0.86908100  0.63260000  0.61675800  1
  O  O60  1  0.51993900  0.85675400  0.66019200  1
  O  O61  1  0.98730800  0.72490000  0.70115800  1
  O  O62  1  0.86589100  0.21059200  0.83113700  1
  O  O63  1  0.21330900  0.44707500  0.77006300  1
  O  O64  1  0.61535400  0.21409800  0.86206900  1
  O  O65  1  0.06124500  0.41521000  0.85207900  1
  O  O66  1  0.15294800  0.06933700  0.92869400  1
  O  O67  1  0.74812800  0.17252800  0.93847300  1
  O  O68  1  0.63410900  0.71059200  0.83113700  1
  O  O69  1  0.28669100  0.94707500  0.77006300  1
  O  O70  1  0.34824200  0.19079500  0.93599100  1
  O  O71  1  0.88464600  0.71409800  0.86206900  1
  O  O72  1  0.43875500  0.91521000  0.85207900  1
  O  O73  1  0.34705200  0.56933700  0.92869400  1
  O  O74  1  0.75187200  0.67252800  0.93847300  1
  O  O75  1  0.15175800  0.69079500  0.93599100  1
