# generated using pymatgen
data_Li7Fe7SiO16
_symmetry_space_group_name_H-M   'P 1'
_cell_length_a   5.12764100
_cell_length_b   5.61312452
_cell_length_c   12.91143469
_cell_angle_alpha   89.89963609
_cell_angle_beta   89.83687361
_cell_angle_gamma   89.59747546
_symmetry_Int_Tables_number   1
_chemical_formula_structural   Li7Fe7SiO16
_chemical_formula_sum   'Li7 Fe7 Si1 O16'
_cell_volume   371.60680797
_cell_formula_units_Z   1
loop_
 _symmetry_equiv_pos_site_id
 _symmetry_equiv_pos_as_xyz
  1  'x, y, z'
loop_
 _atom_site_type_symbol
 _atom_site_label
 _atom_site_symmetry_multiplicity
 _atom_site_fract_x
 _atom_site_fract_y
 _atom_site_fract_z
 _atom_site_occupancy
  Li  Li0  1  0.00823400  0.07910300  0.43784700  1
  Li  Li1  1  0.50593400  0.42104800  0.68913600  1
  Li  Li2  1  0.50624600  0.42274600  0.18592500  1
  Li  Li3  1  0.00587700  0.57653600  0.30957700  1
  Li  Li4  1  0.99331400  0.55486100  0.81642400  1
  Li  Li5  1  0.50918800  0.91869700  0.56452300  1
  Li  Li6  1  0.51590700  0.92374900  0.05995500  1
  Fe  Fe7  1  0.99748300  0.09006000  0.69004400  1
  Fe  Fe8  1  0.00351600  0.09073000  0.18375600  1
  Fe  Fe9  1  0.50365900  0.41126500  0.43708400  1
  Fe  Fe10  1  0.00095700  0.58494600  0.56410300  1
  Fe  Fe11  1  0.98334800  0.57636900  0.05874400  1
  Fe  Fe12  1  0.52047400  0.90500200  0.81524800  1
  Fe  Fe13  1  0.50935500  0.91198800  0.31072800  1
  Si  Si14  1  0.99473700  0.08772200  0.93860400  1
  O  O15  1  0.68170300  0.04521200  0.93471900  1
  O  O16  1  0.61248900  0.08332500  0.43212200  1
  O  O17  1  0.63095000  0.08462500  0.69265000  1
  O  O18  1  0.63334400  0.08214000  0.19165100  1
  O  O19  1  0.12785500  0.42471800  0.44271000  1
  O  O20  1  0.07264000  0.36743600  0.94337600  1
  O  O21  1  0.11431500  0.40882600  0.68332700  1
  O  O22  1  0.11840600  0.40703100  0.18012600  1
  O  O23  1  0.61427800  0.58669800  0.31858100  1
  O  O24  1  0.62990400  0.60857600  0.79785700  1
  O  O25  1  0.62897200  0.57546800  0.55569900  1
  O  O26  1  0.64254300  0.61046200  0.07830400  1
  O  O27  1  0.12586000  0.96046100  0.83086100  1
  O  O28  1  0.13171300  0.92192400  0.30087500  1
  O  O29  1  0.11492500  0.91057300  0.57389200  1
  O  O30  1  0.11047700  0.93713000  0.04360400  1
