# generated using pymatgen
data_Li3V2F12
_symmetry_space_group_name_H-M   'P 1'
_cell_length_a   9.45089200
_cell_length_b   9.26475500
_cell_length_c   15.70046252
_cell_angle_alpha   54.31649451
_cell_angle_beta   90.00000000
_cell_angle_gamma   90.00000000
_symmetry_Int_Tables_number   1
_chemical_formula_structural   Li3V2F12
_chemical_formula_sum   'Li12 V8 F48'
_cell_volume   1116.63105010
_cell_formula_units_Z   4
loop_
 _symmetry_equiv_pos_site_id
 _symmetry_equiv_pos_as_xyz
  1  'x, y, z'
loop_
 _atom_site_type_symbol
 _atom_site_label
 _atom_site_symmetry_multiplicity
 _atom_site_fract_x
 _atom_site_fract_y
 _atom_site_fract_z
 _atom_site_occupancy
  Li  Li0  1  0.26341900  0.46528500  0.00857900  1
  Li  Li1  1  0.37421300  0.73593000  0.65269600  1
  Li  Li2  1  0.11466200  0.03544100  0.36584400  1
  Li  Li3  1  0.87421300  0.26407000  0.84730400  1
  Li  Li4  1  0.61466200  0.96455900  0.13415600  1
  Li  Li5  1  0.76341900  0.53471500  0.49142100  1
  Li  Li6  1  0.23658100  0.46528500  0.50857900  1
  Li  Li7  1  0.38533800  0.03544100  0.86584400  1
  Li  Li8  1  0.12578700  0.73593000  0.15269600  1
  Li  Li9  1  0.88533800  0.96455900  0.63415600  1
  Li  Li10  1  0.62578700  0.26407000  0.34730400  1
  Li  Li11  1  0.73658100  0.53471500  0.99142100  1
  V  V12  1  0.53307500  0.37335500  0.88140800  1
  V  V13  1  0.03307500  0.62664500  0.61859200  1
  V  V14  1  0.46910100  0.86998400  0.38102500  1
  V  V15  1  0.96910100  0.13001600  0.11897500  1
  V  V16  1  0.03089900  0.86998400  0.88102500  1
  V  V17  1  0.53089900  0.13001600  0.61897500  1
  V  V18  1  0.96692500  0.37335500  0.38140800  1
  V  V19  1  0.46692500  0.62664500  0.11859200  1
  F  F20  1  0.66058400  0.52497100  0.88546000  1
  F  F21  1  0.90944500  0.78619700  0.61662300  1
  F  F22  1  0.86817500  0.32898300  0.07513300  1
  F  F23  1  0.57197000  0.06608100  0.33973700  1
  F  F24  1  0.38261100  0.45793400  0.92035400  1
  F  F25  1  0.18243500  0.71134800  0.65874000  1
  F  F26  1  0.43459500  0.83543600  0.50579100  1
  F  F27  1  0.00370800  0.09364600  0.24370400  1
  F  F28  1  0.30926000  0.00358100  0.32760500  1
  F  F29  1  0.12823500  0.26506200  0.06504800  1
  F  F30  1  0.49639400  0.55295100  0.74095900  1
  F  F31  1  0.07316800  0.80529100  0.47652600  1
  F  F32  1  0.57316800  0.19470900  0.02347400  1
  F  F33  1  0.99639400  0.44704900  0.75904100  1
  F  F34  1  0.62823500  0.73493800  0.43495200  1
  F  F35  1  0.80926000  0.99641900  0.17239500  1
  F  F36  1  0.50370800  0.90635400  0.25629600  1
  F  F37  1  0.93459500  0.16456400  0.99420900  1
  F  F38  1  0.68243500  0.28865200  0.84126000  1
  F  F39  1  0.88261100  0.54206600  0.57964600  1
  F  F40  1  0.40944500  0.21380300  0.88337700  1
  F  F41  1  0.16058400  0.47502900  0.61454000  1
  F  F42  1  0.07197000  0.93391900  0.16026300  1
  F  F43  1  0.36817500  0.67101700  0.42486700  1
  F  F44  1  0.63182500  0.32898300  0.57513300  1
  F  F45  1  0.92803000  0.06608100  0.83973700  1
  F  F46  1  0.83941600  0.52497100  0.38546000  1
  F  F47  1  0.59055500  0.78619700  0.11662300  1
  F  F48  1  0.11738900  0.45793400  0.42035400  1
  F  F49  1  0.31756500  0.71134800  0.15874000  1
  F  F50  1  0.06540500  0.83543600  0.00579100  1
  F  F51  1  0.49629200  0.09364600  0.74370400  1
  F  F52  1  0.19074000  0.00358100  0.82760500  1
  F  F53  1  0.37176500  0.26506200  0.56504800  1
  F  F54  1  0.00360600  0.55295100  0.24095900  1
  F  F55  1  0.42683200  0.80529100  0.97652600  1
  F  F56  1  0.92683200  0.19470900  0.52347400  1
  F  F57  1  0.50360600  0.44704900  0.25904100  1
  F  F58  1  0.87176500  0.73493800  0.93495200  1
  F  F59  1  0.69074000  0.99641900  0.67239500  1
  F  F60  1  0.99629200  0.90635400  0.75629600  1
  F  F61  1  0.56540500  0.16456400  0.49420900  1
  F  F62  1  0.81756500  0.28865200  0.34126000  1
  F  F63  1  0.61738900  0.54206600  0.07964600  1
  F  F64  1  0.42803000  0.93391900  0.66026300  1
  F  F65  1  0.13182500  0.67101700  0.92486700  1
  F  F66  1  0.09055500  0.21380300  0.38337700  1
  F  F67  1  0.33941600  0.47502900  0.11454000  1
