# generated using pymatgen
data_Li3Mn4(BO3)4
_symmetry_space_group_name_H-M   'P 1'
_cell_length_a   9.08460100
_cell_length_b   9.10942145
_cell_length_c   10.42094665
_cell_angle_alpha   88.17693017
_cell_angle_beta   88.41529021
_cell_angle_gamma   60.14299312
_symmetry_Int_Tables_number   1
_chemical_formula_structural   Li3Mn4(BO3)4
_chemical_formula_sum   'Li9 Mn12 B12 O36'
_cell_volume   747.47760622
_cell_formula_units_Z   3
loop_
 _symmetry_equiv_pos_site_id
 _symmetry_equiv_pos_as_xyz
  1  'x, y, z'
loop_
 _atom_site_type_symbol
 _atom_site_label
 _atom_site_symmetry_multiplicity
 _atom_site_fract_x
 _atom_site_fract_y
 _atom_site_fract_z
 _atom_site_occupancy
  Li  Li0  1  0.61398000  0.61133700  0.11035300  1
  Li  Li1  1  0.72310000  0.71439100  0.33240600  1
  Li  Li2  1  0.05978700  0.04548500  0.83085900  1
  Li  Li3  1  0.74597200  0.69606400  0.84937200  1
  Li  Li4  1  0.93363400  0.95494500  0.07823400  1
  Li  Li5  1  0.28311000  0.28355100  0.58133500  1
  Li  Li6  1  0.93658900  0.96571600  0.58187000  1
  Li  Li7  1  0.35934700  0.40494500  0.32881000  1
  Li  Li8  1  0.40080100  0.37818100  0.83049700  1
  Mn  Mn9  1  0.25913600  0.96629800  0.12001000  1
  Mn  Mn10  1  0.39927500  0.72313500  0.86820400  1
  Mn  Mn11  1  0.72367300  0.36056400  0.36996800  1
  Mn  Mn12  1  0.60997100  0.91577400  0.62293900  1
  Mn  Mn13  1  0.93560000  0.30539500  0.62087400  1
  Mn  Mn14  1  0.98135800  0.59413300  0.12168600  1
  Mn  Mn15  1  0.07331700  0.36737100  0.87710900  1
  Mn  Mn16  1  0.38296200  0.04207800  0.36744900  1
  Mn  Mn17  1  0.05325800  0.75263300  0.36804500  1
  Mn  Mn18  1  0.29747600  0.61309100  0.61296100  1
  Mn  Mn19  1  0.57988200  0.28378800  0.11099000  1
  Mn  Mn20  1  0.71641900  0.04563900  0.86477600  1
  B  B21  1  0.27053500  0.95181300  0.61819900  1
  B  B22  1  0.40066100  0.71078300  0.36628500  1
  B  B23  1  0.72543200  0.38665300  0.87869100  1
  B  B24  1  0.91950800  0.28527200  0.12799100  1
  B  B25  1  0.61665400  0.93525800  0.13458400  1
  B  B26  1  0.05310700  0.40036400  0.36869800  1
  B  B27  1  0.96921200  0.60754300  0.63380400  1
  B  B28  1  0.39290800  0.04843200  0.87324800  1
  B  B29  1  0.07014000  0.71625500  0.88133200  1
  B  B30  1  0.26709100  0.63079500  0.12473400  1
  B  B31  1  0.70644100  0.06119400  0.37845400  1
  B  B32  1  0.61565900  0.25721500  0.61590600  1
  O  O33  1  0.35956000  0.70682200  0.08481500  1
  O  O34  1  0.29734500  0.88464100  0.33767000  1
  O  O35  1  0.37320000  0.78627900  0.65941300  1
  O  O36  1  0.28626300  0.98347200  0.90900400  1
  O  O37  1  0.70790600  0.32726900  0.55600800  1
  O  O38  1  0.57257600  0.62776000  0.35932200  1
  O  O39  1  0.75199000  0.37231300  0.17914600  1
  O  O40  1  0.65468200  0.55544800  0.90591600  1
  O  O41  1  0.88986100  0.29538100  0.82695700  1
  O  O42  1  0.00083700  0.11556100  0.11537000  1
  O  O43  1  0.56080600  0.93541900  0.83579000  1
  O  O44  1  0.70784500  0.76218100  0.14224600  1
  O  O45  1  0.63253500  0.96009300  0.40702000  1
  O  O46  1  0.09863000  0.03916200  0.63764100  1
  O  O47  1  0.94430600  0.34568800  0.41473700  1
  O  O48  1  0.80064100  0.68233600  0.66482200  1
  O  O49  1  0.99451900  0.37932400  0.08394800  1
  O  O50  1  0.97957100  0.56540400  0.31215600  1
  O  O51  1  0.07068200  0.43383800  0.66365800  1
  O  O52  1  0.98949300  0.62483500  0.93057400  1
  O  O53  1  0.35583900  0.03434900  0.56001500  1
  O  O54  1  0.87548300  0.99942400  0.39226800  1
  O  O55  1  0.22510600  0.30568800  0.38409100  1
  O  O56  1  0.03974400  0.69963000  0.57641800  1
  O  O57  1  0.33268200  0.21834800  0.87396000  1
  O  O58  1  0.44556600  0.02718300  0.18131600  1
  O  O59  1  0.98109500  0.89002400  0.88489800  1
  O  O60  1  0.08881900  0.73506900  0.15050100  1
  O  O61  1  0.23480000  0.62403000  0.83445700  1
  O  O62  1  0.33283900  0.46129100  0.14335300  1
  O  O63  1  0.44412600  0.35305800  0.63648800  1
  O  O64  1  0.31367900  0.62416000  0.40275900  1
  O  O65  1  0.68833500  0.02708900  0.08049700  1
  O  O66  1  0.60166000  0.23157400  0.33872200  1
  O  O67  1  0.70503800  0.08855200  0.65717300  1
  O  O68  1  0.63283000  0.30349100  0.90621000  1
