# generated using pymatgen
data_Li3V3P8O29
_symmetry_space_group_name_H-M   'P 1'
_cell_length_a   9.74045600
_cell_length_b   9.76845699
_cell_length_c   14.26219904
_cell_angle_alpha   90.10989840
_cell_angle_beta   90.25264187
_cell_angle_gamma   119.73557351
_symmetry_Int_Tables_number   1
_chemical_formula_structural   Li3V3P8O29
_chemical_formula_sum   'Li6 V6 P16 O58'
_cell_volume   1178.32297126
_cell_formula_units_Z   2
loop_
 _symmetry_equiv_pos_site_id
 _symmetry_equiv_pos_as_xyz
  1  'x, y, z'
loop_
 _atom_site_type_symbol
 _atom_site_label
 _atom_site_symmetry_multiplicity
 _atom_site_fract_x
 _atom_site_fract_y
 _atom_site_fract_z
 _atom_site_occupancy
  Li  Li0  1  0.68430700  0.90979300  0.55384900  1
  Li  Li1  1  0.09689400  0.33043400  0.05635800  1
  Li  Li2  1  0.92002200  0.22129100  0.44162700  1
  Li  Li3  1  0.08402000  0.78368500  0.55126900  1
  Li  Li4  1  0.90333600  0.67221000  0.94750700  1
  Li  Li5  1  0.99777900  0.99926100  0.00730900  1
  V  V6  1  0.00223900  0.43637200  0.25027800  1
  V  V7  1  0.99993800  0.56454100  0.74905900  1
  V  V8  1  0.56203100  0.00151800  0.76063100  1
  V  V9  1  0.43434000  0.00007700  0.24243000  1
  V  V10  1  0.56017200  0.56437400  0.25225100  1
  V  V11  1  0.43670200  0.43296800  0.74695200  1
  P  P12  1  0.69306400  0.77284200  0.84063700  1
  P  P13  1  0.68272700  0.91354700  0.33865100  1
  P  P14  1  0.22791800  0.31105700  0.34703800  1
  P  P15  1  0.33080200  0.66305700  0.13166200  1
  P  P16  1  0.33577300  0.67097100  0.63394100  1
  P  P17  1  0.09168600  0.31471500  0.83867500  1
  P  P18  1  0.90468300  0.22472100  0.66057400  1
  P  P19  1  0.21664700  0.91549800  0.84450300  1
  P  P20  1  0.78228200  0.08527000  0.15672300  1
  P  P21  1  0.09411900  0.77603000  0.33787200  1
  P  P22  1  0.90647800  0.68463000  0.16138500  1
  P  P23  1  0.66702500  0.32998000  0.36591200  1
  P  P24  1  0.67012300  0.33952200  0.86786900  1
  P  P25  1  0.77147400  0.68675500  0.65590100  1
  P  P26  1  0.31366400  0.08419600  0.66064900  1
  P  P27  1  0.30401600  0.22440800  0.16113300  1
  O  O28  1  0.76380100  0.77020100  0.57118500  1
  O  O29  1  0.65621600  0.74419900  0.33380300  1
  O  O30  1  0.81121300  0.00929300  0.07517000  1
  O  O31  1  0.65239500  0.90827400  0.83387000  1
  O  O32  1  0.53839200  0.61369000  0.82904600  1
  O  O33  1  0.47842800  0.66669800  0.17856900  1
  O  O34  1  0.38058100  0.47142700  0.32512300  1
  O  O35  1  0.20083000  0.20833800  0.07935100  1
  O  O36  1  0.26213800  0.34583700  0.82780800  1
  O  O37  1  0.48065500  0.81990700  0.67782100  1
  O  O38  1  0.52358500  0.90656200  0.31834500  1
  O  O39  1  0.34101700  0.52658600  0.67851100  1
  O  O40  1  0.32201700  0.65020500  0.02785100  1
  O  O41  1  0.33237400  0.67218700  0.53000200  1
  O  O42  1  0.18283000  0.50851200  0.17317900  1
  O  O43  1  0.37946700  0.91882500  0.83326900  1
  O  O44  1  0.32797300  0.81116400  0.17224500  1
  O  O45  1  0.08285200  0.34005300  0.33786700  1
  O  O46  1  0.99798100  0.20622900  0.74940000  1
  O  O47  1  0.98432500  0.23822300  0.57008600  1
  O  O48  1  0.01934500  0.23878700  0.92924200  1
  O  O49  1  0.09122400  0.47306400  0.82267900  1
  O  O50  1  0.18162500  0.66656900  0.67573700  1
  O  O51  1  0.91784400  0.26194400  0.16355300  1
  O  O52  1  0.10182800  0.62211000  0.31709300  1
  O  O53  1  0.26213200  0.91835100  0.32825400  1
  O  O54  1  0.80039400  0.00981600  0.25472300  1
  O  O55  1  0.75582800  0.99818700  0.42901200  1
  O  O56  1  0.23518500  0.99453200  0.57470700  1
  O  O57  1  0.73739900  0.07842400  0.66641700  1
  O  O58  1  0.89716100  0.37829800  0.68264600  1
  O  O59  1  0.08102400  0.73952400  0.83500500  1
  O  O60  1  0.82190300  0.33514000  0.32430000  1
  O  O61  1  0.90933800  0.52796600  0.17578900  1
  O  O62  1  0.97891600  0.76480700  0.07143600  1
  O  O63  1  0.01263700  0.76189900  0.42757800  1
  O  O64  1  0.99885100  0.79401600  0.25024500  1
  O  O65  1  0.91713500  0.66057900  0.65837400  1
  O  O66  1  0.67337100  0.18968800  0.82695900  1
  O  O67  1  0.61903100  0.07690200  0.16499700  1
  O  O68  1  0.81819100  0.49271700  0.82606800  1
  O  O69  1  0.67922300  0.34966500  0.97162000  1
  O  O70  1  0.67302800  0.32489300  0.46953900  1
  O  O71  1  0.65925200  0.47302100  0.32239800  1
  O  O72  1  0.47340400  0.08987600  0.68296600  1
  O  O73  1  0.52817800  0.18168200  0.31658400  1
  O  O74  1  0.73509100  0.65094200  0.17155600  1
  O  O75  1  0.79547300  0.79343600  0.74763400  1
  O  O76  1  0.79397900  0.78932500  0.92334100  1
  O  O77  1  0.61924700  0.52649900  0.67399700  1
  O  O78  1  0.52169900  0.33301400  0.82143500  1
  O  O79  1  0.45934200  0.38425200  0.17050700  1
  O  O80  1  0.34550800  0.08977400  0.16461900  1
  O  O81  1  0.19480600  0.98834200  0.92973900  1
  O  O82  1  0.20250600  0.99859700  0.75054700  1
  O  O83  1  0.34528100  0.25602600  0.66625700  1
  O  O84  1  0.23013100  0.23511200  0.43534200  1
  O  O85  1  0.20613500  0.20296400  0.25585800  1
