# generated using pymatgen
data_Li4Nb3Fe2Ni3O16
_symmetry_space_group_name_H-M   'P 1'
_cell_length_a   6.05226000
_cell_length_b   6.06092942
_cell_length_c   9.74961476
_cell_angle_alpha   91.25290054
_cell_angle_beta   90.36790298
_cell_angle_gamma   119.83920260
_symmetry_Int_Tables_number   1
_chemical_formula_structural   Li4Nb3Fe2Ni3O16
_chemical_formula_sum   'Li4 Nb3 Fe2 Ni3 O16'
_cell_volume   310.08875628
_cell_formula_units_Z   1
loop_
 _symmetry_equiv_pos_site_id
 _symmetry_equiv_pos_as_xyz
  1  'x, y, z'
loop_
 _atom_site_type_symbol
 _atom_site_label
 _atom_site_symmetry_multiplicity
 _atom_site_fract_x
 _atom_site_fract_y
 _atom_site_fract_z
 _atom_site_occupancy
  Li  Li0  1  0.65888600  0.32934200  0.88378900  1
  Li  Li1  1  0.97522200  0.94674500  0.98559600  1
  Li  Li2  1  0.99527200  0.98898500  0.50353000  1
  Li  Li3  1  0.32962400  0.66390100  0.40395800  1
  Nb  Nb4  1  0.33846500  0.17077600  0.21539000  1
  Nb  Nb5  1  0.83552400  0.17114200  0.21321200  1
  Nb  Nb6  1  0.17685400  0.34681800  0.71724700  1
  Fe  Fe7  1  0.68567900  0.35722000  0.50641500  1
  Fe  Fe8  1  0.34562500  0.69909700  0.97435400  1
  Ni  Ni9  1  0.82794400  0.65716300  0.21275700  1
  Ni  Ni10  1  0.16820700  0.82904600  0.71222200  1
  Ni  Ni11  1  0.66259400  0.83756500  0.71291500  1
  O  O12  1  0.34475800  0.20202900  0.59515700  1
  O  O13  1  0.51587400  0.02755800  0.33099900  1
  O  O14  1  0.65366000  0.31129900  0.09914900  1
  O  O15  1  0.00344900  0.00546300  0.31612800  1
  O  O16  1  0.01962800  0.00143200  0.80414600  1
  O  O17  1  0.84898100  0.18392900  0.59843000  1
  O  O18  1  0.51109000  0.46863400  0.34108700  1
  O  O19  1  0.95760500  0.46669100  0.34007200  1
  O  O20  1  0.15759100  0.31600100  0.10423900  1
  O  O21  1  0.85541100  0.68282800  0.60077900  1
  O  O22  1  0.03222800  0.49974100  0.84895500  1
  O  O23  1  0.47653200  0.51782600  0.84735200  1
  O  O24  1  0.31738200  0.66718100  0.60611400  1
  O  O25  1  0.17223000  0.84344900  0.10100900  1
  O  O26  1  0.46285600  0.96169300  0.83518600  1
  O  O27  1  0.67052500  0.84644400  0.09765400  1
