# generated using pymatgen
data_Li3Cr3NiO8
_symmetry_space_group_name_H-M   'P 1'
_cell_length_a   5.84658100
_cell_length_b   10.20018200
_cell_length_c   10.31013443
_cell_angle_alpha   70.26203770
_cell_angle_beta   90.00000000
_cell_angle_gamma   90.00000000
_symmetry_Int_Tables_number   1
_chemical_formula_structural   Li3Cr3NiO8
_chemical_formula_sum   'Li12 Cr12 Ni4 O32'
_cell_volume   578.73243112
_cell_formula_units_Z   4
loop_
 _symmetry_equiv_pos_site_id
 _symmetry_equiv_pos_as_xyz
  1  'x, y, z'
loop_
 _atom_site_type_symbol
 _atom_site_label
 _atom_site_symmetry_multiplicity
 _atom_site_fract_x
 _atom_site_fract_y
 _atom_site_fract_z
 _atom_site_occupancy
  Li  Li0  1  0.00000000  0.00000000  0.00000000  1
  Li  Li1  1  0.75501600  0.75076100  0.99806800  1
  Li  Li2  1  0.24498400  0.75076100  0.99806800  1
  Li  Li3  1  0.50000000  0.50000000  0.00000000  1
  Li  Li4  1  0.75501600  0.24923900  0.00193200  1
  Li  Li5  1  0.24498400  0.24923900  0.00193200  1
  Li  Li6  1  0.00000000  0.00000000  0.50000000  1
  Li  Li7  1  0.74785500  0.74900300  0.49939700  1
  Li  Li8  1  0.25214500  0.74900300  0.49939700  1
  Li  Li9  1  0.00000000  0.50000000  0.50000000  1
  Li  Li10  1  0.74785500  0.25099700  0.50060300  1
  Li  Li11  1  0.25214500  0.25099700  0.50060300  1
  Cr  Cr12  1  0.74979300  0.00050700  0.75036900  1
  Cr  Cr13  1  0.25020700  0.00050700  0.75036900  1
  Cr  Cr14  1  0.50000000  0.75411100  0.74425200  1
  Cr  Cr15  1  0.75102900  0.50114900  0.74931900  1
  Cr  Cr16  1  0.24897100  0.50114900  0.74931900  1
  Cr  Cr17  1  0.50000000  0.25096000  0.75135100  1
  Cr  Cr18  1  0.74979300  0.99949300  0.24963100  1
  Cr  Cr19  1  0.25020700  0.99949300  0.24963100  1
  Cr  Cr20  1  0.50000000  0.74904000  0.24864900  1
  Cr  Cr21  1  0.75102900  0.49885100  0.25068100  1
  Cr  Cr22  1  0.24897100  0.49885100  0.25068100  1
  Cr  Cr23  1  0.50000000  0.24588900  0.25574800  1
  Ni  Ni24  1  0.00000000  0.74732400  0.75456600  1
  Ni  Ni25  1  0.00000000  0.25066800  0.74843800  1
  Ni  Ni26  1  0.00000000  0.74933200  0.25156200  1
  Ni  Ni27  1  0.00000000  0.25267600  0.24543400  1
  O  O28  1  0.00000000  0.88306300  0.86677000  1
  O  O29  1  0.50000000  0.87675200  0.85684100  1
  O  O30  1  0.26651200  0.63304900  0.85563300  1
  O  O31  1  0.73348800  0.63304900  0.85563300  1
  O  O32  1  0.00000000  0.37484000  0.85642300  1
  O  O33  1  0.50000000  0.37978700  0.86308000  1
  O  O34  1  0.25002200  0.86844900  0.64395200  1
  O  O35  1  0.74997800  0.86844900  0.64395200  1
  O  O36  1  0.24015800  0.13516100  0.85485800  1
  O  O37  1  0.75984200  0.13516100  0.85485800  1
  O  O38  1  0.50000000  0.62470600  0.63932700  1
  O  O39  1  0.00000000  0.61780800  0.63505700  1
  O  O40  1  0.24151800  0.36619100  0.64456900  1
  O  O41  1  0.75848200  0.36619100  0.64456900  1
  O  O42  1  0.50000000  0.12469300  0.64255600  1
  O  O43  1  0.00000000  0.12241900  0.63688300  1
  O  O44  1  0.00000000  0.87758100  0.36311700  1
  O  O45  1  0.50000000  0.87530700  0.35744400  1
  O  O46  1  0.24151800  0.63380900  0.35543100  1
  O  O47  1  0.75848200  0.63380900  0.35543100  1
  O  O48  1  0.00000000  0.38219200  0.36494300  1
  O  O49  1  0.50000000  0.37529400  0.36067300  1
  O  O50  1  0.24015800  0.86483900  0.14514200  1
  O  O51  1  0.75984200  0.86483900  0.14514200  1
  O  O52  1  0.25002200  0.13155100  0.35604800  1
  O  O53  1  0.74997800  0.13155100  0.35604800  1
  O  O54  1  0.50000000  0.62021300  0.13692000  1
  O  O55  1  0.00000000  0.62516000  0.14357700  1
  O  O56  1  0.26651200  0.36695100  0.14436700  1
  O  O57  1  0.73348800  0.36695100  0.14436700  1
  O  O58  1  0.50000000  0.12324800  0.14315900  1
  O  O59  1  0.00000000  0.11693700  0.13323000  1
