# generated using pymatgen
data_Li5V3P8O29
_symmetry_space_group_name_H-M   'P 1'
_cell_length_a   9.78673603
_cell_length_b   9.78673603
_cell_length_c   14.24734154
_cell_angle_alpha   89.65290550
_cell_angle_beta   89.65290550
_cell_angle_gamma   60.27370305
_symmetry_Int_Tables_number   1
_chemical_formula_structural   Li5V3P8O29
_chemical_formula_sum   'Li10 V6 P16 O58'
_cell_volume   1185.00656517
_cell_formula_units_Z   2
loop_
 _symmetry_equiv_pos_site_id
 _symmetry_equiv_pos_as_xyz
  1  'x, y, z'
loop_
 _atom_site_type_symbol
 _atom_site_label
 _atom_site_symmetry_multiplicity
 _atom_site_fract_x
 _atom_site_fract_y
 _atom_site_fract_z
 _atom_site_occupancy
  Li  Li0  1  0.90648900  0.32586200  0.06065000  1
  Li  Li1  1  0.76539700  0.33067700  0.55919300  1
  Li  Li2  1  0.89901700  0.76402600  0.55728300  1
  Li  Li3  1  0.76402600  0.89901700  0.05728300  1
  Li  Li4  1  0.33067700  0.76539700  0.05919300  1
  Li  Li5  1  0.32586200  0.90648900  0.56065000  1
  Li  Li6  1  0.34090000  0.33152400  0.60138900  1
  Li  Li7  1  0.33152400  0.34090000  0.10138900  1
  Li  Li8  1  0.00193500  0.98932700  0.99432300  1
  Li  Li9  1  0.98932700  0.00193500  0.49432300  1
  V  V10  1  0.56668600  0.99711100  0.25405700  1
  V  V11  1  0.43338100  0.99954400  0.74966100  1
  V  V12  1  0.56080400  0.43868500  0.75090700  1
  V  V13  1  0.43868500  0.56080400  0.25090700  1
  V  V14  1  0.99954400  0.43338100  0.24966100  1
  V  V15  1  0.99711100  0.56668600  0.75405700  1
  P  P16  1  0.91410900  0.30797900  0.84429800  1
  P  P17  1  0.77294300  0.31115300  0.34331100  1
  P  P18  1  0.91552700  0.77313800  0.34342900  1
  P  P19  1  0.66608100  0.66831900  0.13046200  1
  P  P20  1  0.66831900  0.66608100  0.63046200  1
  P  P21  1  0.77313800  0.91552700  0.84342900  1
  P  P22  1  0.69375000  0.08721800  0.66235000  1
  P  P23  1  0.31115300  0.77294300  0.84331100  1
  P  P24  1  0.69302300  0.21703800  0.16227100  1
  P  P25  1  0.30797900  0.91410900  0.34429800  1
  P  P26  1  0.22240500  0.08652600  0.16240700  1
  P  P27  1  0.33515700  0.32930100  0.36584300  1
  P  P28  1  0.32930100  0.33515700  0.86584300  1
  P  P29  1  0.08652600  0.22240500  0.66240700  1
  P  P30  1  0.21703800  0.69302300  0.66227100  1
  P  P31  1  0.08721800  0.69375000  0.16235000  1
  O  O32  1  0.98698700  0.21760800  0.58532900  1
  O  O33  1  0.91408200  0.33846200  0.32269900  1
  O  O34  1  0.80268300  0.20479100  0.08539100  1
  O  O35  1  0.74680700  0.34170500  0.82968700  1
  O  O36  1  0.91896000  0.46492700  0.82617500  1
  O  O37  1  0.81541000  0.51622900  0.16458800  1
  O  O38  1  0.91449000  0.61941800  0.32958100  1
  O  O39  1  0.98628300  0.79899000  0.08527900  1
  O  O40  1  0.91480800  0.74519400  0.82555600  1
  O  O41  1  0.66230100  0.51810800  0.66902700  1
  O  O42  1  0.62106100  0.46932800  0.33077900  1
  O  O43  1  0.81482300  0.66400100  0.67855600  1
  O  O44  1  0.66044300  0.69004600  0.02670800  1
  O  O45  1  0.69004600  0.66044300  0.52670800  1
  O  O46  1  0.66400100  0.81482300  0.17855600  1
  O  O47  1  0.46932800  0.62106100  0.83077900  1
  O  O48  1  0.51810800  0.66230100  0.16902700  1
  O  O49  1  0.74519400  0.91480800  0.32555600  1
  O  O50  1  0.78479700  0.02204200  0.76137300  1
  O  O51  1  0.79898900  0.98628300  0.58527900  1
  O  O52  1  0.79799000  0.97230200  0.93554300  1
  O  O53  1  0.61941800  0.91449000  0.82958100  1
  O  O54  1  0.51622900  0.81541000  0.66458800  1
  O  O55  1  0.65779500  0.07767100  0.15843400  1
  O  O56  1  0.46492700  0.91896000  0.32617500  1
  O  O57  1  0.34170500  0.74680700  0.32968700  1
  O  O58  1  0.77994200  0.19437200  0.26199800  1
  O  O59  1  0.79272900  0.23022100  0.43572900  1
  O  O60  1  0.20479100  0.80268300  0.58539100  1
  O  O61  1  0.65792100  0.25899700  0.65613100  1
  O  O62  1  0.53165400  0.09291300  0.67079000  1
  O  O63  1  0.33846200  0.91408200  0.82269900  1
  O  O64  1  0.48452100  0.18197400  0.32107200  1
  O  O65  1  0.37787600  0.09379200  0.17109400  1
  O  O66  1  0.21760800  0.98698700  0.08532900  1
  O  O67  1  0.23337100  0.98311700  0.43650600  1
  O  O68  1  0.19508100  0.02181600  0.26137800  1
  O  O69  1  0.25885800  0.08516600  0.65572900  1
  O  O70  1  0.47417700  0.34122600  0.82228700  1
  O  O71  1  0.53128100  0.37070900  0.16646000  1
  O  O72  1  0.32945400  0.19135200  0.82355000  1
  O  O73  1  0.32447300  0.34434500  0.97029200  1
  O  O74  1  0.34434500  0.32447300  0.47029200  1
  O  O75  1  0.19135200  0.32945400  0.32355000  1
  O  O76  1  0.37070900  0.53128100  0.66646000  1
  O  O77  1  0.34122600  0.47417700  0.32228700  1
  O  O78  1  0.08516600  0.25885800  0.15572900  1
  O  O79  1  0.02181600  0.19508100  0.76137800  1
  O  O80  1  0.98311700  0.23337100  0.93650600  1
  O  O81  1  0.09379200  0.37787600  0.67109400  1
  O  O82  1  0.18197400  0.48452100  0.82107200  1
  O  O83  1  0.09291300  0.53165400  0.17079000  1
  O  O84  1  0.25899700  0.65792100  0.15613100  1
  O  O85  1  0.23022100  0.79272900  0.93572900  1
  O  O86  1  0.19437200  0.77994200  0.76199800  1
  O  O87  1  0.07767100  0.65779500  0.65843400  1
  O  O88  1  0.97230200  0.79799000  0.43554300  1
  O  O89  1  0.02204200  0.78479700  0.26137300  1
