# generated using pymatgen
data_LiMn2(BO3)2
_symmetry_space_group_name_H-M   'P 1'
_cell_length_a   5.81729100
_cell_length_b   9.23166418
_cell_length_c   12.43610811
_cell_angle_alpha   104.21312769
_cell_angle_beta   87.93422712
_cell_angle_gamma   104.29974420
_symmetry_Int_Tables_number   1
_chemical_formula_structural   LiMn2(BO3)2
_chemical_formula_sum   'Li5 Mn10 B10 O30'
_cell_volume   627.14186105
_cell_formula_units_Z   5
loop_
 _symmetry_equiv_pos_site_id
 _symmetry_equiv_pos_as_xyz
  1  'x, y, z'
loop_
 _atom_site_type_symbol
 _atom_site_label
 _atom_site_symmetry_multiplicity
 _atom_site_fract_x
 _atom_site_fract_y
 _atom_site_fract_z
 _atom_site_occupancy
  Li  Li0  1  0.03996100  0.66392700  0.71143200  1
  Li  Li1  1  0.76760600  0.73819200  0.09283600  1
  Li  Li2  1  0.55713600  0.14354100  0.89700500  1
  Li  Li3  1  0.81844100  0.06313600  0.50886000  1
  Li  Li4  1  0.97385600  0.33898600  0.29583400  1
  Mn  Mn5  1  0.16793000  0.55444300  0.90786100  1
  Mn  Mn6  1  0.25080400  0.65778400  0.50198300  1
  Mn  Mn7  1  0.03828600  0.01658200  0.29652000  1
  Mn  Mn8  1  0.55275500  0.75451200  0.30507700  1
  Mn  Mn9  1  0.35569400  0.15550300  0.11096300  1
  Mn  Mn10  1  0.63382900  0.81983100  0.88585600  1
  Mn  Mn11  1  0.43803600  0.25454600  0.68744700  1
  Mn  Mn12  1  0.98065800  0.99341000  0.71986700  1
  Mn  Mn13  1  0.75299900  0.39666000  0.50318600  1
  Mn  Mn14  1  0.83446300  0.41863200  0.09020100  1
  B  B15  1  0.02932000  0.67450800  0.28531300  1
  B  B16  1  0.16651600  0.90039300  0.90385400  1
  B  B17  1  0.44341600  0.90687000  0.70034400  1
  B  B18  1  0.22135100  0.30203300  0.48546200  1
  B  B19  1  0.36765700  0.49807100  0.10483200  1
  B  B20  1  0.64143700  0.48129300  0.89161900  1
  B  B21  1  0.77185200  0.73499600  0.52226600  1
  B  B22  1  0.57052100  0.10195300  0.31398700  1
  B  B23  1  0.83512300  0.07759300  0.08750300  1
  B  B24  1  0.95859200  0.32535100  0.70249500  1
  O  O25  1  0.01132200  0.47754200  0.74933300  1
  O  O26  1  0.20455900  0.73416900  0.36886700  1
  O  O27  1  0.00198800  0.14200300  0.17689200  1
  O  O28  1  0.34057100  0.01397400  0.67589000  1
  O  O29  1  0.12650100  0.41012800  0.45429100  1
  O  O30  1  0.29233900  0.79433200  0.91638300  1
  O  O31  1  0.09737500  0.22900000  0.72079000  1
  O  O32  1  0.15916500  0.43598000  0.03854900  1
  O  O33  1  0.36010800  0.74984200  0.65631600  1
  O  O34  1  0.12900600  0.14610700  0.44574900  1
  O  O35  1  0.45192500  0.65214000  0.14467100  1
  O  O36  1  0.24139100  0.05308300  0.94728400  1
  O  O37  1  0.62380100  0.95995600  0.78397500  1
  O  O38  1  0.40629900  0.35266800  0.56495100  1
  O  O39  1  0.53114400  0.58394600  0.86383400  1
  O  O40  1  0.49344500  0.39284400  0.11971900  1
  O  O41  1  0.57506800  0.66043800  0.44945100  1
  O  O42  1  0.36616200  0.04070100  0.24493200  1
  O  O43  1  0.77451200  0.92126900  0.04287100  1
  O  O44  1  0.57436500  0.32552200  0.84335400  1
  O  O45  1  0.83078300  0.88890000  0.56260000  1
  O  O46  1  0.65870200  0.25583100  0.35034600  1
  O  O47  1  0.81541600  0.54195900  0.97734800  1
  O  O48  1  0.92658600  0.77757700  0.24929700  1
  O  O49  1  0.72607100  0.17646300  0.05089500  1
  O  O50  1  0.90777700  0.63845500  0.54829800  1
  O  O51  1  0.69146000  0.99719800  0.33913200  1
  O  O52  1  0.96530000  0.83585300  0.82952600  1
  O  O53  1  0.76191300  0.25384200  0.62713200  1
  O  O54  1  0.95452800  0.51818400  0.24402900  1
