# generated using pymatgen
data_LiMn2F5
_symmetry_space_group_name_H-M   'P 1'
_cell_length_a   10.93001200
_cell_length_b   5.52059100
_cell_length_c   14.29835155
_cell_angle_alpha   69.45189077
_cell_angle_beta   90.00000000
_cell_angle_gamma   90.00000000
_symmetry_Int_Tables_number   1
_chemical_formula_structural   LiMn2F5
_chemical_formula_sum   'Li8 Mn16 F40'
_cell_volume   807.87336939
_cell_formula_units_Z   8
loop_
 _symmetry_equiv_pos_site_id
 _symmetry_equiv_pos_as_xyz
  1  'x, y, z'
loop_
 _atom_site_type_symbol
 _atom_site_label
 _atom_site_symmetry_multiplicity
 _atom_site_fract_x
 _atom_site_fract_y
 _atom_site_fract_z
 _atom_site_occupancy
  Li  Li0  1  0.41567600  0.27870900  0.53004500  1
  Li  Li1  1  0.93410600  0.04078900  0.73135600  1
  Li  Li2  1  0.43410600  0.95921100  0.76864400  1
  Li  Li3  1  0.91567600  0.72129100  0.96995500  1
  Li  Li4  1  0.08432400  0.27870900  0.03004500  1
  Li  Li5  1  0.56589400  0.04078900  0.23135600  1
  Li  Li6  1  0.06589400  0.95921100  0.26864400  1
  Li  Li7  1  0.58432400  0.72129100  0.46995500  1
  Mn  Mn8  1  0.02258800  0.57218900  0.17449900  1
  Mn  Mn9  1  0.71936200  0.16540500  0.54488300  1
  Mn  Mn10  1  0.03744600  0.36074400  0.41242800  1
  Mn  Mn11  1  0.19766200  0.08974500  0.66252300  1
  Mn  Mn12  1  0.53744600  0.63925600  0.08757200  1
  Mn  Mn13  1  0.21936200  0.83459500  0.95511700  1
  Mn  Mn14  1  0.69766200  0.91025500  0.83747700  1
  Mn  Mn15  1  0.52258800  0.42781100  0.32550100  1
  Mn  Mn16  1  0.47741200  0.57218900  0.67449900  1
  Mn  Mn17  1  0.30233800  0.08974500  0.16252300  1
  Mn  Mn18  1  0.78063800  0.16540500  0.04488300  1
  Mn  Mn19  1  0.46255400  0.36074400  0.91242800  1
  Mn  Mn20  1  0.80233800  0.91025500  0.33747700  1
  Mn  Mn21  1  0.96255400  0.63925600  0.58757200  1
  Mn  Mn22  1  0.28063800  0.83459500  0.45511700  1
  Mn  Mn23  1  0.97741200  0.42781100  0.82550100  1
  F  F24  1  0.66160000  0.90490600  0.98757400  1
  F  F25  1  0.68581000  0.51840300  0.41119300  1
  F  F26  1  0.90367900  0.85051400  0.07540100  1
  F  F27  1  0.87364700  0.04374300  0.86201200  1
  F  F28  1  0.54519700  0.18603900  0.80541700  1
  F  F29  1  0.94095500  0.69586800  0.30025200  1
  F  F30  1  0.15068800  0.47824000  0.28993600  1
  F  F31  1  0.56282300  0.36124600  0.58758300  1
  F  F32  1  0.90209700  0.34664200  0.52359300  1
  F  F33  1  0.27198200  0.97363800  0.80619400  1
  F  F34  1  0.65068800  0.52176000  0.21006400  1
  F  F35  1  0.44095500  0.30413200  0.19974800  1
  F  F36  1  0.77198200  0.02636200  0.69380600  1
  F  F37  1  0.40367900  0.14948600  0.42459900  1
  F  F38  1  0.18581000  0.48159700  0.08880700  1
  F  F39  1  0.40209700  0.65335800  0.97640700  1
  F  F40  1  0.16160000  0.09509400  0.51242600  1
  F  F41  1  0.06282300  0.63875400  0.91241700  1
  F  F42  1  0.62635300  0.04374300  0.36201200  1
  F  F43  1  0.04519700  0.81396100  0.69458300  1
  F  F44  1  0.95480300  0.18603900  0.30541700  1
  F  F45  1  0.37364700  0.95625700  0.63798800  1
  F  F46  1  0.93717700  0.36124600  0.08758300  1
  F  F47  1  0.83840000  0.90490600  0.48757400  1
  F  F48  1  0.59790300  0.34664200  0.02359300  1
  F  F49  1  0.81419000  0.51840300  0.91119300  1
  F  F50  1  0.59632100  0.85051400  0.57540100  1
  F  F51  1  0.22801800  0.97363800  0.30619400  1
  F  F52  1  0.55904500  0.69586800  0.80025200  1
  F  F53  1  0.34931200  0.47824000  0.78993600  1
  F  F54  1  0.72801800  0.02636200  0.19380600  1
  F  F55  1  0.09790300  0.65335800  0.47640700  1
  F  F56  1  0.43717700  0.63875400  0.41241700  1
  F  F57  1  0.84931200  0.52176000  0.71006400  1
  F  F58  1  0.05904500  0.30413200  0.69974800  1
  F  F59  1  0.45480300  0.81396100  0.19458300  1
  F  F60  1  0.12635300  0.95625700  0.13798800  1
  F  F61  1  0.09632100  0.14948600  0.92459900  1
  F  F62  1  0.31419000  0.48159700  0.58880700  1
  F  F63  1  0.33840000  0.09509400  0.01242600  1
