# generated using pymatgen
data_Li5Fe2P2(CO7)2
_symmetry_space_group_name_H-M   'P 1'
_cell_length_a   8.25097400
_cell_length_b   8.26234140
_cell_length_c   9.40986637
_cell_angle_alpha   105.41032845
_cell_angle_beta   107.01757615
_cell_angle_gamma   104.53356653
_symmetry_Int_Tables_number   1
_chemical_formula_structural   Li5Fe2P2(CO7)2
_chemical_formula_sum   'Li10 Fe4 P4 C4 O28'
_cell_volume   552.47695553
_cell_formula_units_Z   2
loop_
 _symmetry_equiv_pos_site_id
 _symmetry_equiv_pos_as_xyz
  1  'x, y, z'
loop_
 _atom_site_type_symbol
 _atom_site_label
 _atom_site_symmetry_multiplicity
 _atom_site_fract_x
 _atom_site_fract_y
 _atom_site_fract_z
 _atom_site_occupancy
  Li  Li0  1  0.68945400  0.94773200  0.90419000  1
  Li  Li1  1  0.18358400  0.43767000  0.89620000  1
  Li  Li2  1  0.46470200  0.50959500  0.71923000  1
  Li  Li3  1  0.74522400  0.23395600  0.73073600  1
  Li  Li4  1  0.97387000  0.98839200  0.73326500  1
  Li  Li5  1  0.53529800  0.49040500  0.28077000  1
  Li  Li6  1  0.02613000  0.01160800  0.26673500  1
  Li  Li7  1  0.25477600  0.76604400  0.26926400  1
  Li  Li8  1  0.81641600  0.56233000  0.10380000  1
  Li  Li9  1  0.31054600  0.05226800  0.09581000  1
  Fe  Fe10  1  0.81940900  0.56810400  0.66797100  1
  Fe  Fe11  1  0.30818900  0.05377000  0.66860300  1
  Fe  Fe12  1  0.69181100  0.94623000  0.33139700  1
  Fe  Fe13  1  0.18059100  0.43189600  0.33202900  1
  P  P14  1  0.05801500  0.29580700  0.58628800  1
  P  P15  1  0.55570900  0.80570500  0.58097800  1
  P  P16  1  0.44429100  0.19429500  0.41902200  1
  P  P17  1  0.94198500  0.70419300  0.41371200  1
  C  C18  1  0.50170600  0.26597700  0.95586100  1
  C  C19  1  0.00585600  0.76371100  0.96900700  1
  C  C20  1  0.49829400  0.73402300  0.04413900  1
  C  C21  1  0.99414400  0.23628900  0.03099300  1
  O  O22  1  0.87718600  0.61441600  0.93298800  1
  O  O23  1  0.36813300  0.11856700  0.92388200  1
  O  O24  1  0.40626200  0.61595700  0.90623500  1
  O  O25  1  0.53270300  0.28261400  0.82931500  1
  O  O26  1  0.88354600  0.13917100  0.88337700  1
  O  O27  1  0.02749400  0.81540700  0.85441100  1
  O  O28  1  0.64164800  0.71611400  0.69199700  1
  O  O29  1  0.48427900  0.92883500  0.68336100  1
  O  O30  1  0.96850000  0.39427900  0.68616500  1
  O  O31  1  0.15008400  0.20495500  0.69780700  1
  O  O32  1  0.59072200  0.33052500  0.58024100  1
  O  O33  1  0.70615700  0.93266800  0.54737200  1
  O  O34  1  0.20495800  0.42208600  0.55635600  1
  O  O35  1  0.08066200  0.84689000  0.57862500  1
  O  O36  1  0.40927800  0.66947500  0.41975900  1
  O  O37  1  0.29384300  0.06733200  0.45262800  1
  O  O38  1  0.79504200  0.57791400  0.44364400  1
  O  O39  1  0.91933800  0.15311000  0.42137500  1
  O  O40  1  0.35835200  0.28388600  0.30800300  1
  O  O41  1  0.51572100  0.07116500  0.31663900  1
  O  O42  1  0.03150000  0.60572100  0.31383500  1
  O  O43  1  0.84991600  0.79504500  0.30219300  1
  O  O44  1  0.46729700  0.71738600  0.17068500  1
  O  O45  1  0.59373800  0.38404300  0.09376500  1
  O  O46  1  0.97250600  0.18459300  0.14558900  1
  O  O47  1  0.11645400  0.86082900  0.11662300  1
  O  O48  1  0.12281400  0.38558400  0.06701200  1
  O  O49  1  0.63186700  0.88143300  0.07611800  1
