# generated using pymatgen
data_LiVP2HO8
_symmetry_space_group_name_H-M   'P 1'
_cell_length_a   7.99837900
_cell_length_b   7.75006600
_cell_length_c   9.71853321
_cell_angle_alpha   68.34590731
_cell_angle_beta   90.00000000
_cell_angle_gamma   90.00000000
_symmetry_Int_Tables_number   1
_chemical_formula_structural   LiVP2HO8
_chemical_formula_sum   'Li4 V4 P8 H4 O32'
_cell_volume   559.91757696
_cell_formula_units_Z   4
loop_
 _symmetry_equiv_pos_site_id
 _symmetry_equiv_pos_as_xyz
  1  'x, y, z'
loop_
 _atom_site_type_symbol
 _atom_site_label
 _atom_site_symmetry_multiplicity
 _atom_site_fract_x
 _atom_site_fract_y
 _atom_site_fract_z
 _atom_site_occupancy
  Li  Li0  1  0.86827700  0.10256800  0.77953000  1
  Li  Li1  1  0.62968400  0.60202200  0.77459200  1
  Li  Li2  1  0.36827700  0.89743200  0.22047000  1
  Li  Li3  1  0.12968400  0.39797800  0.22540800  1
  V  V4  1  0.48999300  0.24253000  0.74904300  1
  V  V5  1  0.00919900  0.74850100  0.74723000  1
  V  V6  1  0.50919900  0.25149900  0.25277000  1
  V  V7  1  0.98999300  0.75747000  0.25095700  1
  P  P8  1  0.14917100  0.01896500  0.93302100  1
  P  P9  1  0.34604700  0.51374400  0.93360100  1
  P  P10  1  0.65353800  0.98275500  0.56802800  1
  P  P11  1  0.15353800  0.01724500  0.43197200  1
  P  P12  1  0.84412200  0.48843200  0.56689700  1
  P  P13  1  0.34412200  0.51156800  0.43310300  1
  P  P14  1  0.64917100  0.98103500  0.06697900  1
  P  P15  1  0.84604700  0.48625600  0.06639900  1
  H  H16  1  0.49226200  0.74171600  0.99156200  1
  H  H17  1  0.49352500  0.74039400  0.49122000  1
  H  H18  1  0.99352500  0.25960600  0.50878000  1
  H  H19  1  0.99226200  0.25828400  0.00843800  1
  O  O20  1  0.04099300  0.18968200  0.90721100  1
  O  O21  1  0.66924000  0.10747500  0.90113700  1
  O  O22  1  0.32442600  0.06736500  0.86434100  1
  O  O23  1  0.05178300  0.90283800  0.85508000  1
  O  O24  1  0.45505600  0.68898300  0.90549400  1
  O  O25  1  0.82757500  0.60678800  0.90036500  1
  O  O26  1  0.17330500  0.56732700  0.86284900  1
  O  O27  1  0.44742500  0.40341800  0.85517500  1
  O  O28  1  0.55287800  0.10087700  0.64341200  1
  O  O29  1  0.82375000  0.94047800  0.64953300  1
  O  O30  1  0.17100900  0.88977500  0.59621400  1
  O  O31  1  0.56251900  0.80138300  0.59138000  1
  O  O32  1  0.94520400  0.60349500  0.64182200  1
  O  O33  1  0.67612600  0.43808300  0.64964900  1
  O  O34  1  0.06251900  0.19861700  0.40862000  1
  O  O35  1  0.67100900  0.11022500  0.40378600  1
  O  O36  1  0.32787800  0.39143900  0.59773400  1
  O  O37  1  0.93716400  0.30286600  0.59377600  1
  O  O38  1  0.32375000  0.05952200  0.35046700  1
  O  O39  1  0.05287800  0.89912300  0.35658800  1
  O  O40  1  0.43716400  0.69713400  0.40622400  1
  O  O41  1  0.82787800  0.60856100  0.40226600  1
  O  O42  1  0.17612600  0.56191700  0.35035100  1
  O  O43  1  0.44520400  0.39650500  0.35817800  1
  O  O44  1  0.55178300  0.09716200  0.14492000  1
  O  O45  1  0.82442600  0.93263500  0.13565900  1
  O  O46  1  0.16924000  0.89252500  0.09886300  1
  O  O47  1  0.54099300  0.81031800  0.09278900  1
  O  O48  1  0.94742500  0.59658200  0.14482500  1
  O  O49  1  0.67330500  0.43267300  0.13715100  1
  O  O50  1  0.32757500  0.39321200  0.09963500  1
  O  O51  1  0.95505600  0.31101700  0.09450600  1
