# generated using pymatgen
data_Na5LiMn2P2(CO7)2
_symmetry_space_group_name_H-M   'P 1'
_cell_length_a   5.21148531
_cell_length_b   11.33871436
_cell_length_c   11.17905182
_cell_angle_alpha   105.78305794
_cell_angle_beta   90.24171495
_cell_angle_gamma   90.00484850
_symmetry_Int_Tables_number   1
_chemical_formula_structural   Na5LiMn2P2(CO7)2
_chemical_formula_sum   'Na10 Li2 Mn4 P4 C4 O28'
_cell_volume   635.67608549
_cell_formula_units_Z   2
loop_
 _symmetry_equiv_pos_site_id
 _symmetry_equiv_pos_as_xyz
  1  'x, y, z'
loop_
 _atom_site_type_symbol
 _atom_site_label
 _atom_site_symmetry_multiplicity
 _atom_site_fract_x
 _atom_site_fract_y
 _atom_site_fract_z
 _atom_site_occupancy
  Na  Na0  1  0.75458000  0.15915900  0.07558600  1
  Na  Na1  1  0.75459600  0.65921200  0.57569200  1
  Na  Na2  1  0.25135700  0.37879500  0.12350500  1
  Na  Na3  1  0.25132400  0.87881700  0.62357400  1
  Na  Na4  1  0.75406400  0.62199400  0.88177400  1
  Na  Na5  1  0.75411600  0.12194000  0.38167600  1
  Na  Na6  1  0.75186100  0.86899700  0.12793200  1
  Na  Na7  1  0.75182200  0.36907400  0.62793900  1
  Na  Na8  1  0.24277100  0.83910000  0.92082100  1
  Na  Na9  1  0.24278300  0.33909500  0.42079200  1
  Li  Li10  1  0.21246800  0.15895500  0.87225200  1
  Li  Li11  1  0.21250500  0.65897400  0.37223100  1
  Mn  Mn12  1  0.77902300  0.05537900  0.69921000  1
  Mn  Mn13  1  0.22394200  0.94416700  0.30541400  1
  Mn  Mn14  1  0.77919700  0.55523900  0.19948400  1
  Mn  Mn15  1  0.22374900  0.44432600  0.80525400  1
  P  P16  1  0.70827300  0.32909400  0.91865200  1
  P  P17  1  0.70855300  0.82889200  0.41870200  1
  P  P18  1  0.30015000  0.66893900  0.08677600  1
  P  P19  1  0.30007900  0.16895900  0.58669500  1
  C  C20  1  0.73437600  0.40350800  0.34486000  1
  C  C21  1  0.73436900  0.90357400  0.84481300  1
  C  C22  1  0.26135500  0.59248900  0.64659800  1
  C  C23  1  0.26133000  0.09249200  0.14662900  1
  O  O24  1  0.27915200  0.15898900  0.06910500  1
  O  O25  1  0.27917900  0.65899400  0.56911700  1
  O  O26  1  0.96124200  0.43142700  0.31255200  1
  O  O27  1  0.96121000  0.93146300  0.81255000  1
  O  O28  1  0.53292800  0.45070100  0.30607800  1
  O  O29  1  0.53286100  0.95070900  0.80601700  1
  O  O30  1  0.82137600  0.19720600  0.87573000  1
  O  O31  1  0.82171800  0.69693200  0.37618700  1
  O  O32  1  0.77404300  0.37802900  0.05907500  1
  O  O33  1  0.77404800  0.87805700  0.55911000  1
  O  O34  1  0.40874200  0.32417800  0.90131100  1
  O  O35  1  0.40904900  0.82393500  0.40125100  1
  O  O36  1  0.18258100  0.59519100  0.17216300  1
  O  O37  1  0.18276500  0.09516800  0.67206900  1
  O  O38  1  0.82055100  0.41180000  0.84148600  1
  O  O39  1  0.82099000  0.91148100  0.34151100  1
  O  O40  1  0.59900700  0.66173000  0.09440100  1
  O  O41  1  0.59897500  0.16181300  0.59430500  1
  O  O42  1  0.21493000  0.61738700  0.94869100  1
  O  O43  1  0.21481400  0.11735800  0.44863800  1
  O  O44  1  0.21686100  0.80616500  0.12716300  1
  O  O45  1  0.21648600  0.30613200  0.62707600  1
  O  O46  1  0.46730200  0.55476700  0.69239500  1
  O  O47  1  0.46731700  0.05484400  0.19243000  1
  O  O48  1  0.03789700  0.56161300  0.68091700  1
  O  O49  1  0.03789900  0.06161400  0.18091500  1
  O  O50  1  0.70871000  0.83058500  0.91543900  1
  O  O51  1  0.70872500  0.33056400  0.41544900  1
