# generated using pymatgen
data_LiMnPO4
_symmetry_space_group_name_H-M   'P 1'
_cell_length_a   9.82746942
_cell_length_b   9.82746942
_cell_length_c   23.34180600
_cell_angle_alpha   90.00000000
_cell_angle_beta   90.00000000
_cell_angle_gamma   119.99999607
_symmetry_Int_Tables_number   1
_chemical_formula_structural   LiMnPO4
_chemical_formula_sum   'Li24 Mn24 P24 O96'
_cell_volume   1952.30877335
_cell_formula_units_Z   24
loop_
 _symmetry_equiv_pos_site_id
 _symmetry_equiv_pos_as_xyz
  1  'x, y, z'
loop_
 _atom_site_type_symbol
 _atom_site_label
 _atom_site_symmetry_multiplicity
 _atom_site_fract_x
 _atom_site_fract_y
 _atom_site_fract_z
 _atom_site_occupancy
  Li  Li0  1  0.10138500  0.81340100  0.27228200  1
  Li  Li1  1  0.09529200  0.76472900  0.92147900  1
  Li  Li2  1  0.12581100  0.76060900  0.59541000  1
  Li  Li3  1  0.31361200  0.66429500  0.75538600  1
  Li  Li4  1  0.33570500  0.64931700  0.08871900  1
  Li  Li5  1  0.35068300  0.68638800  0.42205200  1
  Li  Li6  1  0.18659900  0.28798400  0.60561600  1
  Li  Li7  1  0.23939100  0.36520200  0.92874400  1
  Li  Li8  1  0.23527100  0.33056300  0.25481200  1
  Li  Li9  1  0.63479800  0.87418900  0.26207700  1
  Li  Li10  1  0.66943700  0.90470800  0.58814500  1
  Li  Li11  1  0.28798400  0.10138500  0.43894900  1
  Li  Li12  1  0.71201600  0.89861500  0.93894900  1
  Li  Li13  1  0.33056300  0.09529200  0.08814500  1
  Li  Li14  1  0.36520200  0.12581100  0.76207700  1
  Li  Li15  1  0.76472900  0.66943700  0.75481200  1
  Li  Li16  1  0.76060900  0.63479800  0.42874400  1
  Li  Li17  1  0.81340100  0.71201600  0.10561600  1
  Li  Li18  1  0.64931700  0.31361200  0.92205200  1
  Li  Li19  1  0.66429500  0.35068300  0.58871900  1
  Li  Li20  1  0.68638800  0.33570500  0.25538600  1
  Li  Li21  1  0.87418900  0.23939100  0.09541000  1
  Li  Li22  1  0.90470800  0.23527100  0.42147900  1
  Li  Li23  1  0.89861500  0.18659900  0.77228200  1
  Mn  Mn24  1  0.99439100  0.01683200  0.70746600  1
  Mn  Mn25  1  0.02196300  0.55901400  0.04272800  1
  Mn  Mn26  1  0.04403500  0.46689200  0.19579600  1
  Mn  Mn27  1  0.06203500  0.50175400  0.85111500  1
  Mn  Mn28  1  0.42285600  0.95596500  0.86246300  1
  Mn  Mn29  1  0.43971900  0.93796500  0.51778200  1
  Mn  Mn30  1  0.98316800  0.97755900  0.04079900  1
  Mn  Mn31  1  0.97755900  0.99439100  0.87413200  1
  Mn  Mn32  1  0.53705200  0.97803700  0.70939500  1
  Mn  Mn33  1  0.44098600  0.46294800  0.37606100  1
  Mn  Mn34  1  0.49824600  0.56028100  0.18444800  1
  Mn  Mn35  1  0.53310800  0.57714400  0.52913000  1
  Mn  Mn36  1  0.46689200  0.42285600  0.02913000  1
  Mn  Mn37  1  0.50175400  0.43971900  0.68444800  1
  Mn  Mn38  1  0.55901400  0.53705200  0.87606100  1
  Mn  Mn39  1  0.46294800  0.02196300  0.20939500  1
  Mn  Mn40  1  0.02244100  0.00560900  0.37413200  1
  Mn  Mn41  1  0.01683200  0.02244100  0.54079900  1
  Mn  Mn42  1  0.56028100  0.06203500  0.01778200  1
  Mn  Mn43  1  0.57714400  0.04403500  0.36246300  1
  Mn  Mn44  1  0.93796500  0.49824600  0.35111500  1
  Mn  Mn45  1  0.95596500  0.53310800  0.69579600  1
  Mn  Mn46  1  0.97803700  0.44098600  0.54272800  1
  Mn  Mn47  1  0.00560900  0.98316800  0.20746600  1
  P  P48  1  0.09258300  0.79462300  0.79231600  1
  P  P49  1  0.08241800  0.75877500  0.46705900  1
  P  P50  1  0.13661100  0.79330600  0.13651100  1
  P  P51  1  0.29428600  0.65623800  0.29162800  1
  P  P52  1  0.36195200  0.70571400  0.95829500  1
  P  P53  1  0.34376200  0.63804800  0.62496200  1
  P  P54  1  0.20669400  0.34330500  0.46984400  1
  P  P55  1  0.20537700  0.29796000  0.12564900  1
  P  P56  1  0.24122500  0.32364300  0.80039200  1
  P  P57  1  0.65669500  0.86338900  0.80317800  1
  P  P58  1  0.67635700  0.91758200  0.13372500  1
  P  P59  1  0.70204000  0.90741700  0.45898200  1
  P  P60  1  0.29796000  0.09258300  0.95898200  1
  P  P61  1  0.32364300  0.08241800  0.63372500  1
  P  P62  1  0.34330500  0.13661100  0.30317800  1
  P  P63  1  0.75877500  0.67635700  0.30039200  1
  P  P64  1  0.79462300  0.70204000  0.62564900  1
  P  P65  1  0.79330600  0.65669500  0.96984400  1
  P  P66  1  0.65623800  0.36195200  0.12496200  1
  P  P67  1  0.63804800  0.29428600  0.45829500  1
  P  P68  1  0.70571400  0.34376200  0.79162800  1
  P  P69  1  0.86338900  0.20669400  0.63651100  1
  P  P70  1  0.91758200  0.24122500  0.96705900  1
  P  P71  1  0.90741700  0.20537700  0.29231600  1
  O  O72  1  0.04422800  0.79272500  0.08230900  1
  O  O73  1  0.08577300  0.92161900  0.46920500  1
  O  O74  1  0.01304200  0.69173800  0.84578100  1
  O  O75  1  0.13493400  0.97868300  0.93158300  1
  O  O76  1  0.03905500  0.78760400  0.18980700  1
  O  O77  1  0.01654800  0.67139000  0.52412300  1
  O  O78  1  0.24406000  0.94563000  0.81019500  1
  O  O79  1  0.13109100  0.64636500  0.29671300  1
  O  O80  1  0.12707400  0.69183800  0.75068600  1
  O  O81  1  0.31079300  0.97276400  0.58332500  1
  O  O82  1  0.30614500  0.93352800  0.13879600  1
  O  O83  1  0.14793100  0.63946600  0.13267000  1
  O  O84  1  0.25273600  0.79081600  0.45868200  1
  O  O85  1  0.17094800  0.59209800  0.61188100  1
  O  O86  1  0.06647200  0.37261800  0.47213000  1
  O  O87  1  0.26742900  0.72068400  0.90629400  1
  O  O88  1  0.02723600  0.33802800  0.91665800  1
  O  O89  1  0.05437000  0.29843100  0.14352800  1
  O  O90  1  0.02131700  0.15625100  0.26491600  1
  O  O91  1  0.07838100  0.16415400  0.80253900  1
  O  O92  1  0.26440400  0.66777300  0.01372100  1
  O  O93  1  0.27931600  0.54674500  0.23962700  1
  O  O94  1  0.33222700  0.59663100  0.34705400  1
  O  O95  1  0.20918400  0.46192000  0.79201500  1
  O  O96  1  0.40336900  0.73559600  0.68038700  1
  O  O97  1  0.42115000  0.82905200  0.27854800  1
  O  O98  1  0.49153400  0.85206900  0.79933700  1
  O  O99  1  0.30816200  0.43523600  0.08401900  1
  O  O100  1  0.35363500  0.48472600  0.63004600  1
  O  O101  1  0.36053400  0.50846600  0.46600300  1
  O  O102  1  0.21239600  0.25145100  0.52314100  1
  O  O103  1  0.40790200  0.57885000  0.94521500  1
  O  O104  1  0.45325500  0.73257100  0.57296000  1
  O  O105  1  0.51527400  0.86890900  0.96337900  1
  O  O106  1  0.56476400  0.87292600  0.41735300  1
  O  O107  1  0.15625100  0.13493400  0.09825000  1
  O  O108  1  0.20727500  0.25150300  0.41564300  1
  O  O109  1  0.30826200  0.32130400  0.17911500  1
  O  O110  1  0.16415400  0.08577300  0.63587200  1
  O  O111  1  0.32861000  0.34515800  0.85745600  1
  O  O112  1  0.53808000  0.74726400  0.12534800  1
  O  O113  1  0.29843100  0.24406000  0.97686100  1
  O  O114  1  0.65484200  0.98345200  0.19079000  1
  O  O115  1  0.33802800  0.31079300  0.74999100  1
  O  O116  1  0.37261800  0.30614500  0.30546300  1
  O  O117  1  0.67869600  0.98695800  0.51244800  1
  O  O118  1  0.74854900  0.96094500  0.85647400  1
  O  O119  1  0.25150300  0.04422800  0.24897600  1
  O  O120  1  0.74849700  0.95577200  0.74897600  1
  O  O121  1  0.25145100  0.03905500  0.35647400  1
  O  O122  1  0.32130400  0.01304200  0.01244800  1
  O  O123  1  0.62738200  0.69385500  0.80546300  1
  O  O124  1  0.66197200  0.68920700  0.24999100  1
  O  O125  1  0.34515800  0.01654800  0.69079000  1
  O  O126  1  0.70156900  0.75594000  0.47686100  1
  O  O127  1  0.46192000  0.25273600  0.62534800  1
  O  O128  1  0.67139000  0.65484200  0.35745600  1
  O  O129  1  0.83584600  0.91422700  0.13587200  1
  O  O130  1  0.69173800  0.67869600  0.67911500  1
  O  O131  1  0.79272500  0.74849700  0.91564300  1
  O  O132  1  0.84374900  0.86506600  0.59825000  1
  O  O133  1  0.43523600  0.12707400  0.91735300  1
  O  O134  1  0.48472600  0.13109100  0.46337900  1
  O  O135  1  0.54674500  0.26742900  0.07296000  1
  O  O136  1  0.59209800  0.42115000  0.44521500  1
  O  O137  1  0.78760400  0.74854900  0.02314100  1
  O  O138  1  0.63946600  0.49153400  0.96600300  1
  O  O139  1  0.64636500  0.51527400  0.13004600  1
  O  O140  1  0.69183800  0.56476400  0.58401900  1
  O  O141  1  0.50846600  0.14793100  0.29933700  1
  O  O142  1  0.57885000  0.17094800  0.77854800  1
  O  O143  1  0.59663100  0.26440400  0.18038700  1
  O  O144  1  0.79081600  0.53808000  0.29201500  1
  O  O145  1  0.66777300  0.40336900  0.84705400  1
  O  O146  1  0.72068400  0.45325500  0.73962700  1
  O  O147  1  0.73559600  0.33222700  0.51372100  1
  O  O148  1  0.92161900  0.83584600  0.30253900  1
  O  O149  1  0.97868300  0.84374900  0.76491600  1
  O  O150  1  0.94563000  0.70156900  0.64352800  1
  O  O151  1  0.97276400  0.66197200  0.41665800  1
  O  O152  1  0.73257100  0.27931600  0.40629400  1
  O  O153  1  0.93352800  0.62738200  0.97213000  1
  O  O154  1  0.82905200  0.40790200  0.11188100  1
  O  O155  1  0.74726400  0.20918400  0.95868200  1
  O  O156  1  0.85206900  0.36053400  0.63267000  1
  O  O157  1  0.69385500  0.06647200  0.63879600  1
  O  O158  1  0.68920700  0.02723600  0.08332500  1
  O  O159  1  0.87292600  0.30816200  0.25068600  1
  O  O160  1  0.86890900  0.35363500  0.79671300  1
  O  O161  1  0.75594000  0.05437000  0.31019500  1
  O  O162  1  0.98345200  0.32861000  0.02412300  1
  O  O163  1  0.96094500  0.21239600  0.68980700  1
  O  O164  1  0.86506600  0.02131700  0.43158300  1
  O  O165  1  0.98695800  0.30826200  0.34578100  1
  O  O166  1  0.91422700  0.07838100  0.96920500  1
  O  O167  1  0.95577200  0.20727500  0.58230900  1
