# generated using pymatgen
data_Li4V3Fe2Ni3O16
_symmetry_space_group_name_H-M   'P 1'
_cell_length_a   5.87215700
_cell_length_b   5.87260003
_cell_length_c   9.62342914
_cell_angle_alpha   90.42546833
_cell_angle_beta   92.20039705
_cell_angle_gamma   119.57666316
_symmetry_Int_Tables_number   1
_chemical_formula_structural   Li4V3Fe2Ni3O16
_chemical_formula_sum   'Li4 V3 Fe2 Ni3 O16'
_cell_volume   288.27365486
_cell_formula_units_Z   1
loop_
 _symmetry_equiv_pos_site_id
 _symmetry_equiv_pos_as_xyz
  1  'x, y, z'
loop_
 _atom_site_type_symbol
 _atom_site_label
 _atom_site_symmetry_multiplicity
 _atom_site_fract_x
 _atom_site_fract_y
 _atom_site_fract_z
 _atom_site_occupancy
  Li  Li0  1  0.32595500  0.66219800  0.89056400  1
  Li  Li1  1  0.98053800  0.98283000  0.98649300  1
  Li  Li2  1  0.00769900  0.00726500  0.49862000  1
  Li  Li3  1  0.63243700  0.31181200  0.40747100  1
  V  V4  1  0.12686000  0.78046200  0.23967900  1
  V  V5  1  0.20449500  0.32969700  0.19370000  1
  V  V6  1  0.34937800  0.18263300  0.72128800  1
  Fe  Fe7  1  0.34573100  0.67861100  0.50952600  1
  Fe  Fe8  1  0.70506600  0.34716000  0.97709500  1
  Ni  Ni9  1  0.65892100  0.83849800  0.21127900  1
  Ni  Ni10  1  0.83934600  0.66423000  0.70915500  1
  Ni  Ni11  1  0.83058600  0.16770300  0.71092700  1
  O  O12  1  0.18730400  0.85507100  0.60273700  1
  O  O13  1  0.99919800  0.51917300  0.34553100  1
  O  O14  1  0.29046500  0.64699800  0.11139900  1
  O  O15  1  0.02749800  0.01542700  0.30687500  1
  O  O16  1  0.01776600  0.02619200  0.80257500  1
  O  O17  1  0.20293800  0.33785400  0.60094500  1
  O  O18  1  0.44831500  0.95412200  0.32881200  1
  O  O19  1  0.44685100  0.49916900  0.33412500  1
  O  O20  1  0.34313200  0.19745700  0.09148900  1
  O  O21  1  0.68860900  0.85793700  0.59253200  1
  O  O22  1  0.51148800  0.47375500  0.84010000  1
  O  O23  1  0.49326900  0.03457500  0.84433600  1
  O  O24  1  0.64729700  0.30655800  0.60919300  1
  O  O25  1  0.85990600  0.68065700  0.10073400  1
  O  O26  1  0.96425500  0.46448400  0.83688200  1
  O  O27  1  0.86469500  0.17777100  0.10377500  1
