# generated using pymatgen
data_Li3Mn(PO4)2
_symmetry_space_group_name_H-M   'P 1'
_cell_length_a   4.72730909
_cell_length_b   5.07456537
_cell_length_c   27.45190158
_cell_angle_alpha   92.02254528
_cell_angle_beta   85.07398486
_cell_angle_gamma   117.74484062
_symmetry_Int_Tables_number   1
_chemical_formula_structural   Li3Mn(PO4)2
_chemical_formula_sum   'Li12 Mn4 P8 O32'
_cell_volume   580.67063289
_cell_formula_units_Z   4
loop_
 _symmetry_equiv_pos_site_id
 _symmetry_equiv_pos_as_xyz
  1  'x, y, z'
loop_
 _atom_site_type_symbol
 _atom_site_label
 _atom_site_symmetry_multiplicity
 _atom_site_fract_x
 _atom_site_fract_y
 _atom_site_fract_z
 _atom_site_occupancy
  Li  Li0  1  0.98455100  0.37301400  0.37498600  1
  Li  Li1  1  0.98455600  0.87302500  0.87499100  1
  Li  Li2  1  0.01654300  0.12328000  0.12509200  1
  Li  Li3  1  0.01651900  0.62326700  0.62509200  1
  Li  Li4  1  0.32490100  0.99538000  0.33184700  1
  Li  Li5  1  0.32490600  0.49538900  0.83184500  1
  Li  Li6  1  0.34152500  0.74635400  0.08204400  1
  Li  Li7  1  0.34149600  0.24632600  0.58204600  1
  Li  Li8  1  0.65970200  0.75054000  0.41791400  1
  Li  Li9  1  0.65971500  0.25056500  0.91791800  1
  Li  Li10  1  0.67562400  0.50007400  0.16840400  1
  Li  Li11  1  0.67563100  0.00010300  0.66840900  1
  Mn  Mn12  1  0.99961000  0.74737200  0.74998800  1
  Mn  Mn13  1  0.00064600  0.49906800  0.50011300  1
  Mn  Mn14  1  0.99961700  0.24722100  0.24997300  1
  Mn  Mn15  1  0.00050100  0.99910900  0.00012900  1
  P  P16  1  0.34844800  0.12631200  0.44163800  1
  P  P17  1  0.34849600  0.62635200  0.94165100  1
  P  P18  1  0.33826700  0.87516000  0.19169900  1
  P  P19  1  0.33831700  0.37511700  0.69169300  1
  P  P20  1  0.66165000  0.61956800  0.30823400  1
  P  P21  1  0.66168700  0.11953000  0.80823100  1
  P  P22  1  0.65244600  0.37111000  0.05857600  1
  P  P23  1  0.65239600  0.87106800  0.55856600  1
  O  O24  1  0.22546200  0.35013500  0.42965900  1
  O  O25  1  0.22550800  0.85016000  0.92966300  1
  O  O26  1  0.69722900  0.09832100  0.17978200  1
  O  O27  1  0.69725700  0.59838200  0.67978200  1
  O  O28  1  0.30295200  0.39606500  0.32028200  1
  O  O29  1  0.30296600  0.89612000  0.82028400  1
  O  O30  1  0.77616300  0.14771300  0.07047100  1
  O  O31  1  0.77610500  0.64768300  0.57047000  1
  O  O32  1  0.57034900  0.26223100  0.48375800  1
  O  O33  1  0.57043700  0.76231400  0.98376400  1
  O  O34  1  0.21016400  0.01096000  0.23385700  1
  O  O35  1  0.21024900  0.51091600  0.73385900  1
  O  O36  1  0.78919600  0.48364200  0.26601400  1
  O  O37  1  0.78927500  0.98360200  0.76601800  1
  O  O38  1  0.42989700  0.23529300  0.01652100  1
  O  O39  1  0.42982100  0.73521900  0.51651600  1
  O  O40  1  0.53035800  0.06109000  0.39717700  1
  O  O41  1  0.53034900  0.56111100  0.89717900  1
  O  O42  1  0.13599300  0.81066500  0.14723200  1
  O  O43  1  0.13598600  0.31069100  0.64723100  1
  O  O44  1  0.86467700  0.68462700  0.35263700  1
  O  O45  1  0.86467500  0.18467200  0.85263800  1
  O  O46  1  0.47102200  0.43618600  0.10309800  1
  O  O47  1  0.47101500  0.93616300  0.60309800  1
  O  O48  1  0.67455700  0.91985100  0.29202600  1
  O  O49  1  0.67457000  0.41982500  0.79203600  1
  O  O50  1  0.95553200  0.67128400  0.04228800  1
  O  O51  1  0.95544300  0.17122700  0.54227500  1
  O  O52  1  0.04512100  0.82618000  0.45792800  1
  O  O53  1  0.04520900  0.32624000  0.95794400  1
  O  O54  1  0.32466900  0.57457000  0.20791900  1
  O  O55  1  0.32467200  0.07452100  0.70792900  1
