# generated using pymatgen
data_Li4Co3P4(H3O4)6
_symmetry_space_group_name_H-M   'P 1'
_cell_length_a   9.14521900
_cell_length_b   7.20206200
_cell_length_c   14.78565627
_cell_angle_alpha   86.15572979
_cell_angle_beta   90.00000000
_cell_angle_gamma   90.00000000
_symmetry_Int_Tables_number   1
_chemical_formula_structural   Li4Co3P4(H3O4)6
_chemical_formula_sum   'Li8 Co6 P8 H36 O48'
_cell_volume   971.65768933
_cell_formula_units_Z   2
loop_
 _symmetry_equiv_pos_site_id
 _symmetry_equiv_pos_as_xyz
  1  'x, y, z'
loop_
 _atom_site_type_symbol
 _atom_site_label
 _atom_site_symmetry_multiplicity
 _atom_site_fract_x
 _atom_site_fract_y
 _atom_site_fract_z
 _atom_site_occupancy
  Li  Li0  1  0.99664800  0.71739600  0.85591000  1
  Li  Li1  1  0.50335200  0.71739600  0.35591000  1
  Li  Li2  1  0.39813900  0.55249700  0.78485500  1
  Li  Li3  1  0.10186100  0.55249700  0.28485500  1
  Li  Li4  1  0.89813900  0.44750300  0.71514500  1
  Li  Li5  1  0.60186100  0.44750300  0.21514500  1
  Li  Li6  1  0.49664800  0.28260400  0.64409000  1
  Li  Li7  1  0.00335200  0.28260400  0.14409000  1
  Co  Co8  1  0.75613100  0.97321900  0.50144700  1
  Co  Co9  1  0.74386900  0.97321900  0.00144700  1
  Co  Co10  1  0.00000000  0.50000000  0.50000000  1
  Co  Co11  1  0.50000000  0.50000000  0.00000000  1
  Co  Co12  1  0.25613100  0.02678100  0.99855300  1
  Co  Co13  1  0.24386900  0.02678100  0.49855300  1
  P  P14  1  0.52254100  0.89537500  0.88036600  1
  P  P15  1  0.97745900  0.89537500  0.38036600  1
  P  P16  1  0.47762800  0.74483100  0.57199900  1
  P  P17  1  0.02237200  0.74483100  0.07199900  1
  P  P18  1  0.97762800  0.25516900  0.92800100  1
  P  P19  1  0.52237200  0.25516900  0.42800100  1
  P  P20  1  0.02254100  0.10462500  0.61963400  1
  P  P21  1  0.47745900  0.10462500  0.11963400  1
  H  H22  1  0.24987000  0.85369500  0.82139900  1
  H  H23  1  0.49540300  0.87651300  0.70056300  1
  H  H24  1  0.17844800  0.84379000  0.72546100  1
  H  H25  1  0.84948700  0.82783700  0.70483100  1
  H  H26  1  0.25013000  0.85369500  0.32139900  1
  H  H27  1  0.72966500  0.74578800  0.77121100  1
  H  H28  1  0.00459700  0.87651300  0.20056300  1
  H  H29  1  0.32155200  0.84379000  0.22546100  1
  H  H30  1  0.65051300  0.82783700  0.20483100  1
  H  H31  1  0.77033500  0.74578800  0.27121100  1
  H  H32  1  0.09786800  0.72514100  0.61722500  1
  H  H33  1  0.24441200  0.63573300  0.95016100  1
  H  H34  1  0.40213200  0.72514100  0.11722500  1
  H  H35  1  0.25558800  0.63573300  0.45016100  1
  H  H36  1  0.19101600  0.54349700  0.63143000  1
  H  H37  1  0.24040000  0.42044800  0.94094900  1
  H  H38  1  0.74040000  0.57955200  0.55905100  1
  H  H39  1  0.69101600  0.45650300  0.86857000  1
  H  H40  1  0.30898400  0.54349700  0.13143000  1
  H  H41  1  0.25960000  0.42044800  0.44094900  1
  H  H42  1  0.75960000  0.57955200  0.05905100  1
  H  H43  1  0.80898400  0.45650300  0.36857000  1
  H  H44  1  0.74441200  0.36426700  0.54983900  1
  H  H45  1  0.59786800  0.27485900  0.88277500  1
  H  H46  1  0.75558800  0.36426700  0.04983900  1
  H  H47  1  0.90213200  0.27485900  0.38277500  1
  H  H48  1  0.22966500  0.25421200  0.72878900  1
  H  H49  1  0.34948700  0.17216300  0.79516900  1
  H  H50  1  0.67844800  0.15621000  0.77453900  1
  H  H51  1  0.99540300  0.12348700  0.79943700  1
  H  H52  1  0.27033500  0.25421200  0.22878900  1
  H  H53  1  0.74987000  0.14630500  0.67860100  1
  H  H54  1  0.15051300  0.17216300  0.29516900  1
  H  H55  1  0.82155200  0.15621000  0.27453900  1
  H  H56  1  0.50459700  0.12348700  0.29943700  1
  H  H57  1  0.75013000  0.14630500  0.17860100  1
  O  O58  1  0.36678300  0.98485100  0.88167700  1
  O  O59  1  0.14137200  0.94760900  0.61862500  1
  O  O60  1  0.13321700  0.98485100  0.38167700  1
  O  O61  1  0.46970700  0.91808800  0.63446600  1
  O  O62  1  0.13235700  0.79333700  0.99337200  1
  O  O63  1  0.35862800  0.94760900  0.11862500  1
  O  O64  1  0.53640900  0.78678800  0.79424600  1
  O  O65  1  0.55536000  0.77268800  0.96774300  1
  O  O66  1  0.03029300  0.91808800  0.13446600  1
  O  O67  1  0.18618800  0.77411800  0.78540900  1
  O  O68  1  0.36764300  0.79333700  0.49337200  1
  O  O69  1  0.83423200  0.72957900  0.75431800  1
  O  O70  1  0.96359100  0.78678800  0.29424600  1
  O  O71  1  0.63346900  0.74541800  0.52858800  1
  O  O72  1  0.94464000  0.77268800  0.46774300  1
  O  O73  1  0.31381200  0.77411800  0.28540900  1
  O  O74  1  0.66576800  0.72957900  0.25431800  1
  O  O75  1  0.86653100  0.74541800  0.02858800  1
  O  O76  1  0.30405600  0.53348000  0.92613300  1
  O  O77  1  0.08936300  0.58584100  0.62382400  1
  O  O78  1  0.44282300  0.56514900  0.62779900  1
  O  O79  1  0.19594400  0.53348000  0.42613300  1
  O  O80  1  0.41063700  0.58584100  0.12382400  1
  O  O81  1  0.05717700  0.56514900  0.12779900  1
  O  O82  1  0.94282300  0.43485100  0.87220100  1
  O  O83  1  0.58936300  0.41415900  0.87617600  1
  O  O84  1  0.80405600  0.46652000  0.57386700  1
  O  O85  1  0.55717700  0.43485100  0.37220100  1
  O  O86  1  0.91063700  0.41415900  0.37617600  1
  O  O87  1  0.69594400  0.46652000  0.07386700  1
  O  O88  1  0.13346900  0.25458200  0.97141200  1
  O  O89  1  0.33423200  0.27042100  0.74568200  1
  O  O90  1  0.68618800  0.22588200  0.71459100  1
  O  O91  1  0.05536000  0.22731200  0.53225700  1
  O  O92  1  0.36653100  0.25458200  0.47141200  1
  O  O93  1  0.03640900  0.21321200  0.70575400  1
  O  O94  1  0.16576800  0.27042100  0.24568200  1
  O  O95  1  0.63235700  0.20666300  0.50662800  1
  O  O96  1  0.81381200  0.22588200  0.21459100  1
  O  O97  1  0.96970700  0.08191200  0.86553400  1
  O  O98  1  0.44464000  0.22731200  0.03225700  1
  O  O99  1  0.46359100  0.21321200  0.20575400  1
  O  O100  1  0.64137200  0.05239100  0.88137500  1
  O  O101  1  0.86764300  0.20666300  0.00662800  1
  O  O102  1  0.53029300  0.08191200  0.36553400  1
  O  O103  1  0.86678300  0.01514900  0.61832300  1
  O  O104  1  0.85862800  0.05239100  0.38137500  1
  O  O105  1  0.63321700  0.01514900  0.11832300  1
