# generated using pymatgen
data_LiMn(PO3)4
_symmetry_space_group_name_H-M   'P 1'
_cell_length_a   9.45134700
_cell_length_b   6.89757800
_cell_length_c   15.73463646
_cell_angle_alpha   66.30628769
_cell_angle_beta   90.00000000
_cell_angle_gamma   90.00000000
_symmetry_Int_Tables_number   1
_chemical_formula_structural   LiMn(PO3)4
_chemical_formula_sum   'Li4 Mn4 P16 O48'
_cell_volume   939.29807612
_cell_formula_units_Z   4
loop_
 _symmetry_equiv_pos_site_id
 _symmetry_equiv_pos_as_xyz
  1  'x, y, z'
loop_
 _atom_site_type_symbol
 _atom_site_label
 _atom_site_symmetry_multiplicity
 _atom_site_fract_x
 _atom_site_fract_y
 _atom_site_fract_z
 _atom_site_occupancy
  Li  Li0  1  0.56510800  0.35354300  0.62035300  1
  Li  Li1  1  0.93489200  0.35354300  0.12035300  1
  Li  Li2  1  0.06510800  0.64645700  0.87964700  1
  Li  Li3  1  0.43489200  0.64645700  0.37964700  1
  Mn  Mn4  1  0.66978700  0.77995800  0.10780100  1
  Mn  Mn5  1  0.16978700  0.22004200  0.39219900  1
  Mn  Mn6  1  0.83021300  0.77995800  0.60780100  1
  Mn  Mn7  1  0.33021300  0.22004200  0.89219900  1
  P  P8  1  0.22266400  0.35205500  0.56576700  1
  P  P9  1  0.05288500  0.65506700  0.20874600  1
  P  P10  1  0.22764800  0.77507900  0.03482300  1
  P  P11  1  0.02342500  0.02380100  0.70555100  1
  P  P12  1  0.72764800  0.22492100  0.46517700  1
  P  P13  1  0.55288500  0.34493300  0.29125400  1
  P  P14  1  0.52342500  0.97619900  0.79444900  1
  P  P15  1  0.27733600  0.35205500  0.06576700  1
  P  P16  1  0.72266400  0.64794500  0.93423300  1
  P  P17  1  0.47657500  0.02380100  0.20555100  1
  P  P18  1  0.44711500  0.65506700  0.70874600  1
  P  P19  1  0.27235200  0.77507900  0.53482300  1
  P  P20  1  0.97657500  0.97619900  0.29444900  1
  P  P21  1  0.77235200  0.22492100  0.96517700  1
  P  P22  1  0.94711500  0.34493300  0.79125400  1
  P  P23  1  0.77733600  0.64794500  0.43423300  1
  O  O24  1  0.32423700  0.97002900  0.00509800  1
  O  O25  1  0.17869700  0.75044200  0.13562000  1
  O  O26  1  0.96442900  0.15285600  0.76143900  1
  O  O27  1  0.22045000  0.37754200  0.46426400  1
  O  O28  1  0.11261900  0.47206300  0.29147200  1
  O  O29  1  0.83722300  0.42089300  0.43997100  1
  O  O30  1  0.35735900  0.30009800  0.61715300  1
  O  O31  1  0.42296000  0.38058800  0.33690400  1
  O  O32  1  0.09147600  0.20670400  0.61477300  1
  O  O33  1  0.62650300  0.13769700  0.73888600  1
  O  O34  1  0.92296000  0.61941200  0.16309600  1
  O  O35  1  0.89140000  0.95516300  0.66870800  1
  O  O36  1  0.61429700  0.23121100  0.52854800  1
  O  O37  1  0.33722300  0.57910700  0.06002900  1
  O  O38  1  0.61261900  0.52793700  0.20852800  1
  O  O39  1  0.72045000  0.62245800  0.03573600  1
  O  O40  1  0.11429700  0.76878900  0.97145200  1
  O  O41  1  0.39140000  0.04483700  0.83129200  1
  O  O42  1  0.67869700  0.24955800  0.36438000  1
  O  O43  1  0.12650300  0.86230300  0.76111400  1
  O  O44  1  0.82423700  0.02997100  0.49490200  1
  O  O45  1  0.59147600  0.79329600  0.88522700  1
  O  O46  1  0.53557100  0.15285600  0.26143900  1
  O  O47  1  0.85735900  0.69990200  0.88284700  1
  O  O48  1  0.14264100  0.30009800  0.11715300  1
  O  O49  1  0.46442900  0.84714400  0.73856100  1
  O  O50  1  0.40852400  0.20670400  0.11477300  1
  O  O51  1  0.17576300  0.97002900  0.50509800  1
  O  O52  1  0.87349700  0.13769700  0.23888600  1
  O  O53  1  0.32130300  0.75044200  0.63562000  1
  O  O54  1  0.60860000  0.95516300  0.16870800  1
  O  O55  1  0.88570300  0.23121100  0.02854800  1
  O  O56  1  0.27955000  0.37754200  0.96426400  1
  O  O57  1  0.38738100  0.47206300  0.79147200  1
  O  O58  1  0.66277700  0.42089300  0.93997100  1
  O  O59  1  0.38570300  0.76878900  0.47145200  1
  O  O60  1  0.10860000  0.04483700  0.33129200  1
  O  O61  1  0.07704000  0.38058800  0.83690400  1
  O  O62  1  0.37349700  0.86230300  0.26111400  1
  O  O63  1  0.90852400  0.79329600  0.38522700  1
  O  O64  1  0.57704000  0.61941200  0.66309600  1
  O  O65  1  0.64264100  0.69990200  0.38284700  1
  O  O66  1  0.16277700  0.57910700  0.56002900  1
  O  O67  1  0.88738100  0.52793700  0.70852800  1
  O  O68  1  0.77955000  0.62245800  0.53573600  1
  O  O69  1  0.03557100  0.84714400  0.23856100  1
  O  O70  1  0.82130300  0.24955800  0.86438000  1
  O  O71  1  0.67576300  0.02997100  0.99490200  1
