# generated using pymatgen
data_NaLi5Fe2P2(CO7)2
_symmetry_space_group_name_H-M   'P 1'
_cell_length_a   6.54091400
_cell_length_b   8.53598200
_cell_length_c   10.09404336
_cell_angle_alpha   85.89638809
_cell_angle_beta   90.00000000
_cell_angle_gamma   90.00000000
_symmetry_Int_Tables_number   1
_chemical_formula_structural   NaLi5Fe2P2(CO7)2
_chemical_formula_sum   'Na2 Li10 Fe4 P4 C4 O28'
_cell_volume   562.13710658
_cell_formula_units_Z   2
loop_
 _symmetry_equiv_pos_site_id
 _symmetry_equiv_pos_as_xyz
  1  'x, y, z'
loop_
 _atom_site_type_symbol
 _atom_site_label
 _atom_site_symmetry_multiplicity
 _atom_site_fract_x
 _atom_site_fract_y
 _atom_site_fract_z
 _atom_site_occupancy
  Na  Na0  1  0.00130700  0.25680600  0.87831500  1
  Na  Na1  1  0.50130700  0.74319400  0.12168500  1
  Li  Li2  1  0.25599600  0.08629400  0.62318200  1
  Li  Li3  1  0.25016800  0.09230200  0.12899400  1
  Li  Li4  1  0.01980000  0.27244700  0.37535800  1
  Li  Li5  1  0.47333800  0.27536800  0.37170000  1
  Li  Li6  1  0.48003000  0.27573800  0.87332500  1
  Li  Li7  1  0.51980000  0.72755300  0.62464200  1
  Li  Li8  1  0.97333800  0.72463200  0.62830000  1
  Li  Li9  1  0.98003000  0.72426200  0.12667500  1
  Li  Li10  1  0.75599600  0.91370600  0.37681800  1
  Li  Li11  1  0.75016800  0.90769800  0.87100600  1
  Fe  Fe12  1  0.74572200  0.33816800  0.64087400  1
  Fe  Fe13  1  0.74870700  0.34021600  0.14686100  1
  Fe  Fe14  1  0.24572200  0.66183200  0.35912600  1
  Fe  Fe15  1  0.24870700  0.65978400  0.85313900  1
  P  P16  1  0.25093700  0.40946900  0.60316700  1
  P  P17  1  0.24820600  0.41024600  0.10923000  1
  P  P18  1  0.75093700  0.59053100  0.39683300  1
  P  P19  1  0.74820600  0.58975400  0.89077000  1
  C  C20  1  0.75046500  0.03457700  0.60643000  1
  C  C21  1  0.75687700  0.03992000  0.10515700  1
  C  C22  1  0.25046500  0.96542300  0.39357000  1
  C  C23  1  0.25687700  0.96008000  0.89484300  1
  O  O24  1  0.24779200  0.11220400  0.41918900  1
  O  O25  1  0.28075000  0.10250500  0.92810100  1
  O  O26  1  0.75654900  0.07699000  0.72793000  1
  O  O27  1  0.75216100  0.07489600  0.22850900  1
  O  O28  1  0.74654600  0.14274200  0.50782400  1
  O  O29  1  0.73651200  0.15314100  0.01138900  1
  O  O30  1  0.05934600  0.31231200  0.64884600  1
  O  O31  1  0.43251300  0.30375500  0.65606600  1
  O  O32  1  0.06390300  0.29987900  0.14943500  1
  O  O33  1  0.43555000  0.31690000  0.16941400  1
  O  O34  1  0.25566800  0.42768400  0.44784100  1
  O  O35  1  0.75715900  0.42440400  0.34376600  1
  O  O36  1  0.26940700  0.43104100  0.95509900  1
  O  O37  1  0.72458700  0.42645000  0.83552000  1
  O  O38  1  0.25715900  0.57559600  0.65623400  1
  O  O39  1  0.75566800  0.57231600  0.55215900  1
  O  O40  1  0.22458700  0.57355000  0.16448000  1
  O  O41  1  0.76940700  0.56895900  0.04490100  1
  O  O42  1  0.55934600  0.68768800  0.35115400  1
  O  O43  1  0.93251300  0.69624500  0.34393400  1
  O  O44  1  0.56390300  0.70012100  0.85056500  1
  O  O45  1  0.93555000  0.68310000  0.83058600  1
  O  O46  1  0.24654600  0.85725800  0.49217600  1
  O  O47  1  0.23651200  0.84685900  0.98861100  1
  O  O48  1  0.25654900  0.92301000  0.27207000  1
  O  O49  1  0.25216100  0.92510400  0.77149100  1
  O  O50  1  0.74779200  0.88779600  0.58081100  1
  O  O51  1  0.78075000  0.89749500  0.07189900  1
