# generated using pymatgen
data_LiCrPO4
_symmetry_space_group_name_H-M   'P 1'
_cell_length_a   10.75752100
_cell_length_b   5.88572300
_cell_length_c   10.05097930
_cell_angle_alpha   88.27132956
_cell_angle_beta   90.00000000
_cell_angle_gamma   90.00000000
_symmetry_Int_Tables_number   1
_chemical_formula_structural   LiCrPO4
_chemical_formula_sum   'Li8 Cr8 P8 O32'
_cell_volume   636.09605690
_cell_formula_units_Z   8
loop_
 _symmetry_equiv_pos_site_id
 _symmetry_equiv_pos_as_xyz
  1  'x, y, z'
loop_
 _atom_site_type_symbol
 _atom_site_label
 _atom_site_symmetry_multiplicity
 _atom_site_fract_x
 _atom_site_fract_y
 _atom_site_fract_z
 _atom_site_occupancy
  Li  Li0  1  0.86191500  0.88430200  0.89874000  1
  Li  Li1  1  0.63808500  0.88430200  0.39874000  1
  Li  Li2  1  0.34542900  0.60254300  0.64485500  1
  Li  Li3  1  0.15457100  0.60254300  0.14485500  1
  Li  Li4  1  0.84542900  0.39745700  0.85514500  1
  Li  Li5  1  0.65457100  0.39745700  0.35514500  1
  Li  Li6  1  0.36191500  0.11569800  0.60126000  1
  Li  Li7  1  0.13808500  0.11569800  0.10126000  1
  Cr  Cr8  1  0.09637700  0.86820000  0.72232300  1
  Cr  Cr9  1  0.40362300  0.86820000  0.22232300  1
  Cr  Cr10  1  0.62701300  0.65848600  0.98083600  1
  Cr  Cr11  1  0.87298700  0.65848600  0.48083600  1
  Cr  Cr12  1  0.12701300  0.34151400  0.51916400  1
  Cr  Cr13  1  0.37298700  0.34151400  0.01916400  1
  Cr  Cr14  1  0.59637700  0.13180000  0.77767700  1
  Cr  Cr15  1  0.90362300  0.13180000  0.27767700  1
  P  P16  1  0.35492600  0.87433000  0.90688700  1
  P  P17  1  0.14507400  0.87433000  0.40688700  1
  P  P18  1  0.60758900  0.62778500  0.65765600  1
  P  P19  1  0.89241100  0.62778500  0.15765600  1
  P  P20  1  0.10758900  0.37221500  0.84234400  1
  P  P21  1  0.39241100  0.37221500  0.34234400  1
  P  P22  1  0.85492600  0.12567000  0.59311300  1
  P  P23  1  0.64507400  0.12567000  0.09311300  1
  O  O24  1  0.21507700  0.91039600  0.54006900  1
  O  O25  1  0.92706600  0.89969700  0.62749300  1
  O  O26  1  0.28492300  0.91039600  0.04006900  1
  O  O27  1  0.57293400  0.89969700  0.12749300  1
  O  O28  1  0.27004300  0.82287100  0.79002300  1
  O  O29  1  0.52802900  0.84820400  0.64450500  1
  O  O30  1  0.22995700  0.82287100  0.29002300  1
  O  O31  1  0.97197100  0.84820400  0.14450500  1
  O  O32  1  0.44523600  0.67130000  0.92398600  1
  O  O33  1  0.69395000  0.63205000  0.78349400  1
  O  O34  1  0.05476400  0.67130000  0.42398600  1
  O  O35  1  0.68958300  0.61344600  0.52883700  1
  O  O36  1  0.01943500  0.58175000  0.83310400  1
  O  O37  1  0.80605000  0.63205000  0.28349400  1
  O  O38  1  0.81041700  0.61344600  0.02883700  1
  O  O39  1  0.48056500  0.58175000  0.33310400  1
  O  O40  1  0.51943500  0.41825000  0.66689600  1
  O  O41  1  0.18958300  0.38655400  0.97116300  1
  O  O42  1  0.19395000  0.36795000  0.71650600  1
  O  O43  1  0.98056500  0.41825000  0.16689600  1
  O  O44  1  0.31041700  0.38655400  0.47116300  1
  O  O45  1  0.94523600  0.32870000  0.57601400  1
  O  O46  1  0.30605000  0.36795000  0.21650600  1
  O  O47  1  0.55476400  0.32870000  0.07601400  1
  O  O48  1  0.02802900  0.15179600  0.85549500  1
  O  O49  1  0.77004300  0.17712900  0.70997700  1
  O  O50  1  0.47197100  0.15179600  0.35549500  1
  O  O51  1  0.72995700  0.17712900  0.20997700  1
  O  O52  1  0.42706600  0.10030300  0.87250700  1
  O  O53  1  0.71507700  0.08960400  0.95993100  1
  O  O54  1  0.07293400  0.10030300  0.37250700  1
  O  O55  1  0.78492300  0.08960400  0.45993100  1
