# generated using pymatgen
data_LiAgF3
_symmetry_space_group_name_H-M   'P 1'
_cell_length_a   5.43135886
_cell_length_b   5.43135886
_cell_length_c   15.23072900
_cell_angle_alpha   90.00000000
_cell_angle_beta   90.00000000
_cell_angle_gamma   120.00001050
_symmetry_Int_Tables_number   1
_chemical_formula_structural   LiAgF3
_chemical_formula_sum   'Li6 Ag6 F18'
_cell_volume   389.10630995
_cell_formula_units_Z   6
loop_
 _symmetry_equiv_pos_site_id
 _symmetry_equiv_pos_as_xyz
  1  'x, y, z'
loop_
 _atom_site_type_symbol
 _atom_site_label
 _atom_site_symmetry_multiplicity
 _atom_site_fract_x
 _atom_site_fract_y
 _atom_site_fract_z
 _atom_site_occupancy
  Li  Li0  1  0.04943500  0.09887100  0.75000000  1
  Li  Li1  1  0.09887100  0.04943500  0.58333300  1
  Li  Li2  1  0.90112900  0.95056500  0.08333300  1
  Li  Li3  1  0.95056500  0.90112900  0.25000000  1
  Li  Li4  1  0.95056500  0.04943500  0.91666700  1
  Li  Li5  1  0.04943500  0.95056500  0.41666700  1
  Ag  Ag6  1  0.29415300  0.70584700  0.91666700  1
  Ag  Ag7  1  0.29415300  0.58830600  0.25000000  1
  Ag  Ag8  1  0.41169400  0.70584700  0.58333300  1
  Ag  Ag9  1  0.58830600  0.29415300  0.08333300  1
  Ag  Ag10  1  0.70584700  0.29415300  0.41666700  1
  Ag  Ag11  1  0.70584700  0.41169400  0.75000000  1
  F  F12  1  0.23528700  0.00000000  0.00000000  1
  F  F13  1  0.23528700  0.23528700  0.16666700  1
  F  F14  1  0.28460500  0.36715900  0.84358100  1
  F  F15  1  0.28460500  0.91744600  0.32308600  1
  F  F16  1  0.36715900  0.08255400  0.67691400  1
  F  F17  1  0.36715900  0.28460500  0.48975300  1
  F  F18  1  0.63284100  0.71539500  0.98975300  1
  F  F19  1  0.63284100  0.91744600  0.17691400  1
  F  F20  1  0.71539500  0.08255400  0.82308600  1
  F  F21  1  0.71539500  0.63284100  0.34358100  1
  F  F22  1  0.76471300  0.76471300  0.66666700  1
  F  F23  1  0.76471300  0.00000000  0.50000000  1
  F  F24  1  0.91744600  0.28460500  0.01024700  1
  F  F25  1  0.91744600  0.63284100  0.15641900  1
  F  F26  1  0.00000000  0.23528700  0.33333300  1
  F  F27  1  0.00000000  0.76471300  0.83333300  1
  F  F28  1  0.08255400  0.36715900  0.65641900  1
  F  F29  1  0.08255400  0.71539500  0.51024700  1
