# generated using pymatgen
data_Li11Ni13O24
_symmetry_space_group_name_H-M   'P 1'
_cell_length_a   7.62393677
_cell_length_b   7.62393677
_cell_length_c   9.71305910
_cell_angle_alpha   58.95232354
_cell_angle_beta   58.95232354
_cell_angle_gamma   69.49739733
_symmetry_Int_Tables_number   1
_chemical_formula_structural   Li11Ni13O24
_chemical_formula_sum   'Li11 Ni13 O24'
_cell_volume   411.65287670
_cell_formula_units_Z   1
loop_
 _symmetry_equiv_pos_site_id
 _symmetry_equiv_pos_as_xyz
  1  'x, y, z'
loop_
 _atom_site_type_symbol
 _atom_site_label
 _atom_site_symmetry_multiplicity
 _atom_site_fract_x
 _atom_site_fract_y
 _atom_site_fract_z
 _atom_site_occupancy
  Li  Li0  1  0.16685200  0.83314800  0.50000000  1
  Li  Li1  1  0.74991400  0.74991400  0.75263100  1
  Li  Li2  1  0.41641800  0.08735000  0.74799000  1
  Li  Li3  1  0.66469300  0.33530700  0.00000000  1
  Li  Li4  1  0.33530700  0.66469300  0.00000000  1
  Li  Li5  1  0.91265000  0.58358200  0.25201000  1
  Li  Li6  1  0.58358200  0.91265000  0.25201000  1
  Li  Li7  1  0.25008600  0.25008600  0.24736900  1
  Li  Li8  1  0.83314800  0.16685200  0.50000000  1
  Li  Li9  1  0.50000000  0.50000000  0.50000000  1
  Li  Li10  1  0.08735000  0.41641800  0.74799000  1
  Ni  Ni11  1  0.70930800  0.04111000  0.87589700  1
  Ni  Ni12  1  0.29069200  0.95889000  0.12410300  1
  Ni  Ni13  1  0.20722800  0.53769400  0.37664500  1
  Ni  Ni14  1  0.87625600  0.87625600  0.37289300  1
  Ni  Ni15  1  0.46230600  0.79277200  0.62335500  1
  Ni  Ni16  1  0.79277200  0.46230600  0.62335500  1
  Ni  Ni17  1  0.00000000  0.00000000  0.00000000  1
  Ni  Ni18  1  0.04111000  0.70930800  0.87589700  1
  Ni  Ni19  1  0.37626300  0.37626300  0.87267200  1
  Ni  Ni20  1  0.62373700  0.62373700  0.12732800  1
  Ni  Ni21  1  0.95889000  0.29069200  0.12410300  1
  Ni  Ni22  1  0.53769400  0.20722800  0.37664500  1
  Ni  Ni23  1  0.12374400  0.12374400  0.62710700  1
  O  O24  1  0.39736700  0.71741300  0.30267100  1
  O  O25  1  0.05271700  0.05271700  0.30989100  1
  O  O26  1  0.94728300  0.94728300  0.69010900  1
  O  O27  1  0.64132000  0.98454200  0.54771200  1
  O  O28  1  0.98454200  0.64132000  0.54771200  1
  O  O29  1  0.53178200  0.84882800  0.94963500  1
  O  O30  1  0.77914100  0.10823500  0.18887600  1
  O  O31  1  0.10823500  0.77914100  0.18887600  1
  O  O32  1  0.42630400  0.42630400  0.21046200  1
  O  O33  1  0.01545800  0.35868000  0.45228800  1
  O  O34  1  0.35868000  0.01545800  0.45228800  1
  O  O35  1  0.70253300  0.70253300  0.43259800  1
  O  O36  1  0.89176500  0.22085900  0.81112400  1
  O  O37  1  0.22085900  0.89176500  0.81112400  1
  O  O38  1  0.57369600  0.57369600  0.78953800  1
  O  O39  1  0.15117200  0.46821800  0.05036500  1
  O  O40  1  0.46821800  0.15117200  0.05036500  1
  O  O41  1  0.81540700  0.81540700  0.05457900  1
  O  O42  1  0.71741300  0.39736700  0.30267100  1
  O  O43  1  0.60263300  0.28258700  0.69732900  1
  O  O44  1  0.28258700  0.60263300  0.69732900  1
  O  O45  1  0.29746700  0.29746700  0.56740200  1
  O  O46  1  0.18459300  0.18459300  0.94542100  1
  O  O47  1  0.84882800  0.53178200  0.94963500  1
