# generated using pymatgen
data_LiVSiO4
_symmetry_space_group_name_H-M   'P 1'
_cell_length_a   4.86206000
_cell_length_b   9.46680600
_cell_length_c   5.55035800
_cell_angle_alpha   89.99859598
_cell_angle_beta   89.99880027
_cell_angle_gamma   89.99988660
_symmetry_Int_Tables_number   1
_chemical_formula_structural   LiVSiO4
_chemical_formula_sum   'Li4 V4 Si4 O16'
_cell_volume   255.47287025
_cell_formula_units_Z   4
loop_
 _symmetry_equiv_pos_site_id
 _symmetry_equiv_pos_as_xyz
  1  'x, y, z'
loop_
 _atom_site_type_symbol
 _atom_site_label
 _atom_site_symmetry_multiplicity
 _atom_site_fract_x
 _atom_site_fract_y
 _atom_site_fract_z
 _atom_site_occupancy
  Li  Li0  1  0.05743600  0.61026700  0.25000300  1
  Li  Li1  1  0.44258000  0.11029500  0.25000000  1
  Li  Li2  1  0.55743100  0.88973000  0.74999400  1
  Li  Li3  1  0.94258500  0.38970500  0.74999900  1
  V  V4  1  0.47920000  0.22377100  0.75000300  1
  V  V5  1  0.97919500  0.27621200  0.25000000  1
  V  V6  1  0.02066900  0.72403000  0.75000000  1
  V  V7  1  0.52067000  0.77595700  0.24999400  1
  Si  Si8  1  0.00005200  0.00002500  0.00007900  1
  Si  Si9  1  0.00005600  0.00002500  0.49992500  1
  Si  Si10  1  0.50006800  0.49996800  0.50006200  1
  Si  Si11  1  0.50006400  0.49996800  0.99993400  1
  O  O12  1  0.27503700  0.43275400  0.25000400  1
  O  O13  1  0.22469900  0.93277800  0.25000000  1
  O  O14  1  0.77501600  0.06726200  0.75000800  1
  O  O15  1  0.72471700  0.56723700  0.74999300  1
  O  O16  1  0.18755000  0.92630300  0.75000800  1
  O  O17  1  0.31258000  0.42614600  0.75000000  1
  O  O18  1  0.68757800  0.57369600  0.24999200  1
  O  O19  1  0.81254500  0.07384700  0.25000100  1
  O  O20  1  0.30349400  0.65992600  0.99567600  1
  O  O21  1  0.30351200  0.65993000  0.50431500  1
  O  O22  1  0.19656100  0.15987900  0.99559200  1
  O  O23  1  0.19656300  0.15987700  0.50440400  1
  O  O24  1  0.80349200  0.84008000  0.49568600  1
  O  O25  1  0.80347500  0.84007600  0.00433000  1
  O  O26  1  0.69659100  0.34012700  0.49558800  1
  O  O27  1  0.69658500  0.34012700  0.00441000  1
