# generated using pymatgen
data_Li3Si2(NiO4)2
_symmetry_space_group_name_H-M   'P 1'
_cell_length_a   10.44981651
_cell_length_b   5.02647200
_cell_length_c   6.56192900
_cell_angle_alpha   90.00000000
_cell_angle_beta   90.79564107
_cell_angle_gamma   90.00000000
_symmetry_Int_Tables_number   1
_chemical_formula_structural   Li3Si2(NiO4)2
_chemical_formula_sum   'Li6 Si4 Ni4 O16'
_cell_volume   344.63674852
_cell_formula_units_Z   2
loop_
 _symmetry_equiv_pos_site_id
 _symmetry_equiv_pos_as_xyz
  1  'x, y, z'
loop_
 _atom_site_type_symbol
 _atom_site_label
 _atom_site_symmetry_multiplicity
 _atom_site_fract_x
 _atom_site_fract_y
 _atom_site_fract_z
 _atom_site_occupancy
  Li  Li0  1  0.16156200  0.17764500  0.11691300  1
  Li  Li1  1  0.34042700  0.68973600  0.61876600  1
  Li  Li2  1  0.41774900  0.29589600  0.36671900  1
  Li  Li3  1  0.66156200  0.32235500  0.11691300  1
  Li  Li4  1  0.84042700  0.81026400  0.61876600  1
  Li  Li5  1  0.91774900  0.20410400  0.36671900  1
  Si  Si6  1  0.08851900  0.69180800  0.36933600  1
  Si  Si7  1  0.41024700  0.17737200  0.86381100  1
  Si  Si8  1  0.58851900  0.80819200  0.36933600  1
  Si  Si9  1  0.91024700  0.32262800  0.86381100  1
  Ni  Ni10  1  0.16019800  0.17408600  0.63101200  1
  Ni  Ni11  1  0.33886400  0.69377700  0.10598600  1
  Ni  Ni12  1  0.66019800  0.32591400  0.63101200  1
  Ni  Ni13  1  0.83886400  0.80622300  0.10598600  1
  O  O14  1  0.06277300  0.23232400  0.85505400  1
  O  O15  1  0.09579500  0.35910100  0.39173500  1
  O  O16  1  0.16477700  0.81759600  0.57132700  1
  O  O17  1  0.16334500  0.78947800  0.16866800  1
  O  O18  1  0.33261400  0.29684400  0.65609600  1
  O  O19  1  0.34758400  0.29464600  0.07527400  1
  O  O20  1  0.39627100  0.85731100  0.85688800  1
  O  O21  1  0.43947100  0.70428100  0.36758900  1
  O  O22  1  0.56277300  0.26767600  0.85505400  1
  O  O23  1  0.59579500  0.14089900  0.39173500  1
  O  O24  1  0.66477700  0.68240400  0.57132700  1
  O  O25  1  0.66334500  0.71052200  0.16866800  1
  O  O26  1  0.83261400  0.20315600  0.65609600  1
  O  O27  1  0.84758400  0.20535400  0.07527400  1
  O  O28  1  0.89627100  0.64268900  0.85688800  1
  O  O29  1  0.93947100  0.79571900  0.36758900  1
