# generated using pymatgen
data_Li3CrBAsO7
_symmetry_space_group_name_H-M   'P 1'
_cell_length_a   6.53239600
_cell_length_b   10.24266454
_cell_length_c   9.56146092
_cell_angle_alpha   116.92078539
_cell_angle_beta   89.99917133
_cell_angle_gamma   89.99978297
_symmetry_Int_Tables_number   1
_chemical_formula_structural   Li3CrBAsO7
_chemical_formula_sum   'Li12 Cr4 B4 As4 O28'
_cell_volume   570.42165811
_cell_formula_units_Z   4
loop_
 _symmetry_equiv_pos_site_id
 _symmetry_equiv_pos_as_xyz
  1  'x, y, z'
loop_
 _atom_site_type_symbol
 _atom_site_label
 _atom_site_symmetry_multiplicity
 _atom_site_fract_x
 _atom_site_fract_y
 _atom_site_fract_z
 _atom_site_occupancy
  Li  Li0  1  0.24999600  0.42744900  0.09369900  1
  Li  Li1  1  0.24999600  0.92751400  0.09366400  1
  Li  Li2  1  0.74999500  0.57250400  0.90633800  1
  Li  Li3  1  0.74999500  0.07250400  0.90626500  1
  Li  Li4  1  0.99020700  0.23845200  0.22527900  1
  Li  Li5  1  0.99015300  0.73841800  0.22528800  1
  Li  Li6  1  0.50980100  0.23844900  0.22527600  1
  Li  Li7  1  0.50985000  0.73841400  0.22529000  1
  Li  Li8  1  0.49015000  0.76154800  0.77466300  1
  Li  Li9  1  0.49028800  0.26143100  0.77458700  1
  Li  Li10  1  0.00982500  0.76155100  0.77466300  1
  Li  Li11  1  0.00968300  0.26141900  0.77457900  1
  Cr  Cr12  1  0.75000200  0.04984400  0.31200000  1
  Cr  Cr13  1  0.24996900  0.45007800  0.68813700  1
  Cr  Cr14  1  0.75013200  0.55014100  0.31204700  1
  Cr  Cr15  1  0.24999700  0.95001300  0.68785900  1
  B  B16  1  0.75000000  0.36996600  0.03698800  1
  B  B17  1  0.74999700  0.86990900  0.03680100  1
  B  B18  1  0.24999000  0.63012100  0.96318200  1
  B  B19  1  0.24999700  0.13000700  0.96295800  1
  As  As20  1  0.25002500  0.57485900  0.42234400  1
  As  As21  1  0.24999900  0.07495000  0.42227900  1
  As  As22  1  0.74998800  0.42512500  0.57781300  1
  As  As23  1  0.75000200  0.92512300  0.57768100  1
  O  O24  1  0.25000500  0.23670500  0.11305500  1
  O  O25  1  0.25000400  0.73686400  0.11325800  1
  O  O26  1  0.74998500  0.76320300  0.88676700  1
  O  O27  1  0.74998300  0.26327100  0.88693900  1
  O  O28  1  0.75001200  0.52203100  0.08596500  1
  O  O29  1  0.75000300  0.02196100  0.08580600  1
  O  O30  1  0.24998500  0.47810300  0.91427100  1
  O  O31  1  0.24999700  0.97794800  0.91401700  1
  O  O32  1  0.75001900  0.33749200  0.16541600  1
  O  O33  1  0.75000500  0.83738900  0.16521400  1
  O  O34  1  0.24997700  0.66265300  0.83479100  1
  O  O35  1  0.24998900  0.16251700  0.83458300  1
  O  O36  1  0.24998300  0.43022600  0.46725100  1
  O  O37  1  0.25000300  0.93027500  0.46711700  1
  O  O38  1  0.74999900  0.56979500  0.53292900  1
  O  O39  1  0.75000900  0.06976400  0.53278500  1
  O  O40  1  0.75000100  0.27059100  0.40204400  1
  O  O41  1  0.75001100  0.77059800  0.40190300  1
  O  O42  1  0.24999900  0.72940100  0.59805700  1
  O  O43  1  0.24998400  0.22942000  0.59802700  1
  O  O44  1  0.05471300  0.55969500  0.29429300  1
  O  O45  1  0.05466500  0.05976000  0.29419600  1
  O  O46  1  0.44533500  0.55968700  0.29430400  1
  O  O47  1  0.44534800  0.05976500  0.29420300  1
  O  O48  1  0.55466200  0.44029800  0.70585900  1
  O  O49  1  0.55466500  0.94025400  0.70569900  1
  O  O50  1  0.94529700  0.44029600  0.70586800  1
  O  O51  1  0.94532600  0.94025300  0.70570500  1
