# generated using pymatgen
data_LiMn2F7
_symmetry_space_group_name_H-M   'P 1'
_cell_length_a   7.59761100
_cell_length_b   7.26209200
_cell_length_c   9.79646374
_cell_angle_alpha   88.44628198
_cell_angle_beta   90.00000000
_cell_angle_gamma   90.00000000
_symmetry_Int_Tables_number   1
_chemical_formula_structural   LiMn2F7
_chemical_formula_sum   'Li4 Mn8 F28'
_cell_volume   540.31675467
_cell_formula_units_Z   4
loop_
 _symmetry_equiv_pos_site_id
 _symmetry_equiv_pos_as_xyz
  1  'x, y, z'
loop_
 _atom_site_type_symbol
 _atom_site_label
 _atom_site_symmetry_multiplicity
 _atom_site_fract_x
 _atom_site_fract_y
 _atom_site_fract_z
 _atom_site_occupancy
  Li  Li0  1  0.12604400  0.38717400  0.38167400  1
  Li  Li1  1  0.37395600  0.38717400  0.88167400  1
  Li  Li2  1  0.62604400  0.61282600  0.11832600  1
  Li  Li3  1  0.87395600  0.61282600  0.61832600  1
  Mn  Mn4  1  0.61959100  0.08404500  0.11174800  1
  Mn  Mn5  1  0.88040900  0.08404500  0.61174800  1
  Mn  Mn6  1  0.62858100  0.35080000  0.42875900  1
  Mn  Mn7  1  0.87141900  0.35080000  0.92875900  1
  Mn  Mn8  1  0.12858100  0.64920000  0.07124100  1
  Mn  Mn9  1  0.37141900  0.64920000  0.57124100  1
  Mn  Mn10  1  0.11959100  0.91595500  0.38825200  1
  Mn  Mn11  1  0.38040900  0.91595500  0.88825200  1
  F  F12  1  0.35238000  0.01555500  0.06411100  1
  F  F13  1  0.14762000  0.01555500  0.56411100  1
  F  F14  1  0.15477400  0.14446700  0.31333200  1
  F  F15  1  0.88936300  0.18348600  0.07595100  1
  F  F16  1  0.56874000  0.17340100  0.29333200  1
  F  F17  1  0.34522600  0.14446700  0.81333200  1
  F  F18  1  0.61063700  0.18348600  0.57595100  1
  F  F19  1  0.93126000  0.17340100  0.79333200  1
  F  F20  1  0.57997800  0.32342400  0.02052100  1
  F  F21  1  0.92002200  0.32342400  0.52052100  1
  F  F22  1  0.35649800  0.43866700  0.45566800  1
  F  F23  1  0.14350200  0.43866700  0.95566800  1
  F  F24  1  0.20511300  0.50211900  0.21290300  1
  F  F25  1  0.29488700  0.50211900  0.71290300  1
  F  F26  1  0.70511300  0.49788100  0.28709700  1
  F  F27  1  0.79488700  0.49788100  0.78709700  1
  F  F28  1  0.85649800  0.56133300  0.04433200  1
  F  F29  1  0.64350200  0.56133300  0.54433200  1
  F  F30  1  0.07997800  0.67657600  0.47947900  1
  F  F31  1  0.42002200  0.67657600  0.97947900  1
  F  F32  1  0.06874000  0.82659900  0.20666800  1
  F  F33  1  0.38936300  0.81651400  0.42404900  1
  F  F34  1  0.65477400  0.85553300  0.18666800  1
  F  F35  1  0.43126000  0.82659900  0.70666800  1
  F  F36  1  0.11063700  0.81651400  0.92404900  1
  F  F37  1  0.84522600  0.85553300  0.68666800  1
  F  F38  1  0.85238000  0.98444500  0.43588900  1
  F  F39  1  0.64762000  0.98444500  0.93588900  1
