# generated using pymatgen
data_Li10Si2NiO10
_symmetry_space_group_name_H-M   'P 1'
_cell_length_a   15.34299233
_cell_length_b   15.34299233
_cell_length_c   5.19333398
_cell_angle_alpha   80.59714707
_cell_angle_beta   80.59714707
_cell_angle_gamma   22.98734293
_symmetry_Int_Tables_number   1
_chemical_formula_structural   Li10Si2NiO10
_chemical_formula_sum   'Li20 Si4 Ni2 O20'
_cell_volume   470.75748872
_cell_formula_units_Z   2
loop_
 _symmetry_equiv_pos_site_id
 _symmetry_equiv_pos_as_xyz
  1  'x, y, z'
loop_
 _atom_site_type_symbol
 _atom_site_label
 _atom_site_symmetry_multiplicity
 _atom_site_fract_x
 _atom_site_fract_y
 _atom_site_fract_z
 _atom_site_occupancy
  Li  Li0  1  0.49070500  0.49070500  0.26039000  1
  Li  Li1  1  0.22422900  0.64190800  0.89742500  1
  Li  Li2  1  0.64190800  0.22422900  0.89742500  1
  Li  Li3  1  0.86755700  0.86755700  0.78009500  1
  Li  Li4  1  0.08522700  0.65201200  0.24107800  1
  Li  Li5  1  0.65201200  0.08522700  0.24107800  1
  Li  Li6  1  0.32448600  0.32448600  0.93057500  1
  Li  Li7  1  0.04781300  0.56226500  0.60122000  1
  Li  Li8  1  0.56226500  0.04781300  0.60122000  1
  Li  Li9  1  0.26949400  0.26949400  0.32414100  1
  Li  Li10  1  0.73050600  0.73050600  0.67585900  1
  Li  Li11  1  0.95218700  0.43773500  0.39878000  1
  Li  Li12  1  0.43773500  0.95218700  0.39878000  1
  Li  Li13  1  0.67551400  0.67551400  0.06942500  1
  Li  Li14  1  0.34798800  0.91477300  0.75892200  1
  Li  Li15  1  0.91477300  0.34798800  0.75892200  1
  Li  Li16  1  0.13244300  0.13244300  0.21990500  1
  Li  Li17  1  0.77577100  0.35809200  0.10257500  1
  Li  Li18  1  0.35809200  0.77577100  0.10257500  1
  Li  Li19  1  0.50929500  0.50929500  0.73961000  1
  Si  Si20  1  0.39987300  0.39987300  0.50923100  1
  Si  Si21  1  0.78103500  0.78103500  0.12949700  1
  Si  Si22  1  0.21896500  0.21896500  0.87050300  1
  Si  Si23  1  0.60012700  0.60012700  0.49076900  1
  Ni  Ni24  1  0.96226300  0.96226300  0.15718900  1
  Ni  Ni25  1  0.03773700  0.03773700  0.84281100  1
  O  O26  1  0.44956900  0.44956900  0.60440000  1
  O  O27  1  0.90666000  0.90666000  0.04892600  1
  O  O28  1  0.40512100  0.40512100  0.18537900  1
  O  O29  1  0.15463200  0.58646500  0.62366100  1
  O  O30  1  0.58646500  0.15463200  0.62366100  1
  O  O31  1  0.03144100  0.58140700  0.21750300  1
  O  O32  1  0.58140700  0.03144100  0.21750300  1
  O  O33  1  0.78648400  0.78648400  0.80930100  1
  O  O34  1  0.27166700  0.27166700  0.71850400  1
  O  O35  1  0.72833300  0.72833300  0.28149600  1
  O  O36  1  0.21351600  0.21351600  0.19069900  1
  O  O37  1  0.96855900  0.41859300  0.78249700  1
  O  O38  1  0.41859300  0.96855900  0.78249700  1
  O  O39  1  0.41353500  0.84536800  0.37633900  1
  O  O40  1  0.84536800  0.41353500  0.37633900  1
  O  O41  1  0.59487900  0.59487900  0.81462100  1
  O  O42  1  0.09334000  0.09334000  0.95107400  1
  O  O43  1  0.55043100  0.55043100  0.39560000  1
  O  O44  1  0.23915400  0.76084600  0.00000000  1
  O  O45  1  0.76084600  0.23915400  0.00000000  1
