# generated using pymatgen
data_Li2VF5
_symmetry_space_group_name_H-M   'P 1'
_cell_length_a   6.39868300
_cell_length_b   7.61986900
_cell_length_c   8.12987200
_cell_angle_alpha   90.00000000
_cell_angle_beta   90.00000000
_cell_angle_gamma   90.00000000
_symmetry_Int_Tables_number   1
_chemical_formula_structural   Li2VF5
_chemical_formula_sum   'Li8 V4 F20'
_cell_volume   396.38919536
_cell_formula_units_Z   4
loop_
 _symmetry_equiv_pos_site_id
 _symmetry_equiv_pos_as_xyz
  1  'x, y, z'
loop_
 _atom_site_type_symbol
 _atom_site_label
 _atom_site_symmetry_multiplicity
 _atom_site_fract_x
 _atom_site_fract_y
 _atom_site_fract_z
 _atom_site_occupancy
  Li  Li0  1  0.98704200  0.58868600  0.97478200  1
  Li  Li1  1  0.78996200  0.25115300  0.28213200  1
  Li  Li2  1  0.71003800  0.74884700  0.78213200  1
  Li  Li3  1  0.51295800  0.41131400  0.47478200  1
  Li  Li4  1  0.48704200  0.91131400  0.02521800  1
  Li  Li5  1  0.28996200  0.24884700  0.71786800  1
  Li  Li6  1  0.21003800  0.75115300  0.21786800  1
  Li  Li7  1  0.01295800  0.08868600  0.52521800  1
  V  V8  1  0.76749600  0.75301900  0.35173400  1
  V  V9  1  0.73250400  0.24698100  0.85173400  1
  V  V10  1  0.26749600  0.74698100  0.64826600  1
  V  V11  1  0.23250400  0.25301900  0.14826600  1
  F  F12  1  0.98993400  0.23218800  0.72492500  1
  F  F13  1  0.91558600  0.74787800  0.14458000  1
  F  F14  1  0.91841500  0.25218800  0.05973800  1
  F  F15  1  0.79104300  0.00378800  0.38981100  1
  F  F16  1  0.76123800  0.50093200  0.37752600  1
  F  F17  1  0.70895700  0.99621200  0.88981100  1
  F  F18  1  0.73876200  0.49906800  0.87752600  1
  F  F19  1  0.58158500  0.74781200  0.55973800  1
  F  F20  1  0.58441400  0.25212200  0.64458000  1
  F  F21  1  0.51006600  0.76781200  0.22492500  1
  F  F22  1  0.48993400  0.26781200  0.27507500  1
  F  F23  1  0.41558600  0.75212200  0.85542000  1
  F  F24  1  0.41841500  0.24781200  0.94026200  1
  F  F25  1  0.29104300  0.49621200  0.61018900  1
  F  F26  1  0.26123800  0.99906800  0.62247400  1
  F  F27  1  0.23876200  0.00093200  0.12247400  1
  F  F28  1  0.20895700  0.50378800  0.11018900  1
  F  F29  1  0.08158500  0.75218800  0.44026200  1
  F  F30  1  0.08441400  0.24787800  0.35542000  1
  F  F31  1  0.01006600  0.73218800  0.77507500  1
