# generated using pymatgen
data_LiMnF3
_symmetry_space_group_name_H-M   'P 1'
_cell_length_a   5.03512400
_cell_length_b   8.90254900
_cell_length_c   10.77542900
_cell_angle_alpha   90.00000000
_cell_angle_beta   90.00000000
_cell_angle_gamma   90.00000000
_symmetry_Int_Tables_number   1
_chemical_formula_structural   LiMnF3
_chemical_formula_sum   'Li8 Mn8 F24'
_cell_volume   483.01332598
_cell_formula_units_Z   8
loop_
 _symmetry_equiv_pos_site_id
 _symmetry_equiv_pos_as_xyz
  1  'x, y, z'
loop_
 _atom_site_type_symbol
 _atom_site_label
 _atom_site_symmetry_multiplicity
 _atom_site_fract_x
 _atom_site_fract_y
 _atom_site_fract_z
 _atom_site_occupancy
  Li  Li0  1  0.50318500  0.78615800  0.09870000  1
  Li  Li1  1  0.99681500  0.78615800  0.59870000  1
  Li  Li2  1  0.50318500  0.71384200  0.59870000  1
  Li  Li3  1  0.99681500  0.71384200  0.09870000  1
  Li  Li4  1  0.00318500  0.28615800  0.90130000  1
  Li  Li5  1  0.49681500  0.28615800  0.40130000  1
  Li  Li6  1  0.00318500  0.21384200  0.40130000  1
  Li  Li7  1  0.49681500  0.21384200  0.90130000  1
  Mn  Mn8  1  0.99525500  0.91377900  0.86216500  1
  Mn  Mn9  1  0.50474500  0.91377900  0.36216500  1
  Mn  Mn10  1  0.99525500  0.58622100  0.36216500  1
  Mn  Mn11  1  0.50474500  0.58622100  0.86216500  1
  Mn  Mn12  1  0.00474500  0.41377900  0.63783500  1
  Mn  Mn13  1  0.49525500  0.41377900  0.13783500  1
  Mn  Mn14  1  0.00474500  0.08622100  0.13783500  1
  Mn  Mn15  1  0.49525500  0.08622100  0.63783500  1
  F  F16  1  0.22188600  0.91304100  0.69603500  1
  F  F17  1  0.27811400  0.91304100  0.19603500  1
  F  F18  1  0.80599900  0.90191700  0.04461400  1
  F  F19  1  0.69400100  0.90191700  0.54461400  1
  F  F20  1  0.75000000  0.75000000  0.77600400  1
  F  F21  1  0.75000000  0.75000000  0.27600400  1
  F  F22  1  0.25000000  0.75000000  0.95825600  1
  F  F23  1  0.25000000  0.75000000  0.45825600  1
  F  F24  1  0.69400100  0.59808300  0.04461400  1
  F  F25  1  0.80599900  0.59808300  0.54461400  1
  F  F26  1  0.22188600  0.58695900  0.19603500  1
  F  F27  1  0.27811400  0.58695900  0.69603500  1
  F  F28  1  0.77811400  0.41304100  0.80396500  1
  F  F29  1  0.72188600  0.41304100  0.30396500  1
  F  F30  1  0.30599900  0.40191700  0.95538600  1
  F  F31  1  0.19400100  0.40191700  0.45538600  1
  F  F32  1  0.75000000  0.25000000  0.54174400  1
  F  F33  1  0.75000000  0.25000000  0.04174400  1
  F  F34  1  0.25000000  0.25000000  0.72399600  1
  F  F35  1  0.25000000  0.25000000  0.22399600  1
  F  F36  1  0.30599900  0.09808300  0.45538600  1
  F  F37  1  0.19400100  0.09808300  0.95538600  1
  F  F38  1  0.77811400  0.08695900  0.30396500  1
  F  F39  1  0.72188600  0.08695900  0.80396500  1
