# generated using pymatgen
data_Li3Mn(PO4)2
_symmetry_space_group_name_H-M   'P 1'
_cell_length_a   6.20052945
_cell_length_b   8.50912334
_cell_length_c   10.71765379
_cell_angle_alpha   89.93555478
_cell_angle_beta   90.17792385
_cell_angle_gamma   88.80572332
_symmetry_Int_Tables_number   1
_chemical_formula_structural   Li3Mn(PO4)2
_chemical_formula_sum   'Li12 Mn4 P8 O32'
_cell_volume   565.34891662
_cell_formula_units_Z   4
loop_
 _symmetry_equiv_pos_site_id
 _symmetry_equiv_pos_as_xyz
  1  'x, y, z'
loop_
 _atom_site_type_symbol
 _atom_site_label
 _atom_site_symmetry_multiplicity
 _atom_site_fract_x
 _atom_site_fract_y
 _atom_site_fract_z
 _atom_site_occupancy
  Li  Li0  1  0.00002700  0.00030800  0.00013900  1
  Li  Li1  1  0.00020400  0.49993400  0.25022900  1
  Li  Li2  1  0.99981900  0.00018900  0.50022100  1
  Li  Li3  1  0.99990900  0.50013200  0.75028200  1
  Li  Li4  1  0.23060600  0.33133700  0.50016400  1
  Li  Li5  1  0.23040200  0.83149700  0.75004800  1
  Li  Li6  1  0.23059200  0.33147900  0.99986600  1
  Li  Li7  1  0.23039500  0.83132100  0.24975900  1
  Li  Li8  1  0.76941800  0.16850400  0.25023000  1
  Li  Li9  1  0.76957900  0.66850500  0.50012400  1
  Li  Li10  1  0.76940700  0.16868700  0.75000300  1
  Li  Li11  1  0.76966000  0.66867700  0.00032700  1
  Mn  Mn12  1  0.50015100  0.99999900  0.00003100  1
  Mn  Mn13  1  0.49993000  0.50009300  0.25008100  1
  Mn  Mn14  1  0.49974000  0.99992500  0.49985000  1
  Mn  Mn15  1  0.49983200  0.49992700  0.74980300  1
  P  P16  1  0.73238100  0.35341600  0.50007200  1
  P  P17  1  0.73223400  0.85355200  0.75001600  1
  P  P18  1  0.73241800  0.35355000  0.00004400  1
  P  P19  1  0.73227200  0.85343900  0.25000800  1
  P  P20  1  0.26761800  0.14645800  0.24992000  1
  P  P21  1  0.26772400  0.64643500  0.49996000  1
  P  P22  1  0.26760800  0.14655200  0.74992600  1
  P  P23  1  0.26780500  0.64655000  0.99998600  1
  O  O24  1  0.93918900  0.25557900  0.49994600  1
  O  O25  1  0.93905900  0.75572400  0.74989000  1
  O  O26  1  0.93924800  0.25573500  0.99982200  1
  O  O27  1  0.93902400  0.75557600  0.24986800  1
  O  O28  1  0.06079200  0.24423300  0.25007000  1
  O  O29  1  0.06093700  0.74423800  0.50003100  1
  O  O30  1  0.06080300  0.24438300  0.75011900  1
  O  O31  1  0.06102500  0.74439200  0.00019300  1
  O  O32  1  0.53125800  0.25256600  0.50001800  1
  O  O33  1  0.53108000  0.75273000  0.74997000  1
  O  O34  1  0.53127200  0.25271600  0.00004200  1
  O  O35  1  0.53113100  0.75262200  0.24993900  1
  O  O36  1  0.46872200  0.24724700  0.24998100  1
  O  O37  1  0.46888100  0.74722500  0.50003900  1
  O  O38  1  0.46874600  0.24740700  0.74993000  1
  O  O39  1  0.46893600  0.74735000  0.00002100  1
  O  O40  1  0.73042600  0.46949300  0.61707000  1
  O  O41  1  0.73025400  0.96971700  0.86698900  1
  O  O42  1  0.73057700  0.46955900  0.11711600  1
  O  O43  1  0.73024400  0.96952700  0.36701700  1
  O  O44  1  0.27041500  0.03023300  0.36750900  1
  O  O45  1  0.27034100  0.53038300  0.61759600  1
  O  O46  1  0.27043800  0.03045300  0.86751800  1
  O  O47  1  0.27055100  0.53038900  0.11758700  1
  O  O48  1  0.72971400  0.46943300  0.38242700  1
  O  O49  1  0.72958600  0.96955200  0.63235400  1
  O  O50  1  0.72956000  0.46968200  0.88244800  1
  O  O51  1  0.72967400  0.96948600  0.13238200  1
  O  O52  1  0.26951100  0.03050400  0.13283500  1
  O  O53  1  0.26976300  0.53033500  0.38297000  1
  O  O54  1  0.26944200  0.03053900  0.63287500  1
  O  O55  1  0.26967100  0.53052600  0.88294000  1
