# generated using pymatgen
data_Li4Mn5O10
_symmetry_space_group_name_H-M   'P 1'
_cell_length_a   6.58500200
_cell_length_b   7.95256105
_cell_length_c   7.96102813
_cell_angle_alpha   95.65569164
_cell_angle_beta   114.34349916
_cell_angle_gamma   91.06665191
_symmetry_Int_Tables_number   1
_chemical_formula_structural   Li4Mn5O10
_chemical_formula_sum   'Li8 Mn10 O20'
_cell_volume   377.17716210
_cell_formula_units_Z   2
loop_
 _symmetry_equiv_pos_site_id
 _symmetry_equiv_pos_as_xyz
  1  'x, y, z'
loop_
 _atom_site_type_symbol
 _atom_site_label
 _atom_site_symmetry_multiplicity
 _atom_site_fract_x
 _atom_site_fract_y
 _atom_site_fract_z
 _atom_site_occupancy
  Li  Li0  1  0.31777500  0.79859100  0.23545500  1
  Li  Li1  1  0.39362600  0.90421300  0.58958600  1
  Li  Li2  1  0.75957800  0.75037600  0.51325600  1
  Li  Li3  1  0.24042200  0.24962400  0.48674400  1
  Li  Li4  1  0.60637400  0.09578700  0.41041400  1
  Li  Li5  1  0.68222500  0.20140900  0.76454500  1
  Li  Li6  1  0.90617100  0.40808200  0.58369700  1
  Li  Li7  1  0.09382900  0.59191800  0.41630300  1
  Mn  Mn8  1  0.85316500  0.84752000  0.89227800  1
  Mn  Mn9  1  0.14683500  0.15248000  0.10772200  1
  Mn  Mn10  1  0.04339200  0.04824200  0.68919900  1
  Mn  Mn11  1  0.95660800  0.95175800  0.31080100  1
  Mn  Mn12  1  0.50000000  0.00000000  0.00000000  1
  Mn  Mn13  1  0.53939700  0.54774500  0.69097100  1
  Mn  Mn14  1  0.46060300  0.45225500  0.30902900  1
  Mn  Mn15  1  0.00000000  0.50000000  0.00000000  1
  Mn  Mn16  1  0.34700000  0.35172000  0.88249900  1
  Mn  Mn17  1  0.65300000  0.64828000  0.11750100  1
  O  O18  1  0.25300300  0.01519400  0.34572100  1
  O  O19  1  0.74699700  0.98480600  0.65427900  1
  O  O20  1  0.63512100  0.89366000  0.24110200  1
  O  O21  1  0.14946400  0.94864200  0.93494100  1
  O  O22  1  0.05645300  0.85094900  0.53436800  1
  O  O23  1  0.14901000  0.37490900  0.24012400  1
  O  O24  1  0.55576800  0.76097800  0.86397800  1
  O  O25  1  0.64728000  0.42806700  0.91385200  1
  O  O26  1  0.56783500  0.34704400  0.53394900  1
  O  O27  1  0.44423200  0.23902200  0.13602200  1
  O  O28  1  0.03846200  0.27319400  0.83213300  1
  O  O29  1  0.94354700  0.14905100  0.46563200  1
  O  O30  1  0.85053600  0.05135800  0.06505900  1
  O  O31  1  0.96153800  0.72680600  0.16786700  1
  O  O32  1  0.36487900  0.10634000  0.75889800  1
  O  O33  1  0.43216500  0.65295600  0.46605100  1
  O  O34  1  0.35272000  0.57193300  0.08614800  1
  O  O35  1  0.85099000  0.62509100  0.75987600  1
  O  O36  1  0.75030800  0.53824900  0.34354100  1
  O  O37  1  0.24969200  0.46175100  0.65645900  1
