# generated using pymatgen
data_Li3Mn(CO3)4
_symmetry_space_group_name_H-M   'P 1'
_cell_length_a   11.55772717
_cell_length_b   9.85683000
_cell_length_c   8.49489464
_cell_angle_alpha   90.00000000
_cell_angle_beta   92.10414680
_cell_angle_gamma   90.00000000
_symmetry_Int_Tables_number   1
_chemical_formula_structural   Li3Mn(CO3)4
_chemical_formula_sum   'Li12 Mn4 C16 O48'
_cell_volume   967.10755260
_cell_formula_units_Z   4
loop_
 _symmetry_equiv_pos_site_id
 _symmetry_equiv_pos_as_xyz
  1  'x, y, z'
loop_
 _atom_site_type_symbol
 _atom_site_label
 _atom_site_symmetry_multiplicity
 _atom_site_fract_x
 _atom_site_fract_y
 _atom_site_fract_z
 _atom_site_occupancy
  Li  Li0  1  0.20912800  0.92098600  0.68102200  1
  Li  Li1  1  0.20912800  0.57901400  0.18102200  1
  Li  Li2  1  0.34035400  0.66020700  0.51881500  1
  Li  Li3  1  0.34035400  0.83979300  0.01881500  1
  Li  Li4  1  0.65868300  0.16103300  0.96799600  1
  Li  Li5  1  0.65868300  0.33896700  0.46799600  1
  Li  Li6  1  0.76883800  0.40289300  0.80105700  1
  Li  Li7  1  0.76883800  0.09710700  0.30105700  1
  Li  Li8  1  0.86109500  0.64014200  0.93901500  1
  Li  Li9  1  0.86109500  0.85985800  0.43901500  1
  Li  Li10  1  0.92837200  0.12341100  0.94123000  1
  Li  Li11  1  0.92837200  0.37658900  0.44123000  1
  Mn  Mn12  1  0.26919100  0.41447500  0.75095200  1
  Mn  Mn13  1  0.26919100  0.08552500  0.25095200  1
  Mn  Mn14  1  0.72545100  0.89058700  0.76880100  1
  Mn  Mn15  1  0.72545100  0.60941300  0.26880100  1
  C  C16  1  0.01744500  0.38167700  0.76649800  1
  C  C17  1  0.01744500  0.11832300  0.26649800  1
  C  C18  1  0.22077500  0.64749200  0.84352900  1
  C  C19  1  0.22077500  0.85250800  0.34352900  1
  C  C20  1  0.28939500  0.14185700  0.89060300  1
  C  C21  1  0.28939500  0.35814300  0.39060300  1
  C  C22  1  0.48016900  0.85810400  0.74200200  1
  C  C23  1  0.48016900  0.64189600  0.24200200  1
  C  C24  1  0.51966200  0.35930600  0.75544500  1
  C  C25  1  0.51966200  0.14069400  0.25544500  1
  C  C26  1  0.72032800  0.64089700  0.61462600  1
  C  C27  1  0.72032800  0.85910300  0.11462600  1
  C  C28  1  0.79204800  0.13971100  0.63475000  1
  C  C29  1  0.79204800  0.36028900  0.13475000  1
  C  C30  1  0.97118600  0.89083000  0.75166500  1
  C  C31  1  0.97118600  0.60917000  0.25166500  1
  O  O32  1  0.99571300  0.84135500  0.61935700  1
  O  O33  1  0.99571300  0.65864500  0.11935700  1
  O  O34  1  0.02518000  0.98857300  0.81570200  1
  O  O35  1  0.02518000  0.51142700  0.31570200  1
  O  O36  1  0.11135600  0.36699900  0.68391400  1
  O  O37  1  0.11135600  0.13300100  0.18391400  1
  O  O38  1  0.20836900  0.76991400  0.87821000  1
  O  O39  1  0.20897800  0.54423700  0.93702300  1
  O  O40  1  0.20836900  0.73008600  0.37821000  1
  O  O41  1  0.20897800  0.95576300  0.43702300  1
  O  O42  1  0.25040100  0.61028800  0.70204200  1
  O  O43  1  0.25040100  0.88971200  0.20204200  1
  O  O44  1  0.27158100  0.27029300  0.90542200  1
  O  O45  1  0.27158100  0.22970700  0.40542200  1
  O  O46  1  0.29417400  0.07983900  0.76190700  1
  O  O47  1  0.29417400  0.42016100  0.26190700  1
  O  O48  1  0.30628200  0.07095300  0.01953700  1
  O  O49  1  0.30628200  0.42904700  0.51953700  1
  O  O50  1  0.40018700  0.83309800  0.63930400  1
  O  O51  1  0.40018700  0.66690200  0.13930300  1
  O  O52  1  0.43502900  0.43345500  0.80402800  1
  O  O53  1  0.43502900  0.06654500  0.30402800  1
  O  O54  1  0.52313100  0.31587100  0.61464100  1
  O  O55  1  0.52313100  0.18412900  0.11464100  1
  O  O56  1  0.47480200  0.80913200  0.88005700  1
  O  O57  1  0.47480200  0.69086800  0.38005700  1
  O  O58  1  0.56694300  0.93571600  0.70540100  1
  O  O59  1  0.56694300  0.56428400  0.20540100  1
  O  O60  1  0.60469500  0.33188400  0.85136300  1
  O  O61  1  0.60469500  0.16811600  0.35136300  1
  O  O62  1  0.70034800  0.55785200  0.49749100  1
  O  O63  1  0.70034800  0.94214800  0.99749100  1
  O  O64  1  0.72787800  0.59888900  0.75489500  1
  O  O65  1  0.72787800  0.90111100  0.25489500  1
  O  O66  1  0.73093200  0.77050400  0.58042100  1
  O  O67  1  0.73093200  0.72949600  0.08042100  1
  O  O68  1  0.77432500  0.10087600  0.78121300  1
  O  O69  1  0.77432500  0.39912400  0.28121300  1
  O  O70  1  0.80292100  0.04730200  0.53106700  1
  O  O71  1  0.79601400  0.26763200  0.60496100  1
  O  O72  1  0.80292100  0.45269800  0.03106700  1
  O  O73  1  0.79601400  0.23236800  0.10496100  1
  O  O74  1  0.88318100  0.83499200  0.82912500  1
  O  O75  1  0.88318100  0.66500800  0.32912500  1
  O  O76  1  0.95150800  0.48070800  0.72819800  1
  O  O77  1  0.95150800  0.01929200  0.22819800  1
  O  O78  1  0.99275400  0.29531200  0.86904700  1
  O  O79  1  0.99275400  0.20468800  0.36904700  1
