# generated using pymatgen
data_Li3LaNiO4
_symmetry_space_group_name_H-M   'P 1'
_cell_length_a   10.28679858
_cell_length_b   10.28679858
_cell_length_c   10.28679858
_cell_angle_alpha   112.98396339
_cell_angle_beta   112.98396339
_cell_angle_gamma   102.65342056
_symmetry_Int_Tables_number   1
_chemical_formula_structural   Li3LaNiO4
_chemical_formula_sum   'Li24 La8 Ni8 O32'
_cell_volume   829.19959968
_cell_formula_units_Z   8
loop_
 _symmetry_equiv_pos_site_id
 _symmetry_equiv_pos_as_xyz
  1  'x, y, z'
loop_
 _atom_site_type_symbol
 _atom_site_label
 _atom_site_symmetry_multiplicity
 _atom_site_fract_x
 _atom_site_fract_y
 _atom_site_fract_z
 _atom_site_occupancy
  Li  Li0  1  0.92107600  0.10114300  0.14293900  1
  Li  Li1  1  0.82892400  0.14885700  0.35706100  1
  Li  Li2  1  0.89885700  0.04179700  0.81993300  1
  Li  Li3  1  0.52813600  0.17107600  0.31993300  1
  Li  Li4  1  0.46701300  0.31860400  0.15793400  1
  Li  Li5  1  0.72625100  0.57962100  0.17446100  1
  Li  Li6  1  0.22186400  0.07892400  0.18006700  1
  Li  Li7  1  0.85114300  0.20820300  0.68006700  1
  Li  Li8  1  0.68139600  0.83933000  0.14840900  1
  Li  Li9  1  0.42037900  0.59484000  0.14663000  1
  Li  Li10  1  0.79179700  0.47186400  0.64293900  1
  Li  Li11  1  0.95820300  0.77813600  0.85706100  1
  Li  Li12  1  0.44821000  0.27374900  0.85337000  1
  Li  Li13  1  0.32962100  0.65516000  0.35337000  1
  Li  Li14  1  0.06860400  0.41067000  0.35159100  1
  Li  Li15  1  0.69092100  0.53298700  0.85159100  1
  Li  Li16  1  0.02374900  0.67037900  0.32553900  1
  Li  Li17  1  0.40516000  0.55179000  0.82553900  1
  Li  Li18  1  0.58933000  0.94092100  0.65793400  1
  Li  Li19  1  0.28298700  0.93139600  0.34206600  1
  Li  Li20  1  0.16067000  0.30907900  0.84206600  1
  Li  Li21  1  0.34484000  0.69821000  0.67446100  1
  Li  Li22  1  0.05907900  0.71701300  0.64840900  1
  Li  Li23  1  0.30179000  0.97625100  0.64663000  1
  La  La24  1  0.56072000  0.03424200  0.99788200  1
  La  La25  1  0.43716100  0.43928000  0.47352200  1
  La  La26  1  0.78424200  0.28636100  0.97352200  1
  La  La27  1  0.71363900  0.68716100  0.49788200  1
  La  La28  1  0.18928000  0.21575800  0.50211800  1
  La  La29  1  0.96575800  0.96363900  0.52647800  1
  La  La30  1  0.31283900  0.81072000  0.02647800  1
  La  La31  1  0.03636100  0.56283900  0.00211800  1
  Ni  Ni32  1  0.77300000  0.40739400  0.31074800  1
  Ni  Ni33  1  0.53774800  0.22700000  0.63439400  1
  Ni  Ni34  1  0.15739400  0.34664600  0.13439400  1
  Ni  Ni35  1  0.59260600  0.90335400  0.36560600  1
  Ni  Ni36  1  0.65335400  0.78774800  0.81074800  1
  Ni  Ni37  1  0.97700000  0.84260600  0.18925200  1
  Ni  Ni38  1  0.09664600  0.46225200  0.68925200  1
  Ni  Ni39  1  0.21225200  0.02300000  0.86560600  1
  O  O40  1  0.84183200  0.25323700  0.22937600  1
  O  O41  1  0.36245600  0.09183200  0.08859600  1
  O  O42  1  0.61421300  0.34381400  0.07794800  1
  O  O43  1  0.85693900  0.61260300  0.08217900  1
  O  O44  1  0.89306100  0.63739700  0.41782100  1
  O  O45  1  0.64037900  0.40240700  0.40899100  1
  O  O46  1  0.38754400  0.15816800  0.41140400  1
  O  O47  1  0.38739700  0.46957600  0.24433600  1
  O  O48  1  0.52476000  0.10693900  0.74433600  1
  O  O49  1  0.90816800  0.99676300  0.27062400  1
  O  O50  1  0.15240700  0.24341600  0.26202800  1
  O  O51  1  0.76861200  0.35962100  0.76202800  1
  O  O52  1  0.65618600  0.73413400  0.27039900  1
  O  O53  1  0.09381400  0.51586600  0.22960100  1
  O  O54  1  0.46373500  0.38578700  0.72960100  1
  O  O55  1  0.59759300  0.00658400  0.23797200  1
  O  O56  1  0.72613900  0.63754400  0.72937600  1
  O  O57  1  0.22524000  0.14306100  0.75566400  1
  O  O58  1  0.36260300  0.78042400  0.25566400  1
  O  O59  1  0.74676300  0.97613900  0.58859600  1
  O  O60  1  0.48413400  0.71373500  0.57794800  1
  O  O61  1  0.99341600  0.23138800  0.59100900  1
  O  O62  1  0.10962100  0.84759300  0.09100900  1
  O  O63  1  0.21957600  0.47524000  0.58217900  1
  O  O64  1  0.53042400  0.77476000  0.91782100  1
  O  O65  1  0.75658400  0.01861200  0.90899100  1
  O  O66  1  0.26586600  0.53626500  0.92205200  1
  O  O67  1  0.13578700  0.90618600  0.42205200  1
  O  O68  1  0.00323700  0.27386100  0.91140400  1
  O  O69  1  0.02386100  0.61245600  0.77062400  1
  O  O70  1  0.28626500  0.86421300  0.77039900  1
  O  O71  1  0.98138800  0.89037900  0.73797200  1
