# generated using pymatgen
data_Li5Fe2(BO4)2
_symmetry_space_group_name_H-M   'P 1'
_cell_length_a   5.20760400
_cell_length_b   6.68222800
_cell_length_c   10.70702890
_cell_angle_alpha   82.48792428
_cell_angle_beta   90.00000000
_cell_angle_gamma   90.00000000
_symmetry_Int_Tables_number   1
_chemical_formula_structural   Li5Fe2(BO4)2
_chemical_formula_sum   'Li10 Fe4 B4 O16'
_cell_volume   369.38964992
_cell_formula_units_Z   2
loop_
 _symmetry_equiv_pos_site_id
 _symmetry_equiv_pos_as_xyz
  1  'x, y, z'
loop_
 _atom_site_type_symbol
 _atom_site_label
 _atom_site_symmetry_multiplicity
 _atom_site_fract_x
 _atom_site_fract_y
 _atom_site_fract_z
 _atom_site_occupancy
  Li  Li0  1  0.84783800  0.86696700  0.78862400  1
  Li  Li1  1  0.15216200  0.86696700  0.28862400  1
  Li  Li2  1  0.08041500  0.78030300  0.57974300  1
  Li  Li3  1  0.91958500  0.78030300  0.07974300  1
  Li  Li4  1  0.58695200  0.22559600  0.91919800  1
  Li  Li5  1  0.41304800  0.22559600  0.41919800  1
  Li  Li6  1  0.15644100  0.11238300  0.83717900  1
  Li  Li7  1  0.42937900  0.10220900  0.68532500  1
  Li  Li8  1  0.84355900  0.11238300  0.33717900  1
  Li  Li9  1  0.57062100  0.10220900  0.18532500  1
  Fe  Fe10  1  0.10226400  0.50945100  0.86012600  1
  Fe  Fe11  1  0.59719500  0.50084400  0.65482600  1
  Fe  Fe12  1  0.89773600  0.50945100  0.36012600  1
  Fe  Fe13  1  0.40280500  0.50084400  0.15482600  1
  B  B14  1  0.41335200  0.81479600  0.93813300  1
  B  B15  1  0.58664800  0.81479600  0.43813300  1
  B  B16  1  0.93499500  0.18630400  0.56952500  1
  B  B17  1  0.06500500  0.18630400  0.06952500  1
  O  O18  1  0.52196700  0.96075800  0.85214100  1
  O  O19  1  0.47803300  0.96075800  0.35214100  1
  O  O20  1  0.14650400  0.78007700  0.92922400  1
  O  O21  1  0.43962700  0.70931600  0.53420100  1
  O  O22  1  0.85349600  0.78007700  0.42922400  1
  O  O23  1  0.88245900  0.62417600  0.71376300  1
  O  O24  1  0.56037300  0.70931600  0.03420100  1
  O  O25  1  0.11754100  0.62417600  0.21376300  1
  O  O26  1  0.38663600  0.36618500  0.78121700  1
  O  O27  1  0.94245900  0.25062100  0.95598900  1
  O  O28  1  0.61336400  0.36618500  0.28121700  1
  O  O29  1  0.67686200  0.25229700  0.57727100  1
  O  O30  1  0.05754100  0.25062100  0.45598900  1
  O  O31  1  0.32313800  0.25229700  0.07727100  1
  O  O32  1  0.05014300  0.05859400  0.66376000  1
  O  O33  1  0.94985700  0.05859400  0.16376000  1
