# generated using pymatgen
data_Li3Cr4(PO4)6
_symmetry_space_group_name_H-M   'P 1'
_cell_length_a   8.35682800
_cell_length_b   8.63555992
_cell_length_c   11.91805816
_cell_angle_alpha   90.11854925
_cell_angle_beta   90.16177659
_cell_angle_gamma   90.11342310
_symmetry_Int_Tables_number   1
_chemical_formula_structural   Li3Cr4(PO4)6
_chemical_formula_sum   'Li6 Cr8 P12 O48'
_cell_volume   860.07029667
_cell_formula_units_Z   2
loop_
 _symmetry_equiv_pos_site_id
 _symmetry_equiv_pos_as_xyz
  1  'x, y, z'
loop_
 _atom_site_type_symbol
 _atom_site_label
 _atom_site_symmetry_multiplicity
 _atom_site_fract_x
 _atom_site_fract_y
 _atom_site_fract_z
 _atom_site_occupancy
  Li  Li0  1  0.80748100  0.21368600  0.82186700  1
  Li  Li1  1  0.68075100  0.71502900  0.68074500  1
  Li  Li2  1  0.57266300  0.40534600  0.19476100  1
  Li  Li3  1  0.18124900  0.78881300  0.17874800  1
  Li  Li4  1  0.08152900  0.09017000  0.69080600  1
  Li  Li5  1  0.08076700  0.49983800  0.34224600  1
  Cr  Cr6  1  0.74660200  0.97395500  0.11463100  1
  Cr  Cr7  1  0.75093200  0.53501500  0.88671900  1
  Cr  Cr8  1  0.74827800  0.47313800  0.39107400  1
  Cr  Cr9  1  0.74347800  0.03317100  0.61275100  1
  Cr  Cr10  1  0.25255600  0.96944800  0.38529000  1
  Cr  Cr11  1  0.24472400  0.52739600  0.61321400  1
  Cr  Cr12  1  0.24653600  0.46565700  0.11286400  1
  Cr  Cr13  1  0.25742900  0.02397300  0.89015600  1
  P  P14  1  0.96715500  0.75121500  0.50794200  1
  P  P15  1  0.88698500  0.61846900  0.14710700  1
  P  P16  1  0.88751800  0.89173100  0.85795000  1
  P  P17  1  0.60747200  0.11554600  0.35086000  1
  P  P18  1  0.61108100  0.39101900  0.64509000  1
  P  P19  1  0.53442700  0.24892600  0.99163800  1
  P  P20  1  0.46519500  0.75011200  0.00820700  1
  P  P21  1  0.38805100  0.61145000  0.35683700  1
  P  P22  1  0.39009000  0.88135200  0.64568700  1
  P  P23  1  0.11337900  0.11146500  0.14486200  1
  P  P24  1  0.10995700  0.38286900  0.85020800  1
  P  P25  1  0.03799700  0.24821900  0.49140000  1
  O  O26  1  0.94240800  0.12785100  0.55977100  1
  O  O27  1  0.93512600  0.10685200  0.10696100  1
  O  O28  1  0.94266100  0.33124900  0.39840000  1
  O  O29  1  0.92932600  0.41705200  0.82444500  1
  O  O30  1  0.91405000  0.63409700  0.41762700  1
  O  O31  1  0.88071400  0.79589600  0.15866600  1
  O  O32  1  0.87106000  0.00728000  0.75734500  1
  O  O33  1  0.86419500  0.57163400  0.02367400  1
  O  O34  1  0.82987800  0.73031100  0.81807800  1
  O  O35  1  0.81928200  0.82206000  0.56534600  1
  O  O36  1  0.77018700  0.52613400  0.22245900  1
  O  O37  1  0.77734600  0.95223300  0.95123200  1
  O  O38  1  0.72306500  0.44530000  0.55066100  1
  O  O39  1  0.71926700  0.02234000  0.27263100  1
  O  O40  1  0.67914000  0.32390700  0.93189900  1
  O  O41  1  0.66539700  0.22843500  0.68394400  1
  O  O42  1  0.64183400  0.08000300  0.47315400  1
  O  O43  1  0.63778300  0.50795400  0.74270600  1
  O  O44  1  0.62373300  0.29238600  0.33098400  1
  O  O45  1  0.59790600  0.13882400  0.08260900  1
  O  O46  1  0.56598100  0.91823100  0.67865200  1
  O  O47  1  0.56889900  0.82780000  0.10028800  1
  O  O48  1  0.56105000  0.61669900  0.39684000  1
  O  O49  1  0.56175400  0.62544800  0.94515500  1
  O  O50  1  0.44602800  0.37427300  0.05900500  1
  O  O51  1  0.43437400  0.39368600  0.60725300  1
  O  O52  1  0.42777000  0.17449400  0.89905200  1
  O  O53  1  0.43213700  0.07117300  0.32274300  1
  O  O54  1  0.40443700  0.86235500  0.91652400  1
  O  O55  1  0.38020500  0.70367400  0.65863000  1
  O  O56  1  0.37198100  0.50161400  0.25432400  1
  O  O57  1  0.36240500  0.92641400  0.52337100  1
  O  O58  1  0.32289200  0.77236300  0.31825800  1
  O  O59  1  0.31788300  0.67763200  0.06557500  1
  O  O60  1  0.27488200  0.97412800  0.72298200  1
  O  O61  1  0.26782000  0.55125200  0.44672300  1
  O  O62  1  0.22380300  0.05315100  0.04991500  1
  O  O63  1  0.21846200  0.47759500  0.77204500  1
  O  O64  1  0.18297200  0.16859800  0.43844300  1
  O  O65  1  0.15905300  0.27637200  0.18053400  1
  O  O66  1  0.14411200  0.42236000  0.97154400  1
  O  O67  1  0.13722000  0.99588600  0.24241900  1
  O  O68  1  0.12232300  0.20347000  0.83183300  1
  O  O69  1  0.10114700  0.35889100  0.58410500  1
  O  O70  1  0.06268000  0.57878600  0.18471800  1
  O  O71  1  0.07134200  0.67594500  0.60211300  1
  O  O72  1  0.06573600  0.89092700  0.89356700  1
  O  O73  1  0.06321900  0.87676700  0.44521000  1
