# generated using pymatgen
data_Li2P2H2O7
_symmetry_space_group_name_H-M   'P 1'
_cell_length_a   10.13663003
_cell_length_b   10.13663003
_cell_length_c   10.13663062
_cell_angle_alpha   103.86025773
_cell_angle_beta   103.86025773
_cell_angle_gamma   103.86025630
_symmetry_Int_Tables_number   1
_chemical_formula_structural   Li2P2H2O7
_chemical_formula_sum   'Li12 P12 H12 O42'
_cell_volume   931.79374560
_cell_formula_units_Z   6
loop_
 _symmetry_equiv_pos_site_id
 _symmetry_equiv_pos_as_xyz
  1  'x, y, z'
loop_
 _atom_site_type_symbol
 _atom_site_label
 _atom_site_symmetry_multiplicity
 _atom_site_fract_x
 _atom_site_fract_y
 _atom_site_fract_z
 _atom_site_occupancy
  Li  Li0  1  0.19253900  0.80746100  0.50000000  1
  Li  Li1  1  0.50000000  0.19253900  0.80746100  1
  Li  Li2  1  0.80746100  0.50000000  0.19253900  1
  Li  Li3  1  0.50000000  0.80746100  0.19253900  1
  Li  Li4  1  0.19253900  0.50000000  0.80746100  1
  Li  Li5  1  0.80746100  0.19253900  0.50000000  1
  Li  Li6  1  0.23964000  0.79790000  0.23964000  1
  Li  Li7  1  0.23964000  0.23964000  0.79790000  1
  Li  Li8  1  0.79790000  0.23964000  0.23964000  1
  Li  Li9  1  0.76036000  0.20210000  0.76036000  1
  Li  Li10  1  0.76036000  0.76036000  0.20210000  1
  Li  Li11  1  0.20210000  0.76036000  0.76036000  1
  P  P12  1  0.48412400  0.11099000  0.29672700  1
  P  P13  1  0.29672700  0.48412400  0.11099000  1
  P  P14  1  0.11099000  0.29672700  0.48412400  1
  P  P15  1  0.29672700  0.11099000  0.48412400  1
  P  P16  1  0.48412400  0.29672700  0.11099000  1
  P  P17  1  0.11099000  0.48412400  0.29672700  1
  P  P18  1  0.51587600  0.88901000  0.70327300  1
  P  P19  1  0.70327300  0.51587600  0.88901000  1
  P  P20  1  0.88901000  0.70327300  0.51587600  1
  P  P21  1  0.70327300  0.88901000  0.51587600  1
  P  P22  1  0.51587600  0.70327300  0.88901000  1
  P  P23  1  0.88901000  0.51587600  0.70327300  1
  H  H24  1  0.07514900  0.71299100  0.97864800  1
  H  H25  1  0.97864800  0.07514900  0.71299100  1
  H  H26  1  0.71299100  0.97864800  0.07514900  1
  H  H27  1  0.97864800  0.71299100  0.07514900  1
  H  H28  1  0.07514900  0.97864800  0.71299100  1
  H  H29  1  0.71299100  0.07514900  0.97864800  1
  H  H30  1  0.92485100  0.28700900  0.02135200  1
  H  H31  1  0.02135200  0.92485100  0.28700900  1
  H  H32  1  0.28700900  0.02135200  0.92485100  1
  H  H33  1  0.02135200  0.28700900  0.92485100  1
  H  H34  1  0.92485100  0.02135200  0.28700900  1
  H  H35  1  0.28700900  0.92485100  0.02135200  1
  O  O36  1  0.40444700  0.95461000  0.21819400  1
  O  O37  1  0.21819400  0.40444700  0.95461000  1
  O  O38  1  0.95461000  0.21819400  0.40444700  1
  O  O39  1  0.21819400  0.95461000  0.40444700  1
  O  O40  1  0.40444700  0.21819400  0.95461000  1
  O  O41  1  0.95461000  0.40444700  0.21819400  1
  O  O42  1  0.59555300  0.04539000  0.78180600  1
  O  O43  1  0.78180600  0.59555300  0.04539000  1
  O  O44  1  0.04539000  0.78180600  0.59555300  1
  O  O45  1  0.78180600  0.04539000  0.59555300  1
  O  O46  1  0.59555300  0.78180600  0.04539000  1
  O  O47  1  0.04539000  0.59555300  0.78180600  1
  O  O48  1  0.33897400  0.15906500  0.64412200  1
  O  O49  1  0.64412200  0.33897400  0.15906500  1
  O  O50  1  0.15906500  0.64412200  0.33897400  1
  O  O51  1  0.64412200  0.15906500  0.33897400  1
  O  O52  1  0.33897400  0.64412200  0.15906500  1
  O  O53  1  0.15906500  0.33897400  0.64412200  1
  O  O54  1  0.66102600  0.84093500  0.35587800  1
  O  O55  1  0.35587800  0.66102600  0.84093500  1
  O  O56  1  0.84093500  0.35587800  0.66102600  1
  O  O57  1  0.35587800  0.84093500  0.66102600  1
  O  O58  1  0.66102600  0.35587800  0.84093500  1
  O  O59  1  0.84093500  0.66102600  0.35587800  1
  O  O60  1  0.43917500  0.16142900  0.43917500  1
  O  O61  1  0.43917500  0.43917500  0.16142900  1
  O  O62  1  0.16142900  0.43917500  0.43917500  1
  O  O63  1  0.56082500  0.83857100  0.56082500  1
  O  O64  1  0.56082500  0.56082500  0.83857100  1
  O  O65  1  0.83857100  0.56082500  0.56082500  1
  O  O66  1  0.79655800  0.58065000  0.79655800  1
  O  O67  1  0.79655800  0.79655800  0.58065000  1
  O  O68  1  0.58065000  0.79655800  0.79655800  1
  O  O69  1  0.20344200  0.41935000  0.20344200  1
  O  O70  1  0.20344200  0.20344200  0.41935000  1
  O  O71  1  0.41935000  0.20344200  0.20344200  1
  O  O72  1  0.07522900  0.75997200  0.07522900  1
  O  O73  1  0.07522900  0.07522900  0.75997200  1
  O  O74  1  0.75997200  0.07522900  0.07522900  1
  O  O75  1  0.92477100  0.24002800  0.92477100  1
  O  O76  1  0.92477100  0.92477100  0.24002800  1
  O  O77  1  0.24002800  0.92477100  0.92477100  1
