# generated using pymatgen
data_Li2V2(Si2O5)3
_symmetry_space_group_name_H-M   'P 1'
_cell_length_a   11.48096791
_cell_length_b   11.48096791
_cell_length_c   10.34981600
_cell_angle_alpha   90.00000000
_cell_angle_beta   90.00000000
_cell_angle_gamma   100.69352330
_symmetry_Int_Tables_number   1
_chemical_formula_structural   Li2V2(Si2O5)3
_chemical_formula_sum   'Li8 V8 Si24 O60'
_cell_volume   1340.54477485
_cell_formula_units_Z   4
loop_
 _symmetry_equiv_pos_site_id
 _symmetry_equiv_pos_as_xyz
  1  'x, y, z'
loop_
 _atom_site_type_symbol
 _atom_site_label
 _atom_site_symmetry_multiplicity
 _atom_site_fract_x
 _atom_site_fract_y
 _atom_site_fract_z
 _atom_site_occupancy
  Li  Li0  1  0.99653500  0.50346500  0.25000000  1
  Li  Li1  1  0.50346500  0.99653500  0.75000000  1
  Li  Li2  1  0.39532500  0.60467500  0.74443700  1
  Li  Li3  1  0.89532500  0.10467500  0.75556300  1
  Li  Li4  1  0.60467500  0.39532500  0.25556300  1
  Li  Li5  1  0.10467500  0.89532500  0.24443700  1
  Li  Li6  1  0.49653500  0.00346500  0.25000000  1
  Li  Li7  1  0.00346500  0.49653500  0.75000000  1
  V  V8  1  0.24133600  0.24133600  0.00000000  1
  V  V9  1  0.34067500  0.15932500  0.25000000  1
  V  V10  1  0.15932500  0.34067500  0.75000000  1
  V  V11  1  0.25866400  0.25866400  0.50000000  1
  V  V12  1  0.74133600  0.74133600  0.50000000  1
  V  V13  1  0.65932500  0.84067500  0.75000000  1
  V  V14  1  0.84067500  0.65932500  0.25000000  1
  V  V15  1  0.75866400  0.75866400  0.00000000  1
  Si  Si16  1  0.03378400  0.18323500  0.19421300  1
  Si  Si17  1  0.18323500  0.03378400  0.80578700  1
  Si  Si18  1  0.58155000  0.19931500  0.45918600  1
  Si  Si19  1  0.69931500  0.08155000  0.95918600  1
  Si  Si20  1  0.19931500  0.58155000  0.54081400  1
  Si  Si21  1  0.08155000  0.69931500  0.04081400  1
  Si  Si22  1  0.46621600  0.31676500  0.69421300  1
  Si  Si23  1  0.31676500  0.46621600  0.30578700  1
  Si  Si24  1  0.25944500  0.52523200  0.01265200  1
  Si  Si25  1  0.75944500  0.02523200  0.48734800  1
  Si  Si26  1  0.52523200  0.25944500  0.98734800  1
  Si  Si27  1  0.02523200  0.75944500  0.51265200  1
  Si  Si28  1  0.47476800  0.74055500  0.01265200  1
  Si  Si29  1  0.97476800  0.24055500  0.48734800  1
  Si  Si30  1  0.74055500  0.47476800  0.98734800  1
  Si  Si31  1  0.24055500  0.97476800  0.51265200  1
  Si  Si32  1  0.53378400  0.68323500  0.30578700  1
  Si  Si33  1  0.68323500  0.53378400  0.69421300  1
  Si  Si34  1  0.80068500  0.41845000  0.45918600  1
  Si  Si35  1  0.91845000  0.30068500  0.95918600  1
  Si  Si36  1  0.41845000  0.80068500  0.54081400  1
  Si  Si37  1  0.30068500  0.91845000  0.04081400  1
  Si  Si38  1  0.81676500  0.96621600  0.19421300  1
  Si  Si39  1  0.96621600  0.81676500  0.80578700  1
  O  O40  1  0.24445600  0.01043900  0.66673000  1
  O  O41  1  0.01043900  0.24445600  0.33327000  1
  O  O42  1  0.16675600  0.16215100  0.16995900  1
  O  O43  1  0.16215100  0.16675600  0.83004100  1
  O  O44  1  0.08970100  0.24995700  0.57708100  1
  O  O45  1  0.24995700  0.08970100  0.42291900  1
  O  O46  1  0.41029900  0.25004300  0.07708100  1
  O  O47  1  0.25004300  0.41029900  0.92291900  1
  O  O48  1  0.33324400  0.33784900  0.66995900  1
  O  O49  1  0.33784900  0.33324400  0.33004100  1
  O  O50  1  0.51365700  0.15688000  0.32805400  1
  O  O51  1  0.65688000  0.01365700  0.82805400  1
  O  O52  1  0.15688000  0.51365700  0.67194600  1
  O  O53  1  0.01365700  0.65688000  0.17194600  1
  O  O54  1  0.49742800  0.22625200  0.58067100  1
  O  O55  1  0.72625200  0.99742800  0.08067100  1
  O  O56  1  0.99742800  0.72625200  0.91932900  1
  O  O57  1  0.22625200  0.49742800  0.41932900  1
  O  O58  1  0.09777100  0.65179900  0.48488600  1
  O  O59  1  0.65179900  0.09777100  0.51511400  1
  O  O60  1  0.59777100  0.15179900  0.01511400  1
  O  O61  1  0.15179900  0.59777100  0.98488600  1
  O  O62  1  0.25554400  0.48956100  0.16673000  1
  O  O63  1  0.48956100  0.25554400  0.83327000  1
  O  O64  1  0.05406200  0.94593800  0.81461300  1
  O  O65  1  0.38403000  0.61597000  0.97148000  1
  O  O66  1  0.67459600  0.32540400  0.42468300  1
  O  O67  1  0.94593800  0.05406200  0.18538700  1
  O  O68  1  0.82540400  0.17459600  0.92468300  1
  O  O69  1  0.88403000  0.11597000  0.52852000  1
  O  O70  1  0.61597000  0.38403000  0.02852000  1
  O  O71  1  0.55406200  0.44593800  0.68538700  1
  O  O72  1  0.44593800  0.55406200  0.31461300  1
  O  O73  1  0.11597000  0.88403000  0.47148000  1
  O  O74  1  0.32540400  0.67459600  0.57531700  1
  O  O75  1  0.17459600  0.82540400  0.07531700  1
  O  O76  1  0.51043900  0.74445600  0.16673000  1
  O  O77  1  0.74445600  0.51043900  0.83327000  1
  O  O78  1  0.40222900  0.84820100  0.98488600  1
  O  O79  1  0.84820100  0.40222900  0.01511400  1
  O  O80  1  0.90222900  0.34820100  0.51511400  1
  O  O81  1  0.34820100  0.90222900  0.48488600  1
  O  O82  1  0.27374800  0.00257200  0.91932900  1
  O  O83  1  0.77374800  0.50257200  0.58067100  1
  O  O84  1  0.00257200  0.27374800  0.08067100  1
  O  O85  1  0.50257200  0.77374800  0.41932900  1
  O  O86  1  0.98634300  0.34312000  0.82805400  1
  O  O87  1  0.84312000  0.48634300  0.32805400  1
  O  O88  1  0.48634300  0.84312000  0.67194600  1
  O  O89  1  0.34312000  0.98634300  0.17194600  1
  O  O90  1  0.66675600  0.66215100  0.33004100  1
  O  O91  1  0.66215100  0.66675600  0.66995900  1
  O  O92  1  0.58970100  0.74995700  0.92291900  1
  O  O93  1  0.74995700  0.58970100  0.07708100  1
  O  O94  1  0.75004300  0.91029900  0.57708100  1
  O  O95  1  0.91029900  0.75004300  0.42291900  1
  O  O96  1  0.83784900  0.83324400  0.16995900  1
  O  O97  1  0.83324400  0.83784900  0.83004100  1
  O  O98  1  0.98956100  0.75554400  0.66673000  1
  O  O99  1  0.75554400  0.98956100  0.33327000  1
