# generated using pymatgen
data_Li4Cr3Cu3(SbO8)2
_symmetry_space_group_name_H-M   'P 1'
_cell_length_a   5.95292211
_cell_length_b   5.93129683
_cell_length_c   9.62741468
_cell_angle_alpha   90.04664257
_cell_angle_beta   89.02849283
_cell_angle_gamma   119.87970904
_symmetry_Int_Tables_number   1
_chemical_formula_structural   Li4Cr3Cu3(SbO8)2
_chemical_formula_sum   'Li4 Cr3 Cu3 Sb2 O16'
_cell_volume   294.69044196
_cell_formula_units_Z   1
loop_
 _symmetry_equiv_pos_site_id
 _symmetry_equiv_pos_as_xyz
  1  'x, y, z'
loop_
 _atom_site_type_symbol
 _atom_site_label
 _atom_site_symmetry_multiplicity
 _atom_site_fract_x
 _atom_site_fract_y
 _atom_site_fract_z
 _atom_site_occupancy
  Li  Li0  1  0.33094500  0.66594600  0.90268700  1
  Li  Li1  1  0.00031700  0.99959600  0.99275000  1
  Li  Li2  1  0.00264800  0.00091100  0.48970800  1
  Li  Li3  1  0.67375000  0.33715700  0.40165700  1
  Cr  Cr4  1  0.65978200  0.83005400  0.21510700  1
  Cr  Cr5  1  0.82853700  0.65937300  0.71412400  1
  Cr  Cr6  1  0.82840600  0.16919700  0.71408200  1
  Cu  Cu7  1  0.17228400  0.83151100  0.21322600  1
  Cu  Cu8  1  0.17220000  0.33996000  0.21255900  1
  Cu  Cu9  1  0.33949200  0.16984800  0.71459700  1
  Sb  Sb10  1  0.33301200  0.66629200  0.48938700  1
  Sb  Sb11  1  0.66333300  0.33180200  0.98814900  1
  O  O12  1  0.16081800  0.83358000  0.59322700  1
  O  O13  1  0.04422400  0.52203200  0.34413100  1
  O  O14  1  0.33822200  0.66796200  0.11155700  1
  O  O15  1  0.00028000  0.00101300  0.30164900  1
  O  O16  1  0.99175700  0.99602800  0.80550800  1
  O  O17  1  0.16074600  0.32710100  0.59311600  1
  O  O18  1  0.49007500  0.96723400  0.34700200  1
  O  O19  1  0.49392100  0.52637900  0.34814700  1
  O  O20  1  0.32316700  0.16113100  0.09215000  1
  O  O21  1  0.66566900  0.83324000  0.59740600  1
  O  O22  1  0.51898000  0.48343700  0.84434800  1
  O  O23  1  0.51856400  0.03610300  0.84395700  1
  O  O24  1  0.67546700  0.33772500  0.60814100  1
  O  O25  1  0.82666100  0.66540800  0.09413200  1
  O  O26  1  0.96236600  0.48130300  0.84241000  1
  O  O27  1  0.82437700  0.15897500  0.09292400  1
