# generated using pymatgen
data_Li5SbS4
_symmetry_space_group_name_H-M   'P 1'
_cell_length_a   16.50530500
_cell_length_b   16.50530500
_cell_length_c   5.93388600
_cell_angle_alpha   90.00000000
_cell_angle_beta   90.00000000
_cell_angle_gamma   90.00000000
_symmetry_Int_Tables_number   1
_chemical_formula_structural   Li5SbS4
_chemical_formula_sum   'Li40 Sb8 S32'
_cell_volume   1616.53944625
_cell_formula_units_Z   8
loop_
 _symmetry_equiv_pos_site_id
 _symmetry_equiv_pos_as_xyz
  1  'x, y, z'
loop_
 _atom_site_type_symbol
 _atom_site_label
 _atom_site_symmetry_multiplicity
 _atom_site_fract_x
 _atom_site_fract_y
 _atom_site_fract_z
 _atom_site_occupancy
  Li  Li0  1  0.76130700  0.23869300  0.00000000  1
  Li  Li1  1  0.73869300  0.26130700  0.50000000  1
  Li  Li2  1  0.23869300  0.23869300  0.00000000  1
  Li  Li3  1  0.26130700  0.26130700  0.50000000  1
  Li  Li4  1  0.11319400  0.36157100  0.56269900  1
  Li  Li5  1  0.88680600  0.36157100  0.56269900  1
  Li  Li6  1  0.37192600  0.37192600  0.00000000  1
  Li  Li7  1  0.62807400  0.37192600  0.00000000  1
  Li  Li8  1  0.86157100  0.38680600  0.06269900  1
  Li  Li9  1  0.13842900  0.38680600  0.06269900  1
  Li  Li10  1  0.00000000  0.50000000  0.08976200  1
  Li  Li11  1  0.50000000  0.50000000  0.50000000  1
  Li  Li12  1  0.50000000  0.50000000  0.00000000  1
  Li  Li13  1  0.00000000  0.50000000  0.58976200  1
  Li  Li14  1  0.86157100  0.61319400  0.06269900  1
  Li  Li15  1  0.13842900  0.61319400  0.06269900  1
  Li  Li16  1  0.37192600  0.62807400  0.00000000  1
  Li  Li17  1  0.62807400  0.62807400  0.00000000  1
  Li  Li18  1  0.88680600  0.63842900  0.56269900  1
  Li  Li19  1  0.11319400  0.63842900  0.56269900  1
  Li  Li20  1  0.23869300  0.76130700  0.00000000  1
  Li  Li21  1  0.26130700  0.73869300  0.50000000  1
  Li  Li22  1  0.76130700  0.76130700  0.00000000  1
  Li  Li23  1  0.73869300  0.73869300  0.50000000  1
  Li  Li24  1  0.38680600  0.86157100  0.93730100  1
  Li  Li25  1  0.61319400  0.86157100  0.93730100  1
  Li  Li26  1  0.87192600  0.87192600  0.50000000  1
  Li  Li27  1  0.12807400  0.87192600  0.50000000  1
  Li  Li28  1  0.36157100  0.88680600  0.43730100  1
  Li  Li29  1  0.63842900  0.88680600  0.43730100  1
  Li  Li30  1  0.00000000  0.00000000  0.50000000  1
  Li  Li31  1  0.00000000  0.00000000  0.00000000  1
  Li  Li32  1  0.50000000  0.00000000  0.91023800  1
  Li  Li33  1  0.50000000  0.00000000  0.41023800  1
  Li  Li34  1  0.36157100  0.11319400  0.43730100  1
  Li  Li35  1  0.63842900  0.11319400  0.43730100  1
  Li  Li36  1  0.87192600  0.12807400  0.50000000  1
  Li  Li37  1  0.12807400  0.12807400  0.50000000  1
  Li  Li38  1  0.38680600  0.13842900  0.93730100  1
  Li  Li39  1  0.61319400  0.13842900  0.93730100  1
  Sb  Sb40  1  0.50000000  0.26818000  0.46435000  1
  Sb  Sb41  1  0.26818000  0.50000000  0.53565000  1
  Sb  Sb42  1  0.73182000  0.50000000  0.53565000  1
  Sb  Sb43  1  0.50000000  0.73182000  0.46435000  1
  Sb  Sb44  1  0.00000000  0.76818000  0.03565000  1
  Sb  Sb45  1  0.76818000  0.00000000  0.96435000  1
  Sb  Sb46  1  0.23182000  0.00000000  0.96435000  1
  Sb  Sb47  1  0.00000000  0.23182000  0.03565000  1
  S  S48  1  0.86626200  0.25872000  0.27692000  1
  S  S49  1  0.13373800  0.25872000  0.27692000  1
  S  S50  1  0.75872000  0.36626200  0.77692000  1
  S  S51  1  0.24128000  0.36626200  0.77692000  1
  S  S52  1  0.00000000  0.38042800  0.84189000  1
  S  S53  1  0.50000000  0.37982100  0.77147800  1
  S  S54  1  0.88042800  0.50000000  0.34189000  1
  S  S55  1  0.37982100  0.50000000  0.22852200  1
  S  S56  1  0.11957200  0.50000000  0.34189000  1
  S  S57  1  0.62017900  0.50000000  0.22852200  1
  S  S58  1  0.50000000  0.62017900  0.77147800  1
  S  S59  1  0.00000000  0.61957200  0.84189000  1
  S  S60  1  0.24128000  0.63373800  0.77692000  1
  S  S61  1  0.75872000  0.63373800  0.77692000  1
  S  S62  1  0.86626200  0.74128000  0.27692000  1
  S  S63  1  0.13373800  0.74128000  0.27692000  1
  S  S64  1  0.36626200  0.75872000  0.22308000  1
  S  S65  1  0.63373800  0.75872000  0.22308000  1
  S  S66  1  0.25872000  0.86626200  0.72308000  1
  S  S67  1  0.74128000  0.86626200  0.72308000  1
  S  S68  1  0.50000000  0.88042800  0.65811000  1
  S  S69  1  0.00000000  0.87982100  0.72852200  1
  S  S70  1  0.87982100  0.00000000  0.27147800  1
  S  S71  1  0.12017900  0.00000000  0.27147800  1
  S  S72  1  0.38042800  0.00000000  0.15811000  1
  S  S73  1  0.61957200  0.00000000  0.15811000  1
  S  S74  1  0.00000000  0.12017900  0.72852200  1
  S  S75  1  0.50000000  0.11957200  0.65811000  1
  S  S76  1  0.25872000  0.13373800  0.72308000  1
  S  S77  1  0.74128000  0.13373800  0.72308000  1
  S  S78  1  0.36626200  0.24128000  0.22308000  1
  S  S79  1  0.63373800  0.24128000  0.22308000  1
