# generated using pymatgen
data_LiFe(PO3)3
_symmetry_space_group_name_H-M   'P 1'
_cell_length_a   8.49623200
_cell_length_b   8.62083100
_cell_length_c   8.97881000
_cell_angle_alpha   90.00000000
_cell_angle_beta   90.00000000
_cell_angle_gamma   90.00000000
_symmetry_Int_Tables_number   1
_chemical_formula_structural   LiFe(PO3)3
_chemical_formula_sum   'Li4 Fe4 P12 O36'
_cell_volume   657.64916922
_cell_formula_units_Z   4
loop_
 _symmetry_equiv_pos_site_id
 _symmetry_equiv_pos_as_xyz
  1  'x, y, z'
loop_
 _atom_site_type_symbol
 _atom_site_label
 _atom_site_symmetry_multiplicity
 _atom_site_fract_x
 _atom_site_fract_y
 _atom_site_fract_z
 _atom_site_occupancy
  Li  Li0  1  0.87000800  0.64199200  0.33541100  1
  Li  Li1  1  0.62999200  0.35800800  0.83541100  1
  Li  Li2  1  0.12999200  0.14199200  0.16458900  1
  Li  Li3  1  0.37000800  0.85800800  0.66458900  1
  Fe  Fe4  1  0.65250100  0.62861200  0.60987700  1
  Fe  Fe5  1  0.84749900  0.37138800  0.10987700  1
  Fe  Fe6  1  0.34749900  0.12861200  0.89012300  1
  Fe  Fe7  1  0.15250100  0.87138800  0.39012300  1
  P  P8  1  0.80038600  0.69182800  0.93268400  1
  P  P9  1  0.02869100  0.68315000  0.68107900  1
  P  P10  1  0.18855100  0.52218800  0.19139100  1
  P  P11  1  0.31144900  0.47781200  0.69139100  1
  P  P12  1  0.47130900  0.31685000  0.18107900  1
  P  P13  1  0.69961400  0.30817200  0.43268400  1
  P  P14  1  0.19961400  0.19182800  0.56731600  1
  P  P15  1  0.97130900  0.18315000  0.81892100  1
  P  P16  1  0.81144900  0.02218800  0.30860900  1
  P  P17  1  0.68855100  0.97781200  0.80860900  1
  P  P18  1  0.52869100  0.81685000  0.31892100  1
  P  P19  1  0.30038600  0.80817200  0.06731600  1
  O  O20  1  0.96075200  0.73179800  0.84127700  1
  O  O21  1  0.63049500  0.68773000  0.37829400  1
  O  O22  1  0.84215200  0.63285900  0.08478000  1
  O  O23  1  0.22843000  0.63513200  0.05115900  1
  O  O24  1  0.89693400  0.62818600  0.58184200  1
  O  O25  1  0.40952600  0.61169500  0.63523300  1
  O  O26  1  0.12717500  0.61691500  0.31939500  1
  O  O27  1  0.69405100  0.59207200  0.83817000  1
  O  O28  1  0.13895600  0.54101000  0.73326000  1
  O  O29  1  0.36104400  0.45899000  0.23326000  1
  O  O30  1  0.80594900  0.40792800  0.33817000  1
  O  O31  1  0.37282500  0.38308500  0.81939500  1
  O  O32  1  0.09047400  0.38830500  0.13523300  1
  O  O33  1  0.60306600  0.37181400  0.08184200  1
  O  O34  1  0.27157000  0.36486800  0.55115900  1
  O  O35  1  0.65784800  0.36714100  0.58478000  1
  O  O36  1  0.86950500  0.31227000  0.87829400  1
  O  O37  1  0.53924800  0.26820200  0.34127700  1
  O  O38  1  0.03924800  0.23179800  0.65872300  1
  O  O39  1  0.36950500  0.18773000  0.12170600  1
  O  O40  1  0.15784800  0.13285900  0.41522000  1
  O  O41  1  0.77157000  0.13513200  0.44884100  1
  O  O42  1  0.10306600  0.12818600  0.91815800  1
  O  O43  1  0.59047400  0.11169500  0.86476700  1
  O  O44  1  0.87282500  0.11691500  0.18060500  1
  O  O45  1  0.30594900  0.09207200  0.66183000  1
  O  O46  1  0.86104400  0.04101000  0.76674000  1
  O  O47  1  0.63895600  0.95899000  0.26674000  1
  O  O48  1  0.19405100  0.90792800  0.16183000  1
  O  O49  1  0.62717500  0.88308500  0.68060500  1
  O  O50  1  0.90952600  0.88830500  0.36476700  1
  O  O51  1  0.39693400  0.87181400  0.41815800  1
  O  O52  1  0.72843000  0.86486800  0.94884100  1
  O  O53  1  0.34215200  0.86714100  0.91522000  1
  O  O54  1  0.13049500  0.81227000  0.62170600  1
  O  O55  1  0.46075200  0.76820200  0.15872300  1
