# generated using pymatgen
data_Li3VF6
_symmetry_space_group_name_H-M   'P 1'
_cell_length_a   5.12429200
_cell_length_b   8.56740200
_cell_length_c   9.78971100
_cell_angle_alpha   90.00000000
_cell_angle_beta   90.00000000
_cell_angle_gamma   90.00000000
_symmetry_Int_Tables_number   1
_chemical_formula_structural   Li3VF6
_chemical_formula_sum   'Li12 V4 F24'
_cell_volume   429.78661505
_cell_formula_units_Z   4
loop_
 _symmetry_equiv_pos_site_id
 _symmetry_equiv_pos_as_xyz
  1  'x, y, z'
loop_
 _atom_site_type_symbol
 _atom_site_label
 _atom_site_symmetry_multiplicity
 _atom_site_fract_x
 _atom_site_fract_y
 _atom_site_fract_z
 _atom_site_occupancy
  Li  Li0  1  0.49583000  0.45131900  0.10438300  1
  Li  Li1  1  0.00756000  0.85341400  0.12570300  1
  Li  Li2  1  0.50249700  0.04845000  0.14646700  1
  Li  Li3  1  0.00249700  0.54845000  0.35353300  1
  Li  Li4  1  0.50756000  0.35341400  0.37429700  1
  Li  Li5  1  0.99583000  0.95131900  0.39561700  1
  Li  Li6  1  0.49583000  0.04868100  0.60438300  1
  Li  Li7  1  0.00756000  0.64658600  0.62570300  1
  Li  Li8  1  0.50249700  0.45155000  0.64646700  1
  Li  Li9  1  0.00249700  0.95155000  0.85353300  1
  Li  Li10  1  0.50756000  0.14658600  0.87429700  1
  Li  Li11  1  0.99583000  0.54868100  0.89561700  1
  V  V12  1  0.99935300  0.24018400  0.12814200  1
  V  V13  1  0.49935300  0.74018400  0.37185800  1
  V  V14  1  0.99935300  0.25981600  0.62814200  1
  V  V15  1  0.49935300  0.75981600  0.87185800  1
  F  F16  1  0.81964600  0.08451500  0.00881200  1
  F  F17  1  0.32984100  0.24669800  0.02075200  1
  F  F18  1  0.84265200  0.40861100  0.02391400  1
  F  F19  1  0.14728800  0.05901000  0.22745600  1
  F  F20  1  0.67773400  0.23033100  0.24029000  1
  F  F21  1  0.18481000  0.38848000  0.24915900  1
  F  F22  1  0.68481000  0.88848000  0.25084100  1
  F  F23  1  0.17773400  0.73033100  0.25971000  1
  F  F24  1  0.64728800  0.55901000  0.27254400  1
  F  F25  1  0.34265200  0.90861100  0.47608600  1
  F  F26  1  0.82984100  0.74669800  0.47924800  1
  F  F27  1  0.31964600  0.58451500  0.49118800  1
  F  F28  1  0.81964600  0.41548500  0.50881200  1
  F  F29  1  0.32984100  0.25330200  0.52075200  1
  F  F30  1  0.84265200  0.09138900  0.52391400  1
  F  F31  1  0.14728800  0.44099000  0.72745600  1
  F  F32  1  0.67773400  0.26966900  0.74029000  1
  F  F33  1  0.18481000  0.11152000  0.74915900  1
  F  F34  1  0.68481000  0.61152000  0.75084100  1
  F  F35  1  0.17773400  0.76966900  0.75971000  1
  F  F36  1  0.64728800  0.94099000  0.77254400  1
  F  F37  1  0.34265200  0.59138900  0.97608600  1
  F  F38  1  0.82984100  0.75330200  0.97924800  1
  F  F39  1  0.31964600  0.91548500  0.99118800  1
