# generated using pymatgen
data_LiV2(PO4)3
_symmetry_space_group_name_H-M   'P 1'
_cell_length_a   8.61460500
_cell_length_b   8.62248072
_cell_length_c   12.04581361
_cell_angle_alpha   90.11397354
_cell_angle_beta   90.14501599
_cell_angle_gamma   90.18453667
_symmetry_Int_Tables_number   1
_chemical_formula_structural   LiV2(PO4)3
_chemical_formula_sum   'Li4 V8 P12 O48'
_cell_volume   894.74489638
_cell_formula_units_Z   4
loop_
 _symmetry_equiv_pos_site_id
 _symmetry_equiv_pos_as_xyz
  1  'x, y, z'
loop_
 _atom_site_type_symbol
 _atom_site_label
 _atom_site_symmetry_multiplicity
 _atom_site_fract_x
 _atom_site_fract_y
 _atom_site_fract_z
 _atom_site_occupancy
  Li  Li0  1  0.27344400  0.28673600  0.31830700  1
  Li  Li1  1  0.22603500  0.78362800  0.81861800  1
  Li  Li2  1  0.90838100  0.93487900  0.28977400  1
  Li  Li3  1  0.59402300  0.94188400  0.71263100  1
  V  V4  1  0.95574800  0.25713900  0.38316600  1
  V  V5  1  0.53162000  0.25907800  0.61939700  1
  V  V6  1  0.46822700  0.24983400  0.11539100  1
  V  V7  1  0.03594300  0.25031300  0.88001900  1
  V  V8  1  0.96711300  0.74292300  0.11385900  1
  V  V9  1  0.54226600  0.74144500  0.88877100  1
  V  V10  1  0.46371000  0.75063400  0.38033700  1
  V  V11  1  0.03254300  0.75058800  0.61485500  1
  P  P12  1  0.25056000  0.03818300  0.49977100  1
  P  P13  1  0.10172300  0.10871500  0.14432300  1
  P  P14  1  0.39220900  0.10626800  0.85455600  1
  P  P15  1  0.60327000  0.39708100  0.35561100  1
  P  P16  1  0.89467700  0.39354400  0.64576000  1
  P  P17  1  0.75239600  0.45761800  0.00010500  1
  P  P18  1  0.25040300  0.53314100  0.00048700  1
  P  P19  1  0.10642100  0.61052900  0.35332900  1
  P  P20  1  0.39825800  0.61360700  0.64538200  1
  P  P21  1  0.89713500  0.89540800  0.85518000  1
  P  P22  1  0.60370800  0.89319600  0.14664100  1
  P  P23  1  0.74781300  0.96204300  0.50053400  1
  O  O24  1  0.64824100  0.06125100  0.57930000  1
  O  O25  1  0.85354700  0.05856100  0.42210300  1
  O  O26  1  0.58367200  0.07105200  0.15338100  1
  O  O27  1  0.91056700  0.07202900  0.84617800  1
  O  O28  1  0.06057300  0.16471200  0.02879600  1
  O  O29  1  0.43829700  0.15993200  0.97097000  1
  O  O30  1  0.26758200  0.16159700  0.17755700  1
  O  O31  1  0.22436600  0.14949500  0.82641200  1
  O  O32  1  0.15741000  0.14997100  0.42393000  1
  O  O33  1  0.35292100  0.14152500  0.57591400  1
  O  O34  1  0.98481000  0.17002600  0.23311000  1
  O  O35  1  0.51172900  0.16723200  0.76879700  1
  O  O36  1  0.48722600  0.32119100  0.27273400  1
  O  O37  1  0.00700600  0.32001800  0.72861700  1
  O  O38  1  0.65573300  0.35801900  0.07887700  1
  O  O39  1  0.84868900  0.35711000  0.92380600  1
  O  O40  1  0.72285100  0.35132700  0.66827900  1
  O  O41  1  0.77289500  0.35170000  0.32848600  1
  O  O42  1  0.55703000  0.34012300  0.47130900  1
  O  O43  1  0.93781100  0.33585200  0.52776100  1
  O  O44  1  0.41163700  0.43673900  0.66121400  1
  O  O45  1  0.09331700  0.43094000  0.34032600  1
  O  O46  1  0.35691600  0.43310700  0.07358800  1
  O  O47  1  0.14900100  0.43391500  0.92317500  1
  O  O48  1  0.64882000  0.55961200  0.92417000  1
  O  O49  1  0.85187000  0.56665000  0.07582200  1
  O  O50  1  0.59091500  0.57379100  0.34658500  1
  O  O51  1  0.91330600  0.57164900  0.65219000  1
  O  O52  1  0.06291900  0.66122800  0.47122900  1
  O  O53  1  0.43799100  0.66544200  0.52791600  1
  O  O54  1  0.27628700  0.64899900  0.32680000  1
  O  O55  1  0.23058700  0.66281100  0.67697200  1
  O  O56  1  0.15523800  0.63638800  0.07891200  1
  O  O57  1  0.34245800  0.64410100  0.92252600  1
  O  O58  1  0.99120800  0.69254100  0.27351600  1
  O  O59  1  0.51290300  0.69510900  0.72790400  1
  O  O60  1  0.48989500  0.81949100  0.22811900  1
  O  O61  1  0.01281400  0.81993700  0.77285000  1
  O  O62  1  0.65371400  0.85867200  0.42188700  1
  O  O63  1  0.84468900  0.85896900  0.57859500  1
  O  O64  1  0.77530000  0.85513200  0.17207600  1
  O  O65  1  0.72633500  0.85266800  0.82776100  1
  O  O66  1  0.56364000  0.83442900  0.02807000  1
  O  O67  1  0.94107300  0.83613500  0.97076600  1
  O  O68  1  0.40397600  0.92568600  0.84426100  1
  O  O69  1  0.08677300  0.92955300  0.15474700  1
  O  O70  1  0.34998000  0.93638400  0.42297400  1
  O  O71  1  0.14585700  0.93790800  0.57470300  1
