# generated using pymatgen
data_Li2ZrFe(PO4)3
_symmetry_space_group_name_H-M   'P 1'
_cell_length_a   8.79096400
_cell_length_b   8.94065800
_cell_length_c   12.37866600
_cell_angle_alpha   90.00000000
_cell_angle_beta   90.00000000
_cell_angle_gamma   90.00000000
_symmetry_Int_Tables_number   1
_chemical_formula_structural   Li2ZrFe(PO4)3
_chemical_formula_sum   'Li8 Zr4 Fe4 P12 O48'
_cell_volume   972.92604396
_cell_formula_units_Z   4
loop_
 _symmetry_equiv_pos_site_id
 _symmetry_equiv_pos_as_xyz
  1  'x, y, z'
loop_
 _atom_site_type_symbol
 _atom_site_label
 _atom_site_symmetry_multiplicity
 _atom_site_fract_x
 _atom_site_fract_y
 _atom_site_fract_z
 _atom_site_occupancy
  Li  Li0  1  0.96512300  0.72705000  0.82261400  1
  Li  Li1  1  0.96903900  0.78384500  0.18355600  1
  Li  Li2  1  0.03096100  0.21615500  0.68355600  1
  Li  Li3  1  0.03487700  0.27295000  0.32261400  1
  Li  Li4  1  0.46903900  0.71615500  0.68355600  1
  Li  Li5  1  0.46512300  0.77295000  0.32261400  1
  Li  Li6  1  0.53487700  0.22705000  0.82261400  1
  Li  Li7  1  0.53096100  0.28384500  0.18355600  1
  Zr  Zr8  1  0.99832000  0.53959500  0.61422000  1
  Zr  Zr9  1  0.00168000  0.46040500  0.11422000  1
  Zr  Zr10  1  0.49832000  0.96040500  0.11422000  1
  Zr  Zr11  1  0.50168000  0.03959500  0.61422000  1
  Fe  Fe12  1  0.99632500  0.95897300  0.38978600  1
  Fe  Fe13  1  0.00367500  0.04102700  0.88978600  1
  Fe  Fe14  1  0.49632500  0.54102700  0.88978600  1
  Fe  Fe15  1  0.50367500  0.45897300  0.38978600  1
  P  P16  1  0.79299600  0.24881800  0.49458800  1
  P  P17  1  0.84925500  0.38941800  0.85217400  1
  P  P18  1  0.85987100  0.10174700  0.14806800  1
  P  P19  1  0.15074500  0.61058200  0.35217400  1
  P  P20  1  0.14012900  0.89825300  0.64806800  1
  P  P21  1  0.20700400  0.75118200  0.99458800  1
  P  P22  1  0.29299600  0.25118200  0.99458800  1
  P  P23  1  0.34925500  0.11058200  0.35217400  1
  P  P24  1  0.35987100  0.39825300  0.64806800  1
  P  P25  1  0.64012900  0.60174700  0.14806800  1
  P  P26  1  0.65074500  0.88941800  0.85217400  1
  P  P27  1  0.70700400  0.74881800  0.49458800  1
  O  O28  1  0.80325400  0.64151500  0.56432300  1
  O  O29  1  0.80504700  0.85744500  0.42985200  1
  O  O30  1  0.82501200  0.89374900  0.84337000  1
  O  O31  1  0.81713700  0.60731100  0.15652700  1
  O  O32  1  0.89893600  0.16187200  0.41788200  1
  O  O33  1  0.89887600  0.33275800  0.57647500  1
  O  O34  1  0.90725700  0.06771000  0.03132800  1
  O  O35  1  0.89984800  0.42777800  0.96895700  1
  O  O36  1  0.91238800  0.23425300  0.81973500  1
  O  O37  1  0.91850700  0.25998200  0.18271900  1
  O  O38  1  0.91997400  0.51320100  0.77806800  1
  O  O39  1  0.92410200  0.98294800  0.22576000  1
  O  O40  1  0.07589800  0.01705200  0.72576000  1
  O  O41  1  0.08002600  0.48679900  0.27806800  1
  O  O42  1  0.08761200  0.76574700  0.31973500  1
  O  O43  1  0.08149300  0.74001800  0.68271900  1
  O  O44  1  0.10015200  0.57222200  0.46895700  1
  O  O45  1  0.09274300  0.93229000  0.53132800  1
  O  O46  1  0.10106400  0.83812800  0.91788200  1
  O  O47  1  0.10112400  0.66724200  0.07647500  1
  O  O48  1  0.17498800  0.10625100  0.34337000  1
  O  O49  1  0.18286300  0.39268900  0.65652700  1
  O  O50  1  0.19495300  0.14255500  0.92985200  1
  O  O51  1  0.19674600  0.35848500  0.06432300  1
  O  O52  1  0.30504700  0.64255500  0.92985200  1
  O  O53  1  0.30325400  0.85848500  0.06432300  1
  O  O54  1  0.32501200  0.60625100  0.34337000  1
  O  O55  1  0.31713700  0.89268900  0.65652700  1
  O  O56  1  0.39893600  0.33812800  0.91788200  1
  O  O57  1  0.39887600  0.16724200  0.07647500  1
  O  O58  1  0.39984800  0.07222200  0.46895700  1
  O  O59  1  0.40725700  0.43229000  0.53132800  1
  O  O60  1  0.41850700  0.24001800  0.68271900  1
  O  O61  1  0.41238800  0.26574700  0.31973500  1
  O  O62  1  0.42410200  0.51705200  0.72576000  1
  O  O63  1  0.41997400  0.98679900  0.27806800  1
  O  O64  1  0.58002600  0.01320100  0.77806800  1
  O  O65  1  0.57589800  0.48294800  0.22576000  1
  O  O66  1  0.58761200  0.73425300  0.81973500  1
  O  O67  1  0.58149300  0.75998200  0.18271900  1
  O  O68  1  0.59274300  0.56771000  0.03132800  1
  O  O69  1  0.60015200  0.92777800  0.96895700  1
  O  O70  1  0.60106400  0.66187200  0.41788200  1
  O  O71  1  0.60112400  0.83275800  0.57647500  1
  O  O72  1  0.68286300  0.10731100  0.15652700  1
  O  O73  1  0.67498800  0.39374900  0.84337000  1
  O  O74  1  0.69674600  0.14151500  0.56432300  1
  O  O75  1  0.69495300  0.35744500  0.42985200  1
