# generated using pymatgen
data_Li5Fe2P2(CO7)2
_symmetry_space_group_name_H-M   'P 1'
_cell_length_a   5.08665924
_cell_length_b   12.94190874
_cell_length_c   8.43009246
_cell_angle_alpha   89.28218911
_cell_angle_beta   83.86158419
_cell_angle_gamma   88.96153672
_symmetry_Int_Tables_number   1
_chemical_formula_structural   Li5Fe2P2(CO7)2
_chemical_formula_sum   'Li10 Fe4 P4 C4 O28'
_cell_volume   551.65826695
_cell_formula_units_Z   2
loop_
 _symmetry_equiv_pos_site_id
 _symmetry_equiv_pos_as_xyz
  1  'x, y, z'
loop_
 _atom_site_type_symbol
 _atom_site_label
 _atom_site_symmetry_multiplicity
 _atom_site_fract_x
 _atom_site_fract_y
 _atom_site_fract_z
 _atom_site_occupancy
  Li  Li0  1  0.79789300  0.12169200  0.10413500  1
  Li  Li1  1  0.79782500  0.62173200  0.10413700  1
  Li  Li2  1  0.25478500  0.22889300  0.27626200  1
  Li  Li3  1  0.25464000  0.72891200  0.27622800  1
  Li  Li4  1  0.74097600  0.24251000  0.74187200  1
  Li  Li5  1  0.74069100  0.74257700  0.74182600  1
  Li  Li6  1  0.73878800  0.49809000  0.73358700  1
  Li  Li7  1  0.73870400  0.99803700  0.73352300  1
  Li  Li8  1  0.22033100  0.37652800  0.89929700  1
  Li  Li9  1  0.22034400  0.87661500  0.89927500  1
  Fe  Fe10  1  0.78996300  0.87995600  0.32853100  1
  Fe  Fe11  1  0.21606200  0.62317200  0.66566000  1
  Fe  Fe12  1  0.78997500  0.38011700  0.32857900  1
  Fe  Fe13  1  0.21627900  0.12309000  0.66559100  1
  P  P14  1  0.72165100  0.13020300  0.41281300  1
  P  P15  1  0.72149900  0.63023600  0.41279200  1
  P  P16  1  0.25476900  0.37231800  0.58275400  1
  P  P17  1  0.25468700  0.87230900  0.58275300  1
  C  C18  1  0.68843000  0.37108800  0.04074300  1
  C  C19  1  0.68852000  0.87109600  0.04070300  1
  C  C20  1  0.33327200  0.12882000  0.96099900  1
  C  C21  1  0.33317900  0.62887100  0.96099100  1
  O  O22  1  0.93307700  0.37951600  0.07190700  1
  O  O23  1  0.93312800  0.87951200  0.07188700  1
  O  O24  1  0.40975000  0.14541700  0.09693700  1
  O  O25  1  0.40968200  0.64540800  0.09693400  1
  O  O26  1  0.51318000  0.36523100  0.16456800  1
  O  O27  1  0.51322800  0.86526300  0.16451200  1
  O  O28  1  0.79197300  0.03184300  0.31004400  1
  O  O29  1  0.79194300  0.53187300  0.31004500  1
  O  O30  1  0.84501700  0.21957900  0.30293000  1
  O  O31  1  0.84502100  0.71960300  0.30290900  1
  O  O32  1  0.12815800  0.36582100  0.42566700  1
  O  O33  1  0.12808500  0.86583800  0.42567100  1
  O  O34  1  0.42030700  0.14804700  0.44145400  1
  O  O35  1  0.42014900  0.64809500  0.44128000  1
  O  O36  1  0.56329300  0.37490900  0.54199600  1
  O  O37  1  0.56324100  0.87488400  0.54202700  1
  O  O38  1  0.83816100  0.12483300  0.57395500  1
  O  O39  1  0.83807800  0.62483800  0.57391800  1
  O  O40  1  0.17572500  0.28163900  0.70006400  1
  O  O41  1  0.17553100  0.78166100  0.70013800  1
  O  O42  1  0.15904800  0.46707000  0.68637300  1
  O  O43  1  0.15899100  0.96703700  0.68640800  1
  O  O44  1  0.51136700  0.11644500  0.83516900  1
  O  O45  1  0.51134500  0.61662000  0.83514000  1
  O  O46  1  0.62336900  0.37017100  0.89665300  1
  O  O47  1  0.62345300  0.87018000  0.89660400  1
  O  O48  1  0.08601200  0.12490900  0.93477200  1
  O  O49  1  0.08595600  0.62490500  0.93476100  1
