# generated using pymatgen
data_Li9Bi5O13
_symmetry_space_group_name_H-M   'P 1'
_cell_length_a   5.28741500
_cell_length_b   13.63360700
_cell_length_c   22.13283831
_cell_angle_alpha   74.40973180
_cell_angle_beta   90.00000000
_cell_angle_gamma   90.00000000
_symmetry_Int_Tables_number   1
_chemical_formula_structural   Li9Bi5O13
_chemical_formula_sum   'Li36 Bi20 O52'
_cell_volume   1536.77917045
_cell_formula_units_Z   4
loop_
 _symmetry_equiv_pos_site_id
 _symmetry_equiv_pos_as_xyz
  1  'x, y, z'
loop_
 _atom_site_type_symbol
 _atom_site_label
 _atom_site_symmetry_multiplicity
 _atom_site_fract_x
 _atom_site_fract_y
 _atom_site_fract_z
 _atom_site_occupancy
  Li  Li0  1  0.22374800  0.80313900  0.60438400  1
  Li  Li1  1  0.32409700  0.72966000  0.72172700  1
  Li  Li2  1  0.32548500  0.58804500  0.85928800  1
  Li  Li3  1  0.83013800  0.48613800  0.82199300  1
  Li  Li4  1  0.31224500  0.66827800  0.54918900  1
  Li  Li5  1  0.81224500  0.33172200  0.95081100  1
  Li  Li6  1  0.16942400  0.11839000  0.30233800  1
  Li  Li7  1  0.67973900  0.26278200  0.07939800  1
  Li  Li8  1  0.33013800  0.51386200  0.67800700  1
  Li  Li9  1  0.66969400  0.12028300  0.20215800  1
  Li  Li10  1  0.32984400  0.20098800  0.00670800  1
  Li  Li11  1  0.82548500  0.41195500  0.64071200  1
  Li  Li12  1  0.82409700  0.27034000  0.77827300  1
  Li  Li13  1  0.82984400  0.79901200  0.49329200  1
  Li  Li14  1  0.72374800  0.19686100  0.89561600  1
  Li  Li15  1  0.16969400  0.87971700  0.29784200  1
  Li  Li16  1  0.17973900  0.73721800  0.42060200  1
  Li  Li17  1  0.66942400  0.88161000  0.19766200  1
  Li  Li18  1  0.33057600  0.11839000  0.80233800  1
  Li  Li19  1  0.82026100  0.26278200  0.57939800  1
  Li  Li20  1  0.83030600  0.12028300  0.70215800  1
  Li  Li21  1  0.27625200  0.80313900  0.10438400  1
  Li  Li22  1  0.17015600  0.20098800  0.50670800  1
  Li  Li23  1  0.17590300  0.72966000  0.22172700  1
  Li  Li24  1  0.17451500  0.58804500  0.35928800  1
  Li  Li25  1  0.67015600  0.79901200  0.99329200  1
  Li  Li26  1  0.33030600  0.87971700  0.79784200  1
  Li  Li27  1  0.66986200  0.48613800  0.32199300  1
  Li  Li28  1  0.32026100  0.73721800  0.92060200  1
  Li  Li29  1  0.83057600  0.88161000  0.69766200  1
  Li  Li30  1  0.18775500  0.66827800  0.04918900  1
  Li  Li31  1  0.68775500  0.33172200  0.45081100  1
  Li  Li32  1  0.16986200  0.51386200  0.17800700  1
  Li  Li33  1  0.67451500  0.41195500  0.14071200  1
  Li  Li34  1  0.67590300  0.27034000  0.27827300  1
  Li  Li35  1  0.77625200  0.19686100  0.39561600  1
  Bi  Bi36  1  0.25631100  0.41452900  0.02574300  1
  Bi  Bi37  1  0.79803300  0.65278200  0.64797900  1
  Bi  Bi38  1  0.19422900  0.26502300  0.17792900  1
  Bi  Bi39  1  0.24548800  0.95907600  0.45917800  1
  Bi  Bi40  1  0.29803300  0.34721800  0.85202100  1
  Bi  Bi41  1  0.74132300  0.97695600  0.35518200  1
  Bi  Bi42  1  0.24132300  0.02304400  0.14481800  1
  Bi  Bi43  1  0.24368900  0.41452900  0.52574300  1
  Bi  Bi44  1  0.74548800  0.04092400  0.04082200  1
  Bi  Bi45  1  0.30577100  0.26502300  0.67792900  1
  Bi  Bi46  1  0.69422900  0.73497700  0.32207100  1
  Bi  Bi47  1  0.25451200  0.95907600  0.95917800  1
  Bi  Bi48  1  0.75631100  0.58547100  0.47425700  1
  Bi  Bi49  1  0.75867700  0.97695600  0.85518200  1
  Bi  Bi50  1  0.25867700  0.02304400  0.64481800  1
  Bi  Bi51  1  0.70196700  0.65278200  0.14797900  1
  Bi  Bi52  1  0.75451200  0.04092400  0.54082200  1
  Bi  Bi53  1  0.80577100  0.73497700  0.82207100  1
  Bi  Bi54  1  0.20196700  0.34721800  0.35202100  1
  Bi  Bi55  1  0.74368900  0.58547100  0.97425700  1
  O  O56  1  0.71332000  0.72467000  0.73032700  1
  O  O57  1  0.70042300  0.58248200  0.86720300  1
  O  O58  1  0.20888400  0.65608100  0.64355700  1
  O  O59  1  0.66145600  0.40564300  0.02283400  1
  O  O60  1  0.69625600  0.67035500  0.54787400  1
  O  O61  1  0.79738800  0.26285900  0.16877700  1
  O  O62  1  0.20065800  0.49723700  0.81582500  1
  O  O63  1  0.29660800  0.24063200  0.08861900  1
  O  O64  1  0.70065800  0.50276300  0.68417500  1
  O  O65  1  0.80865100  0.13647900  0.32402300  1
  O  O66  1  0.83455700  0.96011500  0.46267500  1
  O  O67  1  0.19625600  0.32964500  0.95212600  1
  O  O68  1  0.70888400  0.34391900  0.85644300  1
  O  O69  1  0.29774700  0.10381400  0.22172400  1
  O  O70  1  0.15125100  0.96356700  0.35763300  1
  O  O71  1  0.20042300  0.41751800  0.63279700  1
  O  O72  1  0.21332000  0.27533000  0.76967300  1
  O  O73  1  0.70334600  0.19097500  0.98829000  1
  O  O74  1  0.20334600  0.80902500  0.51171000  1
  O  O75  1  0.65125100  0.03643300  0.14236700  1
  O  O76  1  0.83854400  0.40564300  0.52283400  1
  O  O77  1  0.79774700  0.89618600  0.27827600  1
  O  O78  1  0.70261200  0.26285900  0.66877700  1
  O  O79  1  0.33455700  0.03988500  0.03732500  1
  O  O80  1  0.30865100  0.86352100  0.17597700  1
  O  O81  1  0.79660800  0.75936800  0.41138100  1
  O  O82  1  0.20339200  0.24063200  0.58861900  1
  O  O83  1  0.69134900  0.13647900  0.82402300  1
  O  O84  1  0.66544300  0.96011500  0.96267500  1
  O  O85  1  0.29738800  0.73714100  0.33122300  1
  O  O86  1  0.20225300  0.10381400  0.72172400  1
  O  O87  1  0.16145600  0.59435700  0.47716600  1
  O  O88  1  0.34874900  0.96356700  0.85763300  1
  O  O89  1  0.79665400  0.19097500  0.48829000  1
  O  O90  1  0.29665400  0.80902500  0.01171000  1
  O  O91  1  0.78668000  0.72467000  0.23032700  1
  O  O92  1  0.79957700  0.58248200  0.36720300  1
  O  O93  1  0.84874900  0.03643300  0.64236700  1
  O  O94  1  0.70225300  0.89618600  0.77827600  1
  O  O95  1  0.29111600  0.65608100  0.14355700  1
  O  O96  1  0.80374400  0.67035500  0.04787400  1
  O  O97  1  0.16544300  0.03988500  0.53732500  1
  O  O98  1  0.19134900  0.86352100  0.67597700  1
  O  O99  1  0.29934200  0.49723700  0.31582500  1
  O  O100  1  0.70339200  0.75936800  0.91138100  1
  O  O101  1  0.79934200  0.50276300  0.18417500  1
  O  O102  1  0.20261200  0.73714100  0.83122300  1
  O  O103  1  0.30374400  0.32964500  0.45212600  1
  O  O104  1  0.33854400  0.59435700  0.97716600  1
  O  O105  1  0.79111600  0.34391900  0.35644300  1
  O  O106  1  0.29957700  0.41751800  0.13279700  1
  O  O107  1  0.28668000  0.27533000  0.26967300  1
