# generated using pymatgen
data_Li3Ti2Mn3O10
_symmetry_space_group_name_H-M   'P 1'
_cell_length_a   5.24364021
_cell_length_b   10.16789467
_cell_length_c   8.12289990
_cell_angle_alpha   112.33230361
_cell_angle_beta   97.54214174
_cell_angle_gamma   99.46366535
_symmetry_Int_Tables_number   1
_chemical_formula_structural   Li3Ti2Mn3O10
_chemical_formula_sum   'Li6 Ti4 Mn6 O20'
_cell_volume   386.14097402
_cell_formula_units_Z   2
loop_
 _symmetry_equiv_pos_site_id
 _symmetry_equiv_pos_as_xyz
  1  'x, y, z'
loop_
 _atom_site_type_symbol
 _atom_site_label
 _atom_site_symmetry_multiplicity
 _atom_site_fract_x
 _atom_site_fract_y
 _atom_site_fract_z
 _atom_site_occupancy
  Li  Li0  1  0.50000600  0.25001000  0.50001200  1
  Li  Li1  1  0.49999900  0.75001100  0.50000400  1
  Li  Li2  1  0.23159500  0.45429300  0.39994600  1
  Li  Li3  1  0.23156400  0.95428900  0.39987900  1
  Li  Li4  1  0.76842500  0.04575300  0.60011400  1
  Li  Li5  1  0.76843100  0.54574000  0.60007000  1
  Ti  Ti6  1  0.12036600  0.35626700  0.68281400  1
  Ti  Ti7  1  0.12038600  0.85631300  0.68283300  1
  Ti  Ti8  1  0.87962300  0.14371500  0.31714400  1
  Ti  Ti9  1  0.87957700  0.64374100  0.31718000  1
  Mn  Mn10  1  0.00023000  0.74991500  0.00001600  1
  Mn  Mn11  1  0.68769400  0.94269900  0.89508100  1
  Mn  Mn12  1  0.31228100  0.55723300  0.10492200  1
  Mn  Mn13  1  0.99990500  0.24999700  0.00003600  1
  Mn  Mn14  1  0.68762600  0.44276500  0.89505700  1
  Mn  Mn15  1  0.31242200  0.05724500  0.10494800  1
  O  O16  1  0.00467500  0.04167900  0.84685000  1
  O  O17  1  0.00473900  0.54166700  0.84683800  1
  O  O18  1  0.99523600  0.45832200  0.15316000  1
  O  O19  1  0.99532600  0.95829600  0.15311400  1
  O  O20  1  0.34014100  0.36661700  0.92799200  1
  O  O21  1  0.34019400  0.86658700  0.92796400  1
  O  O22  1  0.65980600  0.13338700  0.07199000  1
  O  O23  1  0.65980000  0.63339700  0.07201200  1
  O  O24  1  0.11966500  0.15696400  0.52473100  1
  O  O25  1  0.11972400  0.65699400  0.52472800  1
  O  O26  1  0.88025200  0.34302600  0.47526800  1
  O  O27  1  0.88029000  0.84305200  0.47524900  1
  O  O28  1  0.18870900  0.23541500  0.21448000  1
  O  O29  1  0.18883600  0.73543100  0.21451300  1
  O  O30  1  0.81119900  0.26458500  0.78554600  1
  O  O31  1  0.81134500  0.76455200  0.78555300  1
  O  O32  1  0.43233700  0.43640000  0.64735800  1
  O  O33  1  0.43236700  0.93640400  0.64738000  1
  O  O34  1  0.56759000  0.06361600  0.35258500  1
  O  O35  1  0.56763600  0.56362000  0.35263300  1
