# generated using pymatgen
data_Li7Cr7(P4O17)2
_symmetry_space_group_name_H-M   'P 1'
_cell_length_a   20.23719400
_cell_length_b   7.97331200
_cell_length_c   9.93075351
_cell_angle_alpha   67.90100518
_cell_angle_beta   90.00000000
_cell_angle_gamma   90.00000000
_symmetry_Int_Tables_number   1
_chemical_formula_structural   Li7Cr7(P4O17)2
_chemical_formula_sum   'Li14 Cr14 P16 O68'
_cell_volume   1484.68114770
_cell_formula_units_Z   2
loop_
 _symmetry_equiv_pos_site_id
 _symmetry_equiv_pos_as_xyz
  1  'x, y, z'
loop_
 _atom_site_type_symbol
 _atom_site_label
 _atom_site_symmetry_multiplicity
 _atom_site_fract_x
 _atom_site_fract_y
 _atom_site_fract_z
 _atom_site_occupancy
  Li  Li0  1  0.00000000  0.00000000  0.50000000  1
  Li  Li1  1  0.35579000  0.77676100  0.82623600  1
  Li  Li2  1  0.50000000  0.00000000  0.00000000  1
  Li  Li3  1  0.14421000  0.77676100  0.32623600  1
  Li  Li4  1  0.94894000  0.54988400  0.82173700  1
  Li  Li5  1  0.23936300  0.64523900  0.69960800  1
  Li  Li6  1  0.73936300  0.35476100  0.80039200  1
  Li  Li7  1  0.55106000  0.54988400  0.32173700  1
  Li  Li8  1  0.44894000  0.45011600  0.67826300  1
  Li  Li9  1  0.26063700  0.64523900  0.19960800  1
  Li  Li10  1  0.76063700  0.35476100  0.30039200  1
  Li  Li11  1  0.05106000  0.45011600  0.17826300  1
  Li  Li12  1  0.85579000  0.22323900  0.67376400  1
  Li  Li13  1  0.64421000  0.22323900  0.17376400  1
  Cr  Cr14  1  0.66116100  0.98242300  0.95143600  1
  Cr  Cr15  1  0.07997700  0.89892700  0.89139400  1
  Cr  Cr16  1  0.83883900  0.98242300  0.45143600  1
  Cr  Cr17  1  0.42002300  0.89892700  0.39139400  1
  Cr  Cr18  1  0.63856000  0.71814200  0.80127100  1
  Cr  Cr19  1  0.86144000  0.71814200  0.30127100  1
  Cr  Cr20  1  0.00000000  0.50000000  0.50000000  1
  Cr  Cr21  1  0.13856000  0.28185800  0.69872900  1
  Cr  Cr22  1  0.50000000  0.50000000  0.00000000  1
  Cr  Cr23  1  0.36144000  0.28185800  0.19872900  1
  Cr  Cr24  1  0.57997700  0.10107300  0.60860600  1
  Cr  Cr25  1  0.16116100  0.01757700  0.54856400  1
  Cr  Cr26  1  0.92002300  0.10107300  0.10860600  1
  Cr  Cr27  1  0.33883900  0.01757700  0.04856400  1
  P  P28  1  0.72510900  0.04492900  0.65061800  1
  P  P29  1  0.49321800  0.81971700  0.68581000  1
  P  P30  1  0.77489100  0.04492900  0.15061800  1
  P  P31  1  0.08493200  0.65507100  0.69923100  1
  P  P32  1  0.85288000  0.61632300  0.59773900  1
  P  P33  1  0.00678200  0.81971700  0.18581000  1
  P  P34  1  0.41506800  0.65507100  0.19923100  1
  P  P35  1  0.35288000  0.38367700  0.90226100  1
  P  P36  1  0.64712000  0.61632300  0.09773900  1
  P  P37  1  0.58493200  0.34492900  0.80076900  1
  P  P38  1  0.99321800  0.18028300  0.81419000  1
  P  P39  1  0.14712000  0.38367700  0.40226100  1
  P  P40  1  0.91506800  0.34492900  0.30076900  1
  P  P41  1  0.22510900  0.95507100  0.84938200  1
  P  P42  1  0.50678200  0.18028300  0.31419000  1
  P  P43  1  0.27489100  0.95507100  0.34938200  1
  O  O44  1  0.29514700  0.90198300  0.91688900  1
  O  O45  1  0.17258500  0.84684500  0.96086000  1
  O  O46  1  0.60576800  0.93982700  0.81130200  1
  O  O47  1  0.22418600  0.89657700  0.71294500  1
  O  O48  1  0.48509000  0.02658100  0.64249900  1
  O  O49  1  0.20485300  0.90198300  0.41688900  1
  O  O50  1  0.32741500  0.84684500  0.46086000  1
  O  O51  1  0.69788300  0.72694000  0.97618900  1
  O  O52  1  0.89423200  0.93982700  0.31130200  1
  O  O53  1  0.88380800  0.75142300  0.65679600  1
  O  O54  1  0.27581400  0.89657700  0.21294500  1
  O  O55  1  0.01491000  0.02658100  0.14249900  1
  O  O56  1  0.71547700  0.84028000  0.68664500  1
  O  O57  1  0.09099300  0.83697400  0.56460900  1
  O  O58  1  0.07266800  0.68028300  0.84391200  1
  O  O59  1  0.47452800  0.73555900  0.84890200  1
  O  O60  1  0.56749100  0.79376400  0.64667600  1
  O  O61  1  0.44667700  0.74012100  0.60082000  1
  O  O62  1  0.59447700  0.56880400  0.99789500  1
  O  O63  1  0.80211700  0.72694000  0.47618900  1
  O  O64  1  0.01999700  0.56882700  0.67131900  1
  O  O65  1  0.61619200  0.75142300  0.15679600  1
  O  O66  1  0.78452300  0.84028000  0.18664500  1
  O  O67  1  0.40900700  0.83697400  0.06460900  1
  O  O68  1  0.42733200  0.68028300  0.34391300  1
  O  O69  1  0.02547200  0.73555900  0.34890200  1
  O  O70  1  0.93250900  0.79376400  0.14667600  1
  O  O71  1  0.05332300  0.74012100  0.10082000  1
  O  O72  1  0.90552300  0.56880400  0.49789500  1
  O  O73  1  0.32427600  0.55753300  0.79333700  1
  O  O74  1  0.64810100  0.46127600  0.79040200  1
  O  O75  1  0.14810100  0.53872400  0.70959800  1
  O  O76  1  0.82427600  0.44246700  0.70666300  1
  O  O77  1  0.51999700  0.43117300  0.82868100  1
  O  O78  1  0.48000300  0.56882700  0.17132000  1
  O  O79  1  0.17572400  0.55753300  0.29333700  1
  O  O80  1  0.85189900  0.46127600  0.29040200  1
  O  O81  1  0.35189900  0.53872400  0.20959800  1
  O  O82  1  0.67572400  0.44246700  0.20666300  1
  O  O83  1  0.09447700  0.43119600  0.50210500  1
  O  O84  1  0.94667700  0.25987900  0.89918000  1
  O  O85  1  0.06749100  0.20623600  0.85332400  1
  O  O86  1  0.97452800  0.26444100  0.65109800  1
  O  O87  1  0.57266800  0.31971700  0.65608800  1
  O  O88  1  0.59099300  0.16302600  0.93539100  1
  O  O89  1  0.21547700  0.15972000  0.81335500  1
  O  O90  1  0.38380800  0.24857700  0.84320400  1
  O  O91  1  0.98000300  0.43117300  0.32868100  1
  O  O92  1  0.19788300  0.27306000  0.52381100  1
  O  O93  1  0.40552300  0.43119600  0.00210500  1
  O  O94  1  0.55332300  0.25987900  0.39918000  1
  O  O95  1  0.43250900  0.20623600  0.35332400  1
  O  O96  1  0.52547200  0.26444100  0.15109800  1
  O  O97  1  0.92733200  0.31971700  0.15608800  1
  O  O98  1  0.90900700  0.16302600  0.43539100  1
  O  O99  1  0.28452300  0.15972000  0.31335500  1
  O  O100  1  0.98509000  0.97341900  0.85750100  1
  O  O101  1  0.72418600  0.10342300  0.78705500  1
  O  O102  1  0.11619200  0.24857700  0.34320400  1
  O  O103  1  0.10576800  0.06017300  0.68869800  1
  O  O104  1  0.30211700  0.27306000  0.02381100  1
  O  O105  1  0.67258500  0.15315500  0.53914000  1
  O  O106  1  0.79514700  0.09801700  0.58311100  1
  O  O107  1  0.51491000  0.97341900  0.35750100  1
  O  O108  1  0.77581400  0.10342300  0.28705500  1
  O  O109  1  0.39423200  0.06017300  0.18869800  1
  O  O110  1  0.82741500  0.15315500  0.03914000  1
  O  O111  1  0.70485300  0.09801700  0.08311100  1
