# generated using pymatgen
data_LiVSiO4
_symmetry_space_group_name_H-M   'P 1'
_cell_length_a   5.23482700
_cell_length_b   8.65662177
_cell_length_c   8.58864959
_cell_angle_alpha   107.97910056
_cell_angle_beta   90.00015683
_cell_angle_gamma   89.99989249
_symmetry_Int_Tables_number   1
_chemical_formula_structural   LiVSiO4
_chemical_formula_sum   'Li4 V4 Si4 O16'
_cell_volume   370.19745267
_cell_formula_units_Z   4
loop_
 _symmetry_equiv_pos_site_id
 _symmetry_equiv_pos_as_xyz
  1  'x, y, z'
loop_
 _atom_site_type_symbol
 _atom_site_label
 _atom_site_symmetry_multiplicity
 _atom_site_fract_x
 _atom_site_fract_y
 _atom_site_fract_z
 _atom_site_occupancy
  Li  Li0  1  0.82841600  0.98105700  0.10047500  1
  Li  Li1  1  0.17159100  0.98105500  0.60047100  1
  Li  Li2  1  0.31990500  0.49794500  0.25767800  1
  Li  Li3  1  0.68009700  0.49794300  0.75767600  1
  V  V4  1  0.82401000  0.74168300  0.34040800  1
  V  V5  1  0.17598700  0.74168400  0.84040900  1
  V  V6  1  0.67479800  0.25224800  0.99702000  1
  V  V7  1  0.32518800  0.25226100  0.49704200  1
  Si  Si8  1  0.31823300  0.86575200  0.22670300  1
  Si  Si9  1  0.68177100  0.86574100  0.72669600  1
  Si  Si10  1  0.81588700  0.36894700  0.36565900  1
  Si  Si11  1  0.18410700  0.36894800  0.86566700  1
  O  O12  1  0.18128600  0.88530400  0.06147600  1
  O  O13  1  0.81872100  0.88530000  0.56147500  1
  O  O14  1  0.33586700  0.34527200  0.02469100  1
  O  O15  1  0.66412700  0.34526900  0.52468300  1
  O  O16  1  0.62714700  0.83301300  0.19866900  1
  O  O17  1  0.37285700  0.83300500  0.69866500  1
  O  O18  1  0.17990100  0.71215400  0.27108900  1
  O  O19  1  0.82010200  0.71214100  0.77108000  1
  O  O20  1  0.75611800  0.21286300  0.20311700  1
  O  O21  1  0.24388600  0.21285800  0.70313300  1
  O  O22  1  0.69938600  0.52638000  0.31858600  1
  O  O23  1  0.30060500  0.52637600  0.81858100  1
  O  O24  1  0.12376900  0.39018100  0.40417000  1
  O  O25  1  0.87622300  0.39017900  0.90416700  1
  O  O26  1  0.26154600  0.02602500  0.38405800  1
  O  O27  1  0.73846900  0.02601200  0.88405300  1
