# generated using pymatgen
data_Li7Mn8(BO3)8
_symmetry_space_group_name_H-M   'P 1'
_cell_length_a   5.27275700
_cell_length_b   9.07944331
_cell_length_c   10.45344493
_cell_angle_alpha   88.65106482
_cell_angle_beta   88.63554630
_cell_angle_gamma   89.55787604
_symmetry_Int_Tables_number   1
_chemical_formula_structural   Li7Mn8(BO3)8
_chemical_formula_sum   'Li7 Mn8 B8 O24'
_cell_volume   500.15169971
_cell_formula_units_Z   1
loop_
 _symmetry_equiv_pos_site_id
 _symmetry_equiv_pos_as_xyz
  1  'x, y, z'
loop_
 _atom_site_type_symbol
 _atom_site_label
 _atom_site_symmetry_multiplicity
 _atom_site_fract_x
 _atom_site_fract_y
 _atom_site_fract_z
 _atom_site_occupancy
  Li  Li0  1  0.92380500  0.91612800  0.09477700  1
  Li  Li1  1  0.60887200  0.57701200  0.82604700  1
  Li  Li2  1  0.55370500  0.58920800  0.33884600  1
  Li  Li3  1  0.43110000  0.41957900  0.08335400  1
  Li  Li4  1  0.40785900  0.42862100  0.58651300  1
  Li  Li5  1  0.10770700  0.07226000  0.83571300  1
  Li  Li6  1  0.04979300  0.08505400  0.33226200  1
  Mn  Mn7  1  0.91913900  0.23050200  0.61614000  1
  Mn  Mn8  1  0.92052100  0.58516300  0.12004100  1
  Mn  Mn9  1  0.60599800  0.91756500  0.86609100  1
  Mn  Mn10  1  0.56562600  0.25248600  0.36822900  1
  Mn  Mn11  1  0.40103500  0.77425400  0.62006800  1
  Mn  Mn12  1  0.41444200  0.08563800  0.11774500  1
  Mn  Mn13  1  0.09355500  0.40404300  0.86731700  1
  Mn  Mn14  1  0.05624900  0.75064800  0.37758800  1
  B  B15  1  0.92426100  0.57210300  0.62514000  1
  B  B16  1  0.91224000  0.25185600  0.12493800  1
  B  B17  1  0.59384900  0.24867300  0.87683900  1
  B  B18  1  0.56354500  0.92410800  0.37366900  1
  B  B19  1  0.42790700  0.08177000  0.62724700  1
  B  B20  1  0.41214200  0.75100600  0.12677400  1
  B  B21  1  0.09591700  0.75058200  0.87078000  1
  B  B22  1  0.06838400  0.41827300  0.37705800  1
  O  O23  1  0.99120200  0.88541200  0.89704700  1
  O  O24  1  0.96446000  0.62215700  0.90339500  1
  O  O25  1  0.95616900  0.28142400  0.40484900  1
  O  O26  1  0.91809600  0.53700500  0.33647800  1
  O  O27  1  0.84450000  0.22673000  0.83776800  1
  O  O28  1  0.81945100  0.92687800  0.36017400  1
  O  O29  1  0.66343900  0.58226100  0.63553400  1
  O  O30  1  0.65318700  0.26880100  0.15641500  1
  O  O31  1  0.58650600  0.95850300  0.65477000  1
  O  O32  1  0.53639900  0.21277700  0.58105600  1
  O  O33  1  0.54737300  0.87174700  0.07753300  1
  O  O34  1  0.53017700  0.61553900  0.14292500  1
  O  O35  1  0.48970700  0.38863000  0.88854300  1
  O  O36  1  0.44330600  0.12550600  0.90738100  1
  O  O37  1  0.44175200  0.79537100  0.42569200  1
  O  O38  1  0.41261400  0.04219300  0.33376000  1
  O  O39  1  0.34499100  0.74182100  0.81471500  1
  O  O40  1  0.32690600  0.43481900  0.39222400  1
  O  O41  1  0.17490500  0.06757600  0.64934400  1
  O  O42  1  0.15637100  0.76560200  0.16354900  1
  O  O43  1  0.06809200  0.69144100  0.57886000  1
  O  O44  1  0.05764400  0.44405000  0.66005900  1
  O  O45  1  0.05572800  0.37326900  0.08265600  1
  O  O46  1  0.02446700  0.11520700  0.13806800  1
