# generated using pymatgen
data_LiFeSiO4
_symmetry_space_group_name_H-M   'P 1'
_cell_length_a   5.10122800
_cell_length_b   6.38102800
_cell_length_c   10.84451000
_cell_angle_alpha   90.00000000
_cell_angle_beta   90.00000000
_cell_angle_gamma   90.00000000
_symmetry_Int_Tables_number   1
_chemical_formula_structural   LiFeSiO4
_chemical_formula_sum   'Li4 Fe4 Si4 O16'
_cell_volume   353.00049850
_cell_formula_units_Z   4
loop_
 _symmetry_equiv_pos_site_id
 _symmetry_equiv_pos_as_xyz
  1  'x, y, z'
loop_
 _atom_site_type_symbol
 _atom_site_label
 _atom_site_symmetry_multiplicity
 _atom_site_fract_x
 _atom_site_fract_y
 _atom_site_fract_z
 _atom_site_occupancy
  Li  Li0  1  0.17345100  0.71021600  0.17141000  1
  Li  Li1  1  0.32654900  0.71021600  0.67141000  1
  Li  Li2  1  0.67345100  0.21021600  0.32859000  1
  Li  Li3  1  0.82654900  0.21021600  0.82859000  1
  Fe  Fe4  1  0.17579000  0.96147100  0.41537400  1
  Fe  Fe5  1  0.32421000  0.96147100  0.91537400  1
  Fe  Fe6  1  0.67579000  0.46147100  0.08462600  1
  Fe  Fe7  1  0.82421000  0.46147100  0.58462600  1
  Si  Si8  1  0.17160700  0.20776900  0.16488100  1
  Si  Si9  1  0.32839300  0.20776900  0.66488100  1
  Si  Si10  1  0.67160700  0.70776900  0.33511900  1
  Si  Si11  1  0.82839300  0.70776900  0.83511900  1
  O  O12  1  0.14876700  0.73730700  0.83614600  1
  O  O13  1  0.21964700  0.17956800  0.80732800  1
  O  O14  1  0.19054500  0.42243000  0.60910500  1
  O  O15  1  0.24365700  0.99565000  0.08402700  1
  O  O16  1  0.25634300  0.99565000  0.58402700  1
  O  O17  1  0.30945500  0.42243000  0.10910500  1
  O  O18  1  0.28035300  0.17956800  0.30732800  1
  O  O19  1  0.35123300  0.73730700  0.33614600  1
  O  O20  1  0.64876700  0.23730700  0.66385400  1
  O  O21  1  0.71964700  0.67956800  0.69267200  1
  O  O22  1  0.69054500  0.92243000  0.89089500  1
  O  O23  1  0.74365700  0.49565000  0.41597300  1
  O  O24  1  0.75634300  0.49565000  0.91597300  1
  O  O25  1  0.80945500  0.92243000  0.39089500  1
  O  O26  1  0.78035300  0.67956800  0.19267200  1
  O  O27  1  0.85123300  0.23730700  0.16385400  1
