# generated using pymatgen
data_Li3Sb2(PO4)3
_symmetry_space_group_name_H-M   'P 1'
_cell_length_a   9.20421500
_cell_length_b   9.16816100
_cell_length_c   15.91959620
_cell_angle_alpha   54.91824263
_cell_angle_beta   90.00000000
_cell_angle_gamma   90.00000000
_symmetry_Int_Tables_number   1
_chemical_formula_structural   Li3Sb2(PO4)3
_chemical_formula_sum   'Li12 Sb8 P12 O48'
_cell_volume   1099.33731083
_cell_formula_units_Z   4
loop_
 _symmetry_equiv_pos_site_id
 _symmetry_equiv_pos_as_xyz
  1  'x, y, z'
loop_
 _atom_site_type_symbol
 _atom_site_label
 _atom_site_symmetry_multiplicity
 _atom_site_fract_x
 _atom_site_fract_y
 _atom_site_fract_z
 _atom_site_occupancy
  Li  Li0  1  0.10539300  0.21527300  0.70094500  1
  Li  Li1  1  0.72264700  0.17483300  0.74354800  1
  Li  Li2  1  0.76825900  0.61006100  0.18410200  1
  Li  Li3  1  0.26825900  0.38993900  0.31589800  1
  Li  Li4  1  0.22264700  0.82516700  0.75645200  1
  Li  Li5  1  0.60539300  0.78472700  0.79905500  1
  Li  Li6  1  0.39460700  0.21527300  0.20094500  1
  Li  Li7  1  0.77735300  0.17483300  0.24354800  1
  Li  Li8  1  0.73174100  0.61006100  0.68410200  1
  Li  Li9  1  0.23174100  0.38993900  0.81589800  1
  Li  Li10  1  0.27735300  0.82516700  0.25645200  1
  Li  Li11  1  0.89460700  0.78472700  0.29905500  1
  Sb  Sb12  1  0.45367000  0.66234200  0.09862100  1
  Sb  Sb13  1  0.04057500  0.84444700  0.90519600  1
  Sb  Sb14  1  0.54057500  0.15555300  0.59480400  1
  Sb  Sb15  1  0.95367000  0.33765800  0.40137900  1
  Sb  Sb16  1  0.04633000  0.66234200  0.59862100  1
  Sb  Sb17  1  0.45942500  0.84444700  0.40519600  1
  Sb  Sb18  1  0.95942500  0.15555300  0.09480400  1
  Sb  Sb19  1  0.54633000  0.33765800  0.90137900  1
  P  P20  1  0.39942400  0.06338300  0.83654100  1
  P  P21  1  0.08792900  0.74003400  0.16522900  1
  P  P22  1  0.58792900  0.25996600  0.33477100  1
  P  P23  1  0.89942400  0.93661700  0.66345900  1
  P  P24  1  0.10057600  0.06338300  0.33654100  1
  P  P25  1  0.41207100  0.74003400  0.66522900  1
  P  P26  1  0.91207100  0.25996600  0.83477100  1
  P  P27  1  0.60057600  0.93661700  0.16345900  1
  P  P28  1  0.23957500  0.45505500  0.49126300  1
  P  P29  1  0.73957500  0.54494500  0.00873700  1
  P  P30  1  0.26042500  0.45505500  0.99126300  1
  P  P31  1  0.76042500  0.54494500  0.50873700  1
  O  O32  1  0.86856600  0.56061200  0.43002100  1
  O  O33  1  0.71354500  0.35124600  0.59059800  1
  O  O34  1  0.90304100  0.09513200  0.82794200  1
  O  O35  1  0.59838900  0.76060300  0.16755100  1
  O  O36  1  0.37401200  0.33763200  0.55130900  1
  O  O37  1  0.25359400  0.05562900  0.79189200  1
  O  O38  1  0.17031500  0.37813300  0.43367200  1
  O  O39  1  0.41391300  0.90228600  0.95071500  1
  O  O40  1  0.05945700  0.80025800  0.05449300  1
  O  O41  1  0.23507700  0.64382600  0.20849500  1
  O  O42  1  0.95812900  0.62379700  0.23513000  1
  O  O43  1  0.53001900  0.06204500  0.77466200  1
  O  O44  1  0.03001900  0.93795500  0.72533800  1
  O  O45  1  0.45812900  0.37620300  0.26487000  1
  O  O46  1  0.73507700  0.35617400  0.29150500  1
  O  O47  1  0.55945700  0.19974200  0.44550700  1
  O  O48  1  0.91391300  0.09771400  0.54928500  1
  O  O49  1  0.67031500  0.62186700  0.06632800  1
  O  O50  1  0.75359400  0.94437100  0.70810800  1
  O  O51  1  0.87401200  0.66236800  0.94869100  1
  O  O52  1  0.09838900  0.23939700  0.33244900  1
  O  O53  1  0.40304100  0.90486800  0.67205800  1
  O  O54  1  0.21354500  0.64875400  0.90940200  1
  O  O55  1  0.36856600  0.43938800  0.06997900  1
  O  O56  1  0.63143400  0.56061200  0.93002100  1
  O  O57  1  0.78645500  0.35124600  0.09059800  1
  O  O58  1  0.59695900  0.09513200  0.32794200  1
  O  O59  1  0.90161100  0.76060300  0.66755100  1
  O  O60  1  0.12598800  0.33763200  0.05130900  1
  O  O61  1  0.24640600  0.05562900  0.29189200  1
  O  O62  1  0.32968500  0.37813300  0.93367200  1
  O  O63  1  0.08608700  0.90228600  0.45071500  1
  O  O64  1  0.44054300  0.80025800  0.55449300  1
  O  O65  1  0.26492300  0.64382600  0.70849500  1
  O  O66  1  0.54187100  0.62379700  0.73513000  1
  O  O67  1  0.96998100  0.06204500  0.27466200  1
  O  O68  1  0.46998100  0.93795500  0.22533800  1
  O  O69  1  0.04187100  0.37620300  0.76487000  1
  O  O70  1  0.76492300  0.35617400  0.79150500  1
  O  O71  1  0.94054300  0.19974200  0.94550700  1
  O  O72  1  0.58608700  0.09771400  0.04928500  1
  O  O73  1  0.82968500  0.62186700  0.56632800  1
  O  O74  1  0.74640600  0.94437100  0.20810800  1
  O  O75  1  0.62598800  0.66236800  0.44869100  1
  O  O76  1  0.40161100  0.23939700  0.83244900  1
  O  O77  1  0.09695900  0.90486800  0.17205800  1
  O  O78  1  0.28645500  0.64875400  0.40940200  1
  O  O79  1  0.13143400  0.43938800  0.56997900  1
