# generated using pymatgen
data_Li10Co4O9
_symmetry_space_group_name_H-M   'P 1'
_cell_length_a   7.57874200
_cell_length_b   7.75333409
_cell_length_c   9.81032695
_cell_angle_alpha   91.41943208
_cell_angle_beta   103.93655553
_cell_angle_gamma   119.01709451
_symmetry_Int_Tables_number   1
_chemical_formula_structural   Li10Co4O9
_chemical_formula_sum   'Li20 Co8 O18'
_cell_volume   482.40345894
_cell_formula_units_Z   2
loop_
 _symmetry_equiv_pos_site_id
 _symmetry_equiv_pos_as_xyz
  1  'x, y, z'
loop_
 _atom_site_type_symbol
 _atom_site_label
 _atom_site_symmetry_multiplicity
 _atom_site_fract_x
 _atom_site_fract_y
 _atom_site_fract_z
 _atom_site_occupancy
  Li  Li0  1  0.65113900  0.08084400  0.12737000  1
  Li  Li1  1  0.13043000  0.28841900  0.14224600  1
  Li  Li2  1  0.49460700  0.39059200  0.09866600  1
  Li  Li3  1  0.39907500  0.66416100  0.15038900  1
  Li  Li4  1  0.95921200  0.13264700  0.34362100  1
  Li  Li5  1  0.80701400  0.84589400  0.12895500  1
  Li  Li6  1  0.84958000  0.37908900  0.39371200  1
  Li  Li7  1  0.23877200  0.53164600  0.37189700  1
  Li  Li8  1  0.48893400  0.07367000  0.62300900  1
  Li  Li9  1  0.86377500  0.18505500  0.61559600  1
  Li  Li10  1  0.13622500  0.81494500  0.38440400  1
  Li  Li11  1  0.51106600  0.92633000  0.37699100  1
  Li  Li12  1  0.76122800  0.46835400  0.62810300  1
  Li  Li13  1  0.15042000  0.62091100  0.60628800  1
  Li  Li14  1  0.19298600  0.15410600  0.87104500  1
  Li  Li15  1  0.04078800  0.86735300  0.65637900  1
  Li  Li16  1  0.60092500  0.33583900  0.84961100  1
  Li  Li17  1  0.50539300  0.60940800  0.90133400  1
  Li  Li18  1  0.86957000  0.71158100  0.85775400  1
  Li  Li19  1  0.34886100  0.91915600  0.87263000  1
  Co  Co20  1  0.92966900  0.52837400  0.13177900  1
  Co  Co21  1  0.41006400  0.24496600  0.36591600  1
  Co  Co22  1  0.24212400  0.96088200  0.14148500  1
  Co  Co23  1  0.71210100  0.69300600  0.37048200  1
  Co  Co24  1  0.28789900  0.30699400  0.62951800  1
  Co  Co25  1  0.75787600  0.03911800  0.85851500  1
  Co  Co26  1  0.58993600  0.75503400  0.63408400  1
  Co  Co27  1  0.07033100  0.47162600  0.86822100  1
  O  O28  1  0.38996800  0.10857200  0.02808800  1
  O  O29  1  0.11983900  0.04537000  0.25820200  1
  O  O30  1  0.73636500  0.57728600  0.01832300  1
  O  O31  1  0.92714700  0.32177500  0.22120100  1
  O  O32  1  0.42258200  0.46703800  0.28364100  1
  O  O33  1  0.22335700  0.73776200  0.22558800  1
  O  O34  1  0.61569200  0.20667600  0.47211300  1
  O  O35  1  0.68436600  0.88699900  0.27894400  1
  O  O36  1  0.07898100  0.34105800  0.52141000  1
  O  O37  1  0.92101900  0.65894200  0.47859000  1
  O  O38  1  0.31563400  0.11300100  0.72105600  1
  O  O39  1  0.38430800  0.79332400  0.52788700  1
  O  O40  1  0.77664300  0.26223800  0.77441200  1
  O  O41  1  0.57741800  0.53296200  0.71635900  1
  O  O42  1  0.07285300  0.67822500  0.77879900  1
  O  O43  1  0.26363500  0.42271400  0.98167700  1
  O  O44  1  0.88016100  0.95463000  0.74179800  1
  O  O45  1  0.61003200  0.89142800  0.97191200  1
