# generated using pymatgen
data_LiBi6B3O14
_symmetry_space_group_name_H-M   'P 1'
_cell_length_a   16.15482200
_cell_length_b   8.74147000
_cell_length_c   12.65232335
_cell_angle_alpha   47.56421873
_cell_angle_beta   90.00000000
_cell_angle_gamma   90.00000000
_symmetry_Int_Tables_number   1
_chemical_formula_structural   LiBi6B3O14
_chemical_formula_sum   'Li4 Bi24 B12 O56'
_cell_volume   1318.66158887
_cell_formula_units_Z   4
loop_
 _symmetry_equiv_pos_site_id
 _symmetry_equiv_pos_as_xyz
  1  'x, y, z'
loop_
 _atom_site_type_symbol
 _atom_site_label
 _atom_site_symmetry_multiplicity
 _atom_site_fract_x
 _atom_site_fract_y
 _atom_site_fract_z
 _atom_site_occupancy
  Li  Li0  1  0.89151700  0.88305900  0.43846100  1
  Li  Li1  1  0.39151700  0.11694100  0.06153900  1
  Li  Li2  1  0.60848300  0.88305900  0.93846100  1
  Li  Li3  1  0.10848300  0.11694100  0.56153900  1
  Bi  Bi4  1  0.51186700  0.65529200  0.78742300  1
  Bi  Bi5  1  0.67275000  0.01262200  0.44144400  1
  Bi  Bi6  1  0.16520300  0.59301200  0.83312700  1
  Bi  Bi7  1  0.82160500  0.55504700  0.80163600  1
  Bi  Bi8  1  0.99698300  0.23324200  0.06918100  1
  Bi  Bi9  1  0.14392300  0.84665400  0.43204600  1
  Bi  Bi10  1  0.64392300  0.15334600  0.06795400  1
  Bi  Bi11  1  0.49698300  0.76675800  0.43081900  1
  Bi  Bi12  1  0.32160500  0.44495300  0.69836400  1
  Bi  Bi13  1  0.66520300  0.40698800  0.66687300  1
  Bi  Bi14  1  0.01186700  0.34470800  0.71257700  1
  Bi  Bi15  1  0.17275000  0.98737800  0.05855600  1
  Bi  Bi16  1  0.82725000  0.01262200  0.94144400  1
  Bi  Bi17  1  0.98813300  0.65529200  0.28742300  1
  Bi  Bi18  1  0.33479700  0.59301200  0.33312700  1
  Bi  Bi19  1  0.67839500  0.55504700  0.30163600  1
  Bi  Bi20  1  0.50301700  0.23324200  0.56918100  1
  Bi  Bi21  1  0.35607700  0.84665400  0.93204600  1
  Bi  Bi22  1  0.85607700  0.15334600  0.56795400  1
  Bi  Bi23  1  0.00301700  0.76675800  0.93081900  1
  Bi  Bi24  1  0.17839500  0.44495300  0.19836400  1
  Bi  Bi25  1  0.83479700  0.40698800  0.16687300  1
  Bi  Bi26  1  0.32725000  0.98737800  0.55855600  1
  Bi  Bi27  1  0.48813300  0.34470800  0.21257700  1
  B  B28  1  0.99729800  0.79359100  0.64281400  1
  B  B29  1  0.33003800  0.46320100  0.96795000  1
  B  B30  1  0.30868200  0.03440900  0.27684800  1
  B  B31  1  0.80868200  0.96559100  0.22315200  1
  B  B32  1  0.83003800  0.53679900  0.53205000  1
  B  B33  1  0.49729800  0.20640900  0.85718600  1
  B  B34  1  0.50270200  0.79359100  0.14281400  1
  B  B35  1  0.16996200  0.46320100  0.46795000  1
  B  B36  1  0.19131800  0.03440900  0.77684800  1
  B  B37  1  0.69131800  0.96559100  0.72315200  1
  B  B38  1  0.66996200  0.53679900  0.03205000  1
  B  B39  1  0.00270200  0.20640900  0.35718600  1
  O  O40  1  0.91090100  0.54144600  0.95145600  1
  O  O41  1  0.91450200  0.85479000  0.61197000  1
  O  O42  1  0.41365900  0.47301500  0.98541700  1
  O  O43  1  0.72610100  0.44046400  0.00841000  1
  O  O44  1  0.95280600  0.17262700  0.28601500  1
  O  O45  1  0.24814300  0.09292200  0.32371300  1
  O  O46  1  0.22812400  0.72116100  0.62336500  1
  O  O47  1  0.40747600  0.70887400  0.63352200  1
  O  O48  1  0.39100000  0.05431100  0.29500900  1
  O  O49  1  0.58136200  0.06145000  0.28518700  1
  O  O50  1  0.59158700  0.69772900  0.60514800  1
  O  O51  1  0.78464300  0.05132200  0.27955000  1
  O  O52  1  0.02976800  0.69689900  0.59825900  1
  O  O53  1  0.29818100  0.36879800  0.92201600  1
  O  O54  1  0.79818100  0.63120200  0.57798400  1
  O  O55  1  0.52976800  0.30310100  0.90174100  1
  O  O56  1  0.09158700  0.30227100  0.89485200  1
  O  O57  1  0.90747600  0.29112600  0.86647800  1
  O  O58  1  0.28464300  0.94867800  0.22045000  1
  O  O59  1  0.72812400  0.27883900  0.87663500  1
  O  O60  1  0.08136200  0.93855000  0.21481300  1
  O  O61  1  0.89100000  0.94568900  0.20499100  1
  O  O62  1  0.91365900  0.52698500  0.51458300  1
  O  O63  1  0.74814300  0.90707800  0.17628700  1
  O  O64  1  0.41450200  0.14521000  0.88803000  1
  O  O65  1  0.45280600  0.82737300  0.21398500  1
  O  O66  1  0.22610100  0.55953600  0.49159000  1
  O  O67  1  0.41090100  0.45855400  0.54854400  1
  O  O68  1  0.58909900  0.54144600  0.45145600  1
  O  O69  1  0.77389900  0.44046400  0.50841000  1
  O  O70  1  0.54719400  0.17262700  0.78601500  1
  O  O71  1  0.58549800  0.85479000  0.11197000  1
  O  O72  1  0.25185700  0.09292200  0.82371300  1
  O  O73  1  0.08634100  0.47301500  0.48541700  1
  O  O74  1  0.10900000  0.05431100  0.79500900  1
  O  O75  1  0.91863800  0.06145000  0.78518700  1
  O  O76  1  0.27187600  0.72116100  0.12336500  1
  O  O77  1  0.71535700  0.05132200  0.77955000  1
  O  O78  1  0.09252400  0.70887400  0.13352200  1
  O  O79  1  0.90841300  0.69772900  0.10514800  1
  O  O80  1  0.47023200  0.69689900  0.09825900  1
  O  O81  1  0.20181900  0.36879800  0.42201600  1
  O  O82  1  0.70181900  0.63120200  0.07798400  1
  O  O83  1  0.97023200  0.30310100  0.40174100  1
  O  O84  1  0.21535700  0.94867800  0.72045000  1
  O  O85  1  0.40841300  0.30227100  0.39485200  1
  O  O86  1  0.41863800  0.93855000  0.71481300  1
  O  O87  1  0.60900000  0.94568900  0.70499100  1
  O  O88  1  0.59252400  0.29112600  0.36647800  1
  O  O89  1  0.77187600  0.27883900  0.37663500  1
  O  O90  1  0.75185700  0.90707800  0.67628700  1
  O  O91  1  0.04719400  0.82737300  0.71398500  1
  O  O92  1  0.27389900  0.55953600  0.99159000  1
  O  O93  1  0.58634100  0.52698500  0.01458300  1
  O  O94  1  0.08549800  0.14521000  0.38803000  1
  O  O95  1  0.08909900  0.45855400  0.04854400  1
