# generated using pymatgen
data_Li2ZrFe(PO4)3
_symmetry_space_group_name_H-M   'P 1'
_cell_length_a   10.10076300
_cell_length_b   10.88188900
_cell_length_c   13.60985228
_cell_angle_alpha   51.40964251
_cell_angle_beta   90.00000000
_cell_angle_gamma   90.00000000
_symmetry_Int_Tables_number   1
_chemical_formula_structural   Li2ZrFe(PO4)3
_chemical_formula_sum   'Li8 Zr4 Fe4 P12 O48'
_cell_volume   1169.25861772
_cell_formula_units_Z   4
loop_
 _symmetry_equiv_pos_site_id
 _symmetry_equiv_pos_as_xyz
  1  'x, y, z'
loop_
 _atom_site_type_symbol
 _atom_site_label
 _atom_site_symmetry_multiplicity
 _atom_site_fract_x
 _atom_site_fract_y
 _atom_site_fract_z
 _atom_site_occupancy
  Li  Li0  1  0.09927200  0.16326000  0.85256200  1
  Li  Li1  1  0.32233100  0.12276700  0.73534400  1
  Li  Li2  1  0.82233100  0.87723300  0.76465600  1
  Li  Li3  1  0.59927200  0.83674000  0.64743800  1
  Li  Li4  1  0.40072800  0.16326000  0.35256200  1
  Li  Li5  1  0.17766900  0.12276700  0.23534400  1
  Li  Li6  1  0.67766900  0.87723300  0.26465600  1
  Li  Li7  1  0.90072800  0.83674000  0.14743800  1
  Zr  Zr8  1  0.96319900  0.45724300  0.76219500  1
  Zr  Zr9  1  0.46319900  0.54275700  0.73780500  1
  Zr  Zr10  1  0.53680100  0.45724300  0.26219500  1
  Zr  Zr11  1  0.03680100  0.54275700  0.23780500  1
  Fe  Fe12  1  0.37760500  0.78506500  0.83275400  1
  Fe  Fe13  1  0.87760500  0.21493500  0.66724600  1
  Fe  Fe14  1  0.12239500  0.78506500  0.33275400  1
  Fe  Fe15  1  0.62239500  0.21493500  0.16724600  1
  P  P16  1  0.75572100  0.53158200  0.92078700  1
  P  P17  1  0.80467800  0.58559900  0.11137900  1
  P  P18  1  0.91104500  0.05394600  0.20842400  1
  P  P19  1  0.30467800  0.41440100  0.38862100  1
  P  P20  1  0.41104500  0.94605400  0.29157600  1
  P  P21  1  0.25572100  0.46841800  0.57921300  1
  P  P22  1  0.74427900  0.53158200  0.42078700  1
  P  P23  1  0.69532200  0.58559900  0.61137900  1
  P  P24  1  0.58895500  0.05394600  0.70842400  1
  P  P25  1  0.19532200  0.41440100  0.88862100  1
  P  P26  1  0.08895500  0.94605400  0.79157600  1
  P  P27  1  0.24427900  0.46841800  0.07921300  1
  O  O28  1  0.35617300  0.58987100  0.00719500  1
  O  O29  1  0.17071400  0.45510000  0.98048100  1
  O  O30  1  0.34328500  0.38103300  0.88964600  1
  O  O31  1  0.11733600  0.97105800  0.88808300  1
  O  O32  1  0.86528400  0.46395200  0.88768000  1
  O  O33  1  0.71234600  0.69293800  0.80818800  1
  O  O34  1  0.64562400  0.44075400  0.74331700  1
  O  O35  1  0.99991800  0.81291900  0.82566700  1
  O  O36  1  0.73447400  0.06725300  0.74999100  1
  O  O37  1  0.60489700  0.71876200  0.57828900  1
  O  O38  1  0.52208000  0.89612200  0.82977900  1
  O  O39  1  0.92940500  0.28696500  0.75687200  1
  O  O40  1  0.42940500  0.71303500  0.74312800  1
  O  O41  1  0.02208000  0.10387800  0.67022100  1
  O  O42  1  0.23447400  0.93274700  0.75000900  1
  O  O43  1  0.10489700  0.28123800  0.92171100  1
  O  O44  1  0.49991800  0.18708100  0.67433300  1
  O  O45  1  0.14562400  0.55924600  0.75668300  1
  O  O46  1  0.21234600  0.30706200  0.69181200  1
  O  O47  1  0.36528400  0.53604800  0.61232000  1
  O  O48  1  0.61733600  0.02894200  0.61191700  1
  O  O49  1  0.84328500  0.61896700  0.61035400  1
  O  O50  1  0.85617300  0.41012900  0.49280500  1
  O  O51  1  0.67071400  0.54490000  0.51951900  1
  O  O52  1  0.32928600  0.45510000  0.48048100  1
  O  O53  1  0.14382700  0.58987100  0.50719500  1
  O  O54  1  0.38266400  0.97105800  0.38808300  1
  O  O55  1  0.15671500  0.38103300  0.38964600  1
  O  O56  1  0.63471600  0.46395200  0.38768000  1
  O  O57  1  0.78765400  0.69293800  0.30818800  1
  O  O58  1  0.85437600  0.44075400  0.24331700  1
  O  O59  1  0.50008200  0.81291900  0.32566700  1
  O  O60  1  0.89510300  0.71876200  0.07828900  1
  O  O61  1  0.76552600  0.06725300  0.24999100  1
  O  O62  1  0.97792000  0.89612200  0.32977900  1
  O  O63  1  0.57059500  0.28696500  0.25687200  1
  O  O64  1  0.07059500  0.71303500  0.24312800  1
  O  O65  1  0.47792000  0.10387800  0.17022100  1
  O  O66  1  0.39510300  0.28123800  0.42171100  1
  O  O67  1  0.26552600  0.93274700  0.25000900  1
  O  O68  1  0.35437600  0.55924600  0.25668300  1
  O  O69  1  0.00008200  0.18708100  0.17433300  1
  O  O70  1  0.28765400  0.30706200  0.19181200  1
  O  O71  1  0.13471600  0.53604800  0.11232000  1
  O  O72  1  0.88266400  0.02894200  0.11191700  1
  O  O73  1  0.65671500  0.61896700  0.11035400  1
  O  O74  1  0.82928600  0.54490000  0.01951900  1
  O  O75  1  0.64382700  0.41012900  0.99280500  1
