# generated using pymatgen
data_Li5V4O12F
_symmetry_space_group_name_H-M   'P 1'
_cell_length_a   10.14424400
_cell_length_b   4.69309000
_cell_length_c   11.02622476
_cell_angle_alpha   65.30798019
_cell_angle_beta   90.00000000
_cell_angle_gamma   90.00000000
_symmetry_Int_Tables_number   1
_chemical_formula_structural   Li5V4O12F
_chemical_formula_sum   'Li10 V8 O24 F2'
_cell_volume   476.93815569
_cell_formula_units_Z   2
loop_
 _symmetry_equiv_pos_site_id
 _symmetry_equiv_pos_as_xyz
  1  'x, y, z'
loop_
 _atom_site_type_symbol
 _atom_site_label
 _atom_site_symmetry_multiplicity
 _atom_site_fract_x
 _atom_site_fract_y
 _atom_site_fract_z
 _atom_site_occupancy
  Li  Li0  1  0.15613200  0.30029400  0.13732700  1
  Li  Li1  1  0.50000000  0.00000000  0.50000000  1
  Li  Li2  1  0.13808100  0.62104800  0.84084700  1
  Li  Li3  1  0.65613200  0.69970600  0.36267300  1
  Li  Li4  1  0.63808100  0.37895200  0.65915300  1
  Li  Li5  1  0.00000000  0.00000000  0.00000000  1
  Li  Li6  1  0.36191900  0.62104800  0.34084700  1
  Li  Li7  1  0.34386800  0.30029400  0.63732700  1
  Li  Li8  1  0.86191900  0.37895200  0.15915300  1
  Li  Li9  1  0.84386800  0.69970600  0.86267300  1
  V  V10  1  0.15813600  0.96597400  0.48013700  1
  V  V11  1  0.48543100  0.61256500  0.83859000  1
  V  V12  1  0.65813600  0.03402600  0.01986300  1
  V  V13  1  0.01456900  0.61256500  0.33859000  1
  V  V14  1  0.98543100  0.38743500  0.66141000  1
  V  V15  1  0.34186400  0.96597400  0.98013700  1
  V  V16  1  0.51456900  0.38743500  0.16141000  1
  V  V17  1  0.84186400  0.03402600  0.51986300  1
  O  O18  1  0.47822900  0.08820300  0.30716300  1
  O  O19  1  0.69716600  0.88847600  0.49580900  1
  O  O20  1  0.69007700  0.22525800  0.12701900  1
  O  O21  1  0.96029200  0.78945800  0.46158800  1
  O  O22  1  0.89304200  0.66015700  0.69832100  1
  O  O23  1  0.64923200  0.39244300  0.85942300  1
  O  O24  1  0.46029200  0.21054200  0.03841200  1
  O  O25  1  0.19007700  0.77474200  0.37298100  1
  O  O26  1  0.14923200  0.60755700  0.64057700  1
  O  O27  1  0.39304200  0.33984300  0.80167900  1
  O  O28  1  0.97822900  0.91179700  0.19283700  1
  O  O29  1  0.19716600  0.11152400  0.00419100  1
  O  O30  1  0.80283400  0.88847600  0.99580900  1
  O  O31  1  0.02177100  0.08820300  0.80716300  1
  O  O32  1  0.60695800  0.66015700  0.19832100  1
  O  O33  1  0.85076800  0.39244300  0.35942300  1
  O  O34  1  0.80992300  0.22525800  0.62701900  1
  O  O35  1  0.53970800  0.78945800  0.96158800  1
  O  O36  1  0.35076800  0.60755700  0.14057700  1
  O  O37  1  0.10695800  0.33984300  0.30167900  1
  O  O38  1  0.03970800  0.21054200  0.53841200  1
  O  O39  1  0.30992300  0.77474200  0.87298100  1
  O  O40  1  0.30283400  0.11152400  0.50419100  1
  O  O41  1  0.52177100  0.91179700  0.69283700  1
  F  F42  1  0.00000000  0.50000000  0.00000000  1
  F  F43  1  0.50000000  0.50000000  0.50000000  1
