# generated using pymatgen
data_LiCo2OF3
_symmetry_space_group_name_H-M   'P 1'
_cell_length_a   6.09292200
_cell_length_b   6.09292200
_cell_length_c   8.61754800
_cell_angle_alpha   90.00000000
_cell_angle_beta   90.00000000
_cell_angle_gamma   90.00000000
_symmetry_Int_Tables_number   1
_chemical_formula_structural   LiCo2OF3
_chemical_formula_sum   'Li4 Co8 O4 F12'
_cell_volume   319.91525374
_cell_formula_units_Z   4
loop_
 _symmetry_equiv_pos_site_id
 _symmetry_equiv_pos_as_xyz
  1  'x, y, z'
loop_
 _atom_site_type_symbol
 _atom_site_label
 _atom_site_symmetry_multiplicity
 _atom_site_fract_x
 _atom_site_fract_y
 _atom_site_fract_z
 _atom_site_occupancy
  Li  Li0  1  0.25356800  0.50556100  0.25015500  1
  Li  Li1  1  0.49443900  0.25356800  0.00015500  1
  Li  Li2  1  0.50556100  0.74643200  0.50015500  1
  Li  Li3  1  0.74643200  0.49443900  0.75015500  1
  Co  Co4  1  0.01060600  0.24614200  0.98492700  1
  Co  Co5  1  0.98939400  0.75385800  0.48492700  1
  Co  Co6  1  0.22582900  0.25550700  0.63577200  1
  Co  Co7  1  0.25550700  0.77417100  0.88577200  1
  Co  Co8  1  0.24614200  0.98939400  0.23492700  1
  Co  Co9  1  0.75385800  0.01060600  0.73492700  1
  Co  Co10  1  0.74449300  0.22582900  0.38577200  1
  Co  Co11  1  0.77417100  0.74449300  0.13577200  1
  O  O12  1  0.02652700  0.75524500  0.26056400  1
  O  O13  1  0.24475500  0.02652700  0.01056400  1
  O  O14  1  0.75524500  0.97347300  0.51056400  1
  O  O15  1  0.97347300  0.24475500  0.76056400  1
  F  F16  1  0.00617100  0.26545700  0.24035900  1
  F  F17  1  0.26545700  0.99382900  0.49035900  1
  F  F18  1  0.25908900  0.49539200  0.00812800  1
  F  F19  1  0.24980900  0.51767600  0.49512600  1
  F  F20  1  0.50460800  0.25908900  0.75812800  1
  F  F21  1  0.51767600  0.75019100  0.74512600  1
  F  F22  1  0.48232400  0.24980900  0.24512600  1
  F  F23  1  0.49539200  0.74091100  0.25812800  1
  F  F24  1  0.74091100  0.50460800  0.50812800  1
  F  F25  1  0.75019100  0.48232400  0.99512600  1
  F  F26  1  0.73454300  0.00617100  0.99035900  1
  F  F27  1  0.99382900  0.73454300  0.74035900  1
