# generated using pymatgen
data_Li5Mn8(BO3)8
_symmetry_space_group_name_H-M   'P 1'
_cell_length_a   5.27627900
_cell_length_b   9.12995095
_cell_length_c   11.43078061
_cell_angle_alpha   112.68593301
_cell_angle_beta   102.55386890
_cell_angle_gamma   88.71000108
_symmetry_Int_Tables_number   1
_chemical_formula_structural   Li5Mn8(BO3)8
_chemical_formula_sum   'Li5 Mn8 B8 O24'
_cell_volume   494.74654075
_cell_formula_units_Z   1
loop_
 _symmetry_equiv_pos_site_id
 _symmetry_equiv_pos_as_xyz
  1  'x, y, z'
loop_
 _atom_site_type_symbol
 _atom_site_label
 _atom_site_symmetry_multiplicity
 _atom_site_fract_x
 _atom_site_fract_y
 _atom_site_fract_z
 _atom_site_occupancy
  Li  Li0  1  0.71155100  0.74762300  0.32681800  1
  Li  Li1  1  0.46123800  0.45476100  0.07034100  1
  Li  Li2  1  0.24034500  0.26130800  0.34920200  1
  Li  Li3  1  0.22580500  0.23173700  0.61121100  1
  Li  Li4  1  0.02312500  0.99170200  0.84252000  1
  Mn  Mn5  1  0.97066600  0.66308800  0.11526200  1
  Mn  Mn6  1  0.97685800  0.34734800  0.86921800  1
  Mn  Mn7  1  0.74424800  0.43784100  0.37227000  1
  Mn  Mn8  1  0.74536700  0.03738100  0.61434900  1
  Mn  Mn9  1  0.47915200  0.13694200  0.12145800  1
  Mn  Mn10  1  0.53145100  0.83265600  0.86651100  1
  Mn  Mn11  1  0.25982700  0.93822900  0.37202600  1
  Mn  Mn12  1  0.22210900  0.57699300  0.61916100  1
  B  B13  1  0.96931800  0.32582900  0.12617100  1
  B  B14  1  0.77551600  0.10760200  0.38055500  1
  B  B15  1  0.73556000  0.38834000  0.62586400  1
  B  B16  1  0.45485900  0.80321600  0.11487400  1
  B  B17  1  0.51370500  0.17881600  0.87478600  1
  B  B18  1  0.24902000  0.61506100  0.37300500  1
  B  B19  1  0.26141300  0.89562100  0.63707600  1
  B  B20  1  0.03175800  0.68377600  0.86283500  1
  O  O21  1  0.01774200  0.89545200  0.65564800  1
  O  O22  1  0.72397900  0.34513900  0.15462400  1
  O  O23  1  0.86761400  0.47557500  0.57852500  1
  O  O24  1  0.88970100  0.28686100  0.67880900  1
  O  O25  1  0.58808900  0.67790300  0.12829900  1
  O  O26  1  0.53925100  0.89180000  0.05189400  1
  O  O27  1  0.95614000  0.57790700  0.91049500  1
  O  O28  1  0.90830900  0.81858100  0.87459000  1
  O  O29  1  0.67315200  0.98682700  0.40837200  1
  O  O30  1  0.60514100  0.19913700  0.33075100  1
  O  O31  1  0.76204600  0.15553400  0.84341800  1
  O  O32  1  0.50188200  0.61453500  0.36658400  1
  O  O33  1  0.47538700  0.38979900  0.61473100  1
  O  O34  1  0.23987100  0.85099900  0.16666700  1
  O  O35  1  0.43491100  0.78672200  0.67107000  1
  O  O36  1  0.34964500  0.99452300  0.58550900  1
  O  O37  1  0.14213500  0.23484600  0.16646500  1
  O  O38  1  0.04624600  0.41630000  0.05934500  1
  O  O39  1  0.41237400  0.06240700  0.90724400  1
  O  O40  1  0.37917800  0.30772000  0.87619100  1
  O  O41  1  0.15027900  0.51878100  0.42799100  1
  O  O42  1  0.07509100  0.70769000  0.32615700  1
  O  O43  1  0.25256200  0.65188400  0.80850900  1
  O  O44  1  0.04093400  0.13637400  0.40631600  1
