# generated using pymatgen
data_Li2Cu2F7
_symmetry_space_group_name_H-M   'P 1'
_cell_length_a   5.90006200
_cell_length_b   7.02866300
_cell_length_c   13.03595200
_cell_angle_alpha   90.00000000
_cell_angle_beta   90.00000000
_cell_angle_gamma   90.00000000
_symmetry_Int_Tables_number   1
_chemical_formula_structural   Li2Cu2F7
_chemical_formula_sum   'Li8 Cu8 F28'
_cell_volume   540.59503037
_cell_formula_units_Z   4
loop_
 _symmetry_equiv_pos_site_id
 _symmetry_equiv_pos_as_xyz
  1  'x, y, z'
loop_
 _atom_site_type_symbol
 _atom_site_label
 _atom_site_symmetry_multiplicity
 _atom_site_fract_x
 _atom_site_fract_y
 _atom_site_fract_z
 _atom_site_occupancy
  Li  Li0  1  0.40827000  0.25684600  0.04829600  1
  Li  Li1  1  0.33629500  0.75395200  0.18813100  1
  Li  Li2  1  0.83629500  0.25395200  0.31186900  1
  Li  Li3  1  0.90827000  0.75684600  0.45170400  1
  Li  Li4  1  0.09173000  0.25684600  0.54829600  1
  Li  Li5  1  0.16370500  0.75395200  0.68813100  1
  Li  Li6  1  0.66370500  0.25395200  0.81186900  1
  Li  Li7  1  0.59173000  0.75684600  0.95170400  1
  Cu  Cu8  1  0.85167100  0.52263600  0.10325200  1
  Cu  Cu9  1  0.86980000  0.99584500  0.10455800  1
  Cu  Cu10  1  0.36980000  0.49584500  0.39544200  1
  Cu  Cu11  1  0.35167100  0.02263600  0.39674800  1
  Cu  Cu12  1  0.64832900  0.52263600  0.60325200  1
  Cu  Cu13  1  0.63020000  0.99584500  0.60455800  1
  Cu  Cu14  1  0.13020000  0.49584500  0.89544200  1
  Cu  Cu15  1  0.14832900  0.02263600  0.89674800  1
  F  F16  1  0.18300400  0.44954500  0.03615300  1
  F  F17  1  0.20413100  0.05349400  0.04058100  1
  F  F18  1  0.59514600  0.72351500  0.10186600  1
  F  F19  1  0.72001500  0.24959000  0.09382500  1
  F  F20  1  0.03193800  0.75822500  0.12018500  1
  F  F21  1  0.91419700  0.47457200  0.23835500  1
  F  F22  1  0.90622200  0.02987300  0.24056300  1
  F  F23  1  0.40622200  0.52987300  0.25943700  1
  F  F24  1  0.41419700  0.97457200  0.26164500  1
  F  F25  1  0.53193800  0.25822500  0.37981500  1
  F  F26  1  0.22001500  0.74959000  0.40617500  1
  F  F27  1  0.09514600  0.22351500  0.39813400  1
  F  F28  1  0.70413100  0.55349400  0.45941900  1
  F  F29  1  0.68300400  0.94954500  0.46384700  1
  F  F30  1  0.31699600  0.44954500  0.53615300  1
  F  F31  1  0.29586900  0.05349400  0.54058100  1
  F  F32  1  0.90485400  0.72351500  0.60186600  1
  F  F33  1  0.77998500  0.24959000  0.59382500  1
  F  F34  1  0.46806200  0.75822500  0.62018500  1
  F  F35  1  0.58580300  0.47457200  0.73835500  1
  F  F36  1  0.59377800  0.02987300  0.74056300  1
  F  F37  1  0.09377800  0.52987300  0.75943700  1
  F  F38  1  0.08580300  0.97457200  0.76164500  1
  F  F39  1  0.96806200  0.25822500  0.87981500  1
  F  F40  1  0.27998500  0.74959000  0.90617500  1
  F  F41  1  0.40485400  0.22351500  0.89813400  1
  F  F42  1  0.79586900  0.55349400  0.95941900  1
  F  F43  1  0.81699600  0.94954500  0.96384700  1
