# generated using pymatgen
data_Li3Mo4P9O32
_symmetry_space_group_name_H-M   'P 1'
_cell_length_a   14.02332600
_cell_length_b   14.02332600
_cell_length_c   6.47322800
_cell_angle_alpha   90.00000000
_cell_angle_beta   90.00000000
_cell_angle_gamma   90.00000000
_symmetry_Int_Tables_number   1
_chemical_formula_structural   Li3Mo4P9O32
_chemical_formula_sum   'Li6 Mo8 P18 O64'
_cell_volume   1272.98405656
_cell_formula_units_Z   2
loop_
 _symmetry_equiv_pos_site_id
 _symmetry_equiv_pos_as_xyz
  1  'x, y, z'
loop_
 _atom_site_type_symbol
 _atom_site_label
 _atom_site_symmetry_multiplicity
 _atom_site_fract_x
 _atom_site_fract_y
 _atom_site_fract_z
 _atom_site_occupancy
  Li  Li0  1  0.50000000  0.50000000  0.50000000  1
  Li  Li1  1  0.50000000  0.00000000  0.13667900  1
  Li  Li2  1  0.00000000  0.50000000  0.86332100  1
  Li  Li3  1  0.50000000  0.00000000  0.63667900  1
  Li  Li4  1  0.00000000  0.50000000  0.36332100  1
  Li  Li5  1  0.00000000  0.00000000  0.00000000  1
  Mo  Mo6  1  0.19669100  0.12119900  0.62292200  1
  Mo  Mo7  1  0.69669100  0.37880100  0.87707800  1
  Mo  Mo8  1  0.30330900  0.62119900  0.87707800  1
  Mo  Mo9  1  0.62119900  0.69669100  0.12292200  1
  Mo  Mo10  1  0.37880100  0.30330900  0.12292200  1
  Mo  Mo11  1  0.87880100  0.19669100  0.37707800  1
  Mo  Mo12  1  0.80330900  0.87880100  0.62292200  1
  Mo  Mo13  1  0.12119900  0.80330900  0.37707800  1
  P  P14  1  0.74745800  0.39892700  0.36909700  1
  P  P15  1  0.80775100  0.56033800  0.11290200  1
  P  P16  1  0.30775100  0.93966200  0.38709800  1
  P  P17  1  0.10107300  0.75254200  0.86909700  1
  P  P18  1  0.89892700  0.24745800  0.86909700  1
  P  P19  1  0.75254200  0.89892700  0.13090300  1
  P  P20  1  0.24745800  0.10107300  0.13090300  1
  P  P21  1  0.39892700  0.25254200  0.63090300  1
  P  P22  1  0.43966200  0.80775100  0.88709800  1
  P  P23  1  0.25254200  0.60107300  0.36909700  1
  P  P24  1  0.93966200  0.69224900  0.61290200  1
  P  P25  1  0.06033800  0.30775100  0.61290200  1
  P  P26  1  0.50000000  0.50000000  0.00000000  1
  P  P27  1  0.00000000  0.00000000  0.50000000  1
  P  P28  1  0.19224900  0.43966200  0.11290200  1
  P  P29  1  0.69224900  0.06033800  0.38709800  1
  P  P30  1  0.56033800  0.19224900  0.88709800  1
  P  P31  1  0.60107300  0.74745800  0.63090300  1
  O  O32  1  0.66108100  0.84182700  0.10768600  1
  O  O33  1  0.15817300  0.66108100  0.89231400  1
  O  O34  1  0.44339100  0.91429400  0.89792600  1
  O  O35  1  0.49078200  0.75430900  0.06394400  1
  O  O36  1  0.00921800  0.25430900  0.43605600  1
  O  O37  1  0.50921800  0.24569100  0.06394400  1
  O  O38  1  0.63378800  0.68329900  0.80933500  1
  O  O39  1  0.72474000  0.00758100  0.17199400  1
  O  O40  1  0.16092500  0.26230400  0.64038200  1
  O  O41  1  0.65817300  0.83891900  0.60768600  1
  O  O42  1  0.83891900  0.34182700  0.39231400  1
  O  O43  1  0.91429400  0.55660900  0.10207400  1
  O  O44  1  0.66092500  0.23769600  0.85961800  1
  O  O45  1  0.58570600  0.05660900  0.39792600  1
  O  O46  1  0.06364300  0.94089200  0.35131900  1
  O  O47  1  0.74569100  0.00921800  0.56394400  1
  O  O48  1  0.05910800  0.06364300  0.64868100  1
  O  O49  1  0.18329900  0.13378800  0.30933500  1
  O  O50  1  0.33907500  0.76230400  0.85961800  1
  O  O51  1  0.68728300  0.40284200  0.56760100  1
  O  O52  1  0.36621200  0.31670100  0.80933500  1
  O  O53  1  0.24569100  0.49078200  0.93605600  1
  O  O54  1  0.41429400  0.94339100  0.39792600  1
  O  O55  1  0.33891900  0.15817300  0.10768600  1
  O  O56  1  0.23769600  0.33907500  0.14038200  1
  O  O57  1  0.76230400  0.66092500  0.14038200  1
  O  O58  1  0.00758100  0.27526000  0.82800600  1
  O  O59  1  0.55910800  0.43635700  0.85131900  1
  O  O60  1  0.81271700  0.90284200  0.93239900  1
  O  O61  1  0.08570600  0.44339100  0.10207400  1
  O  O62  1  0.40284200  0.31271700  0.43239900  1
  O  O63  1  0.44089200  0.56364300  0.85131900  1
  O  O64  1  0.16108100  0.65817300  0.39231400  1
  O  O65  1  0.43635700  0.44089200  0.14868100  1
  O  O66  1  0.81670100  0.86621200  0.30933500  1
  O  O67  1  0.86621200  0.18329900  0.69066500  1
  O  O68  1  0.13378800  0.81670100  0.69066500  1
  O  O69  1  0.55660900  0.08570600  0.89792600  1
  O  O70  1  0.94339100  0.58570600  0.60207400  1
  O  O71  1  0.73769600  0.16092500  0.35961800  1
  O  O72  1  0.34182700  0.16108100  0.60768600  1
  O  O73  1  0.22474000  0.49241900  0.32800600  1
  O  O74  1  0.75430900  0.50921800  0.93605600  1
  O  O75  1  0.93635700  0.05910800  0.35131900  1
  O  O76  1  0.68329900  0.36621200  0.19066500  1
  O  O77  1  0.49241900  0.77526000  0.67199400  1
  O  O78  1  0.18728300  0.09715800  0.93239900  1
  O  O79  1  0.94089200  0.93635700  0.64868100  1
  O  O80  1  0.31670100  0.63378800  0.19066500  1
  O  O81  1  0.27526000  0.99241900  0.17199400  1
  O  O82  1  0.56364300  0.55910800  0.14868100  1
  O  O83  1  0.99078200  0.74569100  0.43605600  1
  O  O84  1  0.59715800  0.68728300  0.43239900  1
  O  O85  1  0.50758100  0.22474000  0.67199400  1
  O  O86  1  0.99241900  0.72474000  0.82800600  1
  O  O87  1  0.77526000  0.50758100  0.32800600  1
  O  O88  1  0.09715800  0.81271700  0.06760100  1
  O  O89  1  0.84182700  0.33891900  0.89231400  1
  O  O90  1  0.26230400  0.83907500  0.35961800  1
  O  O91  1  0.90284200  0.18728300  0.06760100  1
  O  O92  1  0.05660900  0.41429400  0.60207400  1
  O  O93  1  0.83907500  0.73769600  0.64038200  1
  O  O94  1  0.31271700  0.59715800  0.56760100  1
  O  O95  1  0.25430900  0.99078200  0.56394400  1
