# generated using pymatgen
data_Li24TiCr11O36
_symmetry_space_group_name_H-M   'P 1'
_cell_length_a   5.08821800
_cell_length_b   10.59499129
_cell_length_c   13.06490324
_cell_angle_alpha   112.85282797
_cell_angle_beta   96.74866314
_cell_angle_gamma   95.62293103
_symmetry_Int_Tables_number   1
_chemical_formula_structural   Li24TiCr11O36
_chemical_formula_sum   'Li24 Ti1 Cr11 O36'
_cell_volume   636.55425124
_cell_formula_units_Z   1
loop_
 _symmetry_equiv_pos_site_id
 _symmetry_equiv_pos_as_xyz
  1  'x, y, z'
loop_
 _atom_site_type_symbol
 _atom_site_label
 _atom_site_symmetry_multiplicity
 _atom_site_fract_x
 _atom_site_fract_y
 _atom_site_fract_z
 _atom_site_occupancy
  Li  Li0  1  0.77144800  0.06050500  0.05922600  1
  Li  Li1  1  0.66577000  0.33312600  0.08351900  1
  Li  Li2  1  0.88843200  0.27260600  0.27317600  1
  Li  Li3  1  0.33523900  0.16631900  0.16729500  1
  Li  Li4  1  0.55189600  0.60565400  0.10598300  1
  Li  Li5  1  0.99968100  0.00101500  0.24997900  1
  Li  Li6  1  0.99897100  0.50059400  0.00000600  1
  Li  Li7  1  0.77980100  0.06056900  0.55959200  1
  Li  Li8  1  0.44996800  0.39276200  0.39366200  1
  Li  Li9  1  0.66746500  0.33265100  0.58354000  1
  Li  Li10  1  0.66753100  0.83423000  0.33394800  1
  Li  Li11  1  0.11310400  0.72822200  0.22734100  1
  Li  Li12  1  0.88510100  0.27260200  0.77291700  1
  Li  Li13  1  0.33198400  0.16629200  0.66732500  1
  Li  Li14  1  0.33323600  0.66778200  0.41692400  1
  Li  Li15  1  0.55085100  0.60666000  0.60659600  1
  Li  Li16  1  0.00001800  0.50004500  0.50021300  1
  Li  Li17  1  0.22002500  0.94014200  0.44015000  1
  Li  Li18  1  0.45307600  0.39224700  0.89317100  1
  Li  Li19  1  0.67037600  0.83527100  0.83404100  1
  Li  Li20  1  0.11314700  0.72631200  0.72645500  1
  Li  Li21  1  0.33337900  0.66637500  0.91653200  1
  Li  Li22  1  0.99769600  0.99933900  0.74863300  1
  Li  Li23  1  0.21937300  0.93966400  0.94036900  1
  Ti  Ti24  1  0.11054600  0.22108400  0.97463100  1
  Cr  Cr25  1  0.88962400  0.78049700  0.03115100  1
  Cr  Cr26  1  0.55758200  0.11393500  0.36387300  1
  Cr  Cr27  1  0.77753300  0.55301800  0.30238300  1
  Cr  Cr28  1  0.22546400  0.44967800  0.19928600  1
  Cr  Cr29  1  0.44251300  0.88549500  0.13541200  1
  Cr  Cr30  1  0.11146100  0.21992100  0.46928900  1
  Cr  Cr31  1  0.89190200  0.78013100  0.53039000  1
  Cr  Cr32  1  0.54960400  0.10982100  0.85996200  1
  Cr  Cr33  1  0.77631400  0.55307100  0.80217400  1
  Cr  Cr34  1  0.22330000  0.44711400  0.69818500  1
  Cr  Cr35  1  0.44597000  0.88593500  0.63383600  1
  O  O36  1  0.42382500  0.13966100  0.00450200  1
  O  O37  1  0.64302100  0.07570600  0.21199400  1
  O  O38  1  0.90156800  0.52984400  0.16712500  1
  O  O39  1  0.30963700  0.41243500  0.04692600  1
  O  O40  1  0.88573000  0.04613100  0.40876900  1
  O  O41  1  0.02379200  0.25824600  0.12416000  1
  O  O42  1  0.55341400  0.37993700  0.24264000  1
  O  O43  1  0.78208900  0.28772700  0.42474500  1
  O  O44  1  0.76571000  0.80368700  0.16652200  1
  O  O45  1  0.23595600  0.19560000  0.33310000  1
  O  O46  1  0.21914500  0.71200000  0.07542600  1
  O  O47  1  0.44790500  0.62253400  0.25915400  1
  O  O48  1  0.43131200  0.13751700  0.49954500  1
  O  O49  1  0.97646600  0.74300000  0.37856500  1
  O  O50  1  0.11332400  0.95379800  0.09100600  1
  O  O51  1  0.69249600  0.59069900  0.45424600  1
  O  O52  1  0.10057100  0.47179100  0.33404300  1
  O  O53  1  0.64251200  0.07377100  0.70853500  1
  O  O54  1  0.35883300  0.92414300  0.28773800  1
  O  O55  1  0.90049500  0.52921200  0.66670100  1
  O  O56  1  0.30773300  0.40919500  0.54556700  1
  O  O57  1  0.87262700  0.04203800  0.90437700  1
  O  O58  1  0.02397100  0.25746900  0.62156400  1
  O  O59  1  0.56867900  0.86140100  0.49856400  1
  O  O60  1  0.55296300  0.37930100  0.74217100  1
  O  O61  1  0.78433600  0.28834000  0.92609200  1
  O  O62  1  0.76450600  0.80348200  0.66561300  1
  O  O63  1  0.24716600  0.19192400  0.82992200  1
  O  O64  1  0.21893000  0.71266700  0.57573400  1
  O  O65  1  0.44658600  0.62116900  0.75784600  1
  O  O66  1  0.97556300  0.74249700  0.87881400  1
  O  O67  1  0.11517300  0.95358000  0.59068400  1
  O  O68  1  0.69093300  0.59060800  0.95421700  1
  O  O69  1  0.09907100  0.47065000  0.83344900  1
  O  O70  1  0.35769300  0.92534700  0.78864400  1
  O  O71  1  0.56688700  0.86221000  0.00013000  1
