# generated using pymatgen
data_Li6Mn3P8O29
_symmetry_space_group_name_H-M   'P 1'
_cell_length_a   9.67648900
_cell_length_b   9.69120472
_cell_length_c   13.94581611
_cell_angle_alpha   89.60726641
_cell_angle_beta   89.58770461
_cell_angle_gamma   60.31404978
_symmetry_Int_Tables_number   1
_chemical_formula_structural   Li6Mn3P8O29
_chemical_formula_sum   'Li12 Mn6 P16 O58'
_cell_volume   1136.11281295
_cell_formula_units_Z   2
loop_
 _symmetry_equiv_pos_site_id
 _symmetry_equiv_pos_as_xyz
  1  'x, y, z'
loop_
 _atom_site_type_symbol
 _atom_site_label
 _atom_site_symmetry_multiplicity
 _atom_site_fract_x
 _atom_site_fract_y
 _atom_site_fract_z
 _atom_site_occupancy
  Li  Li0  1  0.89888900  0.33607600  0.43805600  1
  Li  Li1  1  0.66117100  0.10336700  0.06138600  1
  Li  Li2  1  0.67417200  0.66935700  0.11174400  1
  Li  Li3  1  0.66209300  0.23610200  0.56075100  1
  Li  Li4  1  0.99900000  0.99656500  0.99679400  1
  Li  Li5  1  0.23699500  0.65888900  0.05812000  1
  Li  Li6  1  0.33589200  0.76263800  0.43962500  1
  Li  Li7  1  0.09799100  0.66251600  0.56355100  1
  Li  Li8  1  0.23445100  0.09798000  0.55937500  1
  Li  Li9  1  0.32759600  0.90744600  0.93737500  1
  Li  Li10  1  0.95687800  0.98467300  0.49082600  1
  Li  Li11  1  0.76514500  0.32927500  0.93777600  1
  Mn  Mn12  1  0.56701400  0.99832000  0.25072300  1
  Mn  Mn13  1  0.56510400  0.43559300  0.74942400  1
  Mn  Mn14  1  0.99818600  0.56471400  0.75338700  1
  Mn  Mn15  1  0.43485600  0.56519900  0.25047700  1
  Mn  Mn16  1  0.00169400  0.43547300  0.24912500  1
  Mn  Mn17  1  0.43711200  0.00133400  0.75060200  1
  P  P18  1  0.08544000  0.22225500  0.83942700  1
  P  P19  1  0.08732000  0.68411500  0.34568400  1
  P  P20  1  0.31606800  0.90866300  0.15582300  1
  P  P21  1  0.68527100  0.08905700  0.84565400  1
  P  P22  1  0.77892500  0.91361100  0.66331400  1
  P  P23  1  0.31853400  0.77290200  0.65902400  1
  P  P24  1  0.66569700  0.66687800  0.86909700  1
  P  P25  1  0.22808100  0.08763400  0.33892100  1
  P  P26  1  0.68183400  0.22581400  0.34043900  1
  P  P27  1  0.77552300  0.32020100  0.15915300  1
  P  P28  1  0.91208500  0.31829100  0.65583600  1
  P  P29  1  0.33547900  0.33221500  0.13123900  1
  P  P30  1  0.66488700  0.66761200  0.36965600  1
  P  P31  1  0.91441000  0.77908900  0.16131700  1
  P  P32  1  0.33230200  0.33492700  0.63152700  1
  P  P33  1  0.22596800  0.68150400  0.84032700  1
  O  O34  1  0.66293200  0.25895500  0.83810600  1
  O  O35  1  0.25663400  0.66400800  0.33932400  1
  O  O36  1  0.81250200  0.50849700  0.33349600  1
  O  O37  1  0.74308800  0.92263000  0.15765000  1
  O  O38  1  0.07874200  0.25473400  0.33950300  1
  O  O39  1  0.49085600  0.32319600  0.66805500  1
  O  O40  1  0.48239600  0.89399600  0.16834500  1
  O  O41  1  0.89939000  0.62650400  0.16919800  1
  O  O42  1  0.08847400  0.37900100  0.83205800  1
  O  O43  1  0.80804100  0.67884200  0.82847800  1
  O  O44  1  0.00893000  0.19987400  0.74171400  1
  O  O45  1  0.32125300  0.18810100  0.66964200  1
  O  O46  1  0.79102500  0.00624400  0.57981200  1
  O  O47  1  0.77283000  0.21935600  0.43051200  1
  O  O48  1  0.66035100  0.66422800  0.97735400  1
  O  O49  1  0.92244000  0.34079900  0.15889700  1
  O  O50  1  0.33293400  0.33491900  0.52392300  1
  O  O51  1  0.62047400  0.91320900  0.67015600  1
  O  O52  1  0.34285000  0.33530200  0.02395300  1
  O  O53  1  0.52505700  0.09438500  0.83183900  1
  O  O54  1  0.67505100  0.50926300  0.83289100  1
  O  O55  1  0.22587500  0.00098400  0.42917700  1
  O  O56  1  0.20654900  0.79527600  0.74996600  1
  O  O57  1  0.67909200  0.80711300  0.32528100  1
  O  O58  1  0.50663800  0.67901400  0.33046100  1
  O  O59  1  0.25706600  0.07867100  0.83994100  1
  O  O60  1  0.19092100  0.32438900  0.17252000  1
  O  O61  1  0.66273600  0.07821100  0.33867700  1
  O  O62  1  0.52391700  0.38104800  0.32982600  1
  O  O63  1  0.98852400  0.80047000  0.25906200  1
  O  O64  1  0.65671900  0.66574700  0.47677000  1
  O  O65  1  0.62546900  0.48677700  0.17173300  1
  O  O66  1  0.23185800  0.98529100  0.06460000  1
  O  O67  1  0.23147600  0.77324400  0.56913100  1
  O  O68  1  0.99448000  0.20539400  0.92203400  1
  O  O69  1  0.38013700  0.52173300  0.82737200  1
  O  O70  1  0.90370400  0.47843000  0.67133900  1
  O  O71  1  0.47899700  0.62081400  0.67152500  1
  O  O72  1  0.74387700  0.33628400  0.65784200  1
  O  O73  1  0.99475100  0.23673400  0.56346000  1
  O  O74  1  0.33701400  0.73913800  0.15923000  1
  O  O75  1  0.32823900  0.48857900  0.16865500  1
  O  O76  1  0.38062000  0.09659900  0.32668100  1
  O  O77  1  0.92249900  0.74287800  0.66130400  1
  O  O78  1  0.76990100  0.23604700  0.06973800  1
  O  O79  1  0.18620800  0.49077600  0.66997200  1
  O  O80  1  0.49268300  0.18350200  0.16764700  1
  O  O81  1  0.00940600  0.78789100  0.07881500  1
  O  O82  1  0.50779600  0.81419800  0.83299600  1
  O  O83  1  0.09128900  0.52572500  0.33217100  1
  O  O84  1  0.79325100  0.20944900  0.24951100  1
  O  O85  1  0.07943900  0.66053200  0.84017000  1
  O  O86  1  0.33870700  0.92164400  0.65841300  1
  O  O87  1  0.22612100  0.76892000  0.93018000  1
  O  O88  1  0.01607300  0.76813900  0.43855300  1
  O  O89  1  0.20730200  0.99913900  0.24713700  1
  O  O90  1  0.80237600  0.99054800  0.75963700  1
  O  O91  1  0.76737000  0.02019800  0.93910700  1
