# generated using pymatgen
data_Li3VSi2O7
_symmetry_space_group_name_H-M   'P 1'
_cell_length_a   13.08343300
_cell_length_b   8.62937400
_cell_length_c   8.64258461
_cell_angle_alpha   60.14038110
_cell_angle_beta   90.00000000
_cell_angle_gamma   90.00000000
_symmetry_Int_Tables_number   1
_chemical_formula_structural   Li3VSi2O7
_chemical_formula_sum   'Li18 V6 Si12 O42'
_cell_volume   846.22895821
_cell_formula_units_Z   6
loop_
 _symmetry_equiv_pos_site_id
 _symmetry_equiv_pos_as_xyz
  1  'x, y, z'
loop_
 _atom_site_type_symbol
 _atom_site_label
 _atom_site_symmetry_multiplicity
 _atom_site_fract_x
 _atom_site_fract_y
 _atom_site_fract_z
 _atom_site_occupancy
  Li  Li0  1  0.89650300  0.97847000  0.68890900  1
  Li  Li1  1  0.56664900  0.97879400  0.69006200  1
  Li  Li2  1  0.21813300  0.66907300  0.66502600  1
  Li  Li3  1  0.73430200  0.66852900  0.66592900  1
  Li  Li4  1  0.46280500  0.00227000  0.99757000  1
  Li  Li5  1  0.96280500  0.99773000  0.00243000  1
  Li  Li6  1  0.56550400  0.69190100  0.33129200  1
  Li  Li7  1  0.89858800  0.69151000  0.33270400  1
  Li  Li8  1  0.89788900  0.33632400  0.97314000  1
  Li  Li9  1  0.56607500  0.33380000  0.97408300  1
  Li  Li10  1  0.06607500  0.66620000  0.02591700  1
  Li  Li11  1  0.39788900  0.66367600  0.02686000  1
  Li  Li12  1  0.39858800  0.30849000  0.66729600  1
  Li  Li13  1  0.06550400  0.30809900  0.66870800  1
  Li  Li14  1  0.23430200  0.33147100  0.33407100  1
  Li  Li15  1  0.71813300  0.33092700  0.33497400  1
  Li  Li16  1  0.06664900  0.02120600  0.30993800  1
  Li  Li17  1  0.39650300  0.02153000  0.31109100  1
  V  V18  1  0.23129300  0.99779900  0.99786800  1
  V  V19  1  0.73129300  0.00220100  0.00213200  1
  V  V20  1  0.50946600  0.66847300  0.66549700  1
  V  V21  1  0.95594400  0.66860500  0.66530000  1
  V  V22  1  0.45594400  0.33139500  0.33470000  1
  V  V23  1  0.00946600  0.33152700  0.33450300  1
  Si  Si24  1  0.34521900  0.97663300  0.67223800  1
  Si  Si25  1  0.12013900  0.97948600  0.67115200  1
  Si  Si26  1  0.12074500  0.67437600  0.34887200  1
  Si  Si27  1  0.34519600  0.67571300  0.35075100  1
  Si  Si28  1  0.12074600  0.35137100  0.97447600  1
  Si  Si29  1  0.34470700  0.35282000  0.97168100  1
  Si  Si30  1  0.84470700  0.64718000  0.02831900  1
  Si  Si31  1  0.62074600  0.64862900  0.02552400  1
  Si  Si32  1  0.84519600  0.32428700  0.64924900  1
  Si  Si33  1  0.62074500  0.32562400  0.65112800  1
  Si  Si34  1  0.62013900  0.02051400  0.32884800  1
  Si  Si35  1  0.84521900  0.02336700  0.32776200  1
  O  O36  1  0.84157500  0.86904900  0.92899400  1
  O  O37  1  0.62627700  0.86968800  0.92502600  1
  O  O38  1  0.23239800  0.87450000  0.69348900  1
  O  O39  1  0.03687100  0.81486400  0.75440500  1
  O  O40  1  0.42923700  0.81419400  0.75633800  1
  O  O41  1  0.60541200  0.88321200  0.53772600  1
  O  O42  1  0.85997800  0.88320900  0.53574500  1
  O  O43  1  0.84272800  0.93166300  0.20193900  1
  O  O44  1  0.85963800  0.58379100  0.87925800  1
  O  O45  1  0.62543600  0.92706900  0.20535400  1
  O  O46  1  0.60504800  0.58191300  0.87978000  1
  O  O47  1  0.03682100  0.75789200  0.42970800  1
  O  O48  1  0.42953200  0.75942100  0.42957300  1
  O  O49  1  0.23263000  0.69639700  0.43229300  1
  O  O50  1  0.34256300  0.79860500  0.13326400  1
  O  O51  1  0.23256100  0.43665500  0.86963900  1
  O  O52  1  0.12604800  0.79522700  0.13224900  1
  O  O53  1  0.42950600  0.43179600  0.81023200  1
  O  O54  1  0.03665500  0.43297700  0.81123500  1
  O  O55  1  0.60510800  0.54009900  0.57887700  1
  O  O56  1  0.86051500  0.53894300  0.57987900  1
  O  O57  1  0.36051500  0.46105700  0.42012100  1
  O  O58  1  0.10510800  0.45990100  0.42112300  1
  O  O59  1  0.53665500  0.56702300  0.18876500  1
  O  O60  1  0.92950600  0.56820400  0.18976800  1
  O  O61  1  0.62604800  0.20477300  0.86775100  1
  O  O62  1  0.73256100  0.56334500  0.13036100  1
  O  O63  1  0.84256300  0.20139500  0.86673600  1
  O  O64  1  0.73263000  0.30360300  0.56770700  1
  O  O65  1  0.92953200  0.24057900  0.57042700  1
  O  O66  1  0.53682100  0.24210800  0.57029200  1
  O  O67  1  0.10504800  0.41808700  0.12022000  1
  O  O68  1  0.12543600  0.07293100  0.79464600  1
  O  O69  1  0.35963800  0.41620900  0.12074200  1
  O  O70  1  0.34272800  0.06833700  0.79806100  1
  O  O71  1  0.35997800  0.11679100  0.46425500  1
  O  O72  1  0.10541200  0.11678800  0.46227400  1
  O  O73  1  0.92923700  0.18580600  0.24366200  1
  O  O74  1  0.53687100  0.18513600  0.24559500  1
  O  O75  1  0.73239800  0.12550000  0.30651100  1
  O  O76  1  0.12627700  0.13031200  0.07497400  1
  O  O77  1  0.34157500  0.13095100  0.07100600  1
