# generated using pymatgen
data_Li5V2OF11
_symmetry_space_group_name_H-M   'P 1'
_cell_length_a   5.58768100
_cell_length_b   8.91008159
_cell_length_c   9.14322296
_cell_angle_alpha   79.91698141
_cell_angle_beta   84.50098263
_cell_angle_gamma   73.04972433
_symmetry_Int_Tables_number   1
_chemical_formula_structural   Li5V2OF11
_chemical_formula_sum   'Li10 V4 O2 F22'
_cell_volume   428.22533167
_cell_formula_units_Z   2
loop_
 _symmetry_equiv_pos_site_id
 _symmetry_equiv_pos_as_xyz
  1  'x, y, z'
loop_
 _atom_site_type_symbol
 _atom_site_label
 _atom_site_symmetry_multiplicity
 _atom_site_fract_x
 _atom_site_fract_y
 _atom_site_fract_z
 _atom_site_occupancy
  Li  Li0  1  0.16380500  0.19126100  0.78072400  1
  Li  Li1  1  0.67297500  0.05704500  0.89704600  1
  Li  Li2  1  0.97414500  0.64022400  0.98616800  1
  Li  Li3  1  0.13237500  0.06192200  0.43601100  1
  Li  Li4  1  0.57762100  0.28413500  0.52765600  1
  Li  Li5  1  0.46433400  0.65722600  0.48151700  1
  Li  Li6  1  0.91234500  0.61187100  0.63489800  1
  Li  Li7  1  0.68276000  0.19075200  0.23413700  1
  Li  Li8  1  0.29131900  0.96081700  0.09787900  1
  Li  Li9  1  0.41658000  0.59379500  0.13053100  1
  V  V10  1  0.60708600  0.43073100  0.86692700  1
  V  V11  1  0.27563600  0.82197000  0.75820800  1
  V  V12  1  0.09986600  0.42873200  0.36372800  1
  V  V13  1  0.77524800  0.81708900  0.25379000  1
  O  O14  1  0.50972900  0.62569600  0.74183500  1
  O  O15  1  0.00549600  0.62537700  0.23837800  1
  F  F16  1  0.29957200  0.47783700  0.98097700  1
  F  F17  1  0.27543600  0.78479100  0.97392400  1
  F  F18  1  0.32927600  0.11368700  0.95068500  1
  F  F19  1  0.00519100  0.02013200  0.77264000  1
  F  F20  1  0.52804100  0.30869700  0.74123300  1
  F  F21  1  0.48824700  0.94470200  0.73529700  1
  F  F22  1  0.93287500  0.40037200  0.76799800  1
  F  F23  1  0.24552100  0.85205200  0.54596600  1
  F  F24  1  0.21619300  0.52821700  0.50466800  1
  F  F25  1  0.00984700  0.72204100  0.77592600  1
  F  F26  1  0.23658300  0.23717600  0.50846700  1
  F  F27  1  0.03728200  0.30246600  0.24832300  1
  F  F28  1  0.99287700  0.94603200  0.23028800  1
  F  F29  1  0.78047700  0.46528900  0.47115800  1
  F  F30  1  0.75665500  0.76964600  0.46420300  1
  F  F31  1  0.79111900  0.13764900  0.43194300  1
  F  F32  1  0.43607200  0.39842200  0.27608200  1
  F  F33  1  0.49899000  0.72270300  0.26108200  1
  F  F34  1  0.49904500  0.01035900  0.25665600  1
  F  F35  1  0.75274200  0.84998800  0.04132500  1
  F  F36  1  0.72376200  0.52658200  0.00689000  1
  F  F37  1  0.72468300  0.23251700  0.00303700  1
