# generated using pymatgen
data_Li3Sb3(PO4)4
_symmetry_space_group_name_H-M   'P 1'
_cell_length_a   9.65900861
_cell_length_b   9.11802982
_cell_length_c   10.65275034
_cell_angle_alpha   107.75551924
_cell_angle_beta   106.05869076
_cell_angle_gamma   111.24097499
_symmetry_Int_Tables_number   1
_chemical_formula_structural   Li3Sb3(PO4)4
_chemical_formula_sum   'Li6 Sb6 P8 O32'
_cell_volume   749.44675957
_cell_formula_units_Z   2
loop_
 _symmetry_equiv_pos_site_id
 _symmetry_equiv_pos_as_xyz
  1  'x, y, z'
loop_
 _atom_site_type_symbol
 _atom_site_label
 _atom_site_symmetry_multiplicity
 _atom_site_fract_x
 _atom_site_fract_y
 _atom_site_fract_z
 _atom_site_occupancy
  Li  Li0  1  0.43905178  0.02209408  0.76436034  1
  Li  Li1  1  0.43314481  0.47815310  0.85139633  1
  Li  Li2  1  0.34984100  0.30570560  0.29210983  1
  Li  Li3  1  0.65015900  0.69429440  0.70789017  1
  Li  Li4  1  0.56685519  0.52184690  0.14860367  1
  Li  Li5  1  0.56094822  0.97790592  0.23563966  1
  Sb  Sb6  1  0.03393810  0.79253062  0.55387625  1
  Sb  Sb7  1  0.11907837  0.87461354  0.15260853  1
  Sb  Sb8  1  0.07025278  0.48524552  0.25006916  1
  Sb  Sb9  1  0.92974722  0.51475448  0.74993184  1
  Sb  Sb10  1  0.88092163  0.12538646  0.84739147  1
  Sb  Sb11  1  0.96606190  0.20746938  0.44612375  1
  P  P12  1  0.28155156  0.56634218  0.58500762  1
  P  P13  1  0.17622671  0.98441057  0.92209621  1
  P  P14  1  0.26996380  0.59981232  0.05853481  1
  P  P15  1  0.25271790  0.07164003  0.49274411  1
  P  P16  1  0.74728210  0.92835997  0.50725589  1
  P  P17  1  0.73003620  0.40018768  0.94146519  1
  P  P18  1  0.82377329  0.01558943  0.07790379  1
  P  P19  1  0.71844844  0.43365782  0.41499238  1
  O  O20  1  0.04307533  0.78593392  0.88025998  1
  O  O21  1  0.10424537  0.50492959  0.91721367  1
  O  O22  1  0.11796410  0.86430314  0.41219861  1
  O  O23  1  0.11755373  0.45953614  0.60323865  1
  O  O24  1  0.28343489  0.73972442  0.59778688  1
  O  O25  1  0.07829435  0.06131962  0.84923244  1
  O  O26  1  0.24516429  0.44455724  0.42348347  1
  O  O27  1  0.32067382  0.79823088  0.13617899  1
  O  O28  1  0.16208096  0.17199749  0.54475827  1
  O  O29  1  0.23014980  0.50523945  0.15845179  1
  O  O30  1  0.43042630  0.58295893  0.69914210  1
  O  O31  1  0.31606686  0.99612012  0.88376032  1
  O  O32  1  0.40014337  0.11793522  0.62138315  1
  O  O33  1  0.71747477  0.90154903  0.63943391  1
  O  O34  1  0.22724655  0.07086662  0.09416689  1
  O  O35  1  0.59646763  0.43181832  0.97215827  1
  O  O36  1  0.40353237  0.56818168  0.02784173  1
  O  O37  1  0.77275345  0.92913338  0.90583311  1
  O  O38  1  0.28252523  0.09845097  0.36056609  1
  O  O39  1  0.59985663  0.88206478  0.37861685  1
  O  O40  1  0.68393314  0.00387988  0.11623968  1
  O  O41  1  0.56957370  0.41704107  0.30085790  1
  O  O42  1  0.76985020  0.49476055  0.84154821  1
  O  O43  1  0.83791904  0.82800251  0.45524173  1
  O  O44  1  0.67932618  0.20176912  0.86382101  1
  O  O45  1  0.75483571  0.55544276  0.57651653  1
  O  O46  1  0.92170565  0.93868038  0.15076756  1
  O  O47  1  0.71656511  0.26027558  0.40221312  1
  O  O48  1  0.88244627  0.54046386  0.39676135  1
  O  O49  1  0.88203590  0.13569686  0.58780139  1
  O  O50  1  0.89575463  0.49507041  0.08278633  1
  O  O51  1  0.95692467  0.21406608  0.11974002  1
