# generated using pymatgen
data_Li32Ti3Cr13O48
_symmetry_space_group_name_H-M   'P 1'
_cell_length_a   5.05906400
_cell_length_b   8.72076823
_cell_length_c   19.54091528
_cell_angle_alpha   98.44984094
_cell_angle_beta   95.00606031
_cell_angle_gamma   90.09194115
_symmetry_Int_Tables_number   1
_chemical_formula_structural   Li32Ti3Cr13O48
_chemical_formula_sum   'Li32 Ti3 Cr13 O48'
_cell_volume   849.42175280
_cell_formula_units_Z   1
loop_
 _symmetry_equiv_pos_site_id
 _symmetry_equiv_pos_as_xyz
  1  'x, y, z'
loop_
 _atom_site_type_symbol
 _atom_site_label
 _atom_site_symmetry_multiplicity
 _atom_site_fract_x
 _atom_site_fract_y
 _atom_site_fract_z
 _atom_site_occupancy
  Li  Li0  1  0.99093500  0.16931600  0.24914500  1
  Li  Li1  1  0.87284300  0.37499700  0.37561700  1
  Li  Li2  1  0.74717100  0.25065800  0.99981300  1
  Li  Li3  1  0.74273600  0.91909700  0.99975500  1
  Li  Li4  1  0.99461400  0.17092900  0.75024400  1
  Li  Li5  1  0.75179000  0.57891600  0.50028400  1
  Li  Li6  1  0.87591700  0.37604300  0.87530800  1
  Li  Li7  1  0.74303300  0.25297900  0.50025000  1
  Li  Li8  1  0.74639500  0.92168000  0.50041700  1
  Li  Li9  1  0.62684200  0.12607200  0.12514800  1
  Li  Li10  1  0.76071400  0.58183100  0.00010000  1
  Li  Li11  1  0.51039100  0.33339700  0.25013400  1
  Li  Li12  1  0.62584500  0.12611000  0.62516200  1
  Li  Li13  1  0.50215100  0.99919300  0.25038300  1
  Li  Li14  1  0.48530600  0.66676000  0.24967200  1
  Li  Li15  1  0.51291000  0.33194500  0.74970200  1
  Li  Li16  1  0.37465900  0.87373500  0.37476200  1
  Li  Li17  1  0.49936000  0.99949500  0.74959500  1
  Li  Li18  1  0.25001600  0.74816200  0.00067000  1
  Li  Li19  1  0.49241400  0.66803400  0.74954300  1
  Li  Li20  1  0.24326900  0.42098100  0.00090600  1
  Li  Li21  1  0.37760300  0.87452400  0.87426000  1
  Li  Li22  1  0.25328800  0.07839700  0.49933700  1
  Li  Li23  1  0.25806200  0.74663600  0.49981800  1
  Li  Li24  1  0.12782600  0.62436000  0.12490000  1
  Li  Li25  1  0.24809800  0.42202000  0.49989300  1
  Li  Li26  1  0.00859200  0.83077500  0.25019100  1
  Li  Li27  1  0.25543100  0.08009300  0.00061600  1
  Li  Li28  1  0.12765900  0.62471000  0.62415900  1
  Li  Li29  1  0.00262200  0.49983300  0.24925000  1
  Li  Li30  1  0.00506500  0.83021100  0.75118900  1
  Li  Li31  1  0.99423700  0.50085200  0.75072200  1
  Ti  Ti32  1  0.87309800  0.71083300  0.37391000  1
  Ti  Ti33  1  0.37835000  0.53904000  0.87677500  1
  Ti  Ti34  1  0.12836800  0.28927100  0.62654900  1
  Cr  Cr35  1  0.87629400  0.04717500  0.37495700  1
  Cr  Cr36  1  0.87872000  0.71180000  0.87515700  1
  Cr  Cr37  1  0.87097600  0.04684600  0.87414800  1
  Cr  Cr38  1  0.62233400  0.79735800  0.12444600  1
  Cr  Cr39  1  0.62975600  0.46201400  0.12563900  1
  Cr  Cr40  1  0.62212200  0.79692500  0.62407500  1
  Cr  Cr41  1  0.62872900  0.46158000  0.62497600  1
  Cr  Cr42  1  0.37242800  0.53815500  0.37454900  1
  Cr  Cr43  1  0.37662000  0.20287400  0.37553100  1
  Cr  Cr44  1  0.37144300  0.20263000  0.87470700  1
  Cr  Cr45  1  0.12142600  0.95303700  0.12436600  1
  Cr  Cr46  1  0.13074900  0.28848500  0.12576300  1
  Cr  Cr47  1  0.12246100  0.95244400  0.62465400  1
  O  O48  1  0.96445600  0.10190700  0.06890000  1
  O  O49  1  0.93461300  0.78745000  0.06869100  1
  O  O50  1  0.92107100  0.42477600  0.06871500  1
  O  O51  1  0.96464400  0.10332600  0.56880600  1
  O  O52  1  0.81563700  0.96132600  0.18142600  1
  O  O53  1  0.82907600  0.32133800  0.18254800  1
  O  O54  1  0.93473600  0.78749500  0.56853300  1
  O  O55  1  0.91958100  0.42859300  0.56763400  1
  O  O56  1  0.78121800  0.64373400  0.18027900  1
  O  O57  1  0.71305200  0.85984500  0.31830400  1
  O  O58  1  0.81649300  0.95970600  0.68140900  1
  O  O59  1  0.82563300  0.32157600  0.68376000  1
  O  O60  1  0.67421800  0.53339900  0.31865900  1
  O  O61  1  0.68414900  0.17492200  0.31764100  1
  O  O62  1  0.78264600  0.64203000  0.67959900  1
  O  O63  1  0.71197100  0.86053700  0.81865800  1
  O  O64  1  0.46531800  0.61029400  0.06893900  1
  O  O65  1  0.57017300  0.71341600  0.43121600  1
  O  O66  1  0.56625500  0.07550100  0.43232100  1
  O  O67  1  0.68100400  0.53715500  0.81889200  1
  O  O68  1  0.68264400  0.17481000  0.81767700  1
  O  O69  1  0.43323100  0.92515300  0.06746000  1
  O  O70  1  0.42102700  0.28699100  0.06956000  1
  O  O71  1  0.53710500  0.38906700  0.43080900  1
  O  O72  1  0.46213800  0.61073100  0.56876100  1
  O  O73  1  0.57576300  0.71727900  0.93132100  1
  O  O74  1  0.56428500  0.07519200  0.93216700  1
  O  O75  1  0.31591800  0.82677600  0.18223100  1
  O  O76  1  0.32889500  0.46542500  0.18111300  1
  O  O77  1  0.43344900  0.92485600  0.56744600  1
  O  O78  1  0.43043700  0.28704100  0.56877600  1
  O  O79  1  0.53684700  0.39031700  0.93190700  1
  O  O80  1  0.28304600  0.14349500  0.18069300  1
  O  O81  1  0.21721700  0.35762300  0.32012000  1
  O  O82  1  0.31521100  0.82512700  0.68197800  1
  O  O83  1  0.32559000  0.46725300  0.68134800  1
  O  O84  1  0.17463800  0.67826500  0.31606600  1
  O  O85  1  0.18293600  0.03953100  0.31817300  1
  O  O86  1  0.28771800  0.14022700  0.68160500  1
  O  O87  1  0.21593500  0.35334300  0.81882100  1
  O  O88  1  0.08081900  0.57165800  0.43217100  1
  O  O89  1  0.06465300  0.21216300  0.43108200  1
  O  O90  1  0.16959800  0.67859200  0.81762300  1
  O  O91  1  0.18364700  0.03732300  0.81873300  1
  O  O92  1  0.03593300  0.89695000  0.43114200  1
  O  O93  1  0.07565000  0.57145100  0.93384200  1
  O  O94  1  0.06531900  0.20974300  0.93144700  1
  O  O95  1  0.03273800  0.89207400  0.92984500  1
