# generated using pymatgen
data_Li5SbS
_symmetry_space_group_name_H-M   'P 1'
_cell_length_a   8.14613300
_cell_length_b   8.39263400
_cell_length_c   16.47263566
_cell_angle_alpha   85.18954462
_cell_angle_beta   90.00000000
_cell_angle_gamma   90.00000000
_symmetry_Int_Tables_number   1
_chemical_formula_structural   Li5SbS
_chemical_formula_sum   'Li40 Sb8 S8'
_cell_volume   1122.22619576
_cell_formula_units_Z   8
loop_
 _symmetry_equiv_pos_site_id
 _symmetry_equiv_pos_as_xyz
  1  'x, y, z'
loop_
 _atom_site_type_symbol
 _atom_site_label
 _atom_site_symmetry_multiplicity
 _atom_site_fract_x
 _atom_site_fract_y
 _atom_site_fract_z
 _atom_site_occupancy
  Li  Li0  1  0.48745000  0.99900300  0.60837200  1
  Li  Li1  1  0.81186300  0.99363900  0.69906900  1
  Li  Li2  1  0.82531200  0.98594300  0.53281400  1
  Li  Li3  1  0.01255000  0.99900300  0.10837200  1
  Li  Li4  1  0.68813700  0.99363900  0.19906900  1
  Li  Li5  1  0.67468800  0.98594300  0.03281400  1
  Li  Li6  1  0.49771000  0.70287800  0.91221500  1
  Li  Li7  1  0.12182000  0.72408200  0.74424400  1
  Li  Li8  1  0.56977000  0.73892700  0.74847700  1
  Li  Li9  1  0.82958200  0.69186300  0.86517800  1
  Li  Li10  1  0.21207200  0.71552500  0.57740400  1
  Li  Li11  1  0.00229000  0.70287800  0.41221500  1
  Li  Li12  1  0.56788100  0.61833900  0.54234000  1
  Li  Li13  1  0.83009700  0.55086800  0.65272100  1
  Li  Li14  1  0.37818000  0.72408200  0.24424400  1
  Li  Li15  1  0.93023000  0.73892700  0.24847700  1
  Li  Li16  1  0.67041800  0.69186300  0.36517800  1
  Li  Li17  1  0.28792800  0.71552500  0.07740400  1
  Li  Li18  1  0.93211900  0.61833900  0.04234000  1
  Li  Li19  1  0.66990300  0.55086800  0.15272100  1
  Li  Li20  1  0.33009700  0.44913200  0.84727900  1
  Li  Li21  1  0.06788100  0.38166100  0.95766000  1
  Li  Li22  1  0.71207200  0.28447500  0.92259600  1
  Li  Li23  1  0.32958200  0.30813700  0.63482200  1
  Li  Li24  1  0.06977000  0.26107300  0.75152300  1
  Li  Li25  1  0.62182000  0.27591800  0.75575600  1
  Li  Li26  1  0.16990300  0.44913200  0.34727900  1
  Li  Li27  1  0.43211900  0.38166100  0.45766000  1
  Li  Li28  1  0.99771000  0.29712200  0.58778500  1
  Li  Li29  1  0.78792800  0.28447500  0.42259600  1
  Li  Li30  1  0.17041800  0.30813700  0.13482200  1
  Li  Li31  1  0.43023000  0.26107300  0.25152300  1
  Li  Li32  1  0.87818000  0.27591800  0.25575600  1
  Li  Li33  1  0.50229000  0.29712200  0.08778500  1
  Li  Li34  1  0.32531200  0.01405700  0.96718600  1
  Li  Li35  1  0.31186300  0.00636100  0.80093100  1
  Li  Li36  1  0.98745000  0.00099700  0.89162800  1
  Li  Li37  1  0.17468800  0.01405700  0.46718600  1
  Li  Li38  1  0.18813700  0.00636100  0.30093100  1
  Li  Li39  1  0.51255000  0.00099700  0.39162800  1
  Sb  Sb40  1  0.15015600  0.01165700  0.64282000  1
  Sb  Sb41  1  0.34984400  0.01165700  0.14282000  1
  Sb  Sb42  1  0.16032200  0.70754400  0.91692200  1
  Sb  Sb43  1  0.33967800  0.70754400  0.41692200  1
  Sb  Sb44  1  0.66032200  0.29245600  0.58307800  1
  Sb  Sb45  1  0.83967800  0.29245600  0.08307800  1
  Sb  Sb46  1  0.65015600  0.98834300  0.85718000  1
  Sb  Sb47  1  0.84984400  0.98834300  0.35718000  1
  S  S48  1  0.68890700  0.79439900  0.62267000  1
  S  S49  1  0.81109300  0.79439900  0.12267000  1
  S  S50  1  0.62244100  0.50282600  0.83365900  1
  S  S51  1  0.12244100  0.49717400  0.66634100  1
  S  S52  1  0.87755900  0.50282600  0.33365900  1
  S  S53  1  0.37755900  0.49717400  0.16634100  1
  S  S54  1  0.18890700  0.20560100  0.87733000  1
  S  S55  1  0.31109300  0.20560100  0.37733000  1
