# generated using pymatgen
data_Li3Mn4F19
_symmetry_space_group_name_H-M   'P 1'
_cell_length_a   5.58639000
_cell_length_b   11.12503741
_cell_length_c   12.13165093
_cell_angle_alpha   114.65865690
_cell_angle_beta   92.71403295
_cell_angle_gamma   93.77267734
_symmetry_Int_Tables_number   1
_chemical_formula_structural   Li3Mn4F19
_chemical_formula_sum   'Li6 Mn8 F38'
_cell_volume   681.39786587
_cell_formula_units_Z   2
loop_
 _symmetry_equiv_pos_site_id
 _symmetry_equiv_pos_as_xyz
  1  'x, y, z'
loop_
 _atom_site_type_symbol
 _atom_site_label
 _atom_site_symmetry_multiplicity
 _atom_site_fract_x
 _atom_site_fract_y
 _atom_site_fract_z
 _atom_site_occupancy
  Li  Li0  1  0.60456100  0.13745400  0.08167300  1
  Li  Li1  1  0.95654100  0.75957300  0.54036000  1
  Li  Li2  1  0.86632600  0.46343800  0.77540800  1
  Li  Li3  1  0.13367400  0.53656200  0.22459200  1
  Li  Li4  1  0.04345900  0.24042700  0.45964000  1
  Li  Li5  1  0.39543900  0.86254600  0.91832700  1
  Mn  Mn6  1  0.09901200  0.01421900  0.20509000  1
  Mn  Mn7  1  0.61910700  0.43203300  0.37881500  1
  Mn  Mn8  1  0.78286700  0.67100100  0.02649400  1
  Mn  Mn9  1  0.51888800  0.13239400  0.62373400  1
  Mn  Mn10  1  0.48111200  0.86760600  0.37626600  1
  Mn  Mn11  1  0.21713300  0.32899900  0.97350600  1
  Mn  Mn12  1  0.38089300  0.56796700  0.62118500  1
  Mn  Mn13  1  0.90098800  0.98578100  0.79491000  1
  F  F14  1  0.31333600  0.20098400  0.55240800  1
  F  F15  1  0.11471100  0.97868200  0.68841700  1
  F  F16  1  0.33846300  0.00413100  0.10000100  1
  F  F17  1  0.39588500  0.22084800  0.76762500  1
  F  F18  1  0.44759700  0.24079100  0.00677200  1
  F  F19  1  0.58463200  0.27736200  0.24593800  1
  F  F20  1  0.63315700  0.51369100  0.92414700  1
  F  F21  1  0.64374000  0.59564000  0.52725200  1
  F  F22  1  0.80467300  0.81662900  0.69494500  1
  F  F23  1  0.59980700  0.50091500  0.68867800  1
  F  F24  1  0.99487900  0.82948800  0.11760200  1
  F  F25  1  0.81217800  0.35693500  0.45350600  1
  F  F26  1  0.86573500  0.49948200  0.32512600  1
  F  F27  1  0.92830200  0.59649200  0.11404600  1
  F  F28  1  0.76184900  0.26088000  0.66352700  1
  F  F29  1  0.67417700  0.03529700  0.69698800  1
  F  F30  1  0.10972800  0.93746300  0.88159800  1
  F  F31  1  0.96633600  0.65707500  0.90645500  1
  F  F32  1  0.67546400  0.04336300  0.47763600  1
  F  F33  1  0.32453600  0.95663700  0.52236400  1
  F  F34  1  0.03366400  0.34292500  0.09354500  1
  F  F35  1  0.89027200  0.06253700  0.11840200  1
  F  F36  1  0.32582300  0.96470300  0.30301200  1
  F  F37  1  0.23815100  0.73912000  0.33647300  1
  F  F38  1  0.07169800  0.40350800  0.88595400  1
  F  F39  1  0.13426500  0.50051800  0.67487400  1
  F  F40  1  0.18782200  0.64306500  0.54649400  1
  F  F41  1  0.00512100  0.17051200  0.88239800  1
  F  F42  1  0.40019300  0.49908500  0.31132200  1
  F  F43  1  0.19532700  0.18337100  0.30505500  1
  F  F44  1  0.35626000  0.40436000  0.47274800  1
  F  F45  1  0.36684300  0.48630900  0.07585300  1
  F  F46  1  0.41536800  0.72263800  0.75406200  1
  F  F47  1  0.55240300  0.75920900  0.99322800  1
  F  F48  1  0.60411500  0.77915200  0.23237500  1
  F  F49  1  0.66153700  0.99586900  0.89999900  1
  F  F50  1  0.88528900  0.02131800  0.31158300  1
  F  F51  1  0.68666400  0.79901600  0.44759200  1
