# generated using pymatgen
data_LiAgF3
_symmetry_space_group_name_H-M   'P 1'
_cell_length_a   5.42523069
_cell_length_b   5.70432528
_cell_length_c   5.46548579
_cell_angle_alpha   63.51466733
_cell_angle_beta   61.99839103
_cell_angle_gamma   85.85289081
_symmetry_Int_Tables_number   1
_chemical_formula_structural   LiAgF3
_chemical_formula_sum   'Li2 Ag2 F6'
_cell_volume   131.64187130
_cell_formula_units_Z   2
loop_
 _symmetry_equiv_pos_site_id
 _symmetry_equiv_pos_as_xyz
  1  'x, y, z'
loop_
 _atom_site_type_symbol
 _atom_site_label
 _atom_site_symmetry_multiplicity
 _atom_site_fract_x
 _atom_site_fract_y
 _atom_site_fract_z
 _atom_site_occupancy
  Li  Li0  1  0.37495683  0.06411724  0.28452520  1
  Li  Li1  1  0.62495516  0.93570939  0.71562011  1
  Ag  Ag2  1  0.16172342  0.45830281  0.69570586  1
  Ag  Ag3  1  0.83824217  0.54159315  0.30436160  1
  F  F4  1  0.06164493  0.24772046  0.49500786  1
  F  F5  1  0.59151131  0.79551459  0.13465406  1
  F  F6  1  0.29715262  0.76188919  0.75600172  1
  F  F7  1  0.70285528  0.23825527  0.24386138  1
  F  F8  1  0.40855561  0.20456872  0.86533036  1
  F  F9  1  0.93840267  0.75233019  0.50493184  1
