# generated using pymatgen
data_Li2Si5Ni5O16
_symmetry_space_group_name_H-M   'P 1'
_cell_length_a   4.92555300
_cell_length_b   7.00786152
_cell_length_c   10.06297120
_cell_angle_alpha   89.23726447
_cell_angle_beta   89.96751730
_cell_angle_gamma   89.95136957
_symmetry_Int_Tables_number   1
_chemical_formula_structural   Li2Si5Ni5O16
_chemical_formula_sum   'Li2 Si5 Ni5 O16'
_cell_volume   347.31859160
_cell_formula_units_Z   1
loop_
 _symmetry_equiv_pos_site_id
 _symmetry_equiv_pos_as_xyz
  1  'x, y, z'
loop_
 _atom_site_type_symbol
 _atom_site_label
 _atom_site_symmetry_multiplicity
 _atom_site_fract_x
 _atom_site_fract_y
 _atom_site_fract_z
 _atom_site_occupancy
  Li  Li0  1  0.33983500  0.50343200  0.33816800  1
  Li  Li1  1  0.81721400  0.99746300  0.14335800  1
  Si  Si2  1  0.30357400  0.98797500  0.33623600  1
  Si  Si3  1  0.17992900  0.76600800  0.59250900  1
  Si  Si4  1  0.33292000  0.74103500  0.09851400  1
  Si  Si5  1  0.68504300  0.25859000  0.90906900  1
  Si  Si6  1  0.79749000  0.23250400  0.40681400  1
  Ni  Ni7  1  0.19166400  0.01250400  0.85571900  1
  Ni  Ni8  1  0.19550700  0.51647300  0.84743500  1
  Ni  Ni9  1  0.69678200  0.49787300  0.64417800  1
  Ni  Ni10  1  0.81714200  0.49604000  0.15168800  1
  Ni  Ni11  1  0.68996300  0.99950400  0.66156300  1
  O  O12  1  0.29341800  0.95277200  0.66952400  1
  O  O13  1  0.21261400  0.93283800  0.18471700  1
  O  O14  1  0.23033000  0.76325600  0.94387000  1
  O  O15  1  0.84964300  0.75412000  0.60602600  1
  O  O16  1  0.65825400  0.75115000  0.11712900  1
  O  O17  1  0.26506400  0.79570900  0.43166300  1
  O  O18  1  0.30348400  0.56616700  0.65186300  1
  O  O19  1  0.20864100  0.54852000  0.16466000  1
  O  O20  1  0.72355300  0.43493400  0.34042800  1
  O  O21  1  0.80533800  0.44994200  0.83143400  1
  O  O22  1  0.35423300  0.26428400  0.88219100  1
  O  O23  1  0.73500200  0.24174600  0.56530300  1
  O  O24  1  0.12105000  0.17222100  0.38145100  1
  O  O25  1  0.77131900  0.24909700  0.06414600  1
  O  O26  1  0.62402000  0.05268900  0.33984100  1
  O  O27  1  0.79697600  0.06115700  0.84050700  1
