# generated using pymatgen
data_Li2Ti3MnO8
_symmetry_space_group_name_H-M   'P 1'
_cell_length_a   5.96842600
_cell_length_b   10.33775300
_cell_length_c   9.93601800
_cell_angle_alpha   89.99991552
_cell_angle_beta   89.99984247
_cell_angle_gamma   89.99945963
_symmetry_Int_Tables_number   1
_chemical_formula_structural   Li2Ti3MnO8
_chemical_formula_sum   'Li8 Ti12 Mn4 O32'
_cell_volume   613.05344117
_cell_formula_units_Z   4
loop_
 _symmetry_equiv_pos_site_id
 _symmetry_equiv_pos_as_xyz
  1  'x, y, z'
loop_
 _atom_site_type_symbol
 _atom_site_label
 _atom_site_symmetry_multiplicity
 _atom_site_fract_x
 _atom_site_fract_y
 _atom_site_fract_z
 _atom_site_occupancy
  Li  Li0  1  0.99999700  0.33335100  0.88871400  1
  Li  Li1  1  0.49998900  0.83335400  0.88871100  1
  Li  Li2  1  0.49999100  0.16666500  0.38871400  1
  Li  Li3  1  0.00000500  0.66665900  0.38871000  1
  Li  Li4  1  0.99999900  0.99999700  0.99906300  1
  Li  Li5  1  0.49999200  0.49999400  0.99906500  1
  Li  Li6  1  0.00000500  0.00001300  0.49906600  1
  Li  Li7  1  0.49999600  0.50001200  0.49906500  1
  Ti  Ti8  1  0.75270500  0.41575800  0.21575200  1
  Ti  Ti9  1  0.25269900  0.91574900  0.21575600  1
  Ti  Ti10  1  0.99999600  0.16849300  0.21571400  1
  Ti  Ti11  1  0.49998000  0.66847700  0.21570400  1
  Ti  Ti12  1  0.24729400  0.41576100  0.21573000  1
  Ti  Ti13  1  0.74730200  0.91575000  0.21573500  1
  Ti  Ti14  1  0.25270700  0.08424300  0.71574200  1
  Ti  Ti15  1  0.75270300  0.58423200  0.71572700  1
  Ti  Ti16  1  0.50000300  0.33150200  0.71573800  1
  Ti  Ti17  1  0.00002100  0.83151200  0.71572800  1
  Ti  Ti18  1  0.74729600  0.08424500  0.71573400  1
  Ti  Ti19  1  0.24730500  0.58423500  0.71572200  1
  Mn  Mn20  1  0.50020800  0.83343300  0.49673500  1
  Mn  Mn21  1  0.99985500  0.66666900  0.99665100  1
  Mn  Mn22  1  0.99994000  0.33335100  0.49677000  1
  Mn  Mn23  1  0.50000500  0.16661000  0.99683100  1
  O  O24  1  0.99998700  0.33332800  0.10624700  1
  O  O25  1  0.49999400  0.83333500  0.10624600  1
  O  O26  1  0.49999600  0.16668200  0.60624500  1
  O  O27  1  0.99998800  0.66667900  0.60624900  1
  O  O28  1  0.99998700  0.99999800  0.31612100  1
  O  O29  1  0.49999400  0.49999800  0.31612500  1
  O  O30  1  0.99998900  0.00000800  0.81612300  1
  O  O31  1  0.49999600  0.50001400  0.81612300  1
  O  O32  1  0.73249500  0.42250200  0.60863900  1
  O  O33  1  0.23250400  0.92250500  0.60863900  1
  O  O34  1  0.99998400  0.15502300  0.60864700  1
  O  O35  1  0.49999700  0.65502600  0.60864800  1
  O  O36  1  0.23248200  0.07750900  0.10864700  1
  O  O37  1  0.73247800  0.57751500  0.10864000  1
  O  O38  1  0.26749100  0.42250700  0.60864400  1
  O  O39  1  0.76750000  0.92250800  0.60864200  1
  O  O40  1  0.49998900  0.34498100  0.10865200  1
  O  O41  1  0.99998000  0.84498700  0.10864200  1
  O  O42  1  0.76750200  0.07751100  0.10864300  1
  O  O43  1  0.26748800  0.57751300  0.10863500  1
  O  O44  1  0.77455000  0.25818200  0.32463900  1
  O  O45  1  0.27455200  0.75818800  0.32463300  1
  O  O46  1  0.99998500  0.48363000  0.32463200  1
  O  O47  1  0.49999300  0.98364000  0.32463000  1
  O  O48  1  0.22542500  0.25818300  0.32463700  1
  O  O49  1  0.72543500  0.75819000  0.32463900  1
  O  O50  1  0.27455300  0.24183200  0.82463300  1
  O  O51  1  0.77455300  0.74183200  0.82463600  1
  O  O52  1  0.49999200  0.01638000  0.82463200  1
  O  O53  1  0.99998500  0.51638000  0.82462800  1
  O  O54  1  0.72543000  0.24183200  0.82463900  1
  O  O55  1  0.22542600  0.74183200  0.82463600  1
