# generated using pymatgen
data_Li3V2F12
_symmetry_space_group_name_H-M   'P 1'
_cell_length_a   8.84241100
_cell_length_b   5.03045500
_cell_length_c   9.72815648
_cell_angle_alpha   88.37122966
_cell_angle_beta   90.00000000
_cell_angle_gamma   90.00000000
_symmetry_Int_Tables_number   1
_chemical_formula_structural   Li3V2F12
_chemical_formula_sum   'Li6 V4 F24'
_cell_volume   432.54670628
_cell_formula_units_Z   2
loop_
 _symmetry_equiv_pos_site_id
 _symmetry_equiv_pos_as_xyz
  1  'x, y, z'
loop_
 _atom_site_type_symbol
 _atom_site_label
 _atom_site_symmetry_multiplicity
 _atom_site_fract_x
 _atom_site_fract_y
 _atom_site_fract_z
 _atom_site_occupancy
  Li  Li0  1  0.39284600  0.98405600  0.89171500  1
  Li  Li1  1  0.85008900  0.50349100  0.61768700  1
  Li  Li2  1  0.31496900  0.01797200  0.60229800  1
  Li  Li3  1  0.60715400  0.98405600  0.39171500  1
  Li  Li4  1  0.14991100  0.50349100  0.11768700  1
  Li  Li5  1  0.68503100  0.01797200  0.10229800  1
  V  V6  1  0.00716100  0.00234200  0.86840400  1
  V  V7  1  0.50616300  0.49726300  0.63302900  1
  V  V8  1  0.99283900  0.00234200  0.36840400  1
  V  V9  1  0.49383700  0.49726300  0.13302900  1
  F  F10  1  0.13922700  0.17728900  0.97860300  1
  F  F11  1  0.01852400  0.71177600  0.98342000  1
  F  F12  1  0.85164100  0.12491300  0.96906900  1
  F  F13  1  0.17286400  0.88507600  0.77436700  1
  F  F14  1  0.99664600  0.28967300  0.75193200  1
  F  F15  1  0.88545200  0.82182200  0.75648500  1
  F  F16  1  0.49394000  0.78592100  0.75048200  1
  F  F17  1  0.36865000  0.28933000  0.74122900  1
  F  F18  1  0.67360700  0.35212900  0.71697200  1
  F  F19  1  0.35159600  0.66298400  0.53728200  1
  F  F20  1  0.49110300  0.20190000  0.51201300  1
  F  F21  1  0.65545400  0.67912000  0.52022800  1
  F  F22  1  0.86077300  0.17728900  0.47860300  1
  F  F23  1  0.98147600  0.71177600  0.48342000  1
  F  F24  1  0.14835900  0.12491300  0.46906900  1
  F  F25  1  0.82713600  0.88507600  0.27436700  1
  F  F26  1  0.00335400  0.28967300  0.25193200  1
  F  F27  1  0.11454800  0.82182200  0.25648500  1
  F  F28  1  0.50606000  0.78592100  0.25048200  1
  F  F29  1  0.63135000  0.28933000  0.24122900  1
  F  F30  1  0.32639300  0.35212900  0.21697200  1
  F  F31  1  0.64840400  0.66298400  0.03728200  1
  F  F32  1  0.50889700  0.20190000  0.01201300  1
  F  F33  1  0.34454600  0.67912000  0.02022800  1
