# generated using pymatgen
data_Li4Mn(BO3)2
_symmetry_space_group_name_H-M   'P 1'
_cell_length_a   3.36988000
_cell_length_b   18.72569400
_cell_length_c   7.97188500
_cell_angle_alpha   90.00229522
_cell_angle_beta   89.99993006
_cell_angle_gamma   90.00024141
_symmetry_Int_Tables_number   1
_chemical_formula_structural   Li4Mn(BO3)2
_chemical_formula_sum   'Li16 Mn4 B8 O24'
_cell_volume   503.05258292
_cell_formula_units_Z   4
loop_
 _symmetry_equiv_pos_site_id
 _symmetry_equiv_pos_as_xyz
  1  'x, y, z'
loop_
 _atom_site_type_symbol
 _atom_site_label
 _atom_site_symmetry_multiplicity
 _atom_site_fract_x
 _atom_site_fract_y
 _atom_site_fract_z
 _atom_site_occupancy
  Li  Li0  1  0.50000100  0.02780500  0.17060300  1
  Li  Li1  1  0.49997600  0.52779700  0.17068800  1
  Li  Li2  1  0.99998500  0.22214500  0.67078100  1
  Li  Li3  1  0.99996900  0.72220500  0.67056200  1
  Li  Li4  1  0.99997800  0.27780900  0.32954000  1
  Li  Li5  1  0.99997300  0.77782800  0.32907500  1
  Li  Li6  1  0.49997700  0.47213700  0.82934500  1
  Li  Li7  1  0.49999900  0.97219600  0.82905700  1
  Li  Li8  1  0.99998400  0.10129300  0.00698500  1
  Li  Li9  1  0.99996300  0.60128100  0.00702600  1
  Li  Li10  1  0.49998300  0.14871900  0.50703000  1
  Li  Li11  1  0.49996600  0.64878500  0.50696200  1
  Li  Li12  1  0.49997100  0.35134900  0.49322600  1
  Li  Li13  1  0.49998600  0.85120800  0.49297900  1
  Li  Li14  1  0.99997200  0.39866300  0.99313900  1
  Li  Li15  1  0.99997800  0.89874800  0.99298500  1
  Mn  Mn16  1  0.00012400  0.00017600  0.49968500  1
  Mn  Mn17  1  0.50002100  0.74997400  0.99937800  1
  Mn  Mn18  1  0.00023600  0.50024300  0.49967700  1
  Mn  Mn19  1  0.50010300  0.24985800  0.00026800  1
  B  B20  1  0.50002200  0.10066900  0.76831600  1
  B  B21  1  0.50000200  0.60067600  0.76840800  1
  B  B22  1  0.00001600  0.14935500  0.26850500  1
  B  B23  1  0.99998200  0.64936500  0.26838100  1
  B  B24  1  0.00000200  0.35061300  0.73170100  1
  B  B25  1  0.99999400  0.85062900  0.73158200  1
  B  B26  1  0.50000900  0.39938700  0.23176600  1
  B  B27  1  0.50001500  0.89928800  0.23166600  1
  O  O28  1  0.50008800  0.05702600  0.62283700  1
  O  O29  1  0.50000500  0.55708200  0.62285100  1
  O  O30  1  0.00002800  0.19300000  0.12286100  1
  O  O31  1  0.99998800  0.69294200  0.12282600  1
  O  O32  1  0.00002700  0.30702900  0.87722400  1
  O  O33  1  0.99998900  0.80701600  0.87715000  1
  O  O34  1  0.49999500  0.44300700  0.37727800  1
  O  O35  1  0.50009200  0.94289500  0.37719000  1
  O  O36  1  0.00000800  0.07537000  0.25097900  1
  O  O37  1  0.99997700  0.57536300  0.25079700  1
  O  O38  1  0.49998600  0.17463000  0.75074900  1
  O  O39  1  0.49996100  0.67466200  0.75091000  1
  O  O40  1  0.49997500  0.32542700  0.24939100  1
  O  O41  1  0.49997300  0.82533300  0.24917300  1
  O  O42  1  0.99997300  0.42458300  0.74940700  1
  O  O43  1  0.00000500  0.92459900  0.74912300  1
  O  O44  1  0.49997700  0.06871600  0.92301600  1
  O  O45  1  0.49995100  0.56872400  0.92305100  1
  O  O46  1  0.99997700  0.18125000  0.42307200  1
  O  O47  1  0.99996200  0.68126500  0.42303700  1
  O  O48  1  0.99996200  0.31874300  0.57699100  1
  O  O49  1  0.99998000  0.81869600  0.57691600  1
  O  O50  1  0.49996100  0.43119600  0.07695700  1
  O  O51  1  0.49997400  0.93124600  0.07689900  1
