# generated using pymatgen
data_Li4Mn3Ni2Sn3O16
_symmetry_space_group_name_H-M   'P 1'
_cell_length_a   6.04393689
_cell_length_b   6.04393689
_cell_length_c   9.69790682
_cell_angle_alpha   89.60850632
_cell_angle_beta   89.60850632
_cell_angle_gamma   59.98983229
_symmetry_Int_Tables_number   1
_chemical_formula_structural   Li4Mn3Ni2Sn3O16
_chemical_formula_sum   'Li4 Mn3 Ni2 Sn3 O16'
_cell_volume   306.75415773
_cell_formula_units_Z   1
loop_
 _symmetry_equiv_pos_site_id
 _symmetry_equiv_pos_as_xyz
  1  'x, y, z'
loop_
 _atom_site_type_symbol
 _atom_site_label
 _atom_site_symmetry_multiplicity
 _atom_site_fract_x
 _atom_site_fract_y
 _atom_site_fract_z
 _atom_site_occupancy
  Li  Li0  1  0.67331400  0.67331400  0.88203600  1
  Li  Li1  1  0.98431900  0.98431900  0.99555900  1
  Li  Li2  1  0.98821400  0.98821400  0.50257600  1
  Li  Li3  1  0.33843600  0.33843600  0.39182200  1
  Mn  Mn4  1  0.83155500  0.83155500  0.21674800  1
  Mn  Mn5  1  0.66245400  0.17003400  0.71511300  1
  Mn  Mn6  1  0.17003400  0.66245400  0.71511300  1
  Ni  Ni7  1  0.66745400  0.66745400  0.49222000  1
  Ni  Ni8  1  0.33559400  0.33559400  0.98589300  1
  Sn  Sn9  1  0.83263100  0.33867000  0.21439300  1
  Sn  Sn10  1  0.33867000  0.83263100  0.21439300  1
  Sn  Sn11  1  0.16962800  0.16962800  0.71397600  1
  O  O12  1  0.83238600  0.31392600  0.60250100  1
  O  O13  1  0.51841600  0.51841600  0.34239200  1
  O  O14  1  0.67912300  0.67912300  0.09937000  1
  O  O15  1  0.98979000  0.98979000  0.31874800  1
  O  O16  1  0.98953100  0.98953100  0.81186100  1
  O  O17  1  0.31392600  0.83238600  0.60250100  1
  O  O18  1  0.96760500  0.52959000  0.33629200  1
  O  O19  1  0.52959000  0.96760500  0.33629200  1
  O  O20  1  0.15628500  0.15628500  0.09190100  1
  O  O21  1  0.83965200  0.83965200  0.61287700  1
  O  O22  1  0.49483800  0.03897600  0.83416500  1
  O  O23  1  0.03897600  0.49483800  0.83416500  1
  O  O24  1  0.34575900  0.34575900  0.60639900  1
  O  O25  1  0.67960400  0.14865600  0.10536700  1
  O  O26  1  0.48280800  0.48280800  0.82779400  1
  O  O27  1  0.14865600  0.67960400  0.10536700  1
