# generated using pymatgen
data_Li4MnV(PO4)3
_symmetry_space_group_name_H-M   'P 1'
_cell_length_a   9.26162285
_cell_length_b   8.43861701
_cell_length_c   8.41646338
_cell_angle_alpha   60.71471075
_cell_angle_beta   63.05811682
_cell_angle_gamma   90.53487621
_symmetry_Int_Tables_number   1
_chemical_formula_structural   Li4MnV(PO4)3
_chemical_formula_sum   'Li8 Mn2 V2 P6 O24'
_cell_volume   488.36792031
_cell_formula_units_Z   2
loop_
 _symmetry_equiv_pos_site_id
 _symmetry_equiv_pos_as_xyz
  1  'x, y, z'
loop_
 _atom_site_type_symbol
 _atom_site_label
 _atom_site_symmetry_multiplicity
 _atom_site_fract_x
 _atom_site_fract_y
 _atom_site_fract_z
 _atom_site_occupancy
  Li  Li0  1  0.86531000  0.26521200  0.80483500  1
  Li  Li1  1  0.90035500  0.93843100  0.36876500  1
  Li  Li2  1  0.85138900  0.65901900  0.07281100  1
  Li  Li3  1  0.58877300  0.79362600  0.67156900  1
  Li  Li4  1  0.41040500  0.20140400  0.32498900  1
  Li  Li5  1  0.14445700  0.33947500  0.93485000  1
  Li  Li6  1  0.09902200  0.06403700  0.62839900  1
  Li  Li7  1  0.13821100  0.72985400  0.19359100  1
  Mn  Mn8  1  0.56328800  0.85084700  0.28698800  1
  Mn  Mn9  1  0.03178200  0.35140300  0.31127300  1
  V  V10  1  0.96274300  0.64801200  0.69297600  1
  V  V11  1  0.43911100  0.15094700  0.70853300  1
  P  P12  1  0.74788600  0.94809900  0.79169500  1
  P  P13  1  0.75044700  0.54640800  0.50755800  1
  P  P14  1  0.75949500  0.25083900  0.19415700  1
  P  P15  1  0.24315900  0.75446500  0.79614700  1
  P  P16  1  0.25158700  0.45709000  0.49706100  1
  P  P17  1  0.25265600  0.04597600  0.21083500  1
  O  O18  1  0.88922500  0.14014000  0.65625800  1
  O  O19  1  0.81657800  0.50004700  0.66276900  1
  O  O20  1  0.80630600  0.83173400  0.68467200  1
  O  O21  1  0.89600100  0.56819800  0.30100300  1
  O  O22  1  0.90082100  0.20201800  0.24651100  1
  O  O23  1  0.71754200  0.74224300  0.44322100  1
  O  O24  1  0.58215800  0.97880200  0.79396800  1
  O  O25  1  0.59096600  0.38581900  0.61947400  1
  O  O26  1  0.81763000  0.46928700  0.01733000  1
  O  O27  1  0.73816600  0.13460100  0.10843200  1
  O  O28  1  0.58933100  0.20756400  0.39244600  1
  O  O29  1  0.72745800  0.83685400  0.01222900  1
  O  O30  1  0.26749600  0.14441500  0.98817000  1
  O  O31  1  0.41464800  0.81253500  0.60005000  1
  O  O32  1  0.25633200  0.88213400  0.87868300  1
  O  O33  1  0.18764600  0.54254100  0.97000200  1
  O  O34  1  0.41320900  0.59759500  0.39985400  1
  O  O35  1  0.41935900  0.02537000  0.19393000  1
  O  O36  1  0.27502300  0.24945700  0.58517400  1
  O  O37  1  0.09935300  0.79696700  0.73932000  1
  O  O38  1  0.09992100  0.44573800  0.69957800  1
  O  O39  1  0.19387100  0.16268300  0.31297600  1
  O  O40  1  0.19386600  0.49968800  0.33919800  1
  O  O41  1  0.10701700  0.84843100  0.35771900  1
