# generated using pymatgen
data_Li4CrH8SO7
_symmetry_space_group_name_H-M   'P 1'
_cell_length_a   13.15412000
_cell_length_b   5.35777600
_cell_length_c   10.54289254
_cell_angle_alpha   74.92902081
_cell_angle_beta   90.00000000
_cell_angle_gamma   90.00000000
_symmetry_Int_Tables_number   1
_chemical_formula_structural   Li4CrH8SO7
_chemical_formula_sum   'Li16 Cr4 H32 S4 O28'
_cell_volume   717.47271937
_cell_formula_units_Z   4
loop_
 _symmetry_equiv_pos_site_id
 _symmetry_equiv_pos_as_xyz
  1  'x, y, z'
loop_
 _atom_site_type_symbol
 _atom_site_label
 _atom_site_symmetry_multiplicity
 _atom_site_fract_x
 _atom_site_fract_y
 _atom_site_fract_z
 _atom_site_occupancy
  Li  Li0  1  0.69835500  0.98697700  0.75920500  1
  Li  Li1  1  0.04901200  0.74848800  0.99206000  1
  Li  Li2  1  0.28027000  0.75129000  0.97770900  1
  Li  Li3  1  0.80164500  0.98697700  0.25920500  1
  Li  Li4  1  0.45098800  0.74848800  0.49206000  1
  Li  Li5  1  0.21973000  0.75129000  0.47770900  1
  Li  Li6  1  0.78322100  0.50173200  0.77769800  1
  Li  Li7  1  0.28322100  0.49826800  0.72230200  1
  Li  Li8  1  0.71677900  0.50173200  0.27769800  1
  Li  Li9  1  0.21677900  0.49826800  0.22230200  1
  Li  Li10  1  0.78027000  0.24871000  0.52229100  1
  Li  Li11  1  0.54901200  0.25151200  0.50794000  1
  Li  Li12  1  0.19835500  0.01302300  0.74079500  1
  Li  Li13  1  0.71973000  0.24871000  0.02229100  1
  Li  Li14  1  0.95098800  0.25151200  0.00794000  1
  Li  Li15  1  0.30164500  0.01302300  0.24079500  1
  Cr  Cr16  1  0.68575100  0.75032100  0.51659800  1
  Cr  Cr17  1  0.81424900  0.75032100  0.01659800  1
  Cr  Cr18  1  0.18575100  0.24967900  0.98340200  1
  Cr  Cr19  1  0.31424900  0.24967900  0.48340200  1
  H  H20  1  0.35819300  0.86413600  0.67084100  1
  H  H21  1  0.45925400  0.78526300  0.85344400  1
  H  H22  1  0.93161100  0.74860400  0.82044700  1
  H  H23  1  0.85839100  0.85431400  0.62052600  1
  H  H24  1  0.63754700  0.66549300  0.93793100  1
  H  H25  1  0.54065400  0.76649200  0.68595700  1
  H  H26  1  0.11941700  0.60434400  0.80412000  1
  H  H27  1  0.14180700  0.86413600  0.17084100  1
  H  H28  1  0.04074600  0.78526300  0.35344400  1
  H  H29  1  0.56838900  0.74860400  0.32044700  1
  H  H30  1  0.64160900  0.85431400  0.12052600  1
  H  H31  1  0.46143700  0.48020700  0.86069900  1
  H  H32  1  0.86245300  0.66549300  0.43793100  1
  H  H33  1  0.95934600  0.76649200  0.18595700  1
  H  H34  1  0.96143700  0.51979300  0.63930100  1
  H  H35  1  0.61941700  0.39565600  0.69588000  1
  H  H36  1  0.38058300  0.60434400  0.30412000  1
  H  H37  1  0.03856300  0.48020700  0.36069900  1
  H  H38  1  0.04065400  0.23350800  0.81404300  1
  H  H39  1  0.13754700  0.33450700  0.56206900  1
  H  H40  1  0.53856300  0.51979300  0.13930100  1
  H  H41  1  0.35839100  0.14568600  0.87947400  1
  H  H42  1  0.43161100  0.25139600  0.67955300  1
  H  H43  1  0.95925400  0.21473700  0.64655600  1
  H  H44  1  0.85819300  0.13586400  0.82915900  1
  H  H45  1  0.88058300  0.39565600  0.19588000  1
  H  H46  1  0.45934600  0.23350800  0.31404300  1
  H  H47  1  0.36245300  0.33450700  0.06206900  1
  H  H48  1  0.14160900  0.14568600  0.37947400  1
  H  H49  1  0.06838900  0.25139600  0.17955300  1
  H  H50  1  0.54074600  0.21473700  0.14655600  1
  H  H51  1  0.64180700  0.13586400  0.32915900  1
  S  S52  1  0.02639000  0.90577700  0.59539100  1
  S  S53  1  0.47361000  0.90577700  0.09539100  1
  S  S54  1  0.52639000  0.09422300  0.90460900  1
  S  S55  1  0.97361000  0.09422300  0.40460900  1
  O  O56  1  0.30262000  0.89223600  0.60699600  1
  O  O57  1  0.57596100  0.88753400  0.61417300  1
  O  O58  1  0.78494600  0.86836300  0.63632200  1
  O  O59  1  0.70502800  0.61909300  0.91372100  1
  O  O60  1  0.91840800  0.62523300  0.90508100  1
  O  O61  1  0.42087100  0.64223300  0.82903500  1
  O  O62  1  0.18065100  0.60955500  0.85526200  1
  O  O63  1  0.19738000  0.89223600  0.10699600  1
  O  O64  1  0.92403900  0.88753400  0.11417300  1
  O  O65  1  0.71505400  0.86836300  0.13632200  1
  O  O66  1  0.79497200  0.61909300  0.41372100  1
  O  O67  1  0.58159200  0.62523300  0.40508100  1
  O  O68  1  0.07912900  0.64223300  0.32903500  1
  O  O69  1  0.31934900  0.60955500  0.35526200  1
  O  O70  1  0.68065100  0.39044500  0.64473800  1
  O  O71  1  0.92087100  0.35776700  0.67096500  1
  O  O72  1  0.41840800  0.37476700  0.59491900  1
  O  O73  1  0.20502800  0.38090700  0.58627900  1
  O  O74  1  0.28494600  0.13163700  0.86367800  1
  O  O75  1  0.07596100  0.11246600  0.88582700  1
  O  O76  1  0.80262000  0.10776400  0.89300400  1
  O  O77  1  0.81934900  0.39044500  0.14473800  1
  O  O78  1  0.57912900  0.35776700  0.17096500  1
  O  O79  1  0.08159200  0.37476700  0.09491900  1
  O  O80  1  0.29497200  0.38090700  0.08627900  1
  O  O81  1  0.21505400  0.13163700  0.36367800  1
  O  O82  1  0.42403900  0.11246600  0.38582700  1
  O  O83  1  0.69738000  0.10776400  0.39300400  1
