# generated using pymatgen
data_Li7V(O2F)2
_symmetry_space_group_name_H-M   'P 1'
_cell_length_a   5.53262605
_cell_length_b   9.91042776
_cell_length_c   10.43265666
_cell_angle_alpha   105.65815364
_cell_angle_beta   91.57916032
_cell_angle_gamma   74.77344644
_symmetry_Int_Tables_number   1
_chemical_formula_structural   Li7V(O2F)2
_chemical_formula_sum   'Li28 V4 O16 F8'
_cell_volume   530.88709720
_cell_formula_units_Z   4
loop_
 _symmetry_equiv_pos_site_id
 _symmetry_equiv_pos_as_xyz
  1  'x, y, z'
loop_
 _atom_site_type_symbol
 _atom_site_label
 _atom_site_symmetry_multiplicity
 _atom_site_fract_x
 _atom_site_fract_y
 _atom_site_fract_z
 _atom_site_occupancy
  Li  Li0  1  0.04223000  0.26507300  0.93732700  1
  Li  Li1  1  0.54217900  0.26546500  0.43753200  1
  Li  Li2  1  0.29229900  0.76513000  0.18716400  1
  Li  Li3  1  0.79200100  0.76513500  0.68734200  1
  Li  Li4  1  0.24555900  0.12543300  0.72916000  1
  Li  Li5  1  0.74569900  0.12529200  0.22936800  1
  Li  Li6  1  0.49567900  0.62530800  0.97886400  1
  Li  Li7  1  0.99555100  0.62566600  0.47919500  1
  Li  Li8  1  0.14427600  0.46178100  0.90517700  1
  Li  Li9  1  0.64418700  0.46242200  0.40546300  1
  Li  Li10  1  0.39414600  0.96215900  0.15534300  1
  Li  Li11  1  0.89408000  0.96218700  0.65528500  1
  Li  Li12  1  0.36300300  0.31165200  0.65218300  1
  Li  Li13  1  0.86318000  0.31124500  0.15183300  1
  Li  Li14  1  0.61263900  0.81148800  0.90164000  1
  Li  Li15  1  0.11330500  0.81145800  0.40159800  1
  Li  Li16  1  0.62084500  0.06264200  0.84512800  1
  Li  Li17  1  0.12087500  0.06275600  0.34526200  1
  Li  Li18  1  0.87088600  0.56240000  0.09502900  1
  Li  Li19  1  0.37034000  0.56299800  0.59525200  1
  Li  Li20  1  0.44688100  0.24994700  0.07168500  1
  Li  Li21  1  0.94727600  0.25074400  0.57185400  1
  Li  Li22  1  0.69671900  0.75029800  0.32158500  1
  Li  Li23  1  0.19653800  0.75016200  0.82153200  1
  Li  Li24  1  0.70286100  0.26853000  0.80978500  1
  Li  Li25  1  0.20260100  0.26851000  0.30985700  1
  Li  Li26  1  0.95257900  0.76832900  0.05958800  1
  Li  Li27  1  0.45219000  0.76871700  0.55991900  1
  V  V28  1  0.50866100  0.01315000  0.49342000  1
  V  V29  1  0.75842500  0.51322200  0.74357000  1
  V  V30  1  0.00885300  0.01300800  0.99359200  1
  V  V31  1  0.25877300  0.51281300  0.24341200  1
  O  O32  1  0.01281200  0.32111500  0.76440700  1
  O  O33  1  0.51298800  0.32126400  0.26449700  1
  O  O34  1  0.26290200  0.82122400  0.01432200  1
  O  O35  1  0.76265300  0.82140800  0.51429300  1
  O  O36  1  0.14603000  0.39867700  0.07361800  1
  O  O37  1  0.64593200  0.39934800  0.57393000  1
  O  O38  1  0.39601500  0.89899500  0.32340100  1
  O  O39  1  0.89592600  0.89895200  0.82354700  1
  O  O40  1  0.58351300  0.12225100  0.67900900  1
  O  O41  1  0.08361500  0.12216200  0.17907500  1
  O  O42  1  0.83366100  0.62164900  0.92839600  1
  O  O43  1  0.33361400  0.62223200  0.42890900  1
  O  O44  1  0.76679800  0.19640300  0.97329700  1
  O  O45  1  0.26688000  0.19665200  0.47328900  1
  O  O46  1  0.01677300  0.69629300  0.22304900  1
  O  O47  1  0.51647300  0.69657000  0.72320600  1
  F  F48  1  0.28831200  0.07804800  0.90047800  1
  F  F49  1  0.78828900  0.07833400  0.40061300  1
  F  F50  1  0.53829700  0.57792300  0.15021500  1
  F  F51  1  0.03815900  0.57825700  0.65037900  1
  F  F52  1  0.46194100  0.46082500  0.83825300  1
  F  F53  1  0.96238200  0.46111100  0.33833500  1
  F  F54  1  0.71226800  0.96109700  0.08819200  1
  F  F55  1  0.21200800  0.96129600  0.58798600  1
