# generated using pymatgen
data_Li2CuBi(PO4)2
_symmetry_space_group_name_H-M   'P 1'
_cell_length_a   6.42308600
_cell_length_b   4.83658300
_cell_length_c   11.00225792
_cell_angle_alpha   89.72155690
_cell_angle_beta   90.00000000
_cell_angle_gamma   90.00000000
_symmetry_Int_Tables_number   1
_chemical_formula_structural   Li2CuBi(PO4)2
_chemical_formula_sum   'Li4 Cu2 Bi2 P4 O16'
_cell_volume   341.78978210
_cell_formula_units_Z   2
loop_
 _symmetry_equiv_pos_site_id
 _symmetry_equiv_pos_as_xyz
  1  'x, y, z'
loop_
 _atom_site_type_symbol
 _atom_site_label
 _atom_site_symmetry_multiplicity
 _atom_site_fract_x
 _atom_site_fract_y
 _atom_site_fract_z
 _atom_site_occupancy
  Li  Li0  1  0.00000000  0.00000000  0.00000000  1
  Li  Li1  1  0.50000000  0.00000000  0.00000000  1
  Li  Li2  1  0.00000000  0.50000000  0.50000000  1
  Li  Li3  1  0.50000000  0.50000000  0.50000000  1
  Cu  Cu4  1  0.75000000  0.03018200  0.70464700  1
  Cu  Cu5  1  0.25000000  0.96981800  0.29535300  1
  Bi  Bi6  1  0.25000000  0.52126300  0.78123400  1
  Bi  Bi7  1  0.75000000  0.47873700  0.21876600  1
  P  P8  1  0.75000000  0.60299200  0.91368400  1
  P  P9  1  0.25000000  0.08822400  0.58378500  1
  P  P10  1  0.75000000  0.91177600  0.41621500  1
  P  P11  1  0.25000000  0.39700800  0.08631600  1
  O  O12  1  0.25000000  0.25316600  0.95591300  1
  O  O13  1  0.75000000  0.28996000  0.92139600  1
  O  O14  1  0.94434100  0.73169100  0.84867700  1
  O  O15  1  0.55565900  0.73169100  0.84867700  1
  O  O16  1  0.44359200  0.20561100  0.65758800  1
  O  O17  1  0.05640800  0.20561100  0.65758800  1
  O  O18  1  0.25000000  0.76855100  0.58110900  1
  O  O19  1  0.75000000  0.77477400  0.54281300  1
  O  O20  1  0.25000000  0.22522600  0.45718700  1
  O  O21  1  0.75000000  0.23144900  0.41889100  1
  O  O22  1  0.94359200  0.79438900  0.34241200  1
  O  O23  1  0.55640800  0.79438900  0.34241200  1
  O  O24  1  0.44434100  0.26830900  0.15132300  1
  O  O25  1  0.05565900  0.26830900  0.15132300  1
  O  O26  1  0.25000000  0.71004000  0.07860400  1
  O  O27  1  0.75000000  0.74683400  0.04408700  1
