# generated using pymatgen
data_Li4CrFe3O8
_symmetry_space_group_name_H-M   'P 1'
_cell_length_a   5.18540979
_cell_length_b   5.96264350
_cell_length_c   10.75287244
_cell_angle_alpha   106.08938588
_cell_angle_beta   85.44781623
_cell_angle_gamma   73.28917620
_symmetry_Int_Tables_number   1
_chemical_formula_structural   Li4CrFe3O8
_chemical_formula_sum   'Li8 Cr2 Fe6 O16'
_cell_volume   301.34768874
_cell_formula_units_Z   2
loop_
 _symmetry_equiv_pos_site_id
 _symmetry_equiv_pos_as_xyz
  1  'x, y, z'
loop_
 _atom_site_type_symbol
 _atom_site_label
 _atom_site_symmetry_multiplicity
 _atom_site_fract_x
 _atom_site_fract_y
 _atom_site_fract_z
 _atom_site_occupancy
  Li  Li0  1  0.00142156  0.12401598  0.74972693  1
  Li  Li1  1  0.99975810  0.00001551  0.00074090  1
  Li  Li2  1  0.99829734  0.25140176  0.50050894  1
  Li  Li3  1  0.00158246  0.37372550  0.24954990  1
  Li  Li4  1  0.00027517  0.62498031  0.74916554  1
  Li  Li5  1  0.99868250  0.50088833  0.00021411  1
  Li  Li6  1  0.99996172  0.74967151  0.50079727  1
  Li  Li7  1  0.00001622  0.87531538  0.24929235  1
  Cr  Cr8  1  0.50023375  0.68731555  0.62483832  1
  Cr  Cr9  1  0.49977570  0.93767749  0.12516243  1
  Fe  Fe10  1  0.49982328  0.06242188  0.87498133  1
  Fe  Fe11  1  0.49992429  0.18761782  0.62517871  1
  Fe  Fe12  1  0.49999371  0.31250711  0.37501580  1
  Fe  Fe13  1  0.50021566  0.56257402  0.87498614  1
  Fe  Fe14  1  0.50005452  0.43737165  0.12482699  1
  Fe  Fe15  1  0.49997619  0.81250978  0.37503109  1
  O  O16  1  0.27150827  0.08699437  0.30975742  1
  O  O17  1  0.72950061  0.03732453  0.43921537  1
  O  O18  1  0.26921663  0.33868200  0.81155001  1
  O  O19  1  0.73076388  0.28630761  0.93841483  1
  O  O20  1  0.72776308  0.16149048  0.18889640  1
  O  O21  1  0.27127583  0.21114263  0.06126311  1
  O  O22  1  0.27220839  0.46354107  0.56113306  1
  O  O23  1  0.72875550  0.41384612  0.68870472  1
  O  O24  1  0.27047697  0.58767507  0.31080768  1
  O  O25  1  0.72851055  0.53800207  0.44026639  1
  O  O26  1  0.27255956  0.83618040  0.80910963  1
  O  O27  1  0.72746722  0.78882333  0.94086547  1
  O  O28  1  0.27232824  0.71396736  0.06099545  1
  O  O29  1  0.27128535  0.96167109  0.56128965  1
  O  O30  1  0.72867433  0.66332431  0.18873653  1
  O  O31  1  0.72771444  0.91101799  0.68897457  1
