# generated using pymatgen
data_Li2CoOF3
_symmetry_space_group_name_H-M   'P 1'
_cell_length_a   5.89458800
_cell_length_b   5.89458300
_cell_length_c   8.58897100
_cell_angle_alpha   89.99975453
_cell_angle_beta   89.99945833
_cell_angle_gamma   90.00163297
_symmetry_Int_Tables_number   1
_chemical_formula_structural   Li2CoOF3
_chemical_formula_sum   'Li8 Co4 O4 F12'
_cell_volume   298.43357346
_cell_formula_units_Z   4
loop_
 _symmetry_equiv_pos_site_id
 _symmetry_equiv_pos_as_xyz
  1  'x, y, z'
loop_
 _atom_site_type_symbol
 _atom_site_label
 _atom_site_symmetry_multiplicity
 _atom_site_fract_x
 _atom_site_fract_y
 _atom_site_fract_z
 _atom_site_occupancy
  Li  Li0  1  0.24169600  0.25711400  0.37506300  1
  Li  Li1  1  0.25711100  0.75830900  0.12505600  1
  Li  Li2  1  0.74288900  0.24169000  0.62505600  1
  Li  Li3  1  0.75830000  0.74289400  0.87506400  1
  Li  Li4  1  0.25891000  0.49955200  0.75052000  1
  Li  Li5  1  0.50044600  0.25890900  0.00052400  1
  Li  Li6  1  0.49955600  0.74109000  0.50052700  1
  Li  Li7  1  0.74108900  0.50045100  0.25052100  1
  Co  Co8  1  0.24037300  0.98323100  0.76129600  1
  Co  Co9  1  0.75962200  0.01677100  0.26129500  1
  Co  Co10  1  0.01676800  0.24038000  0.01129600  1
  Co  Co11  1  0.98323400  0.75961600  0.51129700  1
  O  O12  1  0.02800600  0.77272700  0.73219000  1
  O  O13  1  0.22726400  0.02801200  0.98218800  1
  O  O14  1  0.77273800  0.97198200  0.48218700  1
  O  O15  1  0.97199000  0.22727300  0.23218700  1
  F  F16  1  0.01050800  0.25813100  0.76024100  1
  F  F17  1  0.25813500  0.98948400  0.51024100  1
  F  F18  1  0.74185500  0.01051900  0.01024100  1
  F  F19  1  0.98949000  0.74186800  0.26023700  1
  F  F20  1  0.24817100  0.49158700  0.99558900  1
  F  F21  1  0.49158300  0.75184200  0.74559200  1
  F  F22  1  0.50841900  0.24816700  0.24559400  1
  F  F23  1  0.75183900  0.50840800  0.49559000  1
  F  F24  1  0.23305200  0.53011600  0.50010600  1
  F  F25  1  0.46987300  0.23305100  0.75010100  1
  F  F26  1  0.53012900  0.76694800  0.25010700  1
  F  F27  1  0.76695700  0.46988200  0.00009900  1
