# generated using pymatgen
data_LiVP2HO7
_symmetry_space_group_name_H-M   'P 1'
_cell_length_a   6.53616301
_cell_length_b   6.60991859
_cell_length_c   12.56203553
_cell_angle_alpha   98.37011072
_cell_angle_beta   87.61820583
_cell_angle_gamma   96.45355918
_symmetry_Int_Tables_number   1
_chemical_formula_structural   LiVP2HO7
_chemical_formula_sum   'Li4 V4 P8 H4 O28'
_cell_volume   533.36536301
_cell_formula_units_Z   4
loop_
 _symmetry_equiv_pos_site_id
 _symmetry_equiv_pos_as_xyz
  1  'x, y, z'
loop_
 _atom_site_type_symbol
 _atom_site_label
 _atom_site_symmetry_multiplicity
 _atom_site_fract_x
 _atom_site_fract_y
 _atom_site_fract_z
 _atom_site_occupancy
  Li  Li0  1  0.11787800  0.68137900  0.42475200  1
  Li  Li1  1  0.11786100  0.18133800  0.92478000  1
  Li  Li2  1  0.88212300  0.81865600  0.07521500  1
  Li  Li3  1  0.88213400  0.31861600  0.57524600  1
  V  V4  1  0.35030200  0.73903000  0.64106700  1
  V  V5  1  0.64970600  0.26100000  0.35892900  1
  V  V6  1  0.35026900  0.23893500  0.14098800  1
  V  V7  1  0.64971100  0.76106900  0.85901000  1
  P  P8  1  0.15512100  0.15680600  0.38311600  1
  P  P9  1  0.15503200  0.65680100  0.88309500  1
  P  P10  1  0.84495500  0.34320400  0.11690700  1
  P  P11  1  0.84488700  0.84320300  0.61689200  1
  P  P12  1  0.39048000  0.72879900  0.08986700  1
  P  P13  1  0.39046600  0.22871500  0.58985400  1
  P  P14  1  0.60954000  0.77129400  0.41015000  1
  P  P15  1  0.60951900  0.27118500  0.91013200  1
  H  H16  1  0.17148500  0.90541600  0.24904800  1
  H  H17  1  0.17148800  0.40544100  0.74906800  1
  H  H18  1  0.82851200  0.59456300  0.25092800  1
  H  H19  1  0.82851700  0.09457900  0.75096000  1
  O  O20  1  0.09379100  0.93042300  0.32463300  1
  O  O21  1  0.09376100  0.43041100  0.82463100  1
  O  O22  1  0.90624100  0.56959500  0.17536800  1
  O  O23  1  0.90623300  0.06957300  0.67537200  1
  O  O24  1  0.02901700  0.22110400  0.08862100  1
  O  O25  1  0.02888400  0.72103900  0.58859700  1
  O  O26  1  0.97111600  0.27896200  0.41139900  1
  O  O27  1  0.97097000  0.77889600  0.91137300  1
  O  O28  1  0.23831200  0.11012200  0.49282400  1
  O  O29  1  0.23828300  0.61016800  0.99282000  1
  O  O30  1  0.76170700  0.38983100  0.00718300  1
  O  O31  1  0.76171100  0.88988100  0.50718500  1
  O  O32  1  0.27096200  0.90913200  0.14221400  1
  O  O33  1  0.27091800  0.40899600  0.64220300  1
  O  O34  1  0.72908600  0.59101100  0.35780000  1
  O  O35  1  0.72903400  0.09084800  0.85778400  1
  O  O36  1  0.32471200  0.26618600  0.31854000  1
  O  O37  1  0.32453000  0.76610900  0.81847000  1
  O  O38  1  0.67546300  0.23388000  0.18153100  1
  O  O39  1  0.67529200  0.73379800  0.68145200  1
  O  O40  1  0.40212000  0.56653200  0.16104400  1
  O  O41  1  0.40208000  0.06624600  0.66095900  1
  O  O42  1  0.59792300  0.93376200  0.33904400  1
  O  O43  1  0.59786400  0.43345300  0.83895700  1
  O  O44  1  0.40845000  0.69775100  0.46653400  1
  O  O45  1  0.40850100  0.19776600  0.96658800  1
  O  O46  1  0.59149300  0.80223200  0.03340100  1
  O  O47  1  0.59155900  0.30225600  0.53347100  1
