# generated using pymatgen
data_Li6MnV3(PO4)6
_symmetry_space_group_name_H-M   'P 1'
_cell_length_a   6.37111400
_cell_length_b   8.62964731
_cell_length_c   16.67458543
_cell_angle_alpha   79.32385530
_cell_angle_beta   84.42013309
_cell_angle_gamma   74.00697707
_symmetry_Int_Tables_number   1
_chemical_formula_structural   Li6MnV3(PO4)6
_chemical_formula_sum   'Li12 Mn2 V6 P12 O48'
_cell_volume   865.00178201
_cell_formula_units_Z   2
loop_
 _symmetry_equiv_pos_site_id
 _symmetry_equiv_pos_as_xyz
  1  'x, y, z'
loop_
 _atom_site_type_symbol
 _atom_site_label
 _atom_site_symmetry_multiplicity
 _atom_site_fract_x
 _atom_site_fract_y
 _atom_site_fract_z
 _atom_site_occupancy
  Li  Li0  1  0.75529300  0.99560100  0.99659500  1
  Li  Li1  1  0.25112900  0.99605900  0.49765100  1
  Li  Li2  1  0.39532400  0.71162400  0.85626300  1
  Li  Li3  1  0.89410700  0.71415800  0.35512900  1
  Li  Li4  1  0.74914700  0.49926000  0.75089900  1
  Li  Li5  1  0.25015400  0.49935300  0.75029800  1
  Li  Li6  1  0.75037000  0.49921300  0.24971000  1
  Li  Li7  1  0.25003100  0.50027000  0.24931600  1
  Li  Li8  1  0.10582700  0.28781000  0.64429500  1
  Li  Li9  1  0.60807400  0.28918800  0.14318400  1
  Li  Li10  1  0.74964700  0.00714600  0.50144500  1
  Li  Li11  1  0.24671000  0.00434700  0.00264700  1
  Mn  Mn12  1  0.89686700  0.37447600  0.97116800  1
  Mn  Mn13  1  0.05414700  0.05807500  0.31275100  1
  V  V14  1  0.95115100  0.94154900  0.68946300  1
  V  V15  1  0.45073900  0.94320800  0.18893200  1
  V  V16  1  0.61124000  0.62138700  0.52879500  1
  V  V17  1  0.11197600  0.62193800  0.02879100  1
  V  V18  1  0.38708800  0.38104000  0.47160800  1
  V  V19  1  0.55086600  0.05625700  0.80969400  1
  P  P20  1  0.89330100  0.71206800  0.85793900  1
  P  P21  1  0.46669300  0.86275900  0.66908500  1
  P  P22  1  0.96895100  0.86079400  0.16813200  1
  P  P23  1  0.39319900  0.71518200  0.35613700  1
  P  P24  1  0.06722800  0.66108300  0.56872200  1
  P  P25  1  0.56759100  0.66458300  0.06945600  1
  P  P26  1  0.43360400  0.33964800  0.93098800  1
  P  P27  1  0.93115700  0.33882100  0.43368900  1
  P  P28  1  0.60684400  0.28639900  0.64317800  1
  P  P29  1  0.03486700  0.13260500  0.83040200  1
  P  P30  1  0.53383100  0.13816000  0.33021400  1
  P  P31  1  0.10681400  0.28603900  0.14306800  1
  O  O32  1  0.62604000  0.95047300  0.69886700  1
  O  O33  1  0.23800400  0.98817100  0.66912300  1
  O  O34  1  0.66295200  0.82801300  0.87109800  1
  O  O35  1  0.99642300  0.73494700  0.76930600  1
  O  O36  1  0.74061700  0.98659300  0.17036700  1
  O  O37  1  0.52938200  0.84310100  0.57739500  1
  O  O38  1  0.05572000  0.74020000  0.91356700  1
  O  O39  1  0.02861900  0.84439000  0.57881600  1
  O  O40  1  0.47565500  0.70463900  0.72772400  1
  O  O41  1  0.13370000  0.94625400  0.19370800  1
  O  O42  1  0.90176500  0.66112500  0.50597800  1
  O  O43  1  0.86127600  0.53600800  0.87006300  1
  O  O44  1  0.55038400  0.74320700  0.41415900  1
  O  O45  1  0.15803500  0.82889900  0.36848300  1
  O  O46  1  0.51856800  0.84916900  0.07949200  1
  O  O47  1  0.97750200  0.70326200  0.22779800  1
  O  O48  1  0.50075100  0.73676900  0.26879800  1
  O  O49  1  0.02294500  0.84046600  0.07593000  1
  O  O50  1  0.30006300  0.60188600  0.52472100  1
  O  O51  1  0.44349700  0.45694900  0.85178100  1
  O  O52  1  0.63555600  0.46254000  0.63172600  1
  O  O53  1  0.60198700  0.33748500  0.99347200  1
  O  O54  1  0.05640900  0.54361800  0.64785400  1
  O  O55  1  0.80080300  0.61305000  0.02689700  1
  O  O56  1  0.19991500  0.40083700  0.97583400  1
  O  O57  1  0.94402100  0.45194400  0.35312700  1
  O  O58  1  0.40424100  0.66006200  0.00654200  1
  O  O59  1  0.36271700  0.53930400  0.36860700  1
  O  O60  1  0.55619300  0.54547100  0.14814700  1
  O  O61  1  0.69695600  0.40236800  0.47604700  1
  O  O62  1  0.97292300  0.14398200  0.92248900  1
  O  O63  1  0.50068600  0.26297000  0.73107800  1
  O  O64  1  0.02298900  0.29374200  0.77346300  1
  O  O65  1  0.46782800  0.15698900  0.92066600  1
  O  O66  1  0.83793300  0.17194200  0.62993900  1
  O  O67  1  0.44705200  0.25958000  0.58583100  1
  O  O68  1  0.13572100  0.46162300  0.13228500  1
  O  O69  1  0.09680400  0.34422900  0.49530400  1
  O  O70  1  0.87516100  0.04728500  0.79874500  1
  O  O71  1  0.52364800  0.29651700  0.27180400  1
  O  O72  1  0.96747800  0.15412400  0.42839400  1
  O  O73  1  0.94156000  0.26253000  0.08540300  1
  O  O74  1  0.46628600  0.15873700  0.42161600  1
  O  O75  1  0.26491300  0.00982000  0.82754000  1
  O  O76  1  0.99846600  0.26069900  0.23093500  1
  O  O77  1  0.33707700  0.17262600  0.12836700  1
  O  O78  1  0.76322900  0.01250800  0.33169600  1
  O  O79  1  0.37558600  0.04880100  0.29937400  1
