# generated using pymatgen
data_Li5V(CO3)4
_symmetry_space_group_name_H-M   'P 1'
_cell_length_a   9.73911000
_cell_length_b   8.42108200
_cell_length_c   10.97231224
_cell_angle_alpha   88.85909638
_cell_angle_beta   90.00000000
_cell_angle_gamma   90.00000000
_symmetry_Int_Tables_number   1
_chemical_formula_structural   Li5V(CO3)4
_chemical_formula_sum   'Li20 V4 C16 O48'
_cell_volume   899.70310367
_cell_formula_units_Z   4
loop_
 _symmetry_equiv_pos_site_id
 _symmetry_equiv_pos_as_xyz
  1  'x, y, z'
loop_
 _atom_site_type_symbol
 _atom_site_label
 _atom_site_symmetry_multiplicity
 _atom_site_fract_x
 _atom_site_fract_y
 _atom_site_fract_z
 _atom_site_occupancy
  Li  Li0  1  0.36321800  0.43749500  0.05454400  1
  Li  Li1  1  0.13678200  0.93749500  0.05454400  1
  Li  Li2  1  0.85822500  0.41670900  0.12279200  1
  Li  Li3  1  0.64177500  0.91671000  0.12279200  1
  Li  Li4  1  0.10280500  0.30544500  0.20982100  1
  Li  Li5  1  0.39719500  0.80544500  0.20982100  1
  Li  Li6  1  0.33626000  0.47082200  0.32920500  1
  Li  Li7  1  0.16374000  0.97082200  0.32920500  1
  Li  Li8  1  0.89197300  0.41941600  0.41349300  1
  Li  Li9  1  0.60802700  0.91941600  0.41349300  1
  Li  Li10  1  0.39197300  0.08058400  0.58650700  1
  Li  Li11  1  0.10802700  0.58058400  0.58650700  1
  Li  Li12  1  0.83626000  0.02917800  0.67079500  1
  Li  Li13  1  0.66374000  0.52917800  0.67079500  1
  Li  Li14  1  0.60280500  0.19455500  0.79017900  1
  Li  Li15  1  0.89719500  0.69455500  0.79017900  1
  Li  Li16  1  0.35822500  0.08329100  0.87720800  1
  Li  Li17  1  0.14177500  0.58329100  0.87720800  1
  Li  Li18  1  0.86321800  0.06250500  0.94545600  1
  Li  Li19  1  0.63678200  0.56250500  0.94545600  1
  V  V20  1  0.59214700  0.27106600  0.28548600  1
  V  V21  1  0.90785300  0.77106600  0.28548600  1
  V  V22  1  0.09214700  0.22893400  0.71451400  1
  V  V23  1  0.40785300  0.72893400  0.71451400  1
  C  C24  1  0.61180900  0.24533800  0.02205600  1
  C  C25  1  0.88819100  0.74533800  0.02205600  1
  C  C26  1  0.36505400  0.15064000  0.20666300  1
  C  C27  1  0.13494600  0.65064000  0.20666300  1
  C  C28  1  0.86867000  0.12481900  0.28976800  1
  C  C29  1  0.63133000  0.62481900  0.28976800  1
  C  C30  1  0.14115800  0.28479600  0.48969700  1
  C  C31  1  0.35884200  0.78479600  0.48969700  1
  C  C32  1  0.64115800  0.21520400  0.51030300  1
  C  C33  1  0.85884200  0.71520400  0.51030300  1
  C  C34  1  0.36867000  0.37518100  0.71023200  1
  C  C35  1  0.13133000  0.87518100  0.71023200  1
  C  C36  1  0.86505400  0.34936000  0.79333700  1
  C  C37  1  0.63494600  0.84936000  0.79333700  1
  C  C38  1  0.11180900  0.25466200  0.97794400  1
  C  C39  1  0.38819100  0.75466200  0.97794400  1
  O  O40  1  0.17374100  0.38260200  0.00839000  1
  O  O41  1  0.32625900  0.88260200  0.00839000  1
  O  O42  1  0.00057000  0.20934900  0.03282700  1
  O  O43  1  0.49943000  0.70934900  0.03282700  1
  O  O44  1  0.66298900  0.33675900  0.10830300  1
  O  O45  1  0.83701100  0.83675900  0.10830300  1
  O  O46  1  0.24210400  0.10343600  0.19595700  1
  O  O47  1  0.25789600  0.60343600  0.19595700  1
  O  O48  1  0.47362300  0.06099200  0.21093700  1
  O  O49  1  0.02637700  0.56099200  0.21093700  1
  O  O50  1  0.39308200  0.30273400  0.21812000  1
  O  O51  1  0.10691800  0.80273400  0.21812000  1
  O  O52  1  0.91223900  0.26741300  0.27574400  1
  O  O53  1  0.73783800  0.09130200  0.28584800  1
  O  O54  1  0.58776100  0.76741300  0.27574400  1
  O  O55  1  0.76216200  0.59130200  0.28584800  1
  O  O56  1  0.95527400  0.00989500  0.30917600  1
  O  O57  1  0.54472600  0.50989500  0.30917600  1
  O  O58  1  0.18086800  0.34439600  0.38895000  1
  O  O59  1  0.31913200  0.84439600  0.38895000  1
  O  O60  1  0.52830600  0.16607300  0.45516500  1
  O  O61  1  0.97169400  0.66607300  0.45516500  1
  O  O62  1  0.70774600  0.32428500  0.44883700  1
  O  O63  1  0.79225400  0.82428500  0.44883700  1
  O  O64  1  0.20774600  0.17571500  0.55116300  1
  O  O65  1  0.29225400  0.67571500  0.55116300  1
  O  O66  1  0.02830600  0.33392700  0.54483500  1
  O  O67  1  0.47169400  0.83392700  0.54483500  1
  O  O68  1  0.68086800  0.15560400  0.61105000  1
  O  O69  1  0.81913200  0.65560400  0.61105000  1
  O  O70  1  0.45527400  0.49010500  0.69082400  1
  O  O71  1  0.04472600  0.99010500  0.69082400  1
  O  O72  1  0.23783800  0.40869800  0.71415200  1
  O  O73  1  0.41223900  0.23258700  0.72425600  1
  O  O74  1  0.26216200  0.90869800  0.71415200  1
  O  O75  1  0.08776100  0.73258700  0.72425600  1
  O  O76  1  0.89308200  0.19726600  0.78188000  1
  O  O77  1  0.60691800  0.69726600  0.78188000  1
  O  O78  1  0.97362300  0.43900800  0.78906300  1
  O  O79  1  0.52637700  0.93900800  0.78906300  1
  O  O80  1  0.74210400  0.39656400  0.80404300  1
  O  O81  1  0.75789600  0.89656400  0.80404300  1
  O  O82  1  0.16298900  0.16324100  0.89169700  1
  O  O83  1  0.33701100  0.66324100  0.89169700  1
  O  O84  1  0.50057000  0.29065100  0.96717300  1
  O  O85  1  0.99943000  0.79065100  0.96717300  1
  O  O86  1  0.67374100  0.11739800  0.99161000  1
  O  O87  1  0.82625900  0.61739800  0.99161000  1
