# generated using pymatgen
data_LiMn2(PO5)2
_symmetry_space_group_name_H-M   'P 1'
_cell_length_a   10.30291400
_cell_length_b   4.94836400
_cell_length_c   7.00245100
_cell_angle_alpha   72.18527331
_cell_angle_beta   90.00000000
_cell_angle_gamma   90.00000000
_symmetry_Int_Tables_number   1
_chemical_formula_structural   LiMn2(PO5)2
_chemical_formula_sum   'Li2 Mn4 P4 O20'
_cell_volume   339.88493016
_cell_formula_units_Z   2
loop_
 _symmetry_equiv_pos_site_id
 _symmetry_equiv_pos_as_xyz
  1  'x, y, z'
loop_
 _atom_site_type_symbol
 _atom_site_label
 _atom_site_symmetry_multiplicity
 _atom_site_fract_x
 _atom_site_fract_y
 _atom_site_fract_z
 _atom_site_occupancy
  Li  Li0  1  0.40073300  0.62206300  0.41556200  1
  Li  Li1  1  0.90073300  0.37793700  0.58443800  1
  Mn  Mn2  1  0.93154300  0.61860300  0.93545900  1
  Mn  Mn3  1  0.43154300  0.38139700  0.06454100  1
  Mn  Mn4  1  0.57187700  0.12246900  0.43167800  1
  Mn  Mn5  1  0.07187700  0.87753100  0.56832200  1
  P  P6  1  0.34713000  0.02651400  0.78000400  1
  P  P7  1  0.15080100  0.52603600  0.27715900  1
  P  P8  1  0.84713000  0.97348600  0.21999600  1
  P  P9  1  0.65080100  0.47396400  0.72284100  1
  O  O10  1  0.78386400  0.57543200  0.77176200  1
  O  O11  1  0.95459500  0.97972300  0.74421500  1
  O  O12  1  0.57589200  0.31224400  0.91458100  1
  O  O13  1  0.42615800  0.77335500  0.91037800  1
  O  O14  1  0.31660200  0.23874700  0.89614100  1
  O  O15  1  0.07589200  0.68775600  0.08541900  1
  O  O16  1  0.81660200  0.76125300  0.10385900  1
  O  O17  1  0.28386400  0.42456800  0.22823800  1
  O  O18  1  0.92615800  0.22664500  0.08962200  1
  O  O19  1  0.54158000  0.48102600  0.24973200  1
  O  O20  1  0.45459500  0.02027700  0.25578500  1
  O  O21  1  0.06752100  0.28150900  0.41088200  1
  O  O22  1  0.72164200  0.07987100  0.28594600  1
  O  O23  1  0.18685100  0.73543000  0.39693800  1
  O  O24  1  0.92740600  0.80642700  0.40993000  1
  O  O25  1  0.68685100  0.26457000  0.60306200  1
  O  O26  1  0.56752100  0.71849100  0.58911800  1
  O  O27  1  0.42740600  0.19357300  0.59007000  1
  O  O28  1  0.04158000  0.51897400  0.75026800  1
  O  O29  1  0.22164200  0.92012900  0.71405400  1
