# generated using pymatgen
data_Li3Mn4(BO3)4
_symmetry_space_group_name_H-M   'P 1'
_cell_length_a   5.28089500
_cell_length_b   9.10928293
_cell_length_c   11.57246815
_cell_angle_alpha   111.75292639
_cell_angle_beta   102.00622378
_cell_angle_gamma   90.30953629
_symmetry_Int_Tables_number   1
_chemical_formula_structural   Li3Mn4(BO3)4
_chemical_formula_sum   'Li6 Mn8 B8 O24'
_cell_volume   503.65360098
_cell_formula_units_Z   2
loop_
 _symmetry_equiv_pos_site_id
 _symmetry_equiv_pos_as_xyz
  1  'x, y, z'
loop_
 _atom_site_type_symbol
 _atom_site_label
 _atom_site_symmetry_multiplicity
 _atom_site_fract_x
 _atom_site_fract_y
 _atom_site_fract_z
 _atom_site_occupancy
  Li  Li0  1  0.96583900  0.95800000  0.08883700  1
  Li  Li1  1  0.73469300  0.73725100  0.33488800  1
  Li  Li2  1  0.52098900  0.49472800  0.82867400  1
  Li  Li3  1  0.22853700  0.24929200  0.33889600  1
  Li  Li4  1  0.21176400  0.23039700  0.59824100  1
  Li  Li5  1  0.02072600  0.98632100  0.83044200  1
  Mn  Mn6  1  0.98137200  0.63730500  0.11776500  1
  Mn  Mn7  1  0.76296700  0.42185100  0.37518600  1
  Mn  Mn8  1  0.71738400  0.04769600  0.61955400  1
  Mn  Mn9  1  0.45366900  0.15571900  0.10695600  1
  Mn  Mn10  1  0.53106600  0.84852500  0.86694500  1
  Mn  Mn11  1  0.25563000  0.93023900  0.36455800  1
  Mn  Mn12  1  0.23284500  0.57581700  0.61651200  1
  Mn  Mn13  1  0.02490700  0.34357000  0.86958000  1
  B  B14  1  0.95743400  0.30978700  0.13397800  1
  B  B15  1  0.76970200  0.10743400  0.39196600  1
  B  B16  1  0.72870000  0.38507100  0.61508000  1
  B  B17  1  0.48979500  0.83363800  0.13266200  1
  B  B18  1  0.51152400  0.17822900  0.85451700  1
  B  B19  1  0.26691400  0.59328000  0.36934700  1
  B  B20  1  0.24447900  0.91033400  0.62887800  1
  B  B21  1  0.03341200  0.68741400  0.87522700  1
  O  O22  1  0.99600500  0.91911200  0.64611900  1
  O  O23  1  0.73882800  0.34732200  0.19013200  1
  O  O24  1  0.88255600  0.28024200  0.65407400  1
  O  O25  1  0.84200600  0.47542700  0.55975800  1
  O  O26  1  0.64547100  0.72895400  0.16256100  1
  O  O27  1  0.57666400  0.93074100  0.07629900  1
  O  O28  1  0.93417800  0.83290400  0.89423400  1
  O  O29  1  0.90692500  0.57562400  0.90566700  1
  O  O30  1  0.67241700  0.98926900  0.43016200  1
  O  O31  1  0.59522400  0.20265400  0.35275300  1
  O  O32  1  0.74393800  0.13194000  0.80983000  1
  O  O33  1  0.52528400  0.59349100  0.37048200  1
  O  O34  1  0.48146100  0.40343800  0.63396100  1
  O  O35  1  0.24153600  0.84982800  0.16205600  1
  O  O36  1  0.39927600  0.80414300  0.66040300  1
  O  O37  1  0.33802500  0.01828100  0.58293800  1
  O  O38  1  0.09295800  0.18576500  0.14767100  1
  O  O39  1  0.40313600  0.30999800  0.84841200  1
  O  O40  1  0.40152300  0.08174000  0.90398500  1
  O  O41  1  0.01959100  0.39402700  0.06576300  1
  O  O42  1  0.15240200  0.48003000  0.40449600  1
  O  O43  1  0.11152000  0.70081000  0.33617500  1
  O  O44  1  0.25827000  0.65207200  0.82778100  1
  O  O45  1  0.02911300  0.12294400  0.39494400  1
