# generated using pymatgen
data_Li2MnF4
_symmetry_space_group_name_H-M   'P 1'
_cell_length_a   5.48273700
_cell_length_b   6.00991700
_cell_length_c   10.64964588
_cell_angle_alpha   72.97173970
_cell_angle_beta   90.00000000
_cell_angle_gamma   90.00000000
_symmetry_Int_Tables_number   1
_chemical_formula_structural   Li2MnF4
_chemical_formula_sum   'Li8 Mn4 F16'
_cell_volume   335.53035970
_cell_formula_units_Z   4
loop_
 _symmetry_equiv_pos_site_id
 _symmetry_equiv_pos_as_xyz
  1  'x, y, z'
loop_
 _atom_site_type_symbol
 _atom_site_label
 _atom_site_symmetry_multiplicity
 _atom_site_fract_x
 _atom_site_fract_y
 _atom_site_fract_z
 _atom_site_occupancy
  Li  Li0  1  0.75382200  0.88596500  0.79548200  1
  Li  Li1  1  0.35366000  0.82678400  0.57306500  1
  Li  Li2  1  0.85366000  0.17321600  0.92693500  1
  Li  Li3  1  0.25382200  0.11403500  0.70451800  1
  Li  Li4  1  0.74617800  0.88596500  0.29548200  1
  Li  Li5  1  0.14634000  0.82678400  0.07306500  1
  Li  Li6  1  0.64634000  0.17321600  0.42693500  1
  Li  Li7  1  0.24617800  0.11403500  0.20451800  1
  Mn  Mn8  1  0.35997100  0.41020900  0.88260900  1
  Mn  Mn9  1  0.85997100  0.58979100  0.61739100  1
  Mn  Mn10  1  0.14002900  0.41020900  0.38260900  1
  Mn  Mn11  1  0.64002900  0.58979100  0.11739100  1
  F  F12  1  0.68116300  0.35671300  0.00421900  1
  F  F13  1  0.04706100  0.83415100  0.70422000  1
  F  F14  1  0.65956800  0.84392600  0.47176600  1
  F  F15  1  0.55437300  0.67670300  0.73130700  1
  F  F16  1  0.05437300  0.32329700  0.76869300  1
  F  F17  1  0.15956800  0.15607400  0.02823400  1
  F  F18  1  0.54706100  0.16584900  0.79578000  1
  F  F19  1  0.18116300  0.64328700  0.49578100  1
  F  F20  1  0.81883700  0.35671300  0.50421900  1
  F  F21  1  0.45293900  0.83415100  0.20422000  1
  F  F22  1  0.84043200  0.84392600  0.97176600  1
  F  F23  1  0.94562700  0.67670300  0.23130700  1
  F  F24  1  0.44562700  0.32329700  0.26869300  1
  F  F25  1  0.34043200  0.15607400  0.52823400  1
  F  F26  1  0.95293900  0.16584900  0.29578000  1
  F  F27  1  0.31883700  0.64328700  0.99578100  1
