# generated using pymatgen
data_Li2FeSi3O8
_symmetry_space_group_name_H-M   'P 1'
_cell_length_a   6.92768379
_cell_length_b   10.04201200
_cell_length_c   5.09598062
_cell_angle_alpha   90.00031455
_cell_angle_beta   91.00753793
_cell_angle_gamma   89.99852877
_symmetry_Int_Tables_number   1
_chemical_formula_structural   Li2FeSi3O8
_chemical_formula_sum   'Li4 Fe2 Si6 O16'
_cell_volume   354.46177557
_cell_formula_units_Z   2
loop_
 _symmetry_equiv_pos_site_id
 _symmetry_equiv_pos_as_xyz
  1  'x, y, z'
loop_
 _atom_site_type_symbol
 _atom_site_label
 _atom_site_symmetry_multiplicity
 _atom_site_fract_x
 _atom_site_fract_y
 _atom_site_fract_z
 _atom_site_occupancy
  Li  Li0  1  0.99927400  0.13596800  0.19104000  1
  Li  Li1  1  0.50067600  0.63599600  0.30892500  1
  Li  Li2  1  0.51059700  0.34498400  0.65906100  1
  Li  Li3  1  0.98948100  0.84498600  0.84093100  1
  Fe  Fe4  1  0.50267000  0.16842300  0.15897400  1
  Fe  Fe5  1  0.99715900  0.66836100  0.34108400  1
  Si  Si6  1  0.97465300  0.33304000  0.72741100  1
  Si  Si7  1  0.27636100  0.91123700  0.25970800  1
  Si  Si8  1  0.22362600  0.41127600  0.24029500  1
  Si  Si9  1  0.52540300  0.83304700  0.77258600  1
  Si  Si10  1  0.77885500  0.59507700  0.84612000  1
  Si  Si11  1  0.72116600  0.09507600  0.65385100  1
  O  O12  1  0.06703100  0.84787600  0.19977600  1
  O  O13  1  0.05280200  0.33969800  0.42650400  1
  O  O14  1  0.35313400  0.87213600  0.56427600  1
  O  O15  1  0.24057300  0.56868700  0.28678800  1
  O  O16  1  0.14690000  0.37215500  0.93571200  1
  O  O17  1  0.25936500  0.06864400  0.21320200  1
  O  O18  1  0.44722900  0.83968000  0.07349700  1
  O  O19  1  0.43295000  0.34791900  0.30027800  1
  O  O20  1  0.58757600  0.67657500  0.70329500  1
  O  O21  1  0.53112400  0.16526100  0.76566100  1
  O  O22  1  0.72022700  0.93201100  0.74667700  1
  O  O23  1  0.74969300  0.60900700  0.15722300  1
  O  O24  1  0.77981200  0.43201000  0.75331200  1
  O  O25  1  0.75026700  0.10903600  0.34274000  1
  O  O26  1  0.96892800  0.66526100  0.73440700  1
  O  O27  1  0.91246700  0.17657300  0.79666600  1
