# generated using pymatgen
data_LiNiPO4
_symmetry_space_group_name_H-M   'P 1'
_cell_length_a   5.55995800
_cell_length_b   7.93027200
_cell_length_c   5.78955100
_cell_angle_alpha   89.99978999
_cell_angle_beta   90.00002020
_cell_angle_gamma   90.00000722
_symmetry_Int_Tables_number   1
_chemical_formula_structural   LiNiPO4
_chemical_formula_sum   'Li4 Ni4 P4 O16'
_cell_volume   255.27276255
_cell_formula_units_Z   4
loop_
 _symmetry_equiv_pos_site_id
 _symmetry_equiv_pos_as_xyz
  1  'x, y, z'
loop_
 _atom_site_type_symbol
 _atom_site_label
 _atom_site_symmetry_multiplicity
 _atom_site_fract_x
 _atom_site_fract_y
 _atom_site_fract_z
 _atom_site_occupancy
  Li  Li0  1  0.00000500  0.99999500  0.00000000  1
  Li  Li1  1  0.49999500  0.50000500  0.50000000  1
  Li  Li2  1  0.49999500  0.99999500  0.00000000  1
  Li  Li3  1  0.00000500  0.50000500  0.50000000  1
  Ni  Ni4  1  0.25000000  0.75000000  0.75000000  1
  Ni  Ni5  1  0.25000000  0.75000000  0.25000000  1
  Ni  Ni6  1  0.75000000  0.25000000  0.25000000  1
  Ni  Ni7  1  0.75000000  0.25000000  0.75000000  1
  P  P8  1  0.25000000  0.12030000  0.50000000  1
  P  P9  1  0.75000000  0.62032400  0.00000100  1
  P  P10  1  0.25000000  0.37969900  0.99999900  1
  P  P11  1  0.75000000  0.87967700  0.49999900  1
  O  O12  1  0.24999900  0.01161900  0.27699800  1
  O  O13  1  0.74999900  0.51163300  0.77698100  1
  O  O14  1  0.25000100  0.48838100  0.77700000  1
  O  O15  1  0.75000000  0.98836600  0.27698300  1
  O  O16  1  0.25000000  0.01162000  0.72300200  1
  O  O17  1  0.75000000  0.51163300  0.22301600  1
  O  O18  1  0.25000100  0.48838200  0.22300300  1
  O  O19  1  0.75000100  0.98836600  0.72302000  1
  O  O20  1  0.02085300  0.23940400  0.49999900  1
  O  O21  1  0.52084200  0.73939600  0.00000000  1
  O  O22  1  0.47914700  0.23940400  0.49999900  1
  O  O23  1  0.97915700  0.73939700  0.99999800  1
  O  O24  1  0.02085300  0.26059400  0.00000100  1
  O  O25  1  0.52084300  0.76060400  0.50000200  1
  O  O26  1  0.47914700  0.26059500  0.00000200  1
  O  O27  1  0.97915800  0.76060500  0.49999900  1
