# generated using pymatgen
data_Li3CoPCO7
_symmetry_space_group_name_H-M   'P 1'
_cell_length_a   5.07676733
_cell_length_b   10.68091875
_cell_length_c   10.68009145
_cell_angle_alpha   104.66149787
_cell_angle_beta   88.42001024
_cell_angle_gamma   91.57087021
_symmetry_Int_Tables_number   1
_chemical_formula_structural   Li3CoPCO7
_chemical_formula_sum   'Li12 Co4 P4 C4 O28'
_cell_volume   559.92761371
_cell_formula_units_Z   4
loop_
 _symmetry_equiv_pos_site_id
 _symmetry_equiv_pos_as_xyz
  1  'x, y, z'
loop_
 _atom_site_type_symbol
 _atom_site_label
 _atom_site_symmetry_multiplicity
 _atom_site_fract_x
 _atom_site_fract_y
 _atom_site_fract_z
 _atom_site_occupancy
  Li  Li0  1  0.04282600  0.76546000  0.75877000  1
  Li  Li1  1  0.04278000  0.26544900  0.25875100  1
  Li  Li2  1  0.95721700  0.00874800  0.01544700  1
  Li  Li3  1  0.95716000  0.50871600  0.51543500  1
  Li  Li4  1  0.42036400  0.00814000  0.19837900  1
  Li  Li5  1  0.42031800  0.50815300  0.69834100  1
  Li  Li6  1  0.57954600  0.94820600  0.75797300  1
  Li  Li7  1  0.57949500  0.44830300  0.25809000  1
  Li  Li8  1  0.44065300  0.93108700  0.46341400  1
  Li  Li9  1  0.44063400  0.43102900  0.96335500  1
  Li  Li10  1  0.55927100  0.21331400  0.68100300  1
  Li  Li11  1  0.55922000  0.71334600  0.18103800  1
  Co  Co12  1  0.04713200  0.72993900  0.00927300  1
  Co  Co13  1  0.95290600  0.25928200  0.97996700  1
  Co  Co14  1  0.04707600  0.22994100  0.50926800  1
  Co  Co15  1  0.95289200  0.75927200  0.47997100  1
  P  P16  1  0.95485700  0.95508600  0.29406700  1
  P  P17  1  0.95475100  0.45511000  0.79405400  1
  P  P18  1  0.04529300  0.04406400  0.70510400  1
  P  P19  1  0.04514800  0.54405900  0.20510200  1
  C  C20  1  0.53808200  0.30822900  0.43130700  1
  C  C21  1  0.53818600  0.80825100  0.93128400  1
  C  C22  1  0.46185900  0.68133400  0.55827000  1
  C  C23  1  0.46186900  0.18131300  0.05826400  1
  O  O24  1  0.37681700  0.34459300  0.35690900  1
  O  O25  1  0.37697300  0.84452600  0.85682000  1
  O  O26  1  0.62309200  0.60688900  0.59456300  1
  O  O27  1  0.62309400  0.10687700  0.09457300  1
  O  O28  1  0.78982900  0.33502300  0.42376600  1
  O  O29  1  0.78991800  0.83508300  0.92378100  1
  O  O30  1  0.21011000  0.67381000  0.58508400  1
  O  O31  1  0.21012400  0.17382000  0.08511600  1
  O  O32  1  0.07259500  0.91113100  0.15347500  1
  O  O33  1  0.07253200  0.41116000  0.65346800  1
  O  O34  1  0.92741200  0.90352800  0.66117400  1
  O  O35  1  0.92731800  0.40351200  0.16116000  1
  O  O36  1  0.03226600  0.10182500  0.33589500  1
  O  O37  1  0.03202500  0.60185900  0.83590000  1
  O  O38  1  0.96833700  0.08593500  0.85190100  1
  O  O39  1  0.96800900  0.58592100  0.35188200  1
  O  O40  1  0.45260700  0.24668400  0.51531000  1
  O  O41  1  0.45268000  0.74673800  0.01532600  1
  O  O42  1  0.54736300  0.76536300  0.49675100  1
  O  O43  1  0.54734900  0.26530900  0.99670100  1
  O  O44  1  0.65387300  0.92671000  0.29735000  1
  O  O45  1  0.65379000  0.42668100  0.79730000  1
  O  O46  1  0.34622600  0.04722200  0.67653000  1
  O  O47  1  0.34610100  0.54725200  0.17659200  1
  O  O48  1  0.09558600  0.88715400  0.38574200  1
  O  O49  1  0.09548600  0.38719800  0.88574600  1
  O  O50  1  0.90453200  0.13579700  0.63725000  1
  O  O51  1  0.90442000  0.63577100  0.13721100  1
