# generated using pymatgen
data_Li6V3P8O29
_symmetry_space_group_name_H-M   'P 1'
_cell_length_a   9.75485700
_cell_length_b   9.80974828
_cell_length_c   13.97359157
_cell_angle_alpha   89.71058711
_cell_angle_beta   89.54518694
_cell_angle_gamma   60.18748988
_symmetry_Int_Tables_number   1
_chemical_formula_structural   Li6V3P8O29
_chemical_formula_sum   'Li12 V6 P16 O58'
_cell_volume   1160.16782517
_cell_formula_units_Z   2
loop_
 _symmetry_equiv_pos_site_id
 _symmetry_equiv_pos_as_xyz
  1  'x, y, z'
loop_
 _atom_site_type_symbol
 _atom_site_label
 _atom_site_symmetry_multiplicity
 _atom_site_fract_x
 _atom_site_fract_y
 _atom_site_fract_z
 _atom_site_occupancy
  Li  Li0  1  0.66617200  0.09499300  0.44390200  1
  Li  Li1  1  0.23843400  0.66266600  0.44110800  1
  Li  Li2  1  0.33916900  0.33787800  0.11058600  1
  Li  Li3  1  0.09340500  0.67094100  0.93312200  1
  Li  Li4  1  0.23536100  0.09280700  0.93637600  1
  Li  Li5  1  0.09334200  0.23596200  0.44221900  1
  Li  Li6  1  0.76606700  0.90080700  0.05672400  1
  Li  Li7  1  0.90031300  0.33301700  0.05447300  1
  Li  Li8  1  0.76080700  0.33672800  0.56598000  1
  Li  Li9  1  0.33673000  0.89690500  0.56141100  1
  Li  Li10  1  0.99879100  0.99777400  0.98866000  1
  Li  Li11  1  0.98526700  0.95754700  0.51415300  1
  V  V12  1  0.99791400  0.56732600  0.74584000  1
  V  V13  1  0.99931500  0.43874200  0.25302800  1
  V  V14  1  0.56661600  0.99992900  0.25179600  1
  V  V15  1  0.43655800  0.99879400  0.74848200  1
  V  V16  1  0.56012700  0.43752900  0.75759700  1
  V  V17  1  0.43939200  0.56590400  0.24586900  1
  P  P18  1  0.69468400  0.21954300  0.16042100  1
  P  P19  1  0.69127700  0.08869900  0.65980400  1
  P  P20  1  0.22834500  0.68704600  0.65636400  1
  P  P21  1  0.32761800  0.33478600  0.87016000  1
  P  P22  1  0.33458500  0.33430200  0.36993900  1
  P  P23  1  0.09065700  0.68533400  0.15472400  1
  P  P24  1  0.91728900  0.77773400  0.34144700  1
  P  P25  1  0.22226400  0.09468100  0.15442400  1
  P  P26  1  0.77696200  0.91139200  0.84309600  1
  P  P27  1  0.08789300  0.22556100  0.65706700  1
  P  P28  1  0.91290500  0.31231800  0.84140200  1
  P  P29  1  0.66463500  0.66473600  0.63247200  1
  P  P30  1  0.67310500  0.66570500  0.12906300  1
  P  P31  1  0.77007400  0.31223200  0.34760900  1
  P  P32  1  0.30806000  0.91594200  0.33942300  1
  P  P33  1  0.30237300  0.78209400  0.84077000  1
  O  O34  1  0.76868500  0.22824200  0.43826000  1
  O  O35  1  0.66277900  0.25682800  0.66355400  1
  O  O36  1  0.79197500  0.98571700  0.93351100  1
  O  O37  1  0.66433500  0.07738100  0.15909000  1
  O  O38  1  0.52927000  0.37070000  0.16705700  1
  O  O39  1  0.47885900  0.33051500  0.82673500  1
  O  O40  1  0.38564000  0.53567000  0.66678300  1
  O  O41  1  0.19170200  0.80103500  0.92161100  1
  O  O42  1  0.25708000  0.66224200  0.15846300  1
  O  O43  1  0.49048600  0.18793000  0.33112200  1
  O  O44  1  0.53418400  0.08594100  0.67181000  1
  O  O45  1  0.32734700  0.48593500  0.32578200  1
  O  O46  1  0.32709800  0.33381600  0.97825100  1
  O  O47  1  0.33136600  0.33671300  0.47646900  1
  O  O48  1  0.18516100  0.49017100  0.83288600  1
  O  O49  1  0.37270400  0.10833300  0.17029700  1
  O  O50  1  0.32081400  0.18982100  0.83101100  1
  O  O51  1  0.08913900  0.65561200  0.66206600  1
  O  O52  1  0.98927900  0.79948600  0.24130600  1
  O  O53  1  0.01093100  0.79216200  0.42135800  1
  O  O54  1  0.00285100  0.76401900  0.06417400  1
  O  O55  1  0.10591300  0.52064800  0.17079500  1
  O  O56  1  0.18910000  0.32400800  0.32855500  1
  O  O57  1  0.91908500  0.74196600  0.83684000  1
  O  O58  1  0.09271500  0.37731000  0.66829700  1
  O  O59  1  0.25667700  0.08023000  0.65624500  1
  O  O60  1  0.79857500  0.00014700  0.75114500  1
  O  O61  1  0.77775000  0.00883500  0.56896700  1
  O  O62  1  0.22692400  0.00376300  0.42976700  1
  O  O63  1  0.74514500  0.91763700  0.34284900  1
  O  O64  1  0.92129500  0.61916000  0.33611900  1
  O  O65  1  0.07665800  0.26164100  0.15967800  1
  O  O66  1  0.80518100  0.67513500  0.67587800  1
  O  O67  1  0.92131900  0.46370600  0.82865600  1
  O  O68  1  0.00088600  0.22002500  0.93005500  1
  O  O69  1  0.99875400  0.22304900  0.56898600  1
  O  O70  1  0.00193400  0.20166100  0.74964000  1
  O  O71  1  0.91643300  0.33319700  0.34359200  1
  O  O72  1  0.67485200  0.81363100  0.16758500  1
  O  O73  1  0.61936900  0.91445500  0.83160000  1
  O  O74  1  0.81899300  0.51611900  0.17587400  1
  O  O75  1  0.68382700  0.65217300  0.02342100  1
  O  O76  1  0.65844100  0.66278800  0.52544400  1
  O  O77  1  0.67159000  0.51258700  0.67634100  1
  O  O78  1  0.46725200  0.91459900  0.32344300  1
  O  O79  1  0.50737600  0.81125100  0.67162100  1
  O  O80  1  0.74364100  0.34530600  0.84230200  1
  O  O81  1  0.78736600  0.19816000  0.25930500  1
  O  O82  1  0.79883600  0.21055400  0.07917200  1
  O  O83  1  0.61673300  0.46808800  0.33186300  1
  O  O84  1  0.52568900  0.66410900  0.17560300  1
  O  O85  1  0.45775500  0.62600800  0.83565400  1
  O  O86  1  0.33569100  0.92155900  0.83932400  1
  O  O87  1  0.21979200  0.01474000  0.06435500  1
  O  O88  1  0.20400000  0.00220500  0.24671200  1
  O  O89  1  0.33526200  0.74821700  0.34042300  1
  O  O90  1  0.21719600  0.77799700  0.56485400  1
  O  O91  1  0.20602700  0.80468700  0.74219000  1
