# generated using pymatgen
data_Li6V3P8O29
_symmetry_space_group_name_H-M   'P 1'
_cell_length_a   9.79793100
_cell_length_b   9.81190986
_cell_length_c   13.94529314
_cell_angle_alpha   89.73470915
_cell_angle_beta   89.65708098
_cell_angle_gamma   60.19585947
_symmetry_Int_Tables_number   1
_chemical_formula_structural   Li6V3P8O29
_chemical_formula_sum   'Li12 V6 P16 O58'
_cell_volume   1163.29908499
_cell_formula_units_Z   2
loop_
 _symmetry_equiv_pos_site_id
 _symmetry_equiv_pos_as_xyz
  1  'x, y, z'
loop_
 _atom_site_type_symbol
 _atom_site_label
 _atom_site_symmetry_multiplicity
 _atom_site_fract_x
 _atom_site_fract_y
 _atom_site_fract_z
 _atom_site_occupancy
  Li  Li0  1  0.77455700  0.90975000  0.93724100  1
  Li  Li1  1  0.33130200  0.90505600  0.43992000  1
  Li  Li2  1  0.66770000  0.66615100  0.11264500  1
  Li  Li3  1  0.31339800  0.77540900  0.93913000  1
  Li  Li4  1  0.91841800  0.30983400  0.93544100  1
  Li  Li5  1  0.23219700  0.66985300  0.56404900  1
  Li  Li6  1  0.76647700  0.33242900  0.44365300  1
  Li  Li7  1  0.09227400  0.68215000  0.05948100  1
  Li  Li8  1  0.68735700  0.22554300  0.05809700  1
  Li  Li9  1  0.32687300  0.33169700  0.38824100  1
  Li  Li10  1  0.67338600  0.09186600  0.56292400  1
  Li  Li11  1  0.00123800  0.99742700  0.50614800  1
  V  V12  1  0.43143800  0.56733800  0.75153700  1
  V  V13  1  0.56597900  0.43539900  0.25003900  1
  V  V14  1  0.99482100  0.56661700  0.25464800  1
  V  V15  1  0.00457100  0.42977500  0.74474200  1
  V  V16  1  0.56585400  0.99882500  0.74979800  1
  V  V17  1  0.43123300  0.00344600  0.24696500  1
  P  P18  1  0.77009400  0.91120300  0.15957100  1
  P  P19  1  0.91591000  0.77637100  0.65819000  1
  P  P20  1  0.31424400  0.91206900  0.65527600  1
  P  P21  1  0.66816800  0.66488600  0.87179500  1
  P  P22  1  0.66222000  0.66836900  0.37296500  1
  P  P23  1  0.32149600  0.77078700  0.15709700  1
  P  P24  1  0.22608100  0.68301200  0.34216600  1
  P  P25  1  0.91169200  0.31977100  0.15233700  1
  P  P26  1  0.08459800  0.67978000  0.84349400  1
  P  P27  1  0.77122900  0.31759000  0.65888700  1
  P  P28  1  0.67879300  0.23223700  0.84150000  1
  P  P29  1  0.33661900  0.33253700  0.62704800  1
  P  P30  1  0.33185000  0.33749600  0.12821100  1
  P  P31  1  0.68374900  0.09043500  0.34613800  1
  P  P32  1  0.08457600  0.22272600  0.34022000  1
  P  P33  1  0.22917300  0.08480500  0.83959700  1
  O  O34  1  0.77009900  0.00888000  0.43534400  1
  O  O35  1  0.74474900  0.91874200  0.66160800  1
  O  O36  1  0.99689900  0.75410000  0.93503800  1
  O  O37  1  0.92045900  0.74898900  0.15827500  1
  O  O38  1  0.62734700  0.88496000  0.17538800  1
  O  O39  1  0.67370400  0.81361300  0.83340000  1
  O  O40  1  0.47186200  0.90599900  0.66960700  1
  O  O41  1  0.23913900  0.99018100  0.92478500  1
  O  O42  1  0.33905900  0.91680400  0.15865200  1
  O  O43  1  0.81261100  0.66365500  0.32766300  1
  O  O44  1  0.91486900  0.62187300  0.66644800  1
  O  O45  1  0.51450700  0.81905300  0.33224900  1
  O  O46  1  0.66596100  0.66812700  0.98010000  1
  O  O47  1  0.66082100  0.66059900  0.47907200  1
  O  O48  1  0.51270400  0.67187600  0.83511600  1
  O  O49  1  0.88697600  0.48710900  0.17284000  1
  O  O50  1  0.81448700  0.51347200  0.83325000  1
  O  O51  1  0.33710100  0.74275500  0.66551900  1
  O  O52  1  0.21375300  0.78630100  0.24904800  1
  O  O53  1  0.23183200  0.76879600  0.43029100  1
  O  O54  1  0.24624300  0.75045100  0.06914300  1
  O  O55  1  0.48858100  0.62576700  0.17329300  1
  O  O56  1  0.66346400  0.51790200  0.32970700  1
  O  O57  1  0.25060700  0.66153300  0.84367400  1
  O  O58  1  0.61812400  0.47236500  0.66987300  1
  O  O59  1  0.91387200  0.34322800  0.66430000  1
  O  O60  1  0.99209400  0.79693900  0.75698500  1
  O  O61  1  0.00565500  0.79576100  0.57683300  1
  O  O62  1  0.98778500  0.21903500  0.42224600  1
  O  O63  1  0.08286900  0.66076400  0.34002000  1
  O  O64  1  0.37589400  0.51871100  0.33055300  1
  O  O65  1  0.74696200  0.33262500  0.15820200  1
  O  O66  1  0.32472900  0.48877200  0.66541200  1
  O  O67  1  0.51850700  0.38002500  0.82233100  1
  O  O68  1  0.75528200  0.24759800  0.93092700  1
  O  O69  1  0.77951900  0.22445000  0.57031200  1
  O  O70  1  0.79106100  0.20872700  0.75104300  1
  O  O71  1  0.66469200  0.25677200  0.34137800  1
  O  O72  1  0.17968600  0.48074400  0.17137100  1
  O  O73  1  0.09426500  0.52165600  0.82222300  1
  O  O74  1  0.47951500  0.34129600  0.17201100  1
  O  O75  1  0.33797400  0.33837300  0.02222500  1
  O  O76  1  0.33941800  0.33555700  0.51893200  1
  O  O77  1  0.49302400  0.18756400  0.66394000  1
  O  O78  1  0.10148000  0.37293600  0.33231300  1
  O  O79  1  0.19574600  0.32213800  0.67016600  1
  O  O80  1  0.66332300  0.08349100  0.84239200  1
  O  O81  1  0.78568000  0.00067500  0.25150600  1
  O  O82  1  0.75141400  0.00490300  0.06999700  1
  O  O83  1  0.51963800  0.10446900  0.33335500  1
  O  O84  1  0.34292300  0.18489300  0.17509000  1
  O  O85  1  0.38284300  0.09251700  0.82112700  1
  O  O86  1  0.08583700  0.25256300  0.83918800  1
  O  O87  1  0.99450300  0.24978400  0.06133500  1
  O  O88  1  0.00886800  0.20894000  0.24116400  1
  O  O89  1  0.25260600  0.07904800  0.34158700  1
  O  O90  1  0.22929400  0.98169800  0.56328000  1
  O  O91  1  0.20285500  0.00744100  0.74379300  1
