# generated using pymatgen
data_Li4Nb3V5O16
_symmetry_space_group_name_H-M   'P 1'
_cell_length_a   6.06278011
_cell_length_b   6.05487280
_cell_length_c   9.85537978
_cell_angle_alpha   90.00566847
_cell_angle_beta   88.83178373
_cell_angle_gamma   119.95844953
_symmetry_Int_Tables_number   1
_chemical_formula_structural   Li4Nb3V5O16
_chemical_formula_sum   'Li4 Nb3 V5 O16'
_cell_volume   313.35946748
_cell_formula_units_Z   1
loop_
 _symmetry_equiv_pos_site_id
 _symmetry_equiv_pos_as_xyz
  1  'x, y, z'
loop_
 _atom_site_type_symbol
 _atom_site_label
 _atom_site_symmetry_multiplicity
 _atom_site_fract_x
 _atom_site_fract_y
 _atom_site_fract_z
 _atom_site_occupancy
  Li  Li0  1  0.33298300  0.66651300  0.89829200  1
  Li  Li1  1  0.01683800  0.00843100  0.99460900  1
  Li  Li2  1  0.01815900  0.00908400  0.49459300  1
  Li  Li3  1  0.66912500  0.33460300  0.38673500  1
  Nb  Nb4  1  0.66099200  0.83054500  0.21490500  1
  Nb  Nb5  1  0.82196900  0.64900900  0.71381000  1
  Nb  Nb6  1  0.82201000  0.17306800  0.71380400  1
  V  V7  1  0.16968700  0.82846000  0.21337100  1
  V  V8  1  0.32121900  0.66061900  0.48550500  1
  V  V9  1  0.16974700  0.34118600  0.21336900  1
  V  V10  1  0.34543800  0.17273700  0.71095400  1
  V  V11  1  0.65833100  0.32918200  0.99366500  1
  O  O12  1  0.15511900  0.82344300  0.59948000  1
  O  O13  1  0.03677500  0.51838700  0.33408500  1
  O  O14  1  0.34670300  0.67335500  0.10041600  1
  O  O15  1  0.99363300  0.99677900  0.31254600  1
  O  O16  1  0.99484900  0.99747500  0.81078300  1
  O  O17  1  0.15513200  0.33171400  0.59949000  1
  O  O18  1  0.48121200  0.95896400  0.34106000  1
  O  O19  1  0.48118500  0.52224900  0.34104900  1
  O  O20  1  0.32751500  0.16372600  0.10281600  1
  O  O21  1  0.67264500  0.83633600  0.60133500  1
  O  O22  1  0.52614000  0.48901300  0.84434200  1
  O  O23  1  0.52613900  0.03717800  0.84433400  1
  O  O24  1  0.67169200  0.33584800  0.58691400  1
  O  O25  1  0.83057500  0.67207800  0.10292100  1
  O  O26  1  0.96350000  0.48180300  0.84973200  1
  O  O27  1  0.83068300  0.15851700  0.10292700  1
