# generated using pymatgen
data_Li3Fe3(PO4)4
_symmetry_space_group_name_H-M   'P 1'
_cell_length_a   8.25816500
_cell_length_b   8.89327811
_cell_length_c   13.54413133
_cell_angle_alpha   95.72265680
_cell_angle_beta   90.07984276
_cell_angle_gamma   90.06144947
_symmetry_Int_Tables_number   1
_chemical_formula_structural   Li3Fe3(PO4)4
_chemical_formula_sum   'Li9 Fe9 P12 O48'
_cell_volume   989.75111975
_cell_formula_units_Z   3
loop_
 _symmetry_equiv_pos_site_id
 _symmetry_equiv_pos_as_xyz
  1  'x, y, z'
loop_
 _atom_site_type_symbol
 _atom_site_label
 _atom_site_symmetry_multiplicity
 _atom_site_fract_x
 _atom_site_fract_y
 _atom_site_fract_z
 _atom_site_occupancy
  Li  Li0  1  0.52328100  0.33662300  0.83094100  1
  Li  Li1  1  0.47844100  0.99301400  0.50388200  1
  Li  Li2  1  0.85216700  0.43660600  0.82516400  1
  Li  Li3  1  0.99189000  0.82231200  0.83537500  1
  Li  Li4  1  0.00271200  0.51176200  0.49290400  1
  Li  Li5  1  0.97462300  0.17429300  0.16174100  1
  Li  Li6  1  0.64740700  0.27426700  0.15485100  1
  Li  Li7  1  0.14614100  0.89432100  0.50955600  1
  Li  Li8  1  0.50642400  0.65225000  0.17092500  1
  Fe  Fe9  1  0.14275100  0.23477900  0.83688100  1
  Fe  Fe10  1  0.85427300  0.09835100  0.49507200  1
  Fe  Fe11  1  0.35197400  0.73502900  0.83783600  1
  Fe  Fe12  1  0.34922100  0.40138000  0.50133400  1
  Fe  Fe13  1  0.35753400  0.07255400  0.17247700  1
  Fe  Fe14  1  0.65436700  0.93507200  0.83244600  1
  Fe  Fe15  1  0.65142200  0.59892700  0.49287700  1
  Fe  Fe16  1  0.14943100  0.56464300  0.17426800  1
  Fe  Fe17  1  0.84440300  0.76441000  0.16225000  1
  P  P18  1  0.80688500  0.14462000  0.94684700  1
  P  P19  1  0.30021500  0.02578400  0.72078700  1
  P  P20  1  0.70257400  0.63901400  0.94190600  1
  P  P21  1  0.69964800  0.30765500  0.61234000  1
  P  P22  1  0.20353400  0.52062100  0.72390300  1
  P  P23  1  0.19676600  0.18796500  0.39035900  1
  P  P24  1  0.79690400  0.81296600  0.60874100  1
  P  P25  1  0.79768600  0.47199300  0.27550600  1
  P  P26  1  0.29740900  0.69478200  0.39096700  1
  P  P27  1  0.29577500  0.35427300  0.05678500  1
  P  P28  1  0.69765300  0.97764100  0.27585100  1
  P  P29  1  0.20210900  0.85773100  0.05858900  1
  O  O30  1  0.13447900  0.01952100  0.77804200  1
  O  O31  1  0.63893200  0.14579000  0.88881600  1
  O  O32  1  0.92966400  0.24641000  0.89621000  1
  O  O33  1  0.28080400  0.30808400  0.94518600  1
  O  O34  1  0.35251800  0.19197100  0.75027800  1
  O  O35  1  0.63314900  0.48198700  0.92686300  1
  O  O36  1  0.64694200  0.14100100  0.58273500  1
  O  O37  1  0.70484500  0.35742400  0.72103800  1
  O  O38  1  0.08420000  0.41063300  0.76770000  1
  O  O39  1  0.71629300  0.02729900  0.38710000  1
  O  O40  1  0.07055800  0.08538000  0.43450000  1
  O  O41  1  0.37216200  0.52372000  0.77853800  1
  O  O42  1  0.86348000  0.65372900  0.88952200  1
  O  O43  1  0.36310000  0.18631900  0.44750600  1
  O  O44  1  0.86582500  0.31220500  0.55476800  1
  O  O45  1  0.57421800  0.75662700  0.89689000  1
  O  O46  1  0.21451500  0.80397500  0.94721500  1
  O  O47  1  0.57770400  0.41728400  0.55836200  1
  O  O48  1  0.21868100  0.47495100  0.61137900  1
  O  O49  1  0.57186300  0.08194600  0.23173200  1
  O  O50  1  0.15075800  0.68841300  0.74749200  1
  O  O51  1  0.21535100  0.13868300  0.27859000  1
  O  O52  1  0.15297300  0.35890800  0.41100900  1
  O  O53  1  0.14759500  0.02326600  0.07960200  1
  O  O54  1  0.85163100  0.97306500  0.91956700  1
  O  O55  1  0.85122900  0.64594000  0.58586800  1
  O  O56  1  0.78164600  0.85870000  0.72096700  1
  O  O57  1  0.86676000  0.31450000  0.26203500  1
  O  O58  1  0.42334200  0.91592600  0.77355800  1
  O  O59  1  0.79191900  0.53271600  0.38855500  1
  O  O60  1  0.42629000  0.57820000  0.43585600  1
  O  O61  1  0.79460900  0.18903100  0.05670700  1
  O  O62  1  0.41610000  0.24431500  0.10156900  1
  O  O63  1  0.13743100  0.67989400  0.44401300  1
  O  O64  1  0.62903500  0.81013000  0.55338400  1
  O  O65  1  0.12933500  0.35409000  0.11365200  1
  O  O66  1  0.63665400  0.48587200  0.22304200  1
  O  O67  1  0.91560200  0.92403300  0.56452800  1
  O  O68  1  0.29435800  0.97614700  0.61135900  1
  O  O69  1  0.92465900  0.58876600  0.22907800  1
  O  O70  1  0.28977700  0.63454800  0.27789400  1
  O  O71  1  0.36593300  0.85280300  0.40487400  1
  O  O72  1  0.34722100  0.52231300  0.08055800  1
  O  O73  1  0.65130000  0.80743200  0.25553000  1
  O  O74  1  0.70947000  0.69921900  0.05503300  1
  O  O75  1  0.07878700  0.74726000  0.10574000  1
  O  O76  1  0.36783300  0.85517900  0.11431000  1
  O  O77  1  0.86284500  0.97875600  0.21788600  1
