# generated using pymatgen
data_Li4AlCr3O8
_symmetry_space_group_name_H-M   'P 1'
_cell_length_a   5.06630209
_cell_length_b   8.83631088
_cell_length_c   6.60893469
_cell_angle_alpha   82.23711906
_cell_angle_beta   97.34437861
_cell_angle_gamma   84.53787266
_symmetry_Int_Tables_number   1
_chemical_formula_structural   Li4AlCr3O8
_chemical_formula_sum   'Li8 Al2 Cr6 O16'
_cell_volume   288.83845223
_cell_formula_units_Z   2
loop_
 _symmetry_equiv_pos_site_id
 _symmetry_equiv_pos_as_xyz
  1  'x, y, z'
loop_
 _atom_site_type_symbol
 _atom_site_label
 _atom_site_symmetry_multiplicity
 _atom_site_fract_x
 _atom_site_fract_y
 _atom_site_fract_z
 _atom_site_occupancy
  Li  Li0  1  0.00220600  0.49907800  0.49951600  1
  Li  Li1  1  0.00213000  0.99907900  0.99951600  1
  Li  Li2  1  0.49784600  0.87592500  0.87546900  1
  Li  Li3  1  0.49778400  0.37592800  0.37543200  1
  Li  Li4  1  0.49872500  0.12446500  0.12379900  1
  Li  Li5  1  0.49869700  0.62446900  0.62383200  1
  Li  Li6  1  0.00131700  0.25055200  0.25111800  1
  Li  Li7  1  0.00130200  0.75054900  0.75116800  1
  Al  Al8  1  0.24995600  0.68748500  0.18750800  1
  Al  Al9  1  0.25002300  0.18747800  0.68749500  1
  Cr  Cr10  1  0.25006100  0.43747900  0.93748900  1
  Cr  Cr11  1  0.75022500  0.81091400  0.31169800  1
  Cr  Cr12  1  0.74971700  0.06408700  0.56330300  1
  Cr  Cr13  1  0.24995200  0.93747700  0.43755400  1
  Cr  Cr14  1  0.75029100  0.31099400  0.81158000  1
  Cr  Cr15  1  0.74976000  0.56405900  0.06337500  1
  O  O16  1  0.12680200  0.22457200  0.94614600  1
  O  O17  1  0.12678000  0.72453100  0.44623000  1
  O  O18  1  0.37322800  0.65043500  0.92886100  1
  O  O19  1  0.37317200  0.15043200  0.42881800  1
  O  O20  1  0.37407000  0.38984900  0.67034200  1
  O  O21  1  0.37403700  0.88981700  0.17042400  1
  O  O22  1  0.12597000  0.48513700  0.20462600  1
  O  O23  1  0.12590800  0.98516100  0.70465200  1
  O  O24  1  0.62410100  0.35215100  0.08027700  1
  O  O25  1  0.62403600  0.85217500  0.58035400  1
  O  O26  1  0.87597000  0.52290400  0.79466900  1
  O  O27  1  0.87589900  0.02283000  0.29466300  1
  O  O28  1  0.60597000  0.60406700  0.32596700  1
  O  O29  1  0.60602900  0.10417000  0.82587600  1
  O  O30  1  0.89398600  0.77084800  0.04918000  1
  O  O31  1  0.89404600  0.27090000  0.54906300  1
