# generated using pymatgen
data_Li2MnF4
_symmetry_space_group_name_H-M   'P 1'
_cell_length_a   5.05278883
_cell_length_b   5.05278883
_cell_length_c   9.90172300
_cell_angle_alpha   90.00000000
_cell_angle_beta   90.00000000
_cell_angle_gamma   145.74164097
_symmetry_Int_Tables_number   1
_chemical_formula_structural   Li2MnF4
_chemical_formula_sum   'Li4 Mn2 F8'
_cell_volume   142.30625968
_cell_formula_units_Z   2
loop_
 _symmetry_equiv_pos_site_id
 _symmetry_equiv_pos_as_xyz
  1  'x, y, z'
loop_
 _atom_site_type_symbol
 _atom_site_label
 _atom_site_symmetry_multiplicity
 _atom_site_fract_x
 _atom_site_fract_y
 _atom_site_fract_z
 _atom_site_occupancy
  Li  Li0  1  0.62573200  0.37426800  0.43890100  1
  Li  Li1  1  0.62573200  0.37426800  0.06109900  1
  Li  Li2  1  0.37426800  0.62573200  0.56109900  1
  Li  Li3  1  0.37426800  0.62573200  0.93890100  1
  Mn  Mn4  1  0.88196700  0.11803300  0.25000000  1
  Mn  Mn5  1  0.11803300  0.88196700  0.75000000  1
  F  F6  1  0.00000000  0.00000000  0.00000000  1
  F  F7  1  0.00000000  0.00000000  0.50000000  1
  F  F8  1  0.54162700  0.45837300  0.25000000  1
  F  F9  1  0.72103700  0.27896300  0.61805400  1
  F  F10  1  0.72103700  0.27896300  0.88194600  1
  F  F11  1  0.45837300  0.54162700  0.75000000  1
  F  F12  1  0.27896300  0.72103700  0.11805400  1
  F  F13  1  0.27896300  0.72103700  0.38194600  1
