# generated using pymatgen
data_LiV2P4(HO8)2
_symmetry_space_group_name_H-M   'P 1'
_cell_length_a   9.28830758
_cell_length_b   9.28229811
_cell_length_c   7.77858693
_cell_angle_alpha   78.06652636
_cell_angle_beta   77.89507944
_cell_angle_gamma   116.36518751
_symmetry_Int_Tables_number   1
_chemical_formula_structural   LiV2P4(HO8)2
_chemical_formula_sum   'Li2 V4 P8 H4 O32'
_cell_volume   552.02658025
_cell_formula_units_Z   2
loop_
 _symmetry_equiv_pos_site_id
 _symmetry_equiv_pos_as_xyz
  1  'x, y, z'
loop_
 _atom_site_type_symbol
 _atom_site_label
 _atom_site_symmetry_multiplicity
 _atom_site_fract_x
 _atom_site_fract_y
 _atom_site_fract_z
 _atom_site_occupancy
  Li  Li0  1  0.45924608  0.08952114  0.35615028  1
  Li  Li1  1  0.65832150  0.78639923  0.14393272  1
  V  V2  1  0.24026325  0.25114736  0.50422596  1
  V  V3  1  0.49998506  0.00668119  0.98748476  1
  V  V4  1  0.99765293  0.49502692  0.00193515  1
  V  V5  1  0.75351632  0.74980015  0.50448389  1
  P  P6  1  0.25309812  0.60639670  0.26799583  1
  P  P7  1  0.75201734  0.10214160  0.26496122  1
  P  P8  1  0.64426144  0.49295726  0.23255587  1
  P  P9  1  0.14640897  0.99948305  0.23459312  1
  P  P10  1  0.35448984  0.50383001  0.76806633  1
  P  P11  1  0.85077548  0.00402249  0.76605837  1
  P  P12  1  0.75007955  0.39880532  0.73158789  1
  P  P13  1  0.23833577  0.89393167  0.73589566  1
  H  H14  1  0.75939661  0.26773878  0.51279467  1
  H  H15  1  0.24230911  0.73676988  0.49226937  1
  H  H16  1  0.48424812  0.49145818  0.98736253  1
  H  H17  1  0.01727415  0.00966269  0.01599025  1
  O  O18  1  0.12393242  0.07244222  0.05205673  1
  O  O19  1  0.17660295  0.12883601  0.34455991  1
  O  O20  1  0.01403942  0.18055911  0.63324327  1
  O  O21  1  0.21968004  0.05458940  0.67659515  1
  O  O22  1  0.62594373  0.07126934  0.15188049  1
  O  O23  1  0.12600572  0.56782099  0.16018049  1
  O  O24  1  0.27182765  0.44532060  0.32996380  1
  O  O25  1  0.48598577  0.31522644  0.36471229  1
  O  O26  1  0.67704726  0.13565789  0.43415767  1
  O  O27  1  0.17959700  0.63220904  0.44684651  1
  O  O28  1  0.31490685  0.37455806  0.65914842  1
  O  O29  1  0.19429435  0.52239045  0.82832849  1
  O  O30  1  0.69729868  0.02994733  0.81000832  1
  O  O31  1  0.61349106  0.57173930  0.06372861  1
  O  O32  1  0.92800674  0.26502007  0.13030773  1
  O  O33  1  0.43057394  0.75972790  0.13772079  1
  O  O34  1  0.57517038  0.24324882  0.86307695  1
  O  O35  1  0.06790420  0.73395769  0.87232123  1
  O  O36  1  0.37854694  0.42623672  0.94647672  1
  O  O37  1  0.80314660  0.47131765  0.17313848  1
  O  O38  1  0.31076867  0.99036441  0.18781879  1
  O  O39  1  0.68092311  0.61992292  0.34323136  1
  O  O40  1  0.82541889  0.37217907  0.55279845  1
  O  O41  1  0.31438474  0.87033737  0.55900752  1
  O  O42  1  0.50976395  0.67544249  0.63497350  1
  O  O43  1  0.72825730  0.55373835  0.68121330  1
  O  O44  1  0.87782588  0.43197107  0.84201893  1
  O  O45  1  0.36375419  0.93209024  0.84884018  1
  O  O46  1  0.77085155  0.94391336  0.30863592  1
  O  O47  1  0.99154675  0.82534364  0.36414314  1
  O  O48  1  0.82312936  0.88424095  0.64797643  1
  O  O49  1  0.87667629  0.93361949  0.94254756  1
