# generated using pymatgen
data_Na2LiMnPCO7
_symmetry_space_group_name_H-M   'P 1'
_cell_length_a   6.77743400
_cell_length_b   8.86920464
_cell_length_c   10.23184925
_cell_angle_alpha   89.12510748
_cell_angle_beta   89.95174136
_cell_angle_gamma   89.90715568
_symmetry_Int_Tables_number   1
_chemical_formula_structural   Na2LiMnPCO7
_chemical_formula_sum   'Na8 Li4 Mn4 P4 C4 O28'
_cell_volume   614.96833912
_cell_formula_units_Z   4
loop_
 _symmetry_equiv_pos_site_id
 _symmetry_equiv_pos_as_xyz
  1  'x, y, z'
loop_
 _atom_site_type_symbol
 _atom_site_label
 _atom_site_symmetry_multiplicity
 _atom_site_fract_x
 _atom_site_fract_y
 _atom_site_fract_z
 _atom_site_occupancy
  Na  Na0  1  0.75057900  0.08405900  0.87945000  1
  Na  Na1  1  0.74400600  0.08225700  0.37834500  1
  Na  Na2  1  0.00057900  0.25652700  0.62345700  1
  Na  Na3  1  0.49933300  0.25602900  0.62361700  1
  Na  Na4  1  0.99986400  0.25514700  0.12594800  1
  Na  Na5  1  0.49818800  0.74514100  0.87483100  1
  Na  Na6  1  0.49827600  0.74424500  0.37713000  1
  Na  Na7  1  0.00074000  0.74469300  0.37662300  1
  Li  Li8  1  0.52319300  0.27364300  0.11605800  1
  Li  Li9  1  0.02058500  0.72877600  0.88411100  1
  Li  Li10  1  0.24238200  0.90963800  0.62704900  1
  Li  Li11  1  0.25426600  0.91181100  0.12464100  1
  Mn  Mn12  1  0.25445000  0.35961600  0.88973200  1
  Mn  Mn13  1  0.25092200  0.36214800  0.38722600  1
  Mn  Mn14  1  0.75128900  0.64189500  0.61279400  1
  Mn  Mn15  1  0.75410000  0.64356700  0.11013700  1
  P  P16  1  0.75689300  0.41366200  0.85426000  1
  P  P17  1  0.74544200  0.40867300  0.35030000  1
  P  P18  1  0.24565500  0.59740500  0.65038400  1
  P  P19  1  0.25578300  0.59226400  0.14598100  1
  C  C20  1  0.24107000  0.04455600  0.86815100  1
  C  C21  1  0.25099700  0.05200800  0.36395100  1
  C  C22  1  0.75105300  0.94167000  0.63409600  1
  C  C23  1  0.74134300  0.94722000  0.13111700  1
  O  O24  1  0.75124000  0.08632700  0.64480900  1
  O  O25  1  0.72349600  0.09250500  0.14017500  1
  O  O26  1  0.24729400  0.08589800  0.98906900  1
  O  O27  1  0.24960500  0.08942500  0.48687900  1
  O  O28  1  0.25604100  0.14591500  0.77399000  1
  O  O29  1  0.25330800  0.15566800  0.27221700  1
  O  O30  1  0.93884300  0.31678500  0.89535200  1
  O  O31  1  0.57145900  0.32660900  0.90533500  1
  O  O32  1  0.93334000  0.31648300  0.38779600  1
  O  O33  1  0.56524800  0.31656400  0.40023000  1
  O  O34  1  0.74847800  0.42575700  0.70186900  1
  O  O35  1  0.24944800  0.43769000  0.58962200  1
  O  O36  1  0.73323800  0.42369400  0.19743300  1
  O  O37  1  0.26742000  0.42997900  0.09002300  1
  O  O38  1  0.76808000  0.57641700  0.90789600  1
  O  O39  1  0.23300500  0.57738600  0.80256400  1
  O  O40  1  0.74941600  0.56915500  0.40841300  1
  O  O41  1  0.24776800  0.57585500  0.29793600  1
  O  O42  1  0.43178700  0.69241000  0.61462300  1
  O  O43  1  0.06775100  0.69355900  0.60199400  1
  O  O44  1  0.43577900  0.69196800  0.10657100  1
  O  O45  1  0.07164600  0.68203300  0.09639300  1
  O  O46  1  0.75304400  0.85453100  0.73792200  1
  O  O47  1  0.75357000  0.86234200  0.23668700  1
  O  O48  1  0.74859500  0.88008000  0.51922500  1
  O  O49  1  0.74863100  0.88294000  0.01845500  1
  O  O50  1  0.22141100  0.90364400  0.83699700  1
  O  O51  1  0.25007100  0.91173300  0.33013300  1
