# generated using pymatgen
data_Li4Ni5O9
_symmetry_space_group_name_H-M   'P 1'
_cell_length_a   7.63425415
_cell_length_b   6.49469399
_cell_length_c   7.66377779
_cell_angle_alpha   85.57062200
_cell_angle_beta   64.64721227
_cell_angle_gamma   65.13682123
_symmetry_Int_Tables_number   1
_chemical_formula_structural   Li4Ni5O9
_chemical_formula_sum   'Li8 Ni10 O18'
_cell_volume   309.10353816
_cell_formula_units_Z   2
loop_
 _symmetry_equiv_pos_site_id
 _symmetry_equiv_pos_as_xyz
  1  'x, y, z'
loop_
 _atom_site_type_symbol
 _atom_site_label
 _atom_site_symmetry_multiplicity
 _atom_site_fract_x
 _atom_site_fract_y
 _atom_site_fract_z
 _atom_site_occupancy
  Li  Li0  1  0.72196500  0.44419600  0.94707700  1
  Li  Li1  1  0.83086400  0.66782000  0.16963700  1
  Li  Li2  1  0.60715700  0.22634800  0.72377400  1
  Li  Li3  1  0.38864100  0.77853400  0.27940300  1
  Li  Li4  1  0.16692400  0.33358200  0.83070100  1
  Li  Li5  1  0.50024700  0.99924400  0.49837500  1
  Li  Li6  1  0.28173200  0.55143000  0.05400400  1
  Li  Li7  1  0.05802500  0.10995700  0.60814100  1
  Ni  Ni8  1  0.89249800  0.77998200  0.77503300  1
  Ni  Ni9  1  0.94444400  0.88888900  0.38888900  1
  Ni  Ni10  1  0.44444400  0.88888900  0.88888900  1
  Ni  Ni11  1  0.77889700  0.55571500  0.55845800  1
  Ni  Ni12  1  0.33607900  0.66751900  0.66527100  1
  Ni  Ni13  1  0.66654400  0.33216300  0.33459700  1
  Ni  Ni14  1  0.22234500  0.44561400  0.44318100  1
  Ni  Ni15  1  0.55281000  0.11025900  0.11250700  1
  Ni  Ni16  1  0.10999200  0.22206200  0.21932000  1
  Ni  Ni17  1  0.99639100  0.99779600  0.00274400  1
  O  O18  1  0.96991000  0.46146400  0.68229900  1
  O  O19  1  0.71055000  0.88854800  0.65181800  1
  O  O20  1  0.80685800  0.09742600  0.88357600  1
  O  O21  1  0.54316000  0.57307400  0.79799400  1
  O  O22  1  0.26329400  0.97407000  0.75510500  1
  O  O23  1  0.87821900  0.22183900  0.45580500  1
  O  O24  1  0.58567500  0.65598400  0.43864600  1
  O  O25  1  0.34572900  0.20470400  0.97978400  1
  O  O26  1  0.08203000  0.68035200  0.89420100  1
  O  O27  1  0.91897900  0.31631400  0.09547900  1
  O  O28  1  0.62559500  0.80370800  0.02267300  1
  O  O29  1  0.41746100  0.35754300  0.58094100  1
  O  O30  1  0.14069500  0.77390000  0.52652200  1
  O  O31  1  0.74819400  0.00387800  0.25125500  1
  O  O32  1  0.47142800  0.42023500  0.19683700  1
  O  O33  1  0.17833800  0.88923000  0.12595900  1
  O  O34  1  0.30321400  0.12179400  0.33913100  1
  O  O35  1  0.01067000  0.55593900  0.32197300  1
