# generated using pymatgen
data_Li4V2CrTeO12
_symmetry_space_group_name_H-M   'P 1'
_cell_length_a   5.06248000
_cell_length_b   5.32188995
_cell_length_c   7.32971655
_cell_angle_alpha   86.10822234
_cell_angle_beta   89.72000477
_cell_angle_gamma   89.92189222
_symmetry_Int_Tables_number   1
_chemical_formula_structural   Li4V2CrTeO12
_chemical_formula_sum   'Li4 V2 Cr1 Te1 O12'
_cell_volume   197.01910639
_cell_formula_units_Z   1
loop_
 _symmetry_equiv_pos_site_id
 _symmetry_equiv_pos_as_xyz
  1  'x, y, z'
loop_
 _atom_site_type_symbol
 _atom_site_label
 _atom_site_symmetry_multiplicity
 _atom_site_fract_x
 _atom_site_fract_y
 _atom_site_fract_z
 _atom_site_occupancy
  Li  Li0  1  0.99846300  0.59544100  0.27797000  1
  Li  Li1  1  0.50352200  0.07929200  0.80434800  1
  Li  Li2  1  0.00318400  0.56854900  0.79730800  1
  Li  Li3  1  0.49167200  0.05169300  0.26459600  1
  V  V4  1  0.00450400  0.01167300  0.50308200  1
  V  V5  1  0.49782200  0.52143400  0.00153000  1
  Cr  Cr6  1  0.99560600  0.02243200  0.00535800  1
  Te  Te7  1  0.50078600  0.50176500  0.50026700  1
  O  O8  1  0.69492700  0.79657500  0.42116100  1
  O  O9  1  0.88922400  0.99077800  0.73160500  1
  O  O10  1  0.68934400  0.17537200  0.04745000  1
  O  O11  1  0.80984400  0.29906800  0.42548700  1
  O  O12  1  0.20689600  0.29238400  0.94008200  1
  O  O13  1  0.62883600  0.47600700  0.74644700  1
  O  O14  1  0.37534700  0.47375100  0.24872900  1
  O  O15  1  0.79837100  0.67314300  0.04486600  1
  O  O16  1  0.17942600  0.67206200  0.55767700  1
  O  O17  1  0.30164500  0.78460600  0.94064200  1
  O  O18  1  0.10965700  0.98225000  0.25633700  1
  O  O19  1  0.32092800  0.17412400  0.55625600  1
