# generated using pymatgen
data_Li4Ti2Ni3Sn3O16
_symmetry_space_group_name_H-M   'P 1'
_cell_length_a   6.01577094
_cell_length_b   6.01577094
_cell_length_c   9.63158854
_cell_angle_alpha   88.16406293
_cell_angle_beta   88.16406293
_cell_angle_gamma   60.92927897
_symmetry_Int_Tables_number   1
_chemical_formula_structural   Li4Ti2Ni3Sn3O16
_chemical_formula_sum   'Li4 Ti2 Ni3 Sn3 O16'
_cell_volume   304.44018881
_cell_formula_units_Z   1
loop_
 _symmetry_equiv_pos_site_id
 _symmetry_equiv_pos_as_xyz
  1  'x, y, z'
loop_
 _atom_site_type_symbol
 _atom_site_label
 _atom_site_symmetry_multiplicity
 _atom_site_fract_x
 _atom_site_fract_y
 _atom_site_fract_z
 _atom_site_occupancy
  Li  Li0  1  0.67718800  0.67718800  0.89074600  1
  Li  Li1  1  0.97951700  0.97951700  0.98941500  1
  Li  Li2  1  0.98750000  0.98750000  0.50056400  1
  Li  Li3  1  0.33306300  0.33306300  0.40268000  1
  Ti  Ti4  1  0.67645100  0.67645100  0.49417700  1
  Ti  Ti5  1  0.35805600  0.35805600  0.98608400  1
  Ni  Ni6  1  0.82907400  0.82907400  0.21659700  1
  Ni  Ni7  1  0.65947400  0.17597900  0.71435200  1
  Ni  Ni8  1  0.17597900  0.65947400  0.71435200  1
  Sn  Sn9  1  0.83241900  0.33925000  0.21366500  1
  Sn  Sn10  1  0.33925000  0.83241900  0.21366500  1
  Sn  Sn11  1  0.16969400  0.16969400  0.71484700  1
  O  O12  1  0.82936900  0.32403700  0.59743900  1
  O  O13  1  0.51218900  0.51218900  0.34253900  1
  O  O14  1  0.67343400  0.67343400  0.09822200  1
  O  O15  1  0.99382700  0.99382700  0.31342500  1
  O  O16  1  0.98552900  0.98552900  0.80201000  1
  O  O17  1  0.32403700  0.82936900  0.59743900  1
  O  O18  1  0.95879100  0.51205000  0.35308900  1
  O  O19  1  0.51205000  0.95879100  0.35308900  1
  O  O20  1  0.16387100  0.16387100  0.08636200  1
  O  O21  1  0.81923600  0.81923600  0.59133700  1
  O  O22  1  0.49073700  0.04649600  0.83913400  1
  O  O23  1  0.04649600  0.49073700  0.83913400  1
  O  O24  1  0.34814200  0.34814200  0.61148800  1
  O  O25  1  0.65877600  0.17619800  0.09123300  1
  O  O26  1  0.48714200  0.48714200  0.84960700  1
  O  O27  1  0.17619800  0.65877600  0.09123300  1
