# generated using pymatgen
data_LiNiPO4
_symmetry_space_group_name_H-M   'P 1'
_cell_length_a   5.65493800
_cell_length_b   5.65496000
_cell_length_c   7.99006700
_cell_angle_alpha   89.99996836
_cell_angle_beta   89.99999283
_cell_angle_gamma   90.00000000
_symmetry_Int_Tables_number   1
_chemical_formula_structural   LiNiPO4
_chemical_formula_sum   'Li4 Ni4 P4 O16'
_cell_volume   255.50994361
_cell_formula_units_Z   4
loop_
 _symmetry_equiv_pos_site_id
 _symmetry_equiv_pos_as_xyz
  1  'x, y, z'
loop_
 _atom_site_type_symbol
 _atom_site_label
 _atom_site_symmetry_multiplicity
 _atom_site_fract_x
 _atom_site_fract_y
 _atom_site_fract_z
 _atom_site_occupancy
  Li  Li0  1  0.00000000  0.22846100  0.00000000  1
  Li  Li1  1  0.99999900  0.77153800  0.50000000  1
  Li  Li2  1  0.22846000  0.00000000  0.25000000  1
  Li  Li3  1  0.77153800  0.00000000  0.75000000  1
  Ni  Ni4  1  0.23795200  0.50000500  0.25000000  1
  Ni  Ni5  1  0.50000300  0.23794600  0.99999400  1
  Ni  Ni6  1  0.49999800  0.76205600  0.49999800  1
  Ni  Ni7  1  0.76205300  0.50000300  0.75000300  1
  P  P8  1  0.25366100  0.25366100  0.62500100  1
  P  P9  1  0.25366100  0.74633700  0.87500000  1
  P  P10  1  0.74634000  0.25366200  0.37500100  1
  P  P11  1  0.74634000  0.74633700  0.12500000  1
  O  O12  1  0.97123200  0.25405600  0.26319100  1
  O  O13  1  0.97123100  0.74594300  0.23680900  1
  O  O14  1  0.25405600  0.97123000  0.98681000  1
  O  O15  1  0.25405500  0.02876900  0.51319100  1
  O  O16  1  0.25436200  0.51828000  0.98961900  1
  O  O17  1  0.25436100  0.48171900  0.51038100  1
  O  O18  1  0.51828100  0.25436000  0.26038100  1
  O  O19  1  0.51828100  0.74563800  0.23961900  1
  O  O20  1  0.48171900  0.25436200  0.73961900  1
  O  O21  1  0.48171800  0.74563800  0.76038000  1
  O  O22  1  0.74563600  0.48171900  0.48961900  1
  O  O23  1  0.74563700  0.51828000  0.01038200  1
  O  O24  1  0.74594500  0.02876900  0.48680900  1
  O  O25  1  0.74594400  0.97122900  0.01319100  1
  O  O26  1  0.02876800  0.25405500  0.73680900  1
  O  O27  1  0.02876800  0.74594400  0.76319200  1
