# generated using pymatgen
data_LiMnFeO4
_symmetry_space_group_name_H-M   'P 1'
_cell_length_a   5.88817400
_cell_length_b   5.88817400
_cell_length_c   8.26356900
_cell_angle_alpha   90.00000000
_cell_angle_beta   90.00000000
_cell_angle_gamma   90.00000000
_symmetry_Int_Tables_number   1
_chemical_formula_structural   LiMnFeO4
_chemical_formula_sum   'Li4 Mn4 Fe4 O16'
_cell_volume   286.50283797
_cell_formula_units_Z   4
loop_
 _symmetry_equiv_pos_site_id
 _symmetry_equiv_pos_as_xyz
  1  'x, y, z'
loop_
 _atom_site_type_symbol
 _atom_site_label
 _atom_site_symmetry_multiplicity
 _atom_site_fract_x
 _atom_site_fract_y
 _atom_site_fract_z
 _atom_site_occupancy
  Li  Li0  1  0.00000000  0.22856100  0.00000000  1
  Li  Li1  1  0.00000000  0.77143900  0.50000000  1
  Li  Li2  1  0.22856100  0.00000000  0.25000000  1
  Li  Li3  1  0.77143900  0.00000000  0.75000000  1
  Mn  Mn4  1  0.23858500  0.50000000  0.25000000  1
  Mn  Mn5  1  0.50000000  0.23858500  0.00000000  1
  Mn  Mn6  1  0.50000000  0.76141500  0.50000000  1
  Mn  Mn7  1  0.76141500  0.50000000  0.75000000  1
  Fe  Fe8  1  0.25530200  0.25530200  0.62500000  1
  Fe  Fe9  1  0.25530200  0.74469800  0.87500000  1
  Fe  Fe10  1  0.74469800  0.25530200  0.37500000  1
  Fe  Fe11  1  0.74469800  0.74469800  0.12500000  1
  O  O12  1  0.01546900  0.26845500  0.25680900  1
  O  O13  1  0.01546900  0.73154500  0.24319100  1
  O  O14  1  0.26845500  0.01546900  0.99319100  1
  O  O15  1  0.26845500  0.98453100  0.50680900  1
  O  O16  1  0.26393700  0.48060300  0.01545800  1
  O  O17  1  0.26393700  0.51939700  0.48454200  1
  O  O18  1  0.48060300  0.26393700  0.23454200  1
  O  O19  1  0.48060300  0.73606300  0.26545800  1
  O  O20  1  0.51939700  0.26393700  0.76545800  1
  O  O21  1  0.51939700  0.73606300  0.73454200  1
  O  O22  1  0.73606300  0.51939700  0.51545800  1
  O  O23  1  0.73606300  0.48060300  0.98454200  1
  O  O24  1  0.73154500  0.01546900  0.00680900  1
  O  O25  1  0.73154500  0.98453100  0.49319100  1
  O  O26  1  0.98453100  0.26845500  0.74319100  1
  O  O27  1  0.98453100  0.73154500  0.75680900  1
