# generated using pymatgen
data_Li4Cr3Fe2Sn3O16
_symmetry_space_group_name_H-M   'P 1'
_cell_length_a   6.09102300
_cell_length_b   6.09833252
_cell_length_c   9.66613387
_cell_angle_alpha   90.45819027
_cell_angle_beta   89.79176730
_cell_angle_gamma   119.89582756
_symmetry_Int_Tables_number   1
_chemical_formula_structural   Li4Cr3Fe2Sn3O16
_chemical_formula_sum   'Li4 Cr3 Fe2 Sn3 O16'
_cell_volume   311.26176983
_cell_formula_units_Z   1
loop_
 _symmetry_equiv_pos_site_id
 _symmetry_equiv_pos_as_xyz
  1  'x, y, z'
loop_
 _atom_site_type_symbol
 _atom_site_label
 _atom_site_symmetry_multiplicity
 _atom_site_fract_x
 _atom_site_fract_y
 _atom_site_fract_z
 _atom_site_occupancy
  Li  Li0  1  0.66765500  0.32463200  0.88881500  1
  Li  Li1  1  0.98774200  0.01426000  0.99225500  1
  Li  Li2  1  0.99000500  0.00631200  0.50068500  1
  Li  Li3  1  0.33456800  0.66587500  0.39703600  1
  Cr  Cr4  1  0.83045000  0.17071200  0.21562300  1
  Cr  Cr5  1  0.65983200  0.82818000  0.71418800  1
  Cr  Cr6  1  0.17042800  0.33724300  0.71260600  1
  Fe  Fe7  1  0.67633100  0.33625500  0.49342400  1
  Fe  Fe8  1  0.34050300  0.66153800  0.98808900  1
  Sn  Sn9  1  0.83160900  0.66161300  0.21391600  1
  Sn  Sn10  1  0.33914900  0.16908200  0.21411100  1
  Sn  Sn11  1  0.16899900  0.82812700  0.71441500  1
  O  O12  1  0.83536200  0.67424200  0.59629900  1
  O  O13  1  0.51836200  0.48316400  0.34586700  1
  O  O14  1  0.67128700  0.32879300  0.09835000  1
  O  O15  1  0.99544900  0.00566500  0.31563900  1
  O  O16  1  0.99776600  0.00698200  0.80900700  1
  O  O17  1  0.32418000  0.17508300  0.60064600  1
  O  O18  1  0.96324500  0.47748600  0.34226400  1
  O  O19  1  0.52402800  0.03866000  0.34365900  1
  O  O20  1  0.16100700  0.83792800  0.09141000  1
  O  O21  1  0.84806100  0.17599500  0.60846800  1
  O  O22  1  0.48419900  0.95590200  0.84320300  1
  O  O23  1  0.04009400  0.50328400  0.83812600  1
  O  O24  1  0.33570600  0.65781500  0.60358100  1
  O  O25  1  0.67156900  0.83691200  0.09760800  1
  O  O26  1  0.46948100  0.50912900  0.83045600  1
  O  O27  1  0.16323200  0.32942700  0.09809500  1
