# generated using pymatgen
data_Li4Ti5O12
_symmetry_space_group_name_H-M   'P 1'
_cell_length_a   5.28815800
_cell_length_b   9.53193925
_cell_length_c   9.93178568
_cell_angle_alpha   73.12225475
_cell_angle_beta   78.04218583
_cell_angle_gamma   78.91340042
_symmetry_Int_Tables_number   1
_chemical_formula_structural   Li4Ti5O12
_chemical_formula_sum   'Li8 Ti10 O24'
_cell_volume   463.97426372
_cell_formula_units_Z   2
loop_
 _symmetry_equiv_pos_site_id
 _symmetry_equiv_pos_as_xyz
  1  'x, y, z'
loop_
 _atom_site_type_symbol
 _atom_site_label
 _atom_site_symmetry_multiplicity
 _atom_site_fract_x
 _atom_site_fract_y
 _atom_site_fract_z
 _atom_site_occupancy
  Li  Li0  1  0.13212500  0.40806000  0.40437400  1
  Li  Li1  1  0.33845500  0.57680800  0.11093000  1
  Li  Li2  1  0.27327200  0.90707400  0.02262100  1
  Li  Li3  1  0.31033400  0.76998300  0.55579000  1
  Li  Li4  1  0.68966600  0.23001700  0.44421000  1
  Li  Li5  1  0.72672800  0.09292600  0.97737900  1
  Li  Li6  1  0.66154500  0.42319200  0.88907000  1
  Li  Li7  1  0.86787500  0.59194000  0.59562600  1
  Ti  Ti8  1  0.27312400  0.09941400  0.27540300  1
  Ti  Ti9  1  0.17682100  0.09918200  0.67499500  1
  Ti  Ti10  1  0.18825900  0.25902800  0.93212500  1
  Ti  Ti11  1  0.13704800  0.59423600  0.85061200  1
  Ti  Ti12  1  0.43305900  0.41233600  0.64600800  1
  Ti  Ti13  1  0.56694100  0.58766400  0.35399200  1
  Ti  Ti14  1  0.86295200  0.40576400  0.14938800  1
  Ti  Ti15  1  0.81174100  0.74097200  0.06787500  1
  Ti  Ti16  1  0.82317900  0.90081800  0.32500500  1
  Ti  Ti17  1  0.72687600  0.90058600  0.72459700  1
  O  O18  1  0.04668100  0.26304500  0.30311800  1
  O  O19  1  0.23592100  0.42277500  0.01086900  1
  O  O20  1  0.34340000  0.10240500  0.08799000  1
  O  O21  1  0.10417700  0.10174300  0.86154800  1
  O  O22  1  0.05858400  0.42570000  0.77854000  1
  O  O23  1  0.12016500  0.93042000  0.37774300  1
  O  O24  1  0.32245400  0.26183200  0.56756800  1
  O  O25  1  0.26246100  0.56697300  0.48593800  1
  O  O26  1  0.58465000  0.06892400  0.34279800  1
  O  O27  1  0.16111600  0.72734200  0.95191400  1
  O  O28  1  0.54276100  0.42526000  0.27094300  1
  O  O29  1  0.47401100  0.72883400  0.18613900  1
  O  O30  1  0.52598900  0.27116600  0.81386100  1
  O  O31  1  0.45723900  0.57474000  0.72905700  1
  O  O32  1  0.83888400  0.27265800  0.04808600  1
  O  O33  1  0.41535000  0.93107600  0.65720200  1
  O  O34  1  0.73753900  0.43302700  0.51406200  1
  O  O35  1  0.67754600  0.73816800  0.43243200  1
  O  O36  1  0.87983500  0.06958000  0.62225700  1
  O  O37  1  0.94141600  0.57430000  0.22146000  1
  O  O38  1  0.89582300  0.89825700  0.13845200  1
  O  O39  1  0.65660000  0.89759500  0.91201000  1
  O  O40  1  0.76407900  0.57722500  0.98913100  1
  O  O41  1  0.95331900  0.73695500  0.69688200  1
