# generated using pymatgen
data_LiBi(PO3)4
_symmetry_space_group_name_H-M   'P 1'
_cell_length_a   8.11394200
_cell_length_b   9.94378200
_cell_length_c   13.50592800
_cell_angle_alpha   90.00000000
_cell_angle_beta   90.00000000
_cell_angle_gamma   90.00000000
_symmetry_Int_Tables_number   1
_chemical_formula_structural   LiBi(PO3)4
_chemical_formula_sum   'Li4 Bi4 P16 O48'
_cell_volume   1089.70244094
_cell_formula_units_Z   4
loop_
 _symmetry_equiv_pos_site_id
 _symmetry_equiv_pos_as_xyz
  1  'x, y, z'
loop_
 _atom_site_type_symbol
 _atom_site_label
 _atom_site_symmetry_multiplicity
 _atom_site_fract_x
 _atom_site_fract_y
 _atom_site_fract_z
 _atom_site_occupancy
  Li  Li0  1  0.55830700  0.25000000  0.00000000  1
  Li  Li1  1  0.44169300  0.75000000  0.00000000  1
  Li  Li2  1  0.05830700  0.25000000  0.50000000  1
  Li  Li3  1  0.94169300  0.75000000  0.50000000  1
  Bi  Bi4  1  0.98691600  0.75000000  0.00000000  1
  Bi  Bi5  1  0.01308400  0.25000000  0.00000000  1
  Bi  Bi6  1  0.51308400  0.25000000  0.50000000  1
  Bi  Bi7  1  0.48691600  0.75000000  0.50000000  1
  P  P8  1  0.18503600  0.51596000  0.15083500  1
  P  P9  1  0.81496400  0.01596000  0.15083500  1
  P  P10  1  0.56186900  0.51054900  0.14262700  1
  P  P11  1  0.43813100  0.01054900  0.14262700  1
  P  P12  1  0.06186900  0.51054900  0.35737300  1
  P  P13  1  0.93813100  0.01054900  0.35737300  1
  P  P14  1  0.31496400  0.01596000  0.34916500  1
  P  P15  1  0.68503600  0.51596000  0.34916500  1
  P  P16  1  0.31496400  0.48404000  0.65083500  1
  P  P17  1  0.68503600  0.98404000  0.65083500  1
  P  P18  1  0.06186900  0.98945100  0.64262700  1
  P  P19  1  0.93813100  0.48945100  0.64262700  1
  P  P20  1  0.43813100  0.48945100  0.85737300  1
  P  P21  1  0.56186900  0.98945100  0.85737300  1
  P  P22  1  0.18503600  0.98404000  0.84916500  1
  P  P23  1  0.81496400  0.48404000  0.84916500  1
  O  O24  1  0.17811500  0.62730100  0.07178100  1
  O  O25  1  0.82188500  0.12730100  0.07178100  1
  O  O26  1  0.57526100  0.62354800  0.07047200  1
  O  O27  1  0.42473900  0.12354800  0.07047200  1
  O  O28  1  0.08963200  0.39020400  0.12458500  1
  O  O29  1  0.91036800  0.89020400  0.12458500  1
  O  O30  1  0.35767800  0.87869000  0.12665800  1
  O  O31  1  0.64232200  0.37869000  0.12665800  1
  O  O32  1  0.36851500  0.47893500  0.17196300  1
  O  O33  1  0.63148500  0.97893500  0.17196300  1
  O  O34  1  0.11550900  0.57875100  0.24972100  1
  O  O35  1  0.88449100  0.07875100  0.24972100  1
  O  O36  1  0.38449100  0.07875100  0.25027900  1
  O  O37  1  0.61550900  0.57875100  0.25027900  1
  O  O38  1  0.13148500  0.97893500  0.32803700  1
  O  O39  1  0.86851500  0.47893500  0.32803700  1
  O  O40  1  0.14232200  0.37869000  0.37334200  1
  O  O41  1  0.85767800  0.87869000  0.37334200  1
  O  O42  1  0.58963200  0.39020400  0.37541500  1
  O  O43  1  0.41036800  0.89020400  0.37541500  1
  O  O44  1  0.07526100  0.62354800  0.42952800  1
  O  O45  1  0.92473900  0.12354800  0.42952800  1
  O  O46  1  0.67811500  0.62730100  0.42821900  1
  O  O47  1  0.32188500  0.12730100  0.42821900  1
  O  O48  1  0.32188500  0.37269900  0.57178100  1
  O  O49  1  0.67811500  0.87269900  0.57178100  1
  O  O50  1  0.07526100  0.87645200  0.57047200  1
  O  O51  1  0.92473900  0.37645200  0.57047200  1
  O  O52  1  0.41036800  0.60979600  0.62458500  1
  O  O53  1  0.58963200  0.10979600  0.62458500  1
  O  O54  1  0.14232200  0.12131000  0.62665800  1
  O  O55  1  0.85767800  0.62131000  0.62665800  1
  O  O56  1  0.13148500  0.52106500  0.67196300  1
  O  O57  1  0.86851500  0.02106500  0.67196300  1
  O  O58  1  0.38449100  0.42124900  0.74972100  1
  O  O59  1  0.61550900  0.92124900  0.74972100  1
  O  O60  1  0.11550900  0.92124900  0.75027900  1
  O  O61  1  0.88449100  0.42124900  0.75027900  1
  O  O62  1  0.36851500  0.02106500  0.82803700  1
  O  O63  1  0.63148500  0.52106500  0.82803700  1
  O  O64  1  0.35767800  0.62131000  0.87334200  1
  O  O65  1  0.64232200  0.12131000  0.87334200  1
  O  O66  1  0.08963200  0.10979600  0.87541500  1
  O  O67  1  0.91036800  0.60979600  0.87541500  1
  O  O68  1  0.42473900  0.37645200  0.92952800  1
  O  O69  1  0.57526100  0.87645200  0.92952800  1
  O  O70  1  0.17811500  0.87269900  0.92821900  1
  O  O71  1  0.82188500  0.37269900  0.92821900  1
