# generated using pymatgen
data_Li5FeO4
_symmetry_space_group_name_H-M   'P 1'
_cell_length_a   5.62089400
_cell_length_b   6.82796600
_cell_length_c   11.03082205
_cell_angle_alpha   89.48215759
_cell_angle_beta   77.51323576
_cell_angle_gamma   89.63572112
_symmetry_Int_Tables_number   1
_chemical_formula_structural   Li5FeO4
_chemical_formula_sum   'Li20 Fe4 O16'
_cell_volume   413.31979952
_cell_formula_units_Z   4
loop_
 _symmetry_equiv_pos_site_id
 _symmetry_equiv_pos_as_xyz
  1  'x, y, z'
loop_
 _atom_site_type_symbol
 _atom_site_label
 _atom_site_symmetry_multiplicity
 _atom_site_fract_x
 _atom_site_fract_y
 _atom_site_fract_z
 _atom_site_occupancy
  Li  Li0  1  0.89761100  0.24603000  0.69666000  1
  Li  Li1  1  0.97788400  0.25558300  0.34589200  1
  Li  Li2  1  0.90098100  0.98019300  0.19994200  1
  Li  Li3  1  0.89485500  0.52933800  0.19512600  1
  Li  Li4  1  0.74004200  0.97974200  0.91575700  1
  Li  Li5  1  0.68691700  0.53491000  0.93735700  1
  Li  Li6  1  0.80644000  0.02195700  0.55627400  1
  Li  Li7  1  0.61753600  0.75039500  0.79049100  1
  Li  Li8  1  0.49189800  0.24638500  0.83184300  1
  Li  Li9  1  0.49388700  0.51617800  0.66187100  1
  Li  Li10  1  0.39285400  0.96594700  0.69656800  1
  Li  Li11  1  0.51707200  0.75145400  0.17884700  1
  Li  Li12  1  0.44932400  0.26069800  0.23054800  1
  Li  Li13  1  0.21562900  0.97514600  0.42610400  1
  Li  Li14  1  0.32647600  0.03520500  0.06329800  1
  Li  Li15  1  0.08571400  0.47009300  0.80732700  1
  Li  Li16  1  0.18287300  0.52321300  0.44172400  1
  Li  Li17  1  0.30567000  0.46927900  0.06751600  1
  Li  Li18  1  0.01164800  0.74354700  0.65346900  1
  Li  Li19  1  0.11166800  0.74734000  0.29599800  1
  Fe  Fe20  1  0.82978900  0.25313100  0.04991700  1
  Fe  Fe21  1  0.32459800  0.24206200  0.55794600  1
  Fe  Fe22  1  0.18016200  0.76054600  0.93624000  1
  Fe  Fe23  1  0.67622400  0.73837200  0.43414600  1
  O  O24  1  0.91115300  0.73372000  0.85755200  1
  O  O25  1  0.83489200  0.27075000  0.87800100  1
  O  O26  1  0.88965400  0.96181300  0.37558300  1
  O  O27  1  0.89533400  0.53686000  0.36475300  1
  O  O28  1  0.64882600  0.76395600  0.61461900  1
  O  O29  1  0.58516800  0.22601400  0.64546100  1
  O  O30  1  0.64096000  0.02753400  0.11002400  1
  O  O31  1  0.62599700  0.47353300  0.11464800  1
  O  O32  1  0.37988700  0.53198400  0.87583400  1
  O  O33  1  0.40561600  0.96574200  0.87878800  1
  O  O34  1  0.39690700  0.74516500  0.36312900  1
  O  O35  1  0.29907400  0.25170000  0.39339500  1
  O  O36  1  0.15794800  0.47345500  0.62916200  1
  O  O37  1  0.11934100  0.02112700  0.61542500  1
  O  O38  1  0.14636000  0.75278300  0.11410300  1
  O  O39  1  0.09468900  0.24973400  0.13328500  1
