# generated using pymatgen
data_Li3MnAsCO7
_symmetry_space_group_name_H-M   'P 1'
_cell_length_a   8.52524312
_cell_length_b   8.52614057
_cell_length_c   9.86513925
_cell_angle_alpha   106.60195366
_cell_angle_beta   106.59576022
_cell_angle_gamma   106.58819202
_symmetry_Int_Tables_number   1
_chemical_formula_structural   Li3MnAsCO7
_chemical_formula_sum   'Li12 Mn4 As4 C4 O28'
_cell_volume   603.65544391
_cell_formula_units_Z   4
loop_
 _symmetry_equiv_pos_site_id
 _symmetry_equiv_pos_as_xyz
  1  'x, y, z'
loop_
 _atom_site_type_symbol
 _atom_site_label
 _atom_site_symmetry_multiplicity
 _atom_site_fract_x
 _atom_site_fract_y
 _atom_site_fract_z
 _atom_site_occupancy
  Li  Li0  1  0.53655500  0.28657400  0.07911500  1
  Li  Li1  1  0.03654700  0.78650700  0.07907100  1
  Li  Li2  1  0.96347000  0.21349000  0.92091200  1
  Li  Li3  1  0.46343100  0.71341200  0.92087800  1
  Li  Li4  1  0.26852800  0.23146600  0.27639300  1
  Li  Li5  1  0.76863600  0.73136700  0.27645600  1
  Li  Li6  1  0.48143200  0.01866200  0.27638100  1
  Li  Li7  1  0.98148200  0.51854300  0.27640300  1
  Li  Li8  1  0.01859400  0.48148200  0.72369800  1
  Li  Li9  1  0.51851900  0.98133500  0.72359000  1
  Li  Li10  1  0.23139700  0.26860300  0.72363400  1
  Li  Li11  1  0.73146300  0.76857600  0.72359200  1
  Mn  Mn12  1  0.42487100  0.67489800  0.32558000  1
  Mn  Mn13  1  0.07525300  0.82524900  0.67443000  1
  Mn  Mn14  1  0.92450700  0.17449700  0.32557700  1
  Mn  Mn15  1  0.57512200  0.32512100  0.67402300  1
  As  As16  1  0.68821800  0.43823500  0.41588800  1
  As  As17  1  0.18816000  0.93816000  0.41581200  1
  As  As18  1  0.81183900  0.06184300  0.58416200  1
  As  As19  1  0.31180500  0.56179900  0.58417700  1
  C  C20  1  0.74206200  0.99207000  0.02084300  1
  C  C21  1  0.24212800  0.49214300  0.02098800  1
  C  C22  1  0.75792100  0.50788200  0.97910800  1
  C  C23  1  0.25792000  0.00793100  0.97908100  1
  O  O24  1  0.35746000  0.10756800  0.12479100  1
  O  O25  1  0.85755600  0.60749000  0.12486100  1
  O  O26  1  0.14250800  0.39250200  0.87528200  1
  O  O27  1  0.64250700  0.89245000  0.87510800  1
  O  O28  1  0.88370800  0.13371300  0.06539600  1
  O  O29  1  0.38381300  0.63375200  0.06550200  1
  O  O30  1  0.61628000  0.36628600  0.93463200  1
  O  O31  1  0.11626100  0.86629800  0.93454000  1
  O  O32  1  0.69567400  0.94576200  0.12316400  1
  O  O33  1  0.19588900  0.44599100  0.12340400  1
  O  O34  1  0.80425300  0.55416500  0.87677100  1
  O  O35  1  0.30420500  0.05410700  0.87669300  1
  O  O36  1  0.52670400  0.27673900  0.43318500  1
  O  O37  1  0.02677500  0.77666100  0.43323800  1
  O  O38  1  0.97326300  0.22334000  0.56670600  1
  O  O39  1  0.47324000  0.72323900  0.56674800  1
  O  O40  1  0.66933400  0.91930600  0.39640900  1
  O  O41  1  0.16924900  0.41919200  0.39640600  1
  O  O42  1  0.83073600  0.58075800  0.60365600  1
  O  O43  1  0.33069200  0.08075600  0.60359000  1
  O  O44  1  0.59208300  0.53484300  0.30385200  1
  O  O45  1  0.09207200  0.03478900  0.30370200  1
  O  O46  1  0.78478200  0.34208000  0.30374800  1
  O  O47  1  0.28496200  0.84228700  0.30378000  1
  O  O48  1  0.71513200  0.15782700  0.69624200  1
  O  O49  1  0.21514000  0.65784000  0.69628000  1
  O  O50  1  0.90795500  0.96521900  0.69621900  1
  O  O51  1  0.40790300  0.46519000  0.69630200  1
