# generated using pymatgen
data_Li3Mn3(BO3)4
_symmetry_space_group_name_H-M   'P 1'
_cell_length_a   9.07771900
_cell_length_b   5.34652600
_cell_length_c   10.79983997
_cell_angle_alpha   62.83830848
_cell_angle_beta   90.00000000
_cell_angle_gamma   90.00000000
_symmetry_Int_Tables_number   1
_chemical_formula_structural   Li3Mn3(BO3)4
_chemical_formula_sum   'Li6 Mn6 B8 O24'
_cell_volume   466.35857609
_cell_formula_units_Z   2
loop_
 _symmetry_equiv_pos_site_id
 _symmetry_equiv_pos_as_xyz
  1  'x, y, z'
loop_
 _atom_site_type_symbol
 _atom_site_label
 _atom_site_symmetry_multiplicity
 _atom_site_fract_x
 _atom_site_fract_y
 _atom_site_fract_z
 _atom_site_occupancy
  Li  Li0  1  0.23512600  0.51455200  0.33829800  1
  Li  Li1  1  0.90619100  0.44500800  0.37117300  1
  Li  Li2  1  0.42860800  0.53947000  0.12418300  1
  Li  Li3  1  0.76487400  0.51455200  0.83829800  1
  Li  Li4  1  0.09380900  0.44500800  0.87117300  1
  Li  Li5  1  0.57139200  0.53947000  0.62418300  1
  Mn  Mn6  1  0.57787200  0.98781400  0.87515900  1
  Mn  Mn7  1  0.24336300  0.94356700  0.88253800  1
  Mn  Mn8  1  0.05224700  0.01397500  0.62270000  1
  Mn  Mn9  1  0.42212800  0.98781400  0.37515900  1
  Mn  Mn10  1  0.75663700  0.94356700  0.38253800  1
  Mn  Mn11  1  0.94775300  0.01397500  0.12270000  1
  B  B12  1  0.57365900  0.44649100  0.37984900  1
  B  B13  1  0.90381600  0.96139000  0.87313100  1
  B  B14  1  0.06665400  0.56048800  0.10665000  1
  B  B15  1  0.41303600  0.01934300  0.64412600  1
  B  B16  1  0.09618400  0.96139000  0.37313100  1
  B  B17  1  0.42634100  0.44649100  0.87984900  1
  B  B18  1  0.58696400  0.01934300  0.14412600  1
  B  B19  1  0.93334600  0.56048800  0.60665000  1
  O  O20  1  0.57197300  0.86643400  0.07108500  1
  O  O21  1  0.93130500  0.33269500  0.58211800  1
  O  O22  1  0.19313500  0.72947000  0.07981000  1
  O  O23  1  0.53572700  0.12276900  0.68143100  1
  O  O24  1  0.27248100  0.06299200  0.68448300  1
  O  O25  1  0.94279900  0.62732400  0.15951800  1
  O  O26  1  0.43523300  0.38498200  0.34405100  1
  O  O27  1  0.69871400  0.30312900  0.38374000  1
  O  O28  1  0.77835500  0.84068100  0.86255300  1
  O  O29  1  0.03615100  0.87729300  0.83081900  1
  O  O30  1  0.08508200  0.16649900  0.41928500  1
  O  O31  1  0.42107500  0.67431100  0.91248300  1
  O  O32  1  0.06869500  0.33269500  0.08211800  1
  O  O33  1  0.42802700  0.86643400  0.57108500  1
  O  O34  1  0.80686500  0.72947000  0.57981000  1
  O  O35  1  0.46427300  0.12276900  0.18143100  1
  O  O36  1  0.72751900  0.06299200  0.18448300  1
  O  O37  1  0.05720100  0.62732400  0.65951800  1
  O  O38  1  0.56476700  0.38498200  0.84405100  1
  O  O39  1  0.22164500  0.84068100  0.36255300  1
  O  O40  1  0.96384900  0.87729300  0.33081900  1
  O  O41  1  0.30128600  0.30312900  0.88374000  1
  O  O42  1  0.57892500  0.67431100  0.41248300  1
  O  O43  1  0.91491800  0.16649900  0.91928500  1
