# generated using pymatgen
data_LiCoSiO4
_symmetry_space_group_name_H-M   'P 1'
_cell_length_a   5.50274500
_cell_length_b   6.26268100
_cell_length_c   8.09632200
_cell_angle_alpha   89.99987227
_cell_angle_beta   90.00000000
_cell_angle_gamma   90.00000000
_symmetry_Int_Tables_number   1
_chemical_formula_structural   LiCoSiO4
_chemical_formula_sum   'Li4 Co4 Si4 O16'
_cell_volume   279.01493513
_cell_formula_units_Z   4
loop_
 _symmetry_equiv_pos_site_id
 _symmetry_equiv_pos_as_xyz
  1  'x, y, z'
loop_
 _atom_site_type_symbol
 _atom_site_label
 _atom_site_symmetry_multiplicity
 _atom_site_fract_x
 _atom_site_fract_y
 _atom_site_fract_z
 _atom_site_occupancy
  Li  Li0  1  0.00000000  0.75000000  0.32657300  1
  Li  Li1  1  0.50000000  0.75000000  0.82657200  1
  Li  Li2  1  0.00000000  0.25000000  0.67342700  1
  Li  Li3  1  0.50000000  0.25000000  0.17342800  1
  Co  Co4  1  0.50000000  0.00000000  0.50000000  1
  Co  Co5  1  0.50000000  0.50000000  0.50000000  1
  Co  Co6  1  0.00000000  0.00000000  0.00000000  1
  Co  Co7  1  0.00000000  0.50000000  0.00000000  1
  Si  Si8  1  0.00000000  0.25000000  0.34779100  1
  Si  Si9  1  0.50000000  0.25000100  0.84779100  1
  Si  Si10  1  0.00000000  0.75000000  0.65220900  1
  Si  Si11  1  0.50000000  0.74999900  0.15220900  1
  O  O12  1  0.24009500  0.75000000  0.52763600  1
  O  O13  1  0.74009500  0.75000000  0.02763500  1
  O  O14  1  0.24009500  0.25000000  0.47236400  1
  O  O15  1  0.74009500  0.25000000  0.97236500  1
  O  O16  1  0.75990500  0.25000000  0.47236400  1
  O  O17  1  0.25990500  0.25000000  0.97236500  1
  O  O18  1  0.75990500  0.75000000  0.52763600  1
  O  O19  1  0.25990500  0.75000000  0.02763500  1
  O  O20  1  0.00000000  0.03669400  0.23061400  1
  O  O21  1  0.50000000  0.03668900  0.73061400  1
  O  O22  1  0.00000000  0.46330500  0.23061400  1
  O  O23  1  0.50000000  0.46331000  0.73061500  1
  O  O24  1  0.00000000  0.53669500  0.76938600  1
  O  O25  1  0.50000000  0.53669000  0.26938500  1
  O  O26  1  0.00000000  0.96330600  0.76938600  1
  O  O27  1  0.50000000  0.96331100  0.26938600  1
