# generated using pymatgen
data_Li5Mn5O12
_symmetry_space_group_name_H-M   'P 1'
_cell_length_a   5.01966300
_cell_length_b   8.88587644
_cell_length_c   9.41587502
_cell_angle_alpha   84.16397841
_cell_angle_beta   84.91929618
_cell_angle_gamma   86.21818235
_symmetry_Int_Tables_number   1
_chemical_formula_structural   Li5Mn5O12
_chemical_formula_sum   'Li10 Mn10 O24'
_cell_volume   415.48033486
_cell_formula_units_Z   2
loop_
 _symmetry_equiv_pos_site_id
 _symmetry_equiv_pos_as_xyz
  1  'x, y, z'
loop_
 _atom_site_type_symbol
 _atom_site_label
 _atom_site_symmetry_multiplicity
 _atom_site_fract_x
 _atom_site_fract_y
 _atom_site_fract_z
 _atom_site_occupancy
  Li  Li0  1  0.99447400  0.17361500  0.48834000  1
  Li  Li1  1  0.25623800  0.08042500  0.00657200  1
  Li  Li2  1  0.38093400  0.53644900  0.24353600  1
  Li  Li3  1  0.36475400  0.86968100  0.25547500  1
  Li  Li4  1  0.51364100  0.33695300  0.49058800  1
  Li  Li5  1  0.48190500  0.68357300  0.48897700  1
  Li  Li6  1  0.73398700  0.91022700  0.01550900  1
  Li  Li7  1  0.75496900  0.56904500  0.01136700  1
  Li  Li8  1  0.88608100  0.03594700  0.25455700  1
  Li  Li9  1  0.89781600  0.37786700  0.24294700  1
  Mn  Mn10  1  0.00700200  0.50867100  0.49578000  1
  Mn  Mn11  1  0.13609600  0.28951500  0.75110400  1
  Mn  Mn12  1  0.11039000  0.96039700  0.74457000  1
  Mn  Mn13  1  0.24889600  0.73724200  0.00364900  1
  Mn  Mn14  1  0.37136900  0.21288400  0.24594100  1
  Mn  Mn15  1  0.51273000  0.00271300  0.49275400  1
  Mn  Mn16  1  0.60563800  0.46081700  0.75001300  1
  Mn  Mn17  1  0.64020300  0.79158300  0.74684700  1
  Mn  Mn18  1  0.75076500  0.24512700  0.00378400  1
  Mn  Mn19  1  0.87055100  0.71219700  0.25278200  1
  O  O20  1  0.06481900  0.58420300  0.12180500  1
  O  O21  1  0.05546400  0.86993600  0.13307000  1
  O  O22  1  0.07085400  0.21423400  0.13910300  1
  O  O23  1  0.16099000  0.66878000  0.38341600  1
  O  O24  1  0.19209100  0.35874100  0.37813900  1
  O  O25  1  0.23398400  0.04294100  0.36772700  1
  O  O26  1  0.27159500  0.12876200  0.63016200  1
  O  O27  1  0.29985900  0.45528900  0.63292400  1
  O  O28  1  0.34268900  0.83905700  0.62275500  1
  O  O29  1  0.43954600  0.29319500  0.85790500  1
  O  O30  1  0.40171000  0.91161900  0.87566700  1
  O  O31  1  0.57214500  0.08465300  0.11492200  1
  O  O32  1  0.57148300  0.37097400  0.13639500  1
  O  O33  1  0.48204700  0.62259400  0.86689700  1
  O  O34  1  0.57529000  0.72618700  0.13291800  1
  O  O35  1  0.66403100  0.17011000  0.38704400  1
  O  O36  1  0.66961100  0.85903400  0.37332800  1
  O  O37  1  0.72665300  0.53752100  0.37235800  1
  O  O38  1  0.76782800  0.62681100  0.63171600  1
  O  O39  1  0.79749600  0.96148200  0.63703100  1
  O  O40  1  0.83148200  0.34062600  0.61957000  1
  O  O41  1  0.89647200  0.41377100  0.87257300  1
  O  O42  1  0.93659600  0.79847000  0.85961700  1
  O  O43  1  0.97813100  0.11985000  0.86883000  1
