# generated using pymatgen
data_Li2MnPO4F
_symmetry_space_group_name_H-M   'P 1'
_cell_length_a   6.55837700
_cell_length_b   10.75810100
_cell_length_c   11.21600900
_cell_angle_alpha   90.00000000
_cell_angle_beta   90.00000000
_cell_angle_gamma   90.00000000
_symmetry_Int_Tables_number   1
_chemical_formula_structural   Li2MnPO4F
_chemical_formula_sum   'Li16 Mn8 P8 O32 F8'
_cell_volume   791.35316613
_cell_formula_units_Z   8
loop_
 _symmetry_equiv_pos_site_id
 _symmetry_equiv_pos_as_xyz
  1  'x, y, z'
loop_
 _atom_site_type_symbol
 _atom_site_label
 _atom_site_symmetry_multiplicity
 _atom_site_fract_x
 _atom_site_fract_y
 _atom_site_fract_z
 _atom_site_occupancy
  Li  Li0  1  0.75000000  0.02653500  0.27112700  1
  Li  Li1  1  0.25000000  0.23142100  0.08415700  1
  Li  Li2  1  0.50960800  0.24024400  0.33183600  1
  Li  Li3  1  0.99039200  0.24024400  0.33183600  1
  Li  Li4  1  0.00960800  0.25975600  0.83183600  1
  Li  Li5  1  0.49039200  0.25975600  0.83183600  1
  Li  Li6  1  0.75000000  0.26857900  0.58415700  1
  Li  Li7  1  0.25000000  0.47346500  0.77112700  1
  Li  Li8  1  0.75000000  0.52653500  0.22887300  1
  Li  Li9  1  0.25000000  0.73142100  0.41584300  1
  Li  Li10  1  0.50960800  0.74024400  0.16816400  1
  Li  Li11  1  0.99039200  0.74024400  0.16816400  1
  Li  Li12  1  0.00960800  0.75975600  0.66816400  1
  Li  Li13  1  0.49039200  0.75975600  0.66816400  1
  Li  Li14  1  0.75000000  0.76857900  0.91584300  1
  Li  Li15  1  0.25000000  0.97346500  0.72887300  1
  Mn  Mn16  1  0.00000000  0.00000000  0.00000000  1
  Mn  Mn17  1  0.50000000  0.00000000  0.00000000  1
  Mn  Mn18  1  0.00000000  0.00000000  0.50000000  1
  Mn  Mn19  1  0.50000000  0.00000000  0.50000000  1
  Mn  Mn20  1  0.00000000  0.50000000  0.50000000  1
  Mn  Mn21  1  0.50000000  0.50000000  0.50000000  1
  Mn  Mn22  1  0.00000000  0.50000000  0.00000000  1
  Mn  Mn23  1  0.50000000  0.50000000  0.00000000  1
  P  P24  1  0.75000000  0.02050300  0.74556200  1
  P  P25  1  0.75000000  0.24550100  0.08059400  1
  P  P26  1  0.25000000  0.25449900  0.58059400  1
  P  P27  1  0.25000000  0.47949700  0.24556200  1
  P  P28  1  0.75000000  0.52050300  0.75443800  1
  P  P29  1  0.75000000  0.74550100  0.41940600  1
  P  P30  1  0.25000000  0.75449900  0.91940600  1
  P  P31  1  0.25000000  0.97949700  0.25443800  1
  O  O32  1  0.25000000  0.02882200  0.12325100  1
  O  O33  1  0.05727800  0.03480000  0.31585700  1
  O  O34  1  0.44272200  0.03480000  0.31585700  1
  O  O35  1  0.25000000  0.11073000  0.56254200  1
  O  O36  1  0.75000000  0.16529300  0.74428700  1
  O  O37  1  0.55501300  0.19503700  0.01733100  1
  O  O38  1  0.94498700  0.19503700  0.01733100  1
  O  O39  1  0.75000000  0.21492000  0.21553800  1
  O  O40  1  0.25000000  0.28508000  0.71553800  1
  O  O41  1  0.05501300  0.30496300  0.51733100  1
  O  O42  1  0.44498700  0.30496300  0.51733100  1
  O  O43  1  0.25000000  0.33470700  0.24428700  1
  O  O44  1  0.75000000  0.38927000  0.06254200  1
  O  O45  1  0.55727800  0.46520000  0.81585700  1
  O  O46  1  0.94272200  0.46520000  0.81585700  1
  O  O47  1  0.75000000  0.47117800  0.62325100  1
  O  O48  1  0.25000000  0.52882200  0.37674900  1
  O  O49  1  0.05727800  0.53480000  0.18414300  1
  O  O50  1  0.44272200  0.53480000  0.18414300  1
  O  O51  1  0.25000000  0.61073000  0.93745800  1
  O  O52  1  0.75000000  0.66529300  0.75571300  1
  O  O53  1  0.55501300  0.69503700  0.48266900  1
  O  O54  1  0.94498700  0.69503700  0.48266900  1
  O  O55  1  0.75000000  0.71492000  0.28446200  1
  O  O56  1  0.25000000  0.78508000  0.78446200  1
  O  O57  1  0.05501300  0.80496300  0.98266900  1
  O  O58  1  0.44498700  0.80496300  0.98266900  1
  O  O59  1  0.25000000  0.83470700  0.25571300  1
  O  O60  1  0.75000000  0.88927000  0.43745800  1
  O  O61  1  0.55727800  0.96520000  0.68414300  1
  O  O62  1  0.94272200  0.96520000  0.68414300  1
  O  O63  1  0.75000000  0.97117800  0.87674900  1
  F  F64  1  0.25000000  0.05501600  0.87824400  1
  F  F65  1  0.75000000  0.13552300  0.46670000  1
  F  F66  1  0.25000000  0.36447700  0.96670000  1
  F  F67  1  0.75000000  0.44498400  0.37824400  1
  F  F68  1  0.25000000  0.55501600  0.62175600  1
  F  F69  1  0.75000000  0.63552300  0.03330000  1
  F  F70  1  0.25000000  0.86447700  0.53330000  1
  F  F71  1  0.75000000  0.94498400  0.12175600  1
