# generated using pymatgen
data_Li9Cr12Co7O48
_symmetry_space_group_name_H-M   'P 1'
_cell_length_a   5.08777800
_cell_length_b   10.27747527
_cell_length_c   17.27536557
_cell_angle_alpha   90.10857051
_cell_angle_beta   90.21029060
_cell_angle_gamma   90.09548116
_symmetry_Int_Tables_number   1
_chemical_formula_structural   Li9Cr12Co7O48
_chemical_formula_sum   'Li9 Cr12 Co7 O48'
_cell_volume   903.31147461
_cell_formula_units_Z   1
loop_
 _symmetry_equiv_pos_site_id
 _symmetry_equiv_pos_as_xyz
  1  'x, y, z'
loop_
 _atom_site_type_symbol
 _atom_site_label
 _atom_site_symmetry_multiplicity
 _atom_site_fract_x
 _atom_site_fract_y
 _atom_site_fract_z
 _atom_site_occupancy
  Li  Li0  1  0.24488500  0.57790600  0.02939500  1
  Li  Li1  1  0.24904300  0.25283400  0.69546200  1
  Li  Li2  1  0.25963300  0.74631300  0.19934000  1
  Li  Li3  1  0.25388500  0.42155800  0.53060100  1
  Li  Li4  1  0.40450900  0.25129900  0.24949500  1
  Li  Li5  1  0.59591000  0.74799800  0.74971800  1
  Li  Li6  1  0.74510500  0.92158400  0.47197200  1
  Li  Li7  1  0.73908700  0.25526800  0.79947100  1
  Li  Li8  1  0.75352800  0.75016200  0.30271000  1
  Cr  Cr9  1  0.21666400  0.24942000  0.05529600  1
  Cr  Cr10  1  0.21985200  0.97402700  0.34359600  1
  Cr  Cr11  1  0.21591800  0.52794400  0.34643300  1
  Cr  Cr12  1  0.27440500  0.47158600  0.84561600  1
  Cr  Cr13  1  0.27692600  0.02781500  0.84444500  1
  Cr  Cr14  1  0.27618400  0.74907600  0.55509200  1
  Cr  Cr15  1  0.72597000  0.24903100  0.44498300  1
  Cr  Cr16  1  0.72193800  0.97234800  0.15440900  1
  Cr  Cr17  1  0.72977200  0.52539200  0.15591000  1
  Cr  Cr18  1  0.78002400  0.47385300  0.65593200  1
  Cr  Cr19  1  0.78286900  0.02764000  0.65415900  1
  Cr  Cr20  1  0.78060400  0.75222300  0.94415700  1
  Co  Co21  1  0.09387100  0.74920400  0.74733200  1
  Co  Co22  1  0.24796100  0.92678700  0.02555100  1
  Co  Co23  1  0.25446800  0.06860100  0.52639900  1
  Co  Co24  1  0.74316400  0.57191200  0.47599600  1
  Co  Co25  1  0.74748000  0.43104700  0.97247200  1
  Co  Co26  1  0.74782300  0.07279800  0.97174200  1
  Co  Co27  1  0.90655300  0.25001500  0.25404700  1
  O  O28  1  0.05121000  0.75666200  0.00169100  1
  O  O29  1  0.04962600  0.39446300  0.63069700  1
  O  O30  1  0.06076800  0.10634900  0.62616000  1
  O  O31  1  0.10178300  0.37325300  0.79161800  1
  O  O32  1  0.10223000  0.12267500  0.79029000  1
  O  O33  1  0.10501400  0.88223900  0.53275200  1
  O  O34  1  0.08303800  0.62381500  0.53319100  1
  O  O35  1  0.08864100  0.99923600  0.92512400  1
  O  O36  1  0.09040500  0.50074700  0.92436900  1
  O  O37  1  0.14468900  0.24943800  0.14972200  1
  O  O38  1  0.14684300  0.38609500  0.29729100  1
  O  O39  1  0.14450100  0.11672400  0.29455200  1
  O  O40  1  0.33427300  0.88732300  0.79837000  1
  O  O41  1  0.33031200  0.61236500  0.79877700  1
  O  O42  1  0.33794900  0.74857400  0.65033900  1
  O  O43  1  0.40050500  0.00697000  0.42245400  1
  O  O44  1  0.40445500  0.49615600  0.42290700  1
  O  O45  1  0.40293400  0.11824400  0.03343600  1
  O  O46  1  0.40528300  0.37479700  0.03368200  1
  O  O47  1  0.40308800  0.88008400  0.28915400  1
  O  O48  1  0.39139000  0.62503600  0.29235600  1
  O  O49  1  0.44301800  0.89482900  0.12745700  1
  O  O50  1  0.45439000  0.60042900  0.13195100  1
  O  O51  1  0.45216900  0.24351700  0.49943300  1
  O  O52  1  0.55050200  0.74215400  0.49925100  1
  O  O53  1  0.55860400  0.39563500  0.87318200  1
  O  O54  1  0.55698400  0.10538200  0.87179300  1
  O  O55  1  0.59533700  0.37982500  0.70989600  1
  O  O56  1  0.61046300  0.12373400  0.70994400  1
  O  O57  1  0.58832000  0.88292600  0.96584300  1
  O  O58  1  0.60340500  0.62121700  0.96591500  1
  O  O59  1  0.59345700  0.99680800  0.57646400  1
  O  O60  1  0.59998000  0.50636600  0.57566500  1
  O  O61  1  0.66640000  0.24779900  0.34713800  1
  O  O62  1  0.67246600  0.38245700  0.20516600  1
  O  O63  1  0.66706500  0.11416600  0.20187700  1
  O  O64  1  0.85077600  0.88809900  0.70131900  1
  O  O65  1  0.84967400  0.61346100  0.70403000  1
  O  O66  1  0.85426000  0.75283100  0.85101400  1
  O  O67  1  0.90374500  0.49204400  0.07573600  1
  O  O68  1  0.90730500  0.00393100  0.07482900  1
  O  O69  1  0.89538200  0.38250000  0.46626400  1
  O  O70  1  0.91793800  0.12489500  0.46701900  1
  O  O71  1  0.89965700  0.87616400  0.20737200  1
  O  O72  1  0.90957800  0.62269700  0.20947600  1
  O  O73  1  0.95145700  0.89443000  0.36877200  1
  O  O74  1  0.93937200  0.60509900  0.37525400  1
  O  O75  1  0.94132900  0.24971900  0.99727900  1
