# generated using pymatgen
data_LiFe2P3O11
_symmetry_space_group_name_H-M   'P 1'
_cell_length_a   7.23479770
_cell_length_b   7.23479770
_cell_length_c   8.84212625
_cell_angle_alpha   70.11795481
_cell_angle_beta   70.11795481
_cell_angle_gamma   74.01656211
_symmetry_Int_Tables_number   1
_chemical_formula_structural   LiFe2P3O11
_chemical_formula_sum   'Li2 Fe4 P6 O22'
_cell_volume   402.55962207
_cell_formula_units_Z   2
loop_
 _symmetry_equiv_pos_site_id
 _symmetry_equiv_pos_as_xyz
  1  'x, y, z'
loop_
 _atom_site_type_symbol
 _atom_site_label
 _atom_site_symmetry_multiplicity
 _atom_site_fract_x
 _atom_site_fract_y
 _atom_site_fract_z
 _atom_site_occupancy
  Li  Li0  1  0.51640000  0.98599400  0.26223000  1
  Li  Li1  1  0.01400600  0.48360000  0.73777000  1
  Fe  Fe2  1  0.88735400  0.35742000  0.20288400  1
  Fe  Fe3  1  0.35709200  0.88626400  0.70399700  1
  Fe  Fe4  1  0.64258000  0.11264600  0.79711600  1
  Fe  Fe5  1  0.11373600  0.64290800  0.29600300  1
  P  P6  1  0.55015800  0.67628600  0.03486900  1
  P  P7  1  0.95716300  0.04283700  0.00000000  1
  P  P8  1  0.67837900  0.54973100  0.53401400  1
  P  P9  1  0.32371400  0.44984200  0.96513100  1
  P  P10  1  0.04238500  0.95761500  0.50000000  1
  P  P11  1  0.45026900  0.32162100  0.46598600  1
  O  O12  1  0.98771400  0.88026000  0.15836100  1
  O  O13  1  0.88005000  0.98990100  0.65776400  1
  O  O14  1  0.75754700  0.61645900  0.05986600  1
  O  O15  1  0.53322800  0.84820600  0.87415100  1
  O  O16  1  0.38491300  0.72549500  0.18680500  1
  O  O17  1  0.95476700  0.25689800  0.00710200  1
  O  O18  1  0.61620700  0.76060900  0.55355600  1
  O  O19  1  0.51252100  0.48747900  0.00000000  1
  O  O20  1  0.85001400  0.53256300  0.37339700  1
  O  O21  1  0.72860800  0.38730700  0.68635400  1
  O  O22  1  0.25668000  0.95459600  0.50762600  1
  O  O23  1  0.74310200  0.04523300  0.99289800  1
  O  O24  1  0.27450500  0.61508700  0.81319500  1
  O  O25  1  0.15179400  0.46677200  0.12584900  1
  O  O26  1  0.48977800  0.51022200  0.50000000  1
  O  O27  1  0.38354100  0.24245300  0.94013400  1
  O  O28  1  0.04540400  0.74332000  0.49237400  1
  O  O29  1  0.61269300  0.27139200  0.31364600  1
  O  O30  1  0.46743700  0.14998600  0.62660300  1
  O  O31  1  0.23939100  0.38379300  0.44644400  1
  O  O32  1  0.11974000  0.01228600  0.84163900  1
  O  O33  1  0.01009900  0.11995000  0.34223600  1
