# generated using pymatgen
data_Li4V(PO3)6
_symmetry_space_group_name_H-M   'P 1'
_cell_length_a   7.37145600
_cell_length_b   7.41586515
_cell_length_c   7.53255810
_cell_angle_alpha   104.64785082
_cell_angle_beta   115.78190838
_cell_angle_gamma   97.83546500
_symmetry_Int_Tables_number   1
_chemical_formula_structural   Li4V(PO3)6
_chemical_formula_sum   'Li4 V1 P6 O18'
_cell_volume   344.09510161
_cell_formula_units_Z   1
loop_
 _symmetry_equiv_pos_site_id
 _symmetry_equiv_pos_as_xyz
  1  'x, y, z'
loop_
 _atom_site_type_symbol
 _atom_site_label
 _atom_site_symmetry_multiplicity
 _atom_site_fract_x
 _atom_site_fract_y
 _atom_site_fract_z
 _atom_site_occupancy
  Li  Li0  1  0.36250900  0.14551400  0.54237900  1
  Li  Li1  1  0.48032400  0.53165400  0.00846300  1
  Li  Li2  1  0.62968000  0.83988900  0.44007900  1
  Li  Li3  1  0.23324600  0.88476500  0.07585400  1
  V  V4  1  0.78999700  0.14352800  0.93904800  1
  P  P5  1  0.03242400  0.23189400  0.69717300  1
  P  P6  1  0.66392500  0.21331400  0.32377800  1
  P  P7  1  0.77821200  0.48736100  0.72922700  1
  P  P8  1  0.21469000  0.50373600  0.26822400  1
  P  P9  1  0.33782300  0.77896900  0.68016700  1
  P  P10  1  0.97761700  0.78158700  0.30373000  1
  O  O11  1  0.91788300  0.07368600  0.73650600  1
  O  O12  1  0.50805000  0.05897400  0.32403700  1
  O  O13  1  0.89925400  0.19481300  0.44804600  1
  O  O14  1  0.25789700  0.26237700  0.75649700  1
  O  O15  1  0.65327800  0.34297900  0.77648700  1
  O  O16  1  0.00426500  0.44057300  0.79654200  1
  O  O17  1  0.63929100  0.23141400  0.12162700  1
  O  O18  1  0.13216000  0.28648800  0.17159000  1
  O  O19  1  0.67834900  0.42165800  0.47325800  1
  O  O20  1  0.31314400  0.56856400  0.52284300  1
  O  O21  1  0.81216000  0.69879500  0.81396100  1
  O  O22  1  0.36167300  0.75722300  0.87952700  1
  O  O23  1  0.00423100  0.57499300  0.19912100  1
  O  O24  1  0.36727600  0.61477800  0.22444400  1
  O  O25  1  0.75198900  0.74835400  0.24765400  1
  O  O26  1  0.10942200  0.80975200  0.55312800  1
  O  O27  1  0.49847000  0.93436200  0.68282900  1
  O  O28  1  0.09076200  0.93800400  0.26378000  1
