# generated using pymatgen
data_Li7CrFe3(PO4)6
_symmetry_space_group_name_H-M   'P 1'
_cell_length_a   8.78494065
_cell_length_b   8.78494065
_cell_length_c   8.78494041
_cell_angle_alpha   60.34894014
_cell_angle_beta   60.34894014
_cell_angle_gamma   60.34894294
_symmetry_Int_Tables_number   1
_chemical_formula_structural   Li7CrFe3(PO4)6
_chemical_formula_sum   'Li7 Cr1 Fe3 P6 O24'
_cell_volume   483.18811950
_cell_formula_units_Z   1
loop_
 _symmetry_equiv_pos_site_id
 _symmetry_equiv_pos_as_xyz
  1  'x, y, z'
loop_
 _atom_site_type_symbol
 _atom_site_label
 _atom_site_symmetry_multiplicity
 _atom_site_fract_x
 _atom_site_fract_y
 _atom_site_fract_z
 _atom_site_occupancy
  Li  Li0  1  0.70639600  0.34572700  0.16382300  1
  Li  Li1  1  0.16382300  0.70639600  0.34572700  1
  Li  Li2  1  0.34572700  0.16382300  0.70639600  1
  Li  Li3  1  0.52050200  0.52050200  0.52050200  1
  Li  Li4  1  0.75547500  0.93951600  0.19744600  1
  Li  Li5  1  0.93951600  0.19744600  0.75547500  1
  Li  Li6  1  0.19744600  0.75547500  0.93951600  1
  Cr  Cr7  1  0.85532200  0.85532200  0.85532200  1
  Fe  Fe8  1  0.34828700  0.34828700  0.34828700  1
  Fe  Fe9  1  0.14603700  0.14603700  0.14603700  1
  Fe  Fe10  1  0.64674400  0.64674400  0.64674400  1
  P  P11  1  0.46187300  0.74943900  0.04270500  1
  P  P12  1  0.74943900  0.04270500  0.46187300  1
  P  P13  1  0.04270500  0.46187300  0.74943900  1
  P  P14  1  0.95380700  0.54656200  0.24785300  1
  P  P15  1  0.24785300  0.95380700  0.54656200  1
  P  P16  1  0.54656200  0.24785300  0.95380700  1
  O  O17  1  0.26465100  0.89645800  0.09274900  1
  O  O18  1  0.62183800  0.80290400  0.99900300  1
  O  O19  1  0.46186000  0.57060800  0.21452300  1
  O  O20  1  0.72383400  0.87283200  0.47118900  1
  O  O21  1  0.89645800  0.09274900  0.26465100  1
  O  O22  1  0.57060800  0.21452300  0.46186000  1
  O  O23  1  0.87283200  0.47118900  0.72383400  1
  O  O24  1  0.21452300  0.46186000  0.57060800  1
  O  O25  1  0.99450800  0.38594000  0.19363300  1
  O  O26  1  0.92996300  0.73755000  0.08418800  1
  O  O27  1  0.47118900  0.72383400  0.87283200  1
  O  O28  1  0.19363300  0.99450800  0.38594000  1
  O  O29  1  0.80290400  0.99900300  0.62183800  1
  O  O30  1  0.53540400  0.28091600  0.11551600  1
  O  O31  1  0.09274900  0.26465100  0.89645800  1
  O  O32  1  0.99900300  0.62183800  0.80290400  1
  O  O33  1  0.77116800  0.56289900  0.41570700  1
  O  O34  1  0.11551600  0.53540400  0.28091600  1
  O  O35  1  0.41570700  0.77116800  0.56289900  1
  O  O36  1  0.08418800  0.92996300  0.73755000  1
  O  O37  1  0.28091600  0.11551600  0.53540400  1
  O  O38  1  0.38594000  0.19363300  0.99450800  1
  O  O39  1  0.56289900  0.41570700  0.77116800  1
  O  O40  1  0.73755000  0.08418800  0.92996300  1
