# generated using pymatgen
data_Li11V6O5F19
_symmetry_space_group_name_H-M   'P 1'
_cell_length_a   5.25983900
_cell_length_b   5.44687546
_cell_length_c   16.08301332
_cell_angle_alpha   98.73137142
_cell_angle_beta   90.04695735
_cell_angle_gamma   90.79737780
_symmetry_Int_Tables_number   1
_chemical_formula_structural   Li11V6O5F19
_chemical_formula_sum   'Li11 V6 O5 F19'
_cell_volume   455.38726656
_cell_formula_units_Z   1
loop_
 _symmetry_equiv_pos_site_id
 _symmetry_equiv_pos_as_xyz
  1  'x, y, z'
loop_
 _atom_site_type_symbol
 _atom_site_label
 _atom_site_symmetry_multiplicity
 _atom_site_fract_x
 _atom_site_fract_y
 _atom_site_fract_z
 _atom_site_occupancy
  Li  Li0  1  0.44704000  0.49315500  0.21443600  1
  Li  Li1  1  0.96226400  0.82240700  0.76912600  1
  Li  Li2  1  0.50427500  0.66927200  0.43496900  1
  Li  Li3  1  0.96408700  0.49934100  0.10041700  1
  Li  Li4  1  0.47049600  0.98243100  0.89743800  1
  Li  Li5  1  0.03926100  0.99790200  0.21518100  1
  Li  Li6  1  0.99489900  0.14111400  0.43527100  1
  Li  Li7  1  0.51376200  0.33393400  0.76955200  1
  Li  Li8  1  0.51466000  0.98534600  0.10445600  1
  Li  Li9  1  0.47718800  0.27313400  0.55227000  1
  Li  Li10  1  0.01637100  0.48581600  0.89387800  1
  V  V11  1  0.02321900  0.64930300  0.33773700  1
  V  V12  1  0.47595200  0.81120400  0.66763600  1
  V  V13  1  0.50960200  0.46203200  0.99700400  1
  V  V14  1  0.01028100  0.01849600  0.99934500  1
  V  V15  1  0.47801000  0.15382500  0.33698100  1
  V  V16  1  0.01153700  0.34044100  0.66665100  1
  O  O17  1  0.20067900  0.37553700  0.36639000  1
  O  O18  1  0.32822400  0.17451000  0.02608300  1
  O  O19  1  0.30962900  0.87269900  0.36542600  1
  O  O20  1  0.82587500  0.30672600  0.97101000  1
  O  O21  1  0.31236100  0.52874800  0.69886100  1
  F  F22  1  0.68965600  0.44833600  0.29935500  1
  F  F23  1  0.11265800  0.87332500  0.87936400  1
  F  F24  1  0.40274800  0.74254300  0.55146200  1
  F  F25  1  0.11026400  0.61696500  0.20823300  1
  F  F26  1  0.61194100  0.94412300  0.78332200  1
  F  F27  1  0.60900100  0.60346000  0.11775800  1
  F  F28  1  0.85532900  0.77644800  0.44451400  1
  F  F29  1  0.17176900  0.03509400  0.70620700  1
  F  F30  1  0.18812200  0.68778500  0.02813900  1
  F  F31  1  0.66705800  0.14505400  0.64494500  1
  F  F32  1  0.81380700  0.95822700  0.30173800  1
  F  F33  1  0.11993900  0.23094800  0.55222000  1
  F  F34  1  0.36938700  0.38471700  0.87868600  1
  F  F35  1  0.87400700  0.08505800  0.11710400  1
  F  F36  1  0.37452600  0.11859700  0.20956500  1
  F  F37  1  0.86721100  0.44453500  0.78313100  1
  F  F38  1  0.64099300  0.26704200  0.45248400  1
  F  F39  1  0.68435400  0.79415900  0.96667400  1
  F  F40  1  0.81654200  0.64235600  0.64553500  1
