# generated using pymatgen
data_LiMn2(BO3)2
_symmetry_space_group_name_H-M   'P 1'
_cell_length_a   9.04786600
_cell_length_b   5.32313100
_cell_length_c   10.36257153
_cell_angle_alpha   88.04147388
_cell_angle_beta   90.00000000
_cell_angle_gamma   90.00000000
_symmetry_Int_Tables_number   1
_chemical_formula_structural   LiMn2(BO3)2
_chemical_formula_sum   'Li4 Mn8 B8 O24'
_cell_volume   498.80072776
_cell_formula_units_Z   4
loop_
 _symmetry_equiv_pos_site_id
 _symmetry_equiv_pos_as_xyz
  1  'x, y, z'
loop_
 _atom_site_type_symbol
 _atom_site_label
 _atom_site_symmetry_multiplicity
 _atom_site_fract_x
 _atom_site_fract_y
 _atom_site_fract_z
 _atom_site_occupancy
  Li  Li0  1  0.99704900  0.13383800  0.91684000  1
  Li  Li1  1  0.51825300  0.37011800  0.66666300  1
  Li  Li2  1  0.48174700  0.37011800  0.16666300  1
  Li  Li3  1  0.00295100  0.13383800  0.41684000  1
  Mn  Mn4  1  0.80538800  0.64942000  0.87440400  1
  Mn  Mn5  1  0.85204100  0.34759800  0.62397800  1
  Mn  Mn6  1  0.69701400  0.85774500  0.13163500  1
  Mn  Mn7  1  0.65420700  0.15443700  0.38770100  1
  Mn  Mn8  1  0.30298600  0.85774500  0.63163500  1
  Mn  Mn9  1  0.34579300  0.15443700  0.88770100  1
  Mn  Mn10  1  0.19461200  0.64942000  0.37440400  1
  Mn  Mn11  1  0.14795900  0.34759800  0.12397800  1
  B  B12  1  0.85163200  0.65867100  0.37078600  1
  B  B13  1  0.64883100  0.84619800  0.63699800  1
  B  B14  1  0.81235000  0.32077000  0.11822800  1
  B  B15  1  0.68684600  0.17596000  0.87340400  1
  B  B16  1  0.35116900  0.84619800  0.13699800  1
  B  B17  1  0.14836800  0.65867100  0.87078600  1
  B  B18  1  0.31315400  0.17596000  0.37340400  1
  B  B19  1  0.18765000  0.32077000  0.61822800  1
  O  O20  1  0.98147900  0.78228400  0.38214000  1
  O  O21  1  0.77186900  0.71025800  0.68996700  1
  O  O22  1  0.80202900  0.56816900  0.06855300  1
  O  O23  1  0.93921300  0.19081400  0.11036900  1
  O  O24  1  0.83351300  0.40884000  0.41502000  1
  O  O25  1  0.69868200  0.93925000  0.93571400  1
  O  O26  1  0.72778100  0.78915300  0.31693200  1
  O  O27  1  0.82249200  0.29245300  0.83805100  1
  O  O28  1  0.51769600  0.72760400  0.62760100  1
  O  O29  1  0.68049900  0.21358800  0.16601000  1
  O  O30  1  0.67083700  0.09533800  0.59337800  1
  O  O31  1  0.48230400  0.72760400  0.12760100  1
  O  O32  1  0.55668200  0.28816900  0.85158400  1
  O  O33  1  0.30131800  0.93925000  0.43571400  1
  O  O34  1  0.27221900  0.78915300  0.81693200  1
  O  O35  1  0.44331800  0.28816900  0.35158400  1
  O  O36  1  0.22813100  0.71025800  0.18996700  1
  O  O37  1  0.31950100  0.21358800  0.66601000  1
  O  O38  1  0.32916300  0.09533800  0.09337800  1
  O  O39  1  0.19797100  0.56816900  0.56855300  1
  O  O40  1  0.01852100  0.78228400  0.88214000  1
  O  O41  1  0.16648700  0.40884000  0.91502000  1
  O  O42  1  0.17750800  0.29245300  0.33805100  1
  O  O43  1  0.06078700  0.19081400  0.61036900  1
