# generated using pymatgen
data_Li3Mn4(PO4)6
_symmetry_space_group_name_H-M   'P 1'
_cell_length_a   8.47305700
_cell_length_b   8.51115331
_cell_length_c   8.60378344
_cell_angle_alpha   89.72216377
_cell_angle_beta   119.09949476
_cell_angle_gamma   119.60909793
_symmetry_Int_Tables_number   1
_chemical_formula_structural   Li3Mn4(PO4)6
_chemical_formula_sum   'Li3 Mn4 P6 O24'
_cell_volume   448.14541910
_cell_formula_units_Z   1
loop_
 _symmetry_equiv_pos_site_id
 _symmetry_equiv_pos_as_xyz
  1  'x, y, z'
loop_
 _atom_site_type_symbol
 _atom_site_label
 _atom_site_symmetry_multiplicity
 _atom_site_fract_x
 _atom_site_fract_y
 _atom_site_fract_z
 _atom_site_occupancy
  Li  Li0  1  0.97770400  0.63061700  0.95006400  1
  Li  Li1  1  0.41326000  0.10675100  0.66184900  1
  Li  Li2  1  0.80526500  0.96864200  0.44707700  1
  Mn  Mn3  1  0.29037000  0.15369400  0.93398200  1
  Mn  Mn4  1  0.71991900  0.35584800  0.56651100  1
  Mn  Mn5  1  0.27892900  0.64215200  0.42688700  1
  Mn  Mn6  1  0.71153900  0.84948100  0.06759300  1
  P  P7  1  0.50829600  0.47835100  0.75801300  1
  P  P8  1  0.78058800  0.03528800  0.74470900  1
  P  P9  1  0.22512800  0.75703600  0.75141500  1
  P  P10  1  0.78791300  0.25137200  0.25583600  1
  P  P11  1  0.19843000  0.95511400  0.24540600  1
  P  P12  1  0.49469500  0.52796400  0.24500200  1
  O  O13  1  0.18972200  0.98656900  0.06360600  1
  O  O14  1  0.65099700  0.48627900  0.39266400  1
  O  O15  1  0.77333100  0.21387700  0.74625300  1
  O  O16  1  0.35845300  0.27888000  0.76261300  1
  O  O17  1  0.02885300  0.61166900  0.75361700  1
  O  O18  1  0.57764000  0.87209900  0.55724000  1
  O  O19  1  0.67408000  0.63279900  0.95182300  1
  O  O20  1  0.01100400  0.94334700  0.24723600  1
  O  O21  1  0.27127400  0.95890400  0.78725600  1
  O  O22  1  0.59657600  0.25734900  0.10208200  1
  O  O23  1  0.34488800  0.53768000  0.28926900  1
  O  O24  1  0.81950700  0.27199500  0.44873500  1
  O  O25  1  0.19215800  0.72896400  0.55571100  1
  O  O26  1  0.66033500  0.46325300  0.71949100  1
  O  O27  1  0.97334700  0.06225800  0.73750600  1
  O  O28  1  0.41412800  0.74843600  0.90164900  1
  O  O29  1  0.40174400  0.10971900  0.42681900  1
  O  O30  1  0.33291100  0.37258500  0.05125100  1
  O  O31  1  0.17340500  0.75886800  0.23241000  1
  O  O32  1  0.75556300  0.05653500  0.21734000  1
  O  O33  1  0.64694800  0.72791000  0.24135900  1
  O  O34  1  0.98781300  0.41002100  0.26069600  1
  O  O35  1  0.35053400  0.51632400  0.60604100  1
  O  O36  1  0.79535800  0.99341100  0.92196000  1
