# generated using pymatgen
data_Li2Mn2F7
_symmetry_space_group_name_H-M   'P 1'
_cell_length_a   5.22248600
_cell_length_b   7.78882300
_cell_length_c   13.14981379
_cell_angle_alpha   82.17910754
_cell_angle_beta   90.00000000
_cell_angle_gamma   90.00000000
_symmetry_Int_Tables_number   1
_chemical_formula_structural   Li2Mn2F7
_chemical_formula_sum   'Li8 Mn8 F28'
_cell_volume   529.91978463
_cell_formula_units_Z   4
loop_
 _symmetry_equiv_pos_site_id
 _symmetry_equiv_pos_as_xyz
  1  'x, y, z'
loop_
 _atom_site_type_symbol
 _atom_site_label
 _atom_site_symmetry_multiplicity
 _atom_site_fract_x
 _atom_site_fract_y
 _atom_site_fract_z
 _atom_site_occupancy
  Li  Li0  1  0.27413700  0.85369700  0.56900500  1
  Li  Li1  1  0.76417700  0.77337600  0.90374500  1
  Li  Li2  1  0.25858600  0.72146500  0.10974100  1
  Li  Li3  1  0.77972500  0.60319600  0.42448000  1
  Li  Li4  1  0.27972500  0.39680400  0.57552000  1
  Li  Li5  1  0.75858600  0.27853500  0.89025900  1
  Li  Li6  1  0.26417700  0.22662400  0.09625500  1
  Li  Li7  1  0.77413700  0.14630300  0.43099500  1
  Mn  Mn8  1  0.26053300  0.92050400  0.32094200  1
  Mn  Mn9  1  0.76451700  0.97367500  0.11184700  1
  Mn  Mn10  1  0.75837800  0.58226200  0.67979100  1
  Mn  Mn11  1  0.26160500  0.52882300  0.88715400  1
  Mn  Mn12  1  0.76160500  0.47117700  0.11284600  1
  Mn  Mn13  1  0.25837800  0.41773800  0.32020900  1
  Mn  Mn14  1  0.26451700  0.02632500  0.88815300  1
  Mn  Mn15  1  0.76053300  0.07949600  0.67905800  1
  F  F16  1  0.54814400  0.95489400  0.40091700  1
  F  F17  1  0.42160800  0.02068500  0.19081200  1
  F  F18  1  0.59961100  0.83135700  0.65742900  1
  F  F19  1  0.41244100  0.78042700  0.87644100  1
  F  F20  1  0.07969900  0.82313800  0.43712900  1
  F  F21  1  0.09070700  0.91661700  0.02621500  1
  F  F22  1  0.97914700  0.86791200  0.23750400  1
  F  F23  1  0.06926600  0.64901200  0.62104500  1
  F  F24  1  0.90977200  0.61373700  0.82029200  1
  F  F25  1  0.61891500  0.73077200  0.08060400  1
  F  F26  1  0.40809400  0.66761600  0.29615100  1
  F  F27  1  0.57977100  0.55618200  0.54869200  1
  F  F28  1  0.58797400  0.43253200  0.97136000  1
  F  F29  1  0.46568400  0.49299100  0.75347500  1
  F  F30  1  0.96568400  0.50700900  0.24652500  1
  F  F31  1  0.08797400  0.56746800  0.02864000  1
  F  F32  1  0.07977100  0.44381800  0.45130800  1
  F  F33  1  0.90809400  0.33238400  0.70384900  1
  F  F34  1  0.11891500  0.26922800  0.91939600  1
  F  F35  1  0.40977200  0.38626300  0.17970800  1
  F  F36  1  0.56926600  0.35098800  0.37895500  1
  F  F37  1  0.47914700  0.13208800  0.76249600  1
  F  F38  1  0.59070700  0.08338300  0.97378500  1
  F  F39  1  0.57969900  0.17686200  0.56287100  1
  F  F40  1  0.91244100  0.21957300  0.12355900  1
  F  F41  1  0.09961100  0.16864300  0.34257100  1
  F  F42  1  0.92160800  0.97931500  0.80918800  1
  F  F43  1  0.04814400  0.04510600  0.59908300  1
