# generated using pymatgen
data_Li2Nb6NiO18
_symmetry_space_group_name_H-M   'P 1'
_cell_length_a   7.67183100
_cell_length_b   8.96978445
_cell_length_c   11.15711832
_cell_angle_alpha   105.55483384
_cell_angle_beta   96.14544618
_cell_angle_gamma   112.94822205
_symmetry_Int_Tables_number   1
_chemical_formula_structural   Li2Nb6NiO18
_chemical_formula_sum   'Li4 Nb12 Ni2 O36'
_cell_volume   661.45471076
_cell_formula_units_Z   2
loop_
 _symmetry_equiv_pos_site_id
 _symmetry_equiv_pos_as_xyz
  1  'x, y, z'
loop_
 _atom_site_type_symbol
 _atom_site_label
 _atom_site_symmetry_multiplicity
 _atom_site_fract_x
 _atom_site_fract_y
 _atom_site_fract_z
 _atom_site_occupancy
  Li  Li0  1  0.55175500  0.66424400  0.94767800  1
  Li  Li1  1  0.87556100  0.32531900  0.61336500  1
  Li  Li2  1  0.54408000  0.66788500  0.44770800  1
  Li  Li3  1  0.88934900  0.33987100  0.12169300  1
  Nb  Nb4  1  0.50856300  0.98597000  0.99302400  1
  Nb  Nb5  1  0.17695800  0.34591700  0.82611500  1
  Nb  Nb6  1  0.66657500  0.33105000  0.84443700  1
  Nb  Nb7  1  0.32120800  0.65929200  0.65813500  1
  Nb  Nb8  1  0.82024600  0.65670500  0.65812500  1
  Nb  Nb9  1  0.49396200  0.00295900  0.50199300  1
  Nb  Nb10  1  0.16027900  0.33115300  0.33033400  1
  Nb  Nb11  1  0.03024900  0.01225700  0.50496200  1
  Nb  Nb12  1  0.65539900  0.34249500  0.31943700  1
  Nb  Nb13  1  0.32622400  0.64741800  0.15826100  1
  Nb  Nb14  1  0.85194400  0.68127800  0.17380100  1
  Nb  Nb15  1  0.99610300  0.99869900  0.00380800  1
  Ni  Ni16  1  0.19807500  0.00109000  0.80576000  1
  Ni  Ni17  1  0.69801600  0.99966000  0.30432700  1
  O  O18  1  0.69084200  0.21225300  0.95544700  1
  O  O19  1  0.04795900  0.11519700  0.85146200  1
  O  O20  1  0.70943800  0.53811400  0.96697600  1
  O  O21  1  0.71502800  0.90660900  0.95159300  1
  O  O22  1  0.37634500  0.21841500  0.79636600  1
  O  O23  1  0.96272000  0.38861800  0.83969900  1
  O  O24  1  0.35513100  0.54373800  0.77820400  1
  O  O25  1  0.00385000  0.81804400  0.83000500  1
  O  O26  1  0.64416500  0.14559000  0.66373500  1
  O  O27  1  0.05966600  0.21665300  0.62894900  1
  O  O28  1  0.36948100  0.88676000  0.79215700  1
  O  O29  1  0.70994700  0.46965800  0.71027700  1
  O  O30  1  0.05326800  0.57431700  0.62749400  1
  O  O31  1  0.29691100  0.08422300  0.49278800  1
  O  O32  1  0.62960100  0.73507200  0.66196400  1
  O  O33  1  0.04265200  0.89651900  0.62767500  1
  O  O34  1  0.29913000  0.46477300  0.50218100  1
  O  O35  1  0.69270800  0.18958400  0.42478100  1
  O  O36  1  0.36896800  0.79373100  0.52782000  1
  O  O37  1  0.98036000  0.11000600  0.34978400  1
  O  O38  1  0.72688200  0.54350900  0.46504300  1
  O  O39  1  0.72441000  0.92398600  0.44452400  1
  O  O40  1  0.38937700  0.25619700  0.29492200  1
  O  O41  1  0.96551600  0.40195100  0.32231200  1
  O  O42  1  0.34727900  0.53994200  0.27857800  1
  O  O43  1  0.96806700  0.79529600  0.34505500  1
  O  O44  1  0.64725300  0.11000900  0.17845800  1
  O  O45  1  0.43336300  0.88843500  0.29172800  1
  O  O46  1  0.05375400  0.21026200  0.12427100  1
  O  O47  1  0.69701900  0.45704300  0.19138200  1
  O  O48  1  0.05963400  0.58972400  0.13583100  1
  O  O49  1  0.29699400  0.06885900  0.98108500  1
  O  O50  1  0.65555200  0.77843900  0.18238100  1
  O  O51  1  0.00965100  0.86734800  0.10499600  1
  O  O52  1  0.32435200  0.47756900  0.00362200  1
  O  O53  1  0.36603500  0.79028900  0.02592400  1
