# generated using pymatgen
data_LiVSiO4
_symmetry_space_group_name_H-M   'P 1'
_cell_length_a   8.67607294
_cell_length_b   8.67607294
_cell_length_c   8.67607338
_cell_angle_alpha   107.41839055
_cell_angle_beta   107.41839055
_cell_angle_gamma   107.41839512
_symmetry_Int_Tables_number   1
_chemical_formula_structural   LiVSiO4
_chemical_formula_sum   'Li6 V6 Si6 O24'
_cell_volume   537.56689155
_cell_formula_units_Z   6
loop_
 _symmetry_equiv_pos_site_id
 _symmetry_equiv_pos_as_xyz
  1  'x, y, z'
loop_
 _atom_site_type_symbol
 _atom_site_label
 _atom_site_symmetry_multiplicity
 _atom_site_fract_x
 _atom_site_fract_y
 _atom_site_fract_z
 _atom_site_occupancy
  Li  Li0  1  0.76554900  0.94047500  0.54241100  1
  Li  Li1  1  0.05952500  0.45758900  0.23445100  1
  Li  Li2  1  0.45758900  0.23445100  0.05952500  1
  Li  Li3  1  0.54241100  0.76554900  0.94047500  1
  Li  Li4  1  0.94047500  0.54241100  0.76554900  1
  Li  Li5  1  0.23445100  0.05952500  0.45758900  1
  V  V6  1  0.28808500  0.86933100  0.10682500  1
  V  V7  1  0.89317500  0.71191500  0.13066900  1
  V  V8  1  0.13066900  0.89317500  0.71191500  1
  V  V9  1  0.86933100  0.10682500  0.28808500  1
  V  V10  1  0.10682500  0.28808500  0.86933100  1
  V  V11  1  0.71191500  0.13066900  0.89317500  1
  Si  Si12  1  0.44206500  0.60976900  0.21691900  1
  Si  Si13  1  0.39023100  0.78308100  0.55793500  1
  Si  Si14  1  0.78308100  0.55793500  0.39023100  1
  Si  Si15  1  0.21691900  0.44206500  0.60976900  1
  Si  Si16  1  0.60976900  0.21691900  0.44206500  1
  Si  Si17  1  0.55793500  0.39023100  0.78308100  1
  O  O18  1  0.04784000  0.70578700  0.01883600  1
  O  O19  1  0.98116400  0.95216000  0.29421300  1
  O  O20  1  0.44185600  0.74206600  0.11768800  1
  O  O21  1  0.88231200  0.55814400  0.25793400  1
  O  O22  1  0.34446500  0.40071000  0.07825200  1
  O  O23  1  0.65221700  0.66467700  0.35202300  1
  O  O24  1  0.25793400  0.88231200  0.55814400  1
  O  O25  1  0.33532300  0.64797700  0.34778300  1
  O  O26  1  0.59929000  0.92174800  0.65553500  1
  O  O27  1  0.92174800  0.65553500  0.59929000  1
  O  O28  1  0.64797700  0.34778300  0.33532300  1
  O  O29  1  0.29421300  0.98116400  0.95216000  1
  O  O30  1  0.70578700  0.01883600  0.04784000  1
  O  O31  1  0.35202300  0.65221700  0.66467700  1
  O  O32  1  0.07825200  0.34446500  0.40071000  1
  O  O33  1  0.40071000  0.07825200  0.34446500  1
  O  O34  1  0.66467700  0.35202300  0.65221700  1
  O  O35  1  0.74206600  0.11768800  0.44185600  1
  O  O36  1  0.34778300  0.33532300  0.64797700  1
  O  O37  1  0.65553500  0.59929000  0.92174800  1
  O  O38  1  0.11768800  0.44185600  0.74206600  1
  O  O39  1  0.55814400  0.25793400  0.88231200  1
  O  O40  1  0.01883600  0.04784000  0.70578700  1
  O  O41  1  0.95216000  0.29421300  0.98116400  1
