# generated using pymatgen
data_LiCo2OF3
_symmetry_space_group_name_H-M   'P 1'
_cell_length_a   6.11493000
_cell_length_b   6.15785919
_cell_length_c   8.51055657
_cell_angle_alpha   89.85616024
_cell_angle_beta   89.91552957
_cell_angle_gamma   89.08559900
_symmetry_Int_Tables_number   1
_chemical_formula_structural   LiCo2OF3
_chemical_formula_sum   'Li4 Co8 O4 F12'
_cell_volume   320.42181887
_cell_formula_units_Z   4
loop_
 _symmetry_equiv_pos_site_id
 _symmetry_equiv_pos_as_xyz
  1  'x, y, z'
loop_
 _atom_site_type_symbol
 _atom_site_label
 _atom_site_symmetry_multiplicity
 _atom_site_fract_x
 _atom_site_fract_y
 _atom_site_fract_z
 _atom_site_occupancy
  Li  Li0  1  0.24741500  0.48954500  0.25480800  1
  Li  Li1  1  0.48749400  0.25078500  0.00322400  1
  Li  Li2  1  0.50040500  0.76203800  0.49518700  1
  Li  Li3  1  0.73844400  0.49718900  0.74544700  1
  Co  Co4  1  0.01228600  0.24213800  0.01209800  1
  Co  Co5  1  0.99892400  0.76942500  0.50150300  1
  Co  Co6  1  0.25004500  0.22887100  0.60621800  1
  Co  Co7  1  0.25443800  0.77378000  0.89181900  1
  Co  Co8  1  0.24205200  0.01824500  0.25388000  1
  Co  Co9  1  0.74087900  0.00118000  0.73423200  1
  Co  Co10  1  0.77161900  0.23649700  0.37792800  1
  Co  Co11  1  0.74277600  0.73653200  0.12158000  1
  O  O12  1  0.01815300  0.26605500  0.24097200  1
  O  O13  1  0.25517400  0.02551700  0.01425800  1
  O  O14  1  0.24494000  0.97442200  0.48529600  1
  O  O15  1  0.75164600  0.98024200  0.51028400  1
  F  F16  1  0.01049100  0.74403200  0.24438400  1
  F  F17  1  0.24387200  0.51704500  0.49871900  1
  F  F18  1  0.26260800  0.49323000  0.00418500  1
  F  F19  1  0.49588000  0.26482100  0.24650600  1
  F  F20  1  0.48376000  0.73869400  0.25291200  1
  F  F21  1  0.51143700  0.25512400  0.75271800  1
  F  F22  1  0.51743100  0.74463700  0.74997500  1
  F  F23  1  0.74426100  0.00291400  0.98436800  1
  F  F24  1  0.75875200  0.51771800  0.51309800  1
  F  F25  1  0.75073100  0.47784800  0.98582800  1
  F  F26  1  0.98310300  0.25034800  0.75924500  1
  F  F27  1  0.98098200  0.74113000  0.75932700  1
