# generated using pymatgen
data_Li3Fe4(BO3)4
_symmetry_space_group_name_H-M   'P 1'
_cell_length_a   5.21902500
_cell_length_b   9.07260480
_cell_length_c   11.34770100
_cell_angle_alpha   112.29212638
_cell_angle_beta   102.67724852
_cell_angle_gamma   90.07511994
_symmetry_Int_Tables_number   1
_chemical_formula_structural   Li3Fe4(BO3)4
_chemical_formula_sum   'Li6 Fe8 B8 O24'
_cell_volume   482.90493224
_cell_formula_units_Z   2
loop_
 _symmetry_equiv_pos_site_id
 _symmetry_equiv_pos_as_xyz
  1  'x, y, z'
loop_
 _atom_site_type_symbol
 _atom_site_label
 _atom_site_symmetry_multiplicity
 _atom_site_fract_x
 _atom_site_fract_y
 _atom_site_fract_z
 _atom_site_occupancy
  Li  Li0  1  0.02661700  0.03695500  0.40421100  1
  Li  Li1  1  0.29985600  0.28111700  0.91856800  1
  Li  Li2  1  0.48812100  0.50637200  0.66455700  1
  Li  Li3  1  0.52694700  0.53761100  0.40933400  1
  Li  Li4  1  0.98505200  0.00418300  0.66217400  1
  Li  Li5  1  0.76099800  0.74717900  0.15917400  1
  Fe  Fe6  1  0.03463200  0.35361800  0.37586100  1
  Fe  Fe7  1  0.26968600  0.92338100  0.88086300  1
  Fe  Fe8  1  0.47670300  0.15918000  0.62946200  1
  Fe  Fe9  1  0.24338100  0.55620300  0.13420900  1
  Fe  Fe10  1  0.77139200  0.45036300  0.88469900  1
  Fe  Fe11  1  0.52379000  0.85170800  0.38219800  1
  Fe  Fe12  1  0.96906600  0.65021600  0.63168400  1
  Fe  Fe13  1  0.73711900  0.07654000  0.13096900  1
  B  B14  1  0.01835300  0.68571100  0.37748800  1
  B  B15  1  0.26949200  0.59855200  0.87456100  1
  B  B16  1  0.48041600  0.81671700  0.63086700  1
  B  B17  1  0.23629700  0.89554800  0.12997900  1
  B  B18  1  0.51921900  0.18789600  0.37566800  1
  B  B19  1  0.76662800  0.10573100  0.87912800  1
  B  B20  1  0.97669500  0.31451400  0.62411600  1
  B  B21  1  0.72502200  0.39693400  0.12615000  1
  O  O22  1  0.02316100  0.08325800  0.86244400  1
  O  O23  1  0.11329000  0.71372000  0.84584700  1
  O  O24  1  0.16786800  0.49025000  0.91608300  1
  O  O25  1  0.08429800  0.17041400  0.61121400  1
  O  O26  1  0.10148600  0.42548800  0.59263200  1
  O  O27  1  0.25060300  0.84956400  0.68014700  1
  O  O28  1  0.26562400  0.66128600  0.35028900  1
  O  O29  1  0.51859400  0.59733200  0.85696700  1
  O  O30  1  0.62354800  0.21664900  0.84529600  1
  O  O31  1  0.40771100  0.07910100  0.41349500  1
  O  O32  1  0.41300600  0.32676900  0.38292700  1
  O  O33  1  0.64724500  0.01180900  0.92970500  1
  O  O34  1  0.35902100  0.98807200  0.07850800  1
  O  O35  1  0.58338600  0.67288800  0.61368400  1
  O  O36  1  0.59762900  0.92875700  0.59833800  1
  O  O37  1  0.38192900  0.78747600  0.16726400  1
  O  O38  1  0.45950800  0.37682800  0.11049100  1
  O  O39  1  0.74188300  0.34470100  0.66306000  1
  O  O40  1  0.75440100  0.15286700  0.32972400  1
  O  O41  1  0.90053400  0.58053500  0.41680000  1
  O  O42  1  0.89474200  0.81666000  0.36610500  1
  O  O43  1  0.83970300  0.51870200  0.10211600  1
  O  O44  1  0.88241700  0.28836700  0.16289200  1
  O  O45  1  0.97919300  0.91610300  0.14109400  1
