# generated using pymatgen
data_LiP3W2O13
_symmetry_space_group_name_H-M   'P 1'
_cell_length_a   22.63665400
_cell_length_b   6.48691900
_cell_length_c   8.83175271
_cell_angle_alpha   52.71920938
_cell_angle_beta   90.00000000
_cell_angle_gamma   90.00000000
_symmetry_Int_Tables_number   1
_chemical_formula_structural   LiP3W2O13
_chemical_formula_sum   'Li4 P12 W8 O52'
_cell_volume   1031.89188274
_cell_formula_units_Z   4
loop_
 _symmetry_equiv_pos_site_id
 _symmetry_equiv_pos_as_xyz
  1  'x, y, z'
loop_
 _atom_site_type_symbol
 _atom_site_label
 _atom_site_symmetry_multiplicity
 _atom_site_fract_x
 _atom_site_fract_y
 _atom_site_fract_z
 _atom_site_occupancy
  Li  Li0  1  0.15039100  0.97533900  0.28990600  1
  Li  Li1  1  0.65039100  0.02466100  0.21009400  1
  Li  Li2  1  0.34960900  0.97533900  0.78990600  1
  Li  Li3  1  0.84960900  0.02466100  0.71009400  1
  P  P4  1  0.41603100  0.53621300  0.84609500  1
  P  P5  1  0.70417700  0.64287400  0.58024700  1
  P  P6  1  0.20417700  0.35712600  0.91975300  1
  P  P7  1  0.90064200  0.98021900  0.30076100  1
  P  P8  1  0.91603100  0.46378700  0.65390500  1
  P  P9  1  0.40064200  0.01978100  0.19923900  1
  P  P10  1  0.59935800  0.98021900  0.80076100  1
  P  P11  1  0.08396900  0.53621300  0.34609500  1
  P  P12  1  0.09935800  0.01978100  0.69923900  1
  P  P13  1  0.79582300  0.64287400  0.08024700  1
  P  P14  1  0.29582300  0.35712600  0.41975300  1
  P  P15  1  0.58396900  0.46378700  0.15390500  1
  W  W16  1  0.29197000  0.74511700  0.54237900  1
  W  W17  1  0.56479500  0.55543400  0.72190400  1
  W  W18  1  0.06479500  0.44456600  0.77809600  1
  W  W19  1  0.79197000  0.25488300  0.95762100  1
  W  W20  1  0.20803000  0.74511700  0.04237900  1
  W  W21  1  0.93520500  0.55543400  0.22190400  1
  W  W22  1  0.43520500  0.44456600  0.27809600  1
  W  W23  1  0.70803000  0.25488300  0.45762100  1
  O  O24  1  0.19204900  0.41840900  0.06262900  1
  O  O25  1  0.37507000  0.68761700  0.67396800  1
  O  O26  1  0.93389400  0.18895800  0.29509300  1
  O  O27  1  0.58457900  0.35400500  0.04117000  1
  O  O28  1  0.88766100  0.75391400  0.52245300  1
  O  O29  1  0.44066600  0.13260700  0.27194600  1
  O  O30  1  0.26273600  0.48525000  0.81720800  1
  O  O31  1  0.65525500  0.54527600  0.73033300  1
  O  O32  1  0.47701200  0.50361900  0.78989700  1
  O  O33  1  0.70564800  0.94278500  0.44561200  1
  O  O34  1  0.06358700  0.26213700  0.02562100  1
  O  O35  1  0.97701200  0.49638100  0.71010300  1
  O  O36  1  0.15525500  0.45472400  0.76966700  1
  O  O37  1  0.76273600  0.51475000  0.68279200  1
  O  O38  1  0.72099000  0.16235100  0.05854500  1
  O  O39  1  0.38766100  0.24608600  0.97754700  1
  O  O40  1  0.83963200  0.06110800  0.20764800  1
  O  O41  1  0.33963200  0.93889200  0.29235200  1
  O  O42  1  0.87507000  0.31238300  0.82603200  1
  O  O43  1  0.22099000  0.83764900  0.44145500  1
  O  O44  1  0.56358700  0.73786300  0.47437900  1
  O  O45  1  0.20564800  0.05721500  0.05438800  1
  O  O46  1  0.30795100  0.41840900  0.56262900  1
  O  O47  1  0.94066600  0.86739300  0.22805400  1
  O  O48  1  0.56610600  0.18895800  0.79509300  1
  O  O49  1  0.08457900  0.64599500  0.45883000  1
  O  O50  1  0.91542100  0.35400500  0.54117000  1
  O  O51  1  0.43389400  0.81104200  0.20490700  1
  O  O52  1  0.05933400  0.13260700  0.77194600  1
  O  O53  1  0.69204900  0.58159100  0.43737100  1
  O  O54  1  0.79435200  0.94278500  0.94561200  1
  O  O55  1  0.43641300  0.26213700  0.52562100  1
  O  O56  1  0.77901000  0.16235100  0.55854500  1
  O  O57  1  0.12493000  0.68761700  0.17396800  1
  O  O58  1  0.66036800  0.06110800  0.70764800  1
  O  O59  1  0.16036800  0.93889200  0.79235200  1
  O  O60  1  0.61233900  0.75391400  0.02245300  1
  O  O61  1  0.27901000  0.83764900  0.94145500  1
  O  O62  1  0.23726400  0.48525000  0.31720800  1
  O  O63  1  0.84474500  0.54527600  0.23033300  1
  O  O64  1  0.02298800  0.50361900  0.28989700  1
  O  O65  1  0.93641300  0.73786300  0.97437900  1
  O  O66  1  0.29435200  0.05721500  0.55438800  1
  O  O67  1  0.52298800  0.49638100  0.21010300  1
  O  O68  1  0.34474500  0.45472400  0.26966700  1
  O  O69  1  0.73726400  0.51475000  0.18279200  1
  O  O70  1  0.55933400  0.86739300  0.72805400  1
  O  O71  1  0.11233900  0.24608600  0.47754700  1
  O  O72  1  0.41542100  0.64599500  0.95883000  1
  O  O73  1  0.06610600  0.81104200  0.70490700  1
  O  O74  1  0.62493000  0.31238300  0.32603200  1
  O  O75  1  0.80795100  0.58159100  0.93737100  1
