# generated using pymatgen
data_Li4MnFe2(BO3)4
_symmetry_space_group_name_H-M   'P 1'
_cell_length_a   9.00665500
_cell_length_b   5.29164700
_cell_length_c   11.20197904
_cell_angle_alpha   62.71151522
_cell_angle_beta   90.00000000
_cell_angle_gamma   90.00000000
_symmetry_Int_Tables_number   1
_chemical_formula_structural   Li4MnFe2(BO3)4
_chemical_formula_sum   'Li8 Mn2 Fe4 B8 O24'
_cell_volume   474.47017601
_cell_formula_units_Z   2
loop_
 _symmetry_equiv_pos_site_id
 _symmetry_equiv_pos_as_xyz
  1  'x, y, z'
loop_
 _atom_site_type_symbol
 _atom_site_label
 _atom_site_symmetry_multiplicity
 _atom_site_fract_x
 _atom_site_fract_y
 _atom_site_fract_z
 _atom_site_occupancy
  Li  Li0  1  0.89468300  0.43431700  0.39764200  1
  Li  Li1  1  0.23529000  0.92868100  0.91297300  1
  Li  Li2  1  0.40837200  0.53691100  0.11224200  1
  Li  Li3  1  0.72940600  0.49072700  0.16310200  1
  Li  Li4  1  0.76471000  0.92868100  0.41297300  1
  Li  Li5  1  0.10531700  0.43431700  0.89764200  1
  Li  Li6  1  0.59162800  0.53691100  0.61224200  1
  Li  Li7  1  0.27059400  0.49072700  0.66310200  1
  Mn  Mn8  1  0.22222300  0.52318900  0.33125200  1
  Mn  Mn9  1  0.77777700  0.52318900  0.83125200  1
  Fe  Fe10  1  0.56450600  0.97432400  0.87383400  1
  Fe  Fe11  1  0.07358700  0.01898400  0.63094300  1
  Fe  Fe12  1  0.43549400  0.97432400  0.37383400  1
  Fe  Fe13  1  0.92641300  0.01898400  0.13094300  1
  B  B14  1  0.58047200  0.45524100  0.37653600  1
  B  B15  1  0.91564400  0.97210100  0.87172800  1
  B  B16  1  0.06709500  0.54059200  0.11934400  1
  B  B17  1  0.41004300  0.03084400  0.62787400  1
  B  B18  1  0.08435600  0.97210100  0.37172800  1
  B  B19  1  0.41952800  0.45524100  0.87653600  1
  B  B20  1  0.58995700  0.03084400  0.12787400  1
  B  B21  1  0.93290500  0.54059200  0.61934400  1
  O  O22  1  0.57502700  0.83049100  0.07999900  1
  O  O23  1  0.93461800  0.31517100  0.58956400  1
  O  O24  1  0.20045700  0.66331400  0.12470100  1
  O  O25  1  0.93350800  0.64178400  0.14476900  1
  O  O26  1  0.52753900  0.11947700  0.67965400  1
  O  O27  1  0.27105200  0.15406500  0.62617400  1
  O  O28  1  0.43845300  0.36909200  0.35396700  1
  O  O29  1  0.77403700  0.86824100  0.86835800  1
  O  O30  1  0.03848100  0.86092600  0.83620100  1
  O  O31  1  0.70231900  0.32171900  0.36129800  1
  O  O32  1  0.06883700  0.18499700  0.41086300  1
  O  O33  1  0.41237400  0.67775200  0.91125700  1
  O  O34  1  0.06538200  0.31517100  0.08956400  1
  O  O35  1  0.42497300  0.83049100  0.57999900  1
  O  O36  1  0.47246100  0.11947700  0.17965400  1
  O  O37  1  0.79954300  0.66331400  0.62470100  1
  O  O38  1  0.72894800  0.15406500  0.12617400  1
  O  O39  1  0.06649200  0.64178400  0.64476900  1
  O  O40  1  0.22596300  0.86824100  0.36835800  1
  O  O41  1  0.56154700  0.36909200  0.85396700  1
  O  O42  1  0.96151900  0.86092600  0.33620100  1
  O  O43  1  0.29768100  0.32171900  0.86129800  1
  O  O44  1  0.58762600  0.67775200  0.41125700  1
  O  O45  1  0.93116300  0.18499700  0.91086300  1
