# generated using pymatgen
data_Li8MnFe7(BO3)8
_symmetry_space_group_name_H-M   'P 1'
_cell_length_a   6.02617500
_cell_length_b   9.71531305
_cell_length_c   9.72073798
_cell_angle_alpha   65.09719966
_cell_angle_beta   79.67351681
_cell_angle_gamma   78.52291007
_symmetry_Int_Tables_number   1
_chemical_formula_structural   Li8MnFe7(BO3)8
_chemical_formula_sum   'Li8 Mn1 Fe7 B8 O24'
_cell_volume   502.94985421
_cell_formula_units_Z   1
loop_
 _symmetry_equiv_pos_site_id
 _symmetry_equiv_pos_as_xyz
  1  'x, y, z'
loop_
 _atom_site_type_symbol
 _atom_site_label
 _atom_site_symmetry_multiplicity
 _atom_site_fract_x
 _atom_site_fract_y
 _atom_site_fract_z
 _atom_site_occupancy
  Li  Li0  1  0.04455000  0.46587200  0.81498900  1
  Li  Li1  1  0.04489500  0.96676500  0.31447400  1
  Li  Li2  1  0.45516600  0.03355700  0.18444400  1
  Li  Li3  1  0.54430800  0.46633900  0.31538800  1
  Li  Li4  1  0.45340900  0.53263700  0.68449800  1
  Li  Li5  1  0.54519600  0.96688900  0.81686500  1
  Li  Li6  1  0.95516500  0.03531100  0.68504600  1
  Li  Li7  1  0.95423600  0.53332500  0.18469700  1
  Mn  Mn8  1  0.81433000  0.79417400  0.62509300  1
  Fe  Fe9  1  0.18382800  0.20970100  0.37490100  1
  Fe  Fe10  1  0.31524400  0.29249900  0.62829500  1
  Fe  Fe11  1  0.31507700  0.79323900  0.12215100  1
  Fe  Fe12  1  0.18750600  0.70465400  0.87251100  1
  Fe  Fe13  1  0.81644500  0.28974300  0.12752500  1
  Fe  Fe14  1  0.68477200  0.20967900  0.87227700  1
  Fe  Fe15  1  0.68106100  0.70897500  0.37084700  1
  B  B16  1  0.33577100  0.36713100  0.03840800  1
  B  B17  1  0.16491000  0.13209900  0.96251500  1
  B  B18  1  0.16625700  0.63220300  0.46001500  1
  B  B19  1  0.33328300  0.86793000  0.53736900  1
  B  B20  1  0.66319000  0.13362000  0.46278200  1
  B  B21  1  0.83510700  0.36840700  0.53706500  1
  B  B22  1  0.83553000  0.86797100  0.03718100  1
  B  B23  1  0.66798600  0.62991800  0.96493500  1
  O  O24  1  0.17818300  0.01287300  0.10439800  1
  O  O25  1  0.01678300  0.24696800  0.56194000  1
  O  O26  1  0.01600000  0.74697000  0.06249400  1
  O  O27  1  0.16378100  0.36137900  0.15660700  1
  O  O28  1  0.17691000  0.51314700  0.60303000  1
  O  O29  1  0.51650900  0.24582700  0.06216000  1
  O  O30  1  0.16392000  0.86328700  0.65779400  1
  O  O31  1  0.33571600  0.13797900  0.84302800  1
  O  O32  1  0.34070100  0.63790600  0.34339400  1
  O  O33  1  0.48239400  0.25458400  0.43670700  1
  O  O34  1  0.32329100  0.48677400  0.89656600  1
  O  O35  1  0.32098300  0.98728300  0.39562800  1
  O  O36  1  0.67657200  0.01649400  0.60596400  1
  O  O37  1  0.67630100  0.51149100  0.10669200  1
  O  O38  1  0.51281900  0.74572700  0.56153300  1
  O  O39  1  0.66397000  0.36207300  0.65692100  1
  O  O40  1  0.66261700  0.86233900  0.15589500  1
  O  O41  1  0.83486500  0.13717900  0.34432400  1
  O  O42  1  0.48615300  0.75193100  0.93877900  1
  O  O43  1  0.82188300  0.48645300  0.39606400  1
  O  O44  1  0.84086700  0.63473400  0.84744500  1
  O  O45  1  0.98400400  0.25337400  0.93847100  1
  O  O46  1  0.98508400  0.75298700  0.43398500  1
  O  O47  1  0.82247500  0.98760100  0.89590500  1
