# generated using pymatgen
data_Li7V3P8O29
_symmetry_space_group_name_H-M   'P 1'
_cell_length_a   9.83870400
_cell_length_b   9.87423154
_cell_length_c   13.92386422
_cell_angle_alpha   90.43614621
_cell_angle_beta   89.90466517
_cell_angle_gamma   119.85413103
_symmetry_Int_Tables_number   1
_chemical_formula_structural   Li7V3P8O29
_chemical_formula_sum   'Li14 V6 P16 O58'
_cell_volume   1173.15179269
_cell_formula_units_Z   2
loop_
 _symmetry_equiv_pos_site_id
 _symmetry_equiv_pos_as_xyz
  1  'x, y, z'
loop_
 _atom_site_type_symbol
 _atom_site_label
 _atom_site_symmetry_multiplicity
 _atom_site_fract_x
 _atom_site_fract_y
 _atom_site_fract_z
 _atom_site_occupancy
  Li  Li0  1  0.90882600  0.68730100  0.06317800  1
  Li  Li1  1  0.75968100  0.65786400  0.55998600  1
  Li  Li2  1  0.90452200  0.22911400  0.55635800  1
  Li  Li3  1  0.66880600  0.33299200  0.88554400  1
  Li  Li4  1  0.77417700  0.08251800  0.06259800  1
  Li  Li5  1  0.31670600  0.22391300  0.06269700  1
  Li  Li6  1  0.67843200  0.90971600  0.43581200  1
  Li  Li7  1  0.33123900  0.09430400  0.55978900  1
  Li  Li8  1  0.21904000  0.91094900  0.93929400  1
  Li  Li9  1  0.33143300  0.67603200  0.61445100  1
  Li  Li10  1  0.33621900  0.66570800  0.11563700  1
  Li  Li11  1  0.23201400  0.32105400  0.43444900  1
  Li  Li12  1  0.08060900  0.30421300  0.94024200  1
  Li  Li13  1  0.01113700  0.93590300  0.48546500  1
  V  V14  1  0.56456600  0.99762300  0.25267800  1
  V  V15  1  0.43364000  0.00258700  0.75058600  1
  V  V16  1  0.56812800  0.56969200  0.75256800  1
  V  V17  1  0.43909000  0.43676600  0.25021000  1
  V  V18  1  0.00355100  0.56889600  0.25365500  1
  V  V19  1  0.99617600  0.43435600  0.74681800  1
  P  P20  1  0.90888200  0.67787400  0.84504000  1
  P  P21  1  0.77317300  0.68865300  0.34238000  1
  P  P22  1  0.91455800  0.23162800  0.34331200  1
  P  P23  1  0.67357900  0.33487300  0.12762800  1
  P  P24  1  0.66629600  0.33699700  0.62425600  1
  P  P25  1  0.76937600  0.09381400  0.84344600  1
  P  P26  1  0.68101800  0.90939600  0.65803600  1
  P  P27  1  0.32222700  0.23541700  0.84325000  1
  P  P28  1  0.68312800  0.77303100  0.15838100  1
  P  P29  1  0.31261300  0.08632200  0.34339500  1
  P  P30  1  0.22818200  0.90668100  0.15754900  1
  P  P31  1  0.33448800  0.66460300  0.37409300  1
  P  P32  1  0.32730500  0.66237900  0.87324400  1
  P  P33  1  0.08494900  0.77580600  0.65939300  1
  P  P34  1  0.23044500  0.31981500  0.65581400  1
  P  P35  1  0.09097400  0.32265300  0.15850300  1
  O  O36  1  0.98242500  0.77705900  0.58011400  1
  O  O37  1  0.91481600  0.66639000  0.33554000  1
  O  O38  1  0.76880500  0.75674300  0.07611000  1
  O  O39  1  0.74785000  0.66484400  0.83964600  1
  O  O40  1  0.88502800  0.51119000  0.82496700  1
  O  O41  1  0.82235000  0.48429600  0.17026900  1
  O  O42  1  0.90821000  0.38308900  0.33074600  1
  O  O43  1  0.99760200  0.24630300  0.06849900  1
  O  O44  1  0.92381400  0.25432300  0.83749000  1
  O  O45  1  0.66764900  0.48675800  0.66994200  1
  O  O46  1  0.61774000  0.53236000  0.33135900  1
  O  O47  1  0.81506000  0.33326500  0.66777000  1
  O  O48  1  0.68034100  0.34082000  0.01970300  1
  O  O49  1  0.68331000  0.35446900  0.51813000  1
  O  O50  1  0.67085300  0.18781600  0.16550600  1
  O  O51  1  0.49027100  0.37413500  0.82605400  1
  O  O52  1  0.52488800  0.34350200  0.16415100  1
  O  O53  1  0.75260600  0.08414900  0.34500400  1
  O  O54  1  0.78178500  0.99862700  0.75152200  1
  O  O55  1  0.76681000  0.00109600  0.56956900  1
  O  O56  1  0.75808600  0.00967400  0.93352700  1
  O  O57  1  0.63131000  0.12439000  0.82463100  1
  O  O58  1  0.51524400  0.18963500  0.65872700  1
  O  O59  1  0.66514900  0.91848700  0.15490000  1
  O  O60  1  0.47049400  0.09342600  0.33470000  1
  O  O61  1  0.33226200  0.25233800  0.33587100  1
  O  O62  1  0.78004900  0.79831000  0.25727900  1
  O  O63  1  0.77865800  0.77426200  0.43571900  1
  O  O64  1  0.23488900  0.23023100  0.56889800  1
  O  O65  1  0.66934200  0.74734800  0.65841000  1
  O  O66  1  0.51504800  0.88603600  0.66923000  1
  O  O67  1  0.32708500  0.08292300  0.84432200  1
  O  O68  1  0.48873500  0.80620200  0.33927000  1
  O  O69  1  0.36694600  0.87724100  0.17192900  1
  O  O70  1  0.24559500  0.00195300  0.06946900  1
  O  O71  1  0.22093500  0.00917100  0.43301900  1
  O  O72  1  0.20814800  0.99642000  0.24961400  1
  O  O73  1  0.24996300  0.91860600  0.65592100  1
  O  O74  1  0.46970600  0.65248900  0.82631100  1
  O  O75  1  0.51522600  0.62694300  0.17585600  1
  O  O76  1  0.33396000  0.81493200  0.84120200  1
  O  O77  1  0.32169300  0.64213100  0.97960600  1
  O  O78  1  0.32484000  0.66175700  0.48180900  1
  O  O79  1  0.18864700  0.66745800  0.32794300  1
  O  O80  1  0.37802100  0.48381900  0.66631200  1
  O  O81  1  0.32790800  0.51007100  0.33546300  1
  O  O82  1  0.07650600  0.74614600  0.15649500  1
  O  O83  1  0.01320000  0.79131700  0.76030400  1
  O  O84  1  0.99883100  0.74687900  0.93634200  1
  O  O85  1  0.09798500  0.62502900  0.66568800  1
  O  O86  1  0.17700900  0.51972500  0.82605500  1
  O  O87  1  0.11648800  0.48864300  0.17400100  1
  O  O88  1  0.25386100  0.33401100  0.15784700  1
  O  O89  1  0.24839100  0.25687700  0.93249800  1
  O  O90  1  0.21611300  0.22280500  0.75153600  1
  O  O91  1  0.08186300  0.33556100  0.65456000  1
  O  O92  1  0.00788900  0.23570500  0.43069800  1
  O  O93  1  0.00028400  0.21411000  0.24815900  1
