# generated using pymatgen
data_Li12Cr5O16
_symmetry_space_group_name_H-M   'P 1'
_cell_length_a   5.83433800
_cell_length_b   5.83926171
_cell_length_c   9.65833256
_cell_angle_alpha   90.12712401
_cell_angle_beta   89.97452686
_cell_angle_gamma   119.81669085
_symmetry_Int_Tables_number   1
_chemical_formula_structural   Li12Cr5O16
_chemical_formula_sum   'Li12 Cr5 O16'
_cell_volume   285.48307314
_cell_formula_units_Z   1
loop_
 _symmetry_equiv_pos_site_id
 _symmetry_equiv_pos_as_xyz
  1  'x, y, z'
loop_
 _atom_site_type_symbol
 _atom_site_label
 _atom_site_symmetry_multiplicity
 _atom_site_fract_x
 _atom_site_fract_y
 _atom_site_fract_z
 _atom_site_occupancy
  Li  Li0  1  0.99062300  0.00361900  0.07573300  1
  Li  Li1  1  0.65272700  0.82531400  0.73566600  1
  Li  Li2  1  0.78581300  0.16565000  0.95741000  1
  Li  Li3  1  0.83997800  0.20247500  0.23751900  1
  Li  Li4  1  0.62901600  0.83603500  0.49046700  1
  Li  Li5  1  0.64500600  0.31145700  0.74550700  1
  Li  Li6  1  0.79095100  0.62036200  0.96286500  1
  Li  Li7  1  0.31914300  0.68041000  0.25132300  1
  Li  Li8  1  0.15614000  0.33501200  0.46381200  1
  Li  Li9  1  0.84047500  0.66513800  0.23440200  1
  Li  Li10  1  0.34466000  0.17190900  0.95689600  1
  Li  Li11  1  0.15180500  0.86285700  0.45946900  1
  Cr  Cr12  1  0.15713000  0.33243000  0.72511400  1
  Cr  Cr13  1  0.15638500  0.82829300  0.72570600  1
  Cr  Cr14  1  0.69893900  0.36503200  0.48773200  1
  Cr  Cr15  1  0.33609500  0.67670300  0.98659700  1
  Cr  Cr16  1  0.36939700  0.21683700  0.23792100  1
  O  O17  1  0.83884800  0.18195200  0.60211500  1
  O  O18  1  0.45637400  0.49272000  0.85287400  1
  O  O19  1  0.97916800  0.50445000  0.36900600  1
  O  O20  1  0.64213900  0.82558600  0.08140000  1
  O  O21  1  0.82448000  0.65829700  0.60193300  1
  O  O22  1  0.46614000  0.97483900  0.85217000  1
  O  O23  1  0.50544100  0.05006300  0.36051100  1
  O  O24  1  0.18903200  0.35627300  0.11094300  1
  O  O25  1  0.30511700  0.64370700  0.61835800  1
  O  O26  1  0.62150100  0.31480300  0.11565800  1
  O  O27  1  0.00629800  0.50248400  0.85180600  1
  O  O28  1  0.50698100  0.49795500  0.35743100  1
  O  O29  1  0.32879700  0.16793400  0.60828300  1
  O  O30  1  0.16437100  0.81857200  0.09235400  1
  O  O31  1  0.04717900  0.03255800  0.30973800  1
  O  O32  1  0.00431300  0.01433200  0.83607300  1
