# generated using pymatgen
data_LiV6O15
_symmetry_space_group_name_H-M   'P 1'
_cell_length_a   7.30919000
_cell_length_b   10.27281000
_cell_length_c   15.77182448
_cell_angle_alpha   68.68765734
_cell_angle_beta   90.00000000
_cell_angle_gamma   90.00000000
_symmetry_Int_Tables_number   1
_chemical_formula_structural   LiV6O15
_chemical_formula_sum   'Li4 V24 O60'
_cell_volume   1103.25514466
_cell_formula_units_Z   4
loop_
 _symmetry_equiv_pos_site_id
 _symmetry_equiv_pos_as_xyz
  1  'x, y, z'
loop_
 _atom_site_type_symbol
 _atom_site_label
 _atom_site_symmetry_multiplicity
 _atom_site_fract_x
 _atom_site_fract_y
 _atom_site_fract_z
 _atom_site_occupancy
  Li  Li0  1  0.87893200  0.65016400  0.76211100  1
  Li  Li1  1  0.12106800  0.34983600  0.23788900  1
  Li  Li2  1  0.62106800  0.65016400  0.26211100  1
  Li  Li3  1  0.37893200  0.34983600  0.73788900  1
  V  V4  1  0.87701200  0.58683500  0.03966200  1
  V  V5  1  0.37310100  0.58422000  0.03941800  1
  V  V6  1  0.87511300  0.12055200  0.62790500  1
  V  V7  1  0.37525300  0.10910500  0.63494400  1
  V  V8  1  0.62689900  0.41578000  0.96058200  1
  V  V9  1  0.12298800  0.41316500  0.96033800  1
  V  V10  1  0.37058400  0.10737600  0.41204600  1
  V  V11  1  0.87718200  0.10575600  0.41079700  1
  V  V12  1  0.62941600  0.89262400  0.58795400  1
  V  V13  1  0.12281800  0.89424400  0.58920300  1
  V  V14  1  0.62488700  0.12055200  0.12790500  1
  V  V15  1  0.12474700  0.10910500  0.13494400  1
  V  V16  1  0.62474700  0.89089500  0.36505600  1
  V  V17  1  0.12488700  0.87944800  0.37209500  1
  V  V18  1  0.62281800  0.10575600  0.91079700  1
  V  V19  1  0.12941600  0.10737600  0.91204600  1
  V  V20  1  0.37718200  0.89424400  0.08920300  1
  V  V21  1  0.87058400  0.89262400  0.08795400  1
  V  V22  1  0.62298800  0.58683500  0.53966200  1
  V  V23  1  0.12689900  0.58422000  0.53941800  1
  V  V24  1  0.87525300  0.89089500  0.86505600  1
  V  V25  1  0.37511300  0.87944800  0.87209500  1
  V  V26  1  0.87310100  0.41578000  0.46058200  1
  V  V27  1  0.37701200  0.41316500  0.46033800  1
  O  O28  1  0.37581400  0.72980600  0.85950500  1
  O  O29  1  0.87450700  0.73181800  0.86137600  1
  O  O30  1  0.88867000  0.51832000  0.14953400  1
  O  O31  1  0.36069100  0.51608200  0.14929600  1
  O  O32  1  0.12391200  0.57282300  0.00519800  1
  O  O33  1  0.62605100  0.56951800  0.01061800  1
  O  O34  1  0.87375000  0.22838300  0.48786900  1
  O  O35  1  0.37578800  0.22416200  0.48460900  1
  O  O36  1  0.12310000  0.07444300  0.61614500  1
  O  O37  1  0.62772100  0.07384800  0.61646100  1
  O  O38  1  0.87608800  0.42717700  0.99480200  1
  O  O39  1  0.37394900  0.43048200  0.98938200  1
  O  O40  1  0.34509700  0.22785300  0.31150100  1
  O  O41  1  0.91112300  0.23064500  0.31134300  1
  O  O42  1  0.63930900  0.48391800  0.85070400  1
  O  O43  1  0.11133000  0.48168000  0.85046600  1
  O  O44  1  0.62418600  0.27019400  0.14049500  1
  O  O45  1  0.12549300  0.26818200  0.13862400  1
  O  O46  1  0.61558100  0.05841100  0.42716700  1
  O  O47  1  0.13390900  0.04609800  0.44319700  1
  O  O48  1  0.86609100  0.95390200  0.55680300  1
  O  O49  1  0.38441900  0.94158900  0.57283300  1
  O  O50  1  0.62625000  0.22838300  0.98786900  1
  O  O51  1  0.12421200  0.22416200  0.98460900  1
  O  O52  1  0.87227900  0.07384800  0.11646100  1
  O  O53  1  0.37690000  0.07444300  0.11614500  1
  O  O54  1  0.08887700  0.76935500  0.68865700  1
  O  O55  1  0.65490300  0.77214700  0.68849900  1
  O  O56  1  0.62500600  0.99890700  0.24995300  1
  O  O57  1  0.12500600  0.00109300  0.25004700  1
  O  O58  1  0.15490300  0.22785300  0.81150100  1
  O  O59  1  0.58887700  0.23064500  0.81134300  1
  O  O60  1  0.87690000  0.92555700  0.38385500  1
  O  O61  1  0.37227900  0.92615200  0.38353900  1
  O  O62  1  0.62421200  0.77583800  0.51539100  1
  O  O63  1  0.12625000  0.77161700  0.51213100  1
  O  O64  1  0.36609100  0.04609800  0.94319700  1
  O  O65  1  0.88441900  0.05841100  0.92716700  1
  O  O66  1  0.11558100  0.94158900  0.07283300  1
  O  O67  1  0.63390900  0.95390200  0.05680300  1
  O  O68  1  0.62549300  0.73181800  0.36137600  1
  O  O69  1  0.12418600  0.72980600  0.35950500  1
  O  O70  1  0.61133000  0.51832000  0.64953400  1
  O  O71  1  0.13930900  0.51608200  0.64929600  1
  O  O72  1  0.41112300  0.76935500  0.18865700  1
  O  O73  1  0.84509700  0.77214700  0.18849900  1
  O  O74  1  0.87394900  0.56951800  0.51061800  1
  O  O75  1  0.37608800  0.57282300  0.50519800  1
  O  O76  1  0.62310000  0.92555700  0.88385500  1
  O  O77  1  0.12772100  0.92615200  0.88353900  1
  O  O78  1  0.87578800  0.77583800  0.01539100  1
  O  O79  1  0.37375000  0.77161700  0.01213100  1
  O  O80  1  0.62391200  0.42717700  0.49480200  1
  O  O81  1  0.12605100  0.43048200  0.48938200  1
  O  O82  1  0.86069100  0.48391800  0.35070400  1
  O  O83  1  0.38867000  0.48168000  0.35046600  1
  O  O84  1  0.87581400  0.27019400  0.64049500  1
  O  O85  1  0.37450700  0.26818200  0.63862400  1
  O  O86  1  0.37499400  0.00109300  0.75004700  1
  O  O87  1  0.87499400  0.99890700  0.74995300  1
