# generated using pymatgen
data_Li2Mn2(Si2O5)3
_symmetry_space_group_name_H-M   'P 1'
_cell_length_a   11.53275429
_cell_length_b   11.53275429
_cell_length_c   10.29763500
_cell_angle_alpha   90.00000000
_cell_angle_beta   90.00000000
_cell_angle_gamma   101.50274695
_symmetry_Int_Tables_number   1
_chemical_formula_structural   Li2Mn2(Si2O5)3
_chemical_formula_sum   'Li8 Mn8 Si24 O60'
_cell_volume   1342.12214573
_cell_formula_units_Z   4
loop_
 _symmetry_equiv_pos_site_id
 _symmetry_equiv_pos_as_xyz
  1  'x, y, z'
loop_
 _atom_site_type_symbol
 _atom_site_label
 _atom_site_symmetry_multiplicity
 _atom_site_fract_x
 _atom_site_fract_y
 _atom_site_fract_z
 _atom_site_occupancy
  Li  Li0  1  0.50348800  0.99651200  0.75000000  1
  Li  Li1  1  0.99651200  0.50348800  0.25000000  1
  Li  Li2  1  0.39632700  0.60367300  0.74178700  1
  Li  Li3  1  0.60367300  0.39632700  0.25821300  1
  Li  Li4  1  0.89632700  0.10367300  0.75821300  1
  Li  Li5  1  0.10367300  0.89632700  0.24178700  1
  Li  Li6  1  0.00348800  0.49651200  0.75000000  1
  Li  Li7  1  0.49651200  0.00348800  0.25000000  1
  Mn  Mn8  1  0.24374800  0.24374800  0.00000000  1
  Mn  Mn9  1  0.34122100  0.15877900  0.25000000  1
  Mn  Mn10  1  0.15877900  0.34122100  0.75000000  1
  Mn  Mn11  1  0.25625200  0.25625200  0.50000000  1
  Mn  Mn12  1  0.74374800  0.74374800  0.50000000  1
  Mn  Mn13  1  0.65877900  0.84122100  0.75000000  1
  Mn  Mn14  1  0.84122100  0.65877900  0.25000000  1
  Mn  Mn15  1  0.75625200  0.75625200  0.00000000  1
  Si  Si16  1  0.03273200  0.18671500  0.19108500  1
  Si  Si17  1  0.18671500  0.03273200  0.80891500  1
  Si  Si18  1  0.58235300  0.19607600  0.45931600  1
  Si  Si19  1  0.69607600  0.08235300  0.95931600  1
  Si  Si20  1  0.19607600  0.58235300  0.54068400  1
  Si  Si21  1  0.08235300  0.69607600  0.04068400  1
  Si  Si22  1  0.46726800  0.31328500  0.69108500  1
  Si  Si23  1  0.31328500  0.46726800  0.30891500  1
  Si  Si24  1  0.02455800  0.75831900  0.51366700  1
  Si  Si25  1  0.75831900  0.02455800  0.48633300  1
  Si  Si26  1  0.25831900  0.52455800  0.01366700  1
  Si  Si27  1  0.52455800  0.25831900  0.98633300  1
  Si  Si28  1  0.24168100  0.97544200  0.51366700  1
  Si  Si29  1  0.97544200  0.24168100  0.48633300  1
  Si  Si30  1  0.47544200  0.74168100  0.01366700  1
  Si  Si31  1  0.74168100  0.47544200  0.98633300  1
  Si  Si32  1  0.53273200  0.68671500  0.30891500  1
  Si  Si33  1  0.68671500  0.53273200  0.69108500  1
  Si  Si34  1  0.80392400  0.41764700  0.45931600  1
  Si  Si35  1  0.30392400  0.91764700  0.04068400  1
  Si  Si36  1  0.91764700  0.30392400  0.95931600  1
  Si  Si37  1  0.41764700  0.80392400  0.54068400  1
  Si  Si38  1  0.96726800  0.81328500  0.80891500  1
  Si  Si39  1  0.81328500  0.96726800  0.19108500  1
  O  O40  1  0.01136000  0.24775300  0.33145000  1
  O  O41  1  0.24775300  0.01136000  0.66855000  1
  O  O42  1  0.16360600  0.16345100  0.16615600  1
  O  O43  1  0.16345100  0.16360600  0.83384400  1
  O  O44  1  0.08948900  0.24845900  0.57602900  1
  O  O45  1  0.24845900  0.08948900  0.42397100  1
  O  O46  1  0.41051100  0.25154100  0.07602900  1
  O  O47  1  0.25154100  0.41051100  0.92397100  1
  O  O48  1  0.33639400  0.33654900  0.66615600  1
  O  O49  1  0.33654900  0.33639400  0.33384400  1
  O  O50  1  0.51558200  0.15718400  0.32581000  1
  O  O51  1  0.65718400  0.01558200  0.82581000  1
  O  O52  1  0.15718400  0.51558200  0.67419000  1
  O  O53  1  0.01558200  0.65718400  0.17419000  1
  O  O54  1  0.71956200  0.99585300  0.07973500  1
  O  O55  1  0.49585300  0.21956200  0.57973500  1
  O  O56  1  0.21956200  0.49585300  0.42026500  1
  O  O57  1  0.99585300  0.71956200  0.92026500  1
  O  O58  1  0.59374200  0.14951000  0.01611000  1
  O  O59  1  0.64951000  0.09374200  0.51611000  1
  O  O60  1  0.09374200  0.64951000  0.48389000  1
  O  O61  1  0.14951000  0.59374200  0.98389000  1
  O  O62  1  0.25224700  0.48864000  0.16855000  1
  O  O63  1  0.48864000  0.25224700  0.83145000  1
  O  O64  1  0.05971800  0.94028200  0.81904400  1
  O  O65  1  0.38247400  0.61752600  0.97400100  1
  O  O66  1  0.67688700  0.32311300  0.42903800  1
  O  O67  1  0.94028200  0.05971800  0.18095600  1
  O  O68  1  0.82311300  0.17688700  0.92903800  1
  O  O69  1  0.88247400  0.11752600  0.52599900  1
  O  O70  1  0.55971800  0.44028200  0.68095600  1
  O  O71  1  0.61752600  0.38247400  0.02599900  1
  O  O72  1  0.44028200  0.55971800  0.31904400  1
  O  O73  1  0.17688700  0.82311300  0.07096200  1
  O  O74  1  0.11752600  0.88247400  0.47400100  1
  O  O75  1  0.32311300  0.67688700  0.57096200  1
  O  O76  1  0.51136000  0.74775300  0.16855000  1
  O  O77  1  0.74775300  0.51136000  0.83145000  1
  O  O78  1  0.40625800  0.85049000  0.98389000  1
  O  O79  1  0.85049000  0.40625800  0.01611000  1
  O  O80  1  0.90625800  0.35049000  0.51611000  1
  O  O81  1  0.35049000  0.90625800  0.48389000  1
  O  O82  1  0.28043800  0.00414700  0.92026500  1
  O  O83  1  0.00414700  0.28043800  0.07973500  1
  O  O84  1  0.78043800  0.50414700  0.57973500  1
  O  O85  1  0.50414700  0.78043800  0.42026500  1
  O  O86  1  0.48441800  0.84281600  0.67419000  1
  O  O87  1  0.98441800  0.34281600  0.82581000  1
  O  O88  1  0.84281600  0.48441800  0.32581000  1
  O  O89  1  0.34281600  0.98441800  0.17419000  1
  O  O90  1  0.66360600  0.66345100  0.33384400  1
  O  O91  1  0.66345100  0.66360600  0.66615600  1
  O  O92  1  0.74845900  0.58948900  0.07602900  1
  O  O93  1  0.58948900  0.74845900  0.92397100  1
  O  O94  1  0.75154100  0.91051100  0.57602900  1
  O  O95  1  0.91051100  0.75154100  0.42397100  1
  O  O96  1  0.83654900  0.83639400  0.16615600  1
  O  O97  1  0.83639400  0.83654900  0.83384400  1
  O  O98  1  0.75224700  0.98864000  0.33145000  1
  O  O99  1  0.98864000  0.75224700  0.66855000  1
