# generated using pymatgen
data_Li4V3P8O29
_symmetry_space_group_name_H-M   'P 1'
_cell_length_a   9.73842500
_cell_length_b   9.74237665
_cell_length_c   14.20958511
_cell_angle_alpha   89.47700290
_cell_angle_beta   89.54787365
_cell_angle_gamma   60.34262467
_symmetry_Int_Tables_number   1
_chemical_formula_structural   Li4V3P8O29
_chemical_formula_sum   'Li8 V6 P16 O58'
_cell_volume   1171.47595483
_cell_formula_units_Z   2
loop_
 _symmetry_equiv_pos_site_id
 _symmetry_equiv_pos_as_xyz
  1  'x, y, z'
loop_
 _atom_site_type_symbol
 _atom_site_label
 _atom_site_symmetry_multiplicity
 _atom_site_fract_x
 _atom_site_fract_y
 _atom_site_fract_z
 _atom_site_occupancy
  Li  Li0  1  0.32839100  0.76997800  0.94823300  1
  Li  Li1  1  0.90831200  0.32849400  0.94108600  1
  Li  Li2  1  0.23616900  0.66696600  0.55172700  1
  Li  Li3  1  0.76928200  0.33258800  0.43848500  1
  Li  Li4  1  0.66753100  0.23177900  0.06103900  1
  Li  Li5  1  0.67439500  0.08707000  0.56019700  1
  Li  Li6  1  0.01262300  0.94866100  0.01383100  1
  Li  Li7  1  0.05626000  0.98923300  0.48363000  1
  V  V8  1  0.43382600  0.56775000  0.75077800  1
  V  V9  1  0.56451300  0.43546000  0.24991700  1
  V  V10  1  0.99705800  0.56710900  0.24737500  1
  V  V11  1  0.00447800  0.43644200  0.74916700  1
  V  V12  1  0.56319600  0.99566100  0.75047200  1
  V  V13  1  0.43331500  0.00288400  0.25255400  1
  P  P14  1  0.78015900  0.91763100  0.16401500  1
  P  P15  1  0.91880700  0.77794200  0.66000900  1
  P  P16  1  0.30313900  0.91838800  0.65458200  1
  P  P17  1  0.66785600  0.66210600  0.86777000  1
  P  P18  1  0.66871700  0.66632700  0.36773300  1
  P  P19  1  0.31345600  0.77851700  0.16051100  1
  P  P20  1  0.22167900  0.68660800  0.33944300  1
  P  P21  1  0.91336700  0.31172400  0.15329500  1
  P  P22  1  0.08308700  0.69531800  0.84562200  1
  P  P23  1  0.77500800  0.31680900  0.66049600  1
  P  P24  1  0.68333200  0.22492400  0.83995400  1
  P  P25  1  0.33610000  0.33699700  0.63240600  1
  P  P26  1  0.33314900  0.33193000  0.13227300  1
  P  P27  1  0.68857200  0.08654200  0.34681200  1
  P  P28  1  0.08298800  0.21996100  0.33596400  1
  P  P29  1  0.22037200  0.08257600  0.83959200  1
  O  O30  1  0.76787600  0.01621500  0.43807900  1
  O  O31  1  0.74648100  0.91537400  0.66027600  1
  O  O32  1  0.01027400  0.78826500  0.93175800  1
  O  O33  1  0.91473200  0.74297900  0.16482800  1
  O  O34  1  0.61804900  0.92694400  0.17148000  1
  O  O35  1  0.67124800  0.80522600  0.82259400  1
  O  O36  1  0.45766200  0.92590100  0.66713700  1
  O  O37  1  0.20704200  0.99421200  0.92182800  1
  O  O38  1  0.34739800  0.91710100  0.17018400  1
  O  O39  1  0.81495500  0.66587300  0.31863000  1
  O  O40  1  0.91843100  0.61818200  0.67565800  1
  O  O41  1  0.52412600  0.81387600  0.32167300  1
  O  O42  1  0.65617900  0.65288200  0.97171400  1
  O  O43  1  0.67349500  0.66627500  0.47204600  1
  O  O44  1  0.51302600  0.66914000  0.82391100  1
  O  O45  1  0.91316700  0.46844900  0.17000900  1
  O  O46  1  0.81559300  0.50912400  0.82779400  1
  O  O47  1  0.34402800  0.74067100  0.66441600  1
  O  O48  1  0.20212000  0.79778500  0.24984000  1
  O  O49  1  0.20755100  0.77337700  0.42828700  1
  O  O50  1  0.22665800  0.79343000  0.07143300  1
  O  O51  1  0.46766400  0.62067500  0.17199600  1
  O  O52  1  0.67266900  0.51357600  0.32981100  1
  O  O53  1  0.25960400  0.65727000  0.83729100  1
  O  O54  1  0.61811600  0.47371700  0.67593600  1
  O  O55  1  0.91536000  0.34767200  0.66621700  1
  O  O56  1  0.99735400  0.80067500  0.75400100  1
  O  O57  1  0.01279800  0.77799800  0.57734100  1
  O  O58  1  0.99433900  0.19924600  0.41669500  1
  O  O59  1  0.08276100  0.65313200  0.32978000  1
  O  O60  1  0.37965900  0.53212600  0.32811800  1
  O  O61  1  0.74128400  0.34079200  0.16243600  1
  O  O62  1  0.32921700  0.49027900  0.67594800  1
  O  O63  1  0.52644200  0.38221400  0.82366100  1
  O  O64  1  0.76315500  0.23001900  0.92858400  1
  O  O65  1  0.77174700  0.23644200  0.57126500  1
  O  O66  1  0.79530800  0.20547100  0.75008700  1
  O  O67  1  0.65920400  0.25851200  0.33752100  1
  O  O68  1  0.18613800  0.47622900  0.17883900  1
  O  O69  1  0.07755000  0.53946100  0.83155000  1
  O  O70  1  0.48631200  0.32755800  0.16987800  1
  O  O71  1  0.33142300  0.32858700  0.02796800  1
  O  O72  1  0.32386900  0.35670700  0.52848200  1
  O  O73  1  0.48792900  0.18912500  0.66805500  1
  O  O74  1  0.07355000  0.38202600  0.32853800  1
  O  O75  1  0.19014500  0.33481800  0.68219200  1
  O  O76  1  0.65261300  0.08522700  0.83391800  1
  O  O77  1  0.80352800  0.99112300  0.26064500  1
  O  O78  1  0.80076300  0.00667700  0.08331700  1
  O  O79  1  0.53188000  0.08651400  0.33023900  1
  O  O80  1  0.33419300  0.18523300  0.18125300  1
  O  O81  1  0.37622000  0.08422700  0.82733900  1
  O  O82  1  0.07980300  0.25738400  0.83674100  1
  O  O83  1  0.98404800  0.23239700  0.06238200  1
  O  O84  1  0.00873900  0.19668700  0.23963800  1
  O  O85  1  0.25752500  0.08498500  0.33510200  1
  O  O86  1  0.20856500  0.98804900  0.56913600  1
  O  O87  1  0.19635200  0.00424300  0.74556400  1
