# generated using pymatgen
data_Li4FeCo3O8
_symmetry_space_group_name_H-M   'P 1'
_cell_length_a   5.86517567
_cell_length_b   5.86517567
_cell_length_c   5.86517628
_cell_angle_alpha   59.08433089
_cell_angle_beta   59.08433089
_cell_angle_gamma   59.08433885
_symmetry_Int_Tables_number   1
_chemical_formula_structural   Li4FeCo3O8
_chemical_formula_sum   'Li4 Fe1 Co3 O8'
_cell_volume   139.69009369
_cell_formula_units_Z   1
loop_
 _symmetry_equiv_pos_site_id
 _symmetry_equiv_pos_as_xyz
  1  'x, y, z'
loop_
 _atom_site_type_symbol
 _atom_site_label
 _atom_site_symmetry_multiplicity
 _atom_site_fract_x
 _atom_site_fract_y
 _atom_site_fract_z
 _atom_site_occupancy
  Li  Li0  1  0.00000000  0.00000000  0.50000000  1
  Li  Li1  1  0.00000000  0.50000000  0.00000000  1
  Li  Li2  1  0.50000000  0.50000000  0.50000000  1
  Li  Li3  1  0.50000000  0.00000000  0.00000000  1
  Fe  Fe4  1  0.00000000  0.00000000  0.00000000  1
  Co  Co5  1  0.00000000  0.50000000  0.50000000  1
  Co  Co6  1  0.50000000  0.50000000  0.00000000  1
  Co  Co7  1  0.50000000  0.00000000  0.50000000  1
  O  O8  1  0.76089500  0.25580000  0.76089500  1
  O  O9  1  0.74253800  0.74253800  0.74253800  1
  O  O10  1  0.76089500  0.76089500  0.25580000  1
  O  O11  1  0.25580000  0.76089500  0.76089500  1
  O  O12  1  0.74420000  0.23910500  0.23910500  1
  O  O13  1  0.23910500  0.23910500  0.74420000  1
  O  O14  1  0.25746200  0.25746200  0.25746200  1
  O  O15  1  0.23910500  0.74420000  0.23910500  1
