# generated using pymatgen
data_Li3Cr(PO4)2
_symmetry_space_group_name_H-M   'P 1'
_cell_length_a   8.78851813
_cell_length_b   8.78851813
_cell_length_c   6.75112300
_cell_angle_alpha   90.00000000
_cell_angle_beta   90.00000000
_cell_angle_gamma   120.00000098
_symmetry_Int_Tables_number   1
_chemical_formula_structural   Li3Cr(PO4)2
_chemical_formula_sum   'Li9 Cr3 P6 O24'
_cell_volume   451.58338426
_cell_formula_units_Z   3
loop_
 _symmetry_equiv_pos_site_id
 _symmetry_equiv_pos_as_xyz
  1  'x, y, z'
loop_
 _atom_site_type_symbol
 _atom_site_label
 _atom_site_symmetry_multiplicity
 _atom_site_fract_x
 _atom_site_fract_y
 _atom_site_fract_z
 _atom_site_occupancy
  Li  Li0  1  0.37277800  0.06981300  0.23293300  1
  Li  Li1  1  0.93018700  0.30296500  0.23293300  1
  Li  Li2  1  0.00000000  0.00000000  0.00000000  1
  Li  Li3  1  0.33333300  0.66666700  0.97702100  1
  Li  Li4  1  0.30296500  0.37277800  0.76706700  1
  Li  Li5  1  0.69703500  0.62722200  0.23293300  1
  Li  Li6  1  0.66666700  0.33333300  0.02297900  1
  Li  Li7  1  0.06981300  0.69703500  0.76706700  1
  Li  Li8  1  0.62722200  0.93018700  0.76706700  1
  Cr  Cr9  1  0.00000000  0.00000000  0.50000000  1
  Cr  Cr10  1  0.33333300  0.66666700  0.54877200  1
  Cr  Cr11  1  0.66666700  0.33333300  0.45122800  1
  P  P12  1  0.02541800  0.68130500  0.25417600  1
  P  P13  1  0.31869500  0.34411200  0.25417600  1
  P  P14  1  0.65588800  0.97458200  0.25417600  1
  P  P15  1  0.34411200  0.02541800  0.74582400  1
  P  P16  1  0.68130500  0.65588800  0.74582400  1
  P  P17  1  0.97458200  0.31869500  0.74582400  1
  O  O18  1  0.14395400  0.95049500  0.70314400  1
  O  O19  1  0.11508900  0.71669900  0.05366400  1
  O  O20  1  0.15601300  0.70673500  0.42087100  1
  O  O21  1  0.37232100  0.86201600  0.74114500  1
  O  O22  1  0.13798400  0.51030500  0.74114500  1
  O  O23  1  0.04950500  0.19345800  0.70314400  1
  O  O24  1  0.55072200  0.84398700  0.42087100  1
  O  O25  1  0.29326500  0.44927800  0.42087100  1
  O  O26  1  0.19345800  0.14395400  0.29685600  1
  O  O27  1  0.28330100  0.39839000  0.05366400  1
  O  O28  1  0.60161000  0.88491100  0.05366400  1
  O  O29  1  0.48969500  0.62767900  0.74114500  1
  O  O30  1  0.51030500  0.37232100  0.25885500  1
  O  O31  1  0.39839000  0.11508900  0.94633600  1
  O  O32  1  0.71669900  0.60161000  0.94633600  1
  O  O33  1  0.80654200  0.85604600  0.70314400  1
  O  O34  1  0.70673500  0.55072200  0.57912900  1
  O  O35  1  0.44927800  0.15601300  0.57912900  1
  O  O36  1  0.95049500  0.80654200  0.29685600  1
  O  O37  1  0.86201600  0.48969500  0.25885500  1
  O  O38  1  0.62767900  0.13798400  0.25885500  1
  O  O39  1  0.84398700  0.29326500  0.57912900  1
  O  O40  1  0.88491100  0.28330100  0.94633600  1
  O  O41  1  0.85604600  0.04950500  0.29685600  1
