# generated using pymatgen
data_NaLi2MnPCO7
_symmetry_space_group_name_H-M   'P 1'
_cell_length_a   6.70204400
_cell_length_b   8.68565208
_cell_length_c   10.06552097
_cell_angle_alpha   91.35896534
_cell_angle_beta   90.13393951
_cell_angle_gamma   90.52388955
_symmetry_Int_Tables_number   1
_chemical_formula_structural   NaLi2MnPCO7
_chemical_formula_sum   'Na4 Li8 Mn4 P4 C4 O28'
_cell_volume   585.73910346
_cell_formula_units_Z   4
loop_
 _symmetry_equiv_pos_site_id
 _symmetry_equiv_pos_as_xyz
  1  'x, y, z'
loop_
 _atom_site_type_symbol
 _atom_site_label
 _atom_site_symmetry_multiplicity
 _atom_site_fract_x
 _atom_site_fract_y
 _atom_site_fract_z
 _atom_site_occupancy
  Na  Na0  1  0.25913400  0.08390700  0.12222200  1
  Na  Na1  1  0.99930000  0.25205900  0.37669900  1
  Na  Na2  1  0.99881200  0.25167600  0.87348300  1
  Na  Na3  1  0.49950800  0.74865900  0.62455900  1
  Li  Li4  1  0.25303300  0.08133700  0.62376400  1
  Li  Li5  1  0.47810000  0.26863400  0.38763000  1
  Li  Li6  1  0.48100500  0.26856700  0.88183600  1
  Li  Li7  1  0.52024000  0.73373400  0.11764500  1
  Li  Li8  1  0.97849700  0.73267900  0.11488600  1
  Li  Li9  1  0.98466200  0.73627000  0.61631200  1
  Li  Li10  1  0.74560100  0.91436200  0.37410900  1
  Li  Li11  1  0.74876000  0.91287400  0.87530000  1
  Mn  Mn12  1  0.74617800  0.35766600  0.11292200  1
  Mn  Mn13  1  0.74476800  0.35732500  0.61168900  1
  Mn  Mn14  1  0.24588100  0.64649100  0.38688800  1
  Mn  Mn15  1  0.24853600  0.64435300  0.88984600  1
  P  P16  1  0.25454900  0.41462700  0.14870300  1
  P  P17  1  0.24878600  0.40474900  0.64784000  1
  P  P18  1  0.74486000  0.59691800  0.35133700  1
  P  P19  1  0.74985400  0.59408400  0.85425500  1
  C  C20  1  0.74845200  0.04116100  0.13288300  1
  C  C21  1  0.75613600  0.04522600  0.63504000  1
  C  C22  1  0.25826400  0.95510700  0.37018400  1
  C  C23  1  0.25677900  0.94818300  0.86049000  1
  O  O24  1  0.27739800  0.10115100  0.35232300  1
  O  O25  1  0.27486900  0.09530100  0.84450700  1
  O  O26  1  0.75156200  0.08799000  0.01117000  1
  O  O27  1  0.75041700  0.08862200  0.51240100  1
  O  O28  1  0.74398500  0.14126600  0.23114100  1
  O  O29  1  0.73783300  0.14617700  0.73185700  1
  O  O30  1  0.06312200  0.32334300  0.10694600  1
  O  O31  1  0.43203400  0.32197600  0.08958100  1
  O  O32  1  0.06267000  0.30341000  0.61217900  1
  O  O33  1  0.42935600  0.31375400  0.59077700  1
  O  O34  1  0.27039100  0.42055600  0.30362400  1
  O  O35  1  0.73428200  0.42937400  0.40294800  1
  O  O36  1  0.26985900  0.41988700  0.80261600  1
  O  O37  1  0.73367200  0.42726200  0.90558600  1
  O  O38  1  0.25330700  0.58418600  0.10093000  1
  O  O39  1  0.75206900  0.58568900  0.19553500  1
  O  O40  1  0.23357300  0.57002000  0.59326400  1
  O  O41  1  0.76528600  0.58188000  0.69938000  1
  O  O42  1  0.56394000  0.69646300  0.39448300  1
  O  O43  1  0.93023800  0.68768300  0.40498500  1
  O  O44  1  0.56829000  0.69560300  0.89571100  1
  O  O45  1  0.93339700  0.68388200  0.91195600  1
  O  O46  1  0.24481000  0.85983200  0.26829800  1
  O  O47  1  0.24180100  0.85655300  0.75643500  1
  O  O48  1  0.25113100  0.90218400  0.49022800  1
  O  O49  1  0.25274400  0.88903100  0.97767800  1
  O  O50  1  0.74940200  0.89498300  0.15879000  1
  O  O51  1  0.77886800  0.90128900  0.66414300  1
