# generated using pymatgen
data_Li8MnO5F
_symmetry_space_group_name_H-M   'P 1'
_cell_length_a   5.52799200
_cell_length_b   5.58160026
_cell_length_c   10.99768457
_cell_angle_alpha   89.54115196
_cell_angle_beta   89.59098003
_cell_angle_gamma   61.85571338
_symmetry_Int_Tables_number   1
_chemical_formula_structural   Li8MnO5F
_chemical_formula_sum   'Li16 Mn2 O10 F2'
_cell_volume   299.20025252
_cell_formula_units_Z   2
loop_
 _symmetry_equiv_pos_site_id
 _symmetry_equiv_pos_as_xyz
  1  'x, y, z'
loop_
 _atom_site_type_symbol
 _atom_site_label
 _atom_site_symmetry_multiplicity
 _atom_site_fract_x
 _atom_site_fract_y
 _atom_site_fract_z
 _atom_site_occupancy
  Li  Li0  1  0.31544100  0.97343700  0.77159200  1
  Li  Li1  1  0.35933800  0.01901000  0.12356600  1
  Li  Li2  1  0.64450100  0.97925400  0.62158600  1
  Li  Li3  1  0.68838600  0.02509400  0.27136900  1
  Li  Li4  1  0.33736800  0.32750800  0.41226000  1
  Li  Li5  1  0.32879000  0.33427500  0.92346000  1
  Li  Li6  1  0.70939800  0.31188600  0.77316900  1
  Li  Li7  1  0.61302900  0.36836800  0.12200400  1
  Li  Li8  1  0.38573500  0.63110100  0.62281500  1
  Li  Li9  1  0.01851800  0.29075900  0.27216900  1
  Li  Li10  1  0.28804700  0.68676800  0.27352100  1
  Li  Li11  1  0.97715600  0.38406300  0.62248900  1
  Li  Li12  1  0.66516100  0.66658600  0.91229300  1
  Li  Li13  1  0.66466500  0.66867200  0.42369700  1
  Li  Li14  1  0.02261700  0.61938700  0.12218700  1
  Li  Li15  1  0.97869800  0.71369500  0.77155400  1
  Mn  Mn16  1  0.99344300  0.00648900  0.98182500  1
  Mn  Mn17  1  0.01164200  0.99717300  0.48199300  1
  O  O18  1  0.33113800  0.98886600  0.94809200  1
  O  O19  1  0.67851600  0.00155900  0.44566200  1
  O  O20  1  0.33150100  0.33383400  0.21393000  1
  O  O21  1  0.00398100  0.00304600  0.67541200  1
  O  O22  1  0.00032300  0.00055400  0.17576600  1
  O  O23  1  0.66638900  0.32967100  0.94915800  1
  O  O24  1  0.98118900  0.33729300  0.44800800  1
  O  O25  1  0.32427000  0.66371400  0.45036500  1
  O  O26  1  0.66847700  0.66639200  0.71370500  1
  O  O27  1  0.01203100  0.67185300  0.94632700  1
  F  F28  1  0.33626000  0.33029200  0.71077000  1
  F  F29  1  0.66399200  0.66920500  0.21051400  1
