# generated using pymatgen
data_LiMn(SiO3)2
_symmetry_space_group_name_H-M   'P 1'
_cell_length_a   5.38540300
_cell_length_b   8.65787400
_cell_length_c   18.24353800
_cell_angle_alpha   90.00000000
_cell_angle_beta   90.00000000
_cell_angle_gamma   90.00000000
_symmetry_Int_Tables_number   1
_chemical_formula_structural   LiMn(SiO3)2
_chemical_formula_sum   'Li8 Mn8 Si16 O48'
_cell_volume   850.62576807
_cell_formula_units_Z   8
loop_
 _symmetry_equiv_pos_site_id
 _symmetry_equiv_pos_as_xyz
  1  'x, y, z'
loop_
 _atom_site_type_symbol
 _atom_site_label
 _atom_site_symmetry_multiplicity
 _atom_site_fract_x
 _atom_site_fract_y
 _atom_site_fract_z
 _atom_site_occupancy
  Li  Li0  1  0.62878900  0.00617200  0.12425300  1
  Li  Li1  1  0.12878900  0.49382800  0.12425300  1
  Li  Li2  1  0.12878900  0.99382800  0.37574700  1
  Li  Li3  1  0.62878900  0.50617200  0.37574700  1
  Li  Li4  1  0.37121100  0.49382800  0.62425300  1
  Li  Li5  1  0.87121100  0.00617200  0.62425300  1
  Li  Li6  1  0.37121100  0.99382800  0.87574700  1
  Li  Li7  1  0.87121100  0.50617200  0.87574700  1
  Mn  Mn8  1  0.63063300  0.65390900  0.12492800  1
  Mn  Mn9  1  0.13063300  0.84609100  0.12492800  1
  Mn  Mn10  1  0.13063300  0.34609100  0.37507200  1
  Mn  Mn11  1  0.63063300  0.15390900  0.37507200  1
  Mn  Mn12  1  0.36936700  0.84609100  0.62492800  1
  Mn  Mn13  1  0.86936700  0.65390900  0.62492800  1
  Mn  Mn14  1  0.36936700  0.34609100  0.87507200  1
  Mn  Mn15  1  0.86936700  0.15390900  0.87507200  1
  Si  Si16  1  0.71896400  0.33413500  0.02589300  1
  Si  Si17  1  0.21896400  0.16586500  0.02589300  1
  Si  Si18  1  0.46407900  0.33665000  0.22376300  1
  Si  Si19  1  0.96407900  0.16335000  0.22376300  1
  Si  Si20  1  0.46407900  0.83665000  0.27623700  1
  Si  Si21  1  0.96407900  0.66335000  0.27623700  1
  Si  Si22  1  0.71896400  0.83413500  0.47410700  1
  Si  Si23  1  0.21896400  0.66586500  0.47410700  1
  Si  Si24  1  0.78103600  0.33413500  0.52589300  1
  Si  Si25  1  0.28103600  0.16586500  0.52589300  1
  Si  Si26  1  0.03592100  0.33665000  0.72376300  1
  Si  Si27  1  0.53592100  0.16335000  0.72376300  1
  Si  Si28  1  0.03592100  0.83665000  0.77623700  1
  Si  Si29  1  0.53592100  0.66335000  0.77623700  1
  Si  Si30  1  0.78103600  0.83413500  0.97410700  1
  Si  Si31  1  0.28103600  0.66586500  0.97410700  1
  O  O32  1  0.93362300  0.20901100  0.05286800  1
  O  O33  1  0.43362300  0.29098900  0.05286800  1
  O  O34  1  0.77905600  0.82690200  0.06480000  1
  O  O35  1  0.27905600  0.67309800  0.06480000  1
  O  O36  1  0.79452000  0.49739700  0.06351400  1
  O  O37  1  0.29452000  0.00260300  0.06351400  1
  O  O38  1  0.47376100  0.83222200  0.18589900  1
  O  O39  1  0.97376100  0.66777800  0.18589900  1
  O  O40  1  0.96990500  0.99135600  0.18875600  1
  O  O41  1  0.46990500  0.50864400  0.18875600  1
  O  O42  1  0.19186900  0.27263400  0.19346600  1
  O  O43  1  0.69186900  0.22736600  0.19346600  1
  O  O44  1  0.19186900  0.77263400  0.30653400  1
  O  O45  1  0.69186900  0.72736600  0.30653400  1
  O  O46  1  0.96990500  0.49135600  0.31124400  1
  O  O47  1  0.46990500  0.00864400  0.31124400  1
  O  O48  1  0.47376100  0.33222200  0.31410100  1
  O  O49  1  0.97376100  0.16777800  0.31410100  1
  O  O50  1  0.79452000  0.99739700  0.43648600  1
  O  O51  1  0.29452000  0.50260300  0.43648600  1
  O  O52  1  0.77905600  0.32690200  0.43520000  1
  O  O53  1  0.27905600  0.17309800  0.43520000  1
  O  O54  1  0.43362300  0.79098900  0.44713200  1
  O  O55  1  0.93362300  0.70901100  0.44713200  1
  O  O56  1  0.06637700  0.29098900  0.55286800  1
  O  O57  1  0.56637700  0.20901100  0.55286800  1
  O  O58  1  0.72094400  0.82690200  0.56480000  1
  O  O59  1  0.22094400  0.67309800  0.56480000  1
  O  O60  1  0.70548000  0.49739700  0.56351400  1
  O  O61  1  0.20548000  0.00260300  0.56351400  1
  O  O62  1  0.02623900  0.83222200  0.68589900  1
  O  O63  1  0.52623900  0.66777800  0.68589900  1
  O  O64  1  0.53009500  0.99135600  0.68875600  1
  O  O65  1  0.03009500  0.50864400  0.68875600  1
  O  O66  1  0.30813100  0.27263400  0.69346600  1
  O  O67  1  0.80813100  0.22736600  0.69346600  1
  O  O68  1  0.30813100  0.77263400  0.80653400  1
  O  O69  1  0.80813100  0.72736600  0.80653400  1
  O  O70  1  0.53009500  0.49135600  0.81124400  1
  O  O71  1  0.03009500  0.00864400  0.81124400  1
  O  O72  1  0.02623900  0.33222200  0.81410100  1
  O  O73  1  0.52623900  0.16777800  0.81410100  1
  O  O74  1  0.70548000  0.99739700  0.93648600  1
  O  O75  1  0.20548000  0.50260300  0.93648600  1
  O  O76  1  0.72094400  0.32690200  0.93520000  1
  O  O77  1  0.22094400  0.17309800  0.93520000  1
  O  O78  1  0.06637700  0.79098900  0.94713200  1
  O  O79  1  0.56637700  0.70901100  0.94713200  1
