# generated using pymatgen
data_Li3Mn3(PO4)4
_symmetry_space_group_name_H-M   'P 1'
_cell_length_a   11.57499900
_cell_length_b   6.14236200
_cell_length_c   8.41096316
_cell_angle_alpha   79.87532547
_cell_angle_beta   90.00000000
_cell_angle_gamma   90.00000000
_symmetry_Int_Tables_number   1
_chemical_formula_structural   Li3Mn3(PO4)4
_chemical_formula_sum   'Li6 Mn6 P8 O32'
_cell_volume   588.68892802
_cell_formula_units_Z   2
loop_
 _symmetry_equiv_pos_site_id
 _symmetry_equiv_pos_as_xyz
  1  'x, y, z'
loop_
 _atom_site_type_symbol
 _atom_site_label
 _atom_site_symmetry_multiplicity
 _atom_site_fract_x
 _atom_site_fract_y
 _atom_site_fract_z
 _atom_site_occupancy
  Li  Li0  1  0.19742800  0.13589300  0.35235300  1
  Li  Li1  1  0.39747900  0.87088000  0.94359100  1
  Li  Li2  1  0.69742800  0.86410700  0.64764700  1
  Li  Li3  1  0.89747900  0.12912000  0.05640900  1
  Li  Li4  1  0.10519800  0.36925100  0.95219900  1
  Li  Li5  1  0.60519800  0.63074900  0.04780100  1
  Mn  Mn6  1  0.81031100  0.36445800  0.65828200  1
  Mn  Mn7  1  0.41192800  0.41297800  0.72175700  1
  Mn  Mn8  1  0.91192800  0.58702200  0.27824300  1
  Mn  Mn9  1  0.08428500  0.92364100  0.71923500  1
  Mn  Mn10  1  0.31031100  0.63554200  0.34171800  1
  Mn  Mn11  1  0.58428500  0.07635900  0.28076500  1
  P  P12  1  0.87111800  0.62593000  0.91141300  1
  P  P13  1  0.62917200  0.13555800  0.91692800  1
  P  P14  1  0.08460200  0.44849100  0.60177400  1
  P  P15  1  0.58460200  0.55150900  0.39822600  1
  P  P16  1  0.12917200  0.86444200  0.08307200  1
  P  P17  1  0.37111800  0.37407000  0.08858700  1
  P  P18  1  0.91630900  0.06722500  0.40587800  1
  P  P19  1  0.41630900  0.93277500  0.59412200  1
  O  O20  1  0.11562600  0.62428300  0.70363600  1
  O  O21  1  0.73534000  0.13283100  0.80055000  1
  O  O22  1  0.27528600  0.39270300  0.21969300  1
  O  O23  1  0.53679200  0.99256300  0.51466200  1
  O  O24  1  0.06710700  0.08076700  0.08750100  1
  O  O25  1  0.45840400  0.50395700  0.47669500  1
  O  O26  1  0.57988600  0.76784200  0.27199200  1
  O  O27  1  0.23534000  0.86716900  0.19945000  1
  O  O28  1  0.93627600  0.84293900  0.85346100  1
  O  O29  1  0.67671800  0.56191500  0.52513100  1
  O  O30  1  0.42278600  0.72415400  0.72889000  1
  O  O31  1  0.05861100  0.65435200  0.14273800  1
  O  O32  1  0.92278600  0.27584600  0.27111000  1
  O  O33  1  0.03679200  0.00743700  0.48533800  1
  O  O34  1  0.77528600  0.60729700  0.78030700  1
  O  O35  1  0.43627600  0.15706100  0.14653900  1
  O  O36  1  0.82361900  0.10634500  0.53168100  1
  O  O37  1  0.18366300  0.86071400  0.91275400  1
  O  O38  1  0.95840400  0.49604300  0.52330500  1
  O  O39  1  0.81108700  0.63810400  0.07747500  1
  O  O40  1  0.55861100  0.34564800  0.85726200  1
  O  O41  1  0.56710700  0.91923300  0.91249900  1
  O  O42  1  0.32361900  0.89365500  0.46831900  1
  O  O43  1  0.31108700  0.36189600  0.92252500  1
  O  O44  1  0.87330300  0.88241700  0.31641200  1
  O  O45  1  0.68366300  0.13928600  0.08724600  1
  O  O46  1  0.93766500  0.41039300  0.91779100  1
  O  O47  1  0.37330300  0.11758300  0.68358800  1
  O  O48  1  0.17671800  0.43808500  0.47486900  1
  O  O49  1  0.61562600  0.37571700  0.29636400  1
  O  O50  1  0.43766500  0.58960700  0.08220900  1
  O  O51  1  0.07988600  0.23215800  0.72800800  1
