# generated using pymatgen
data_Li2Fe3SbO8
_symmetry_space_group_name_H-M   'P 1'
_cell_length_a   6.05007894
_cell_length_b   10.65870414
_cell_length_c   6.03820150
_cell_angle_alpha   73.54316241
_cell_angle_beta   119.92909541
_cell_angle_gamma   89.93927442
_symmetry_Int_Tables_number   1
_chemical_formula_structural   Li2Fe3SbO8
_chemical_formula_sum   'Li4 Fe6 Sb2 O16'
_cell_volume   318.84337973
_cell_formula_units_Z   2
loop_
 _symmetry_equiv_pos_site_id
 _symmetry_equiv_pos_as_xyz
  1  'x, y, z'
loop_
 _atom_site_type_symbol
 _atom_site_label
 _atom_site_symmetry_multiplicity
 _atom_site_fract_x
 _atom_site_fract_y
 _atom_site_fract_z
 _atom_site_occupancy
  Li  Li0  1  0.93394000  0.19825700  0.86784300  1
  Li  Li1  1  0.43395500  0.69824700  0.86786500  1
  Li  Li2  1  0.56605200  0.30175900  0.13213600  1
  Li  Li3  1  0.06603400  0.80176100  0.13211700  1
  Fe  Fe4  1  0.50029100  0.99985900  0.00025500  1
  Fe  Fe5  1  0.49976500  0.00000300  0.49974100  1
  Fe  Fe6  1  0.49969500  0.49985400  0.49992600  1
  Fe  Fe7  1  0.00000700  0.50015400  0.00002800  1
  Fe  Fe8  1  0.00018900  0.49988700  0.50022200  1
  Fe  Fe9  1  0.00008900  0.00018100  0.49996900  1
  Sb  Sb10  1  0.75002100  0.74995800  0.50002500  1
  Sb  Sb11  1  0.25002000  0.24996100  0.50002300  1
  O  O12  1  0.86542200  0.40024000  0.73261700  1
  O  O13  1  0.36540900  0.90023200  0.73258900  1
  O  O14  1  0.63457800  0.09980000  0.26737300  1
  O  O15  1  0.13457000  0.59980800  0.26738700  1
  O  O16  1  0.09416100  0.62440600  0.73487800  1
  O  O17  1  0.59409200  0.12442000  0.73482800  1
  O  O18  1  0.64060600  0.62474200  0.73472500  1
  O  O19  1  0.14063200  0.12476100  0.73472200  1
  O  O20  1  0.64063400  0.62474700  0.28118100  1
  O  O21  1  0.14060000  0.12477400  0.28110300  1
  O  O22  1  0.85934900  0.87525800  0.71879100  1
  O  O23  1  0.35939000  0.37523200  0.71886900  1
  O  O24  1  0.85939800  0.87526500  0.26526700  1
  O  O25  1  0.35936400  0.37524900  0.26525900  1
  O  O26  1  0.40583800  0.87559800  0.26511100  1
  O  O27  1  0.90590000  0.37558900  0.26514700  1
