# generated using pymatgen
data_LiMn3(BO3)3
_symmetry_space_group_name_H-M   'P 1'
_cell_length_a   5.29684000
_cell_length_b   5.79659431
_cell_length_c   13.12154734
_cell_angle_alpha   94.88597792
_cell_angle_beta   89.10883594
_cell_angle_gamma   112.53901748
_symmetry_Int_Tables_number   1
_chemical_formula_structural   LiMn3(BO3)3
_chemical_formula_sum   'Li2 Mn6 B6 O18'
_cell_volume   370.69059542
_cell_formula_units_Z   2
loop_
 _symmetry_equiv_pos_site_id
 _symmetry_equiv_pos_as_xyz
  1  'x, y, z'
loop_
 _atom_site_type_symbol
 _atom_site_label
 _atom_site_symmetry_multiplicity
 _atom_site_fract_x
 _atom_site_fract_y
 _atom_site_fract_z
 _atom_site_occupancy
  Li  Li0  1  0.64779800  0.62478800  0.79510200  1
  Li  Li1  1  0.35220200  0.37521200  0.20489800  1
  Mn  Mn2  1  0.56276900  0.35492100  0.58345500  1
  Mn  Mn3  1  0.20221400  0.68607100  0.93008900  1
  Mn  Mn4  1  0.84203900  0.99731500  0.25781600  1
  Mn  Mn5  1  0.43723100  0.64507900  0.41654500  1
  Mn  Mn6  1  0.15796100  0.00268500  0.74218400  1
  Mn  Mn7  1  0.79778600  0.31392900  0.06991100  1
  B  B8  1  0.38933200  0.11241900  0.36591100  1
  B  B9  1  0.08169100  0.46046700  0.70394900  1
  B  B10  1  0.73448700  0.78288300  0.02314200  1
  B  B11  1  0.61066800  0.88758100  0.63408900  1
  B  B12  1  0.26551300  0.21711700  0.97685800  1
  B  B13  1  0.91830900  0.53953300  0.29605100  1
  O  O14  1  0.57055100  0.99329200  0.38213300  1
  O  O15  1  0.30367100  0.38763700  0.71418000  1
  O  O16  1  0.92933500  0.39713300  0.61640800  1
  O  O17  1  0.58127100  0.71412100  0.93541500  1
  O  O18  1  0.38420300  0.29536900  0.44278300  1
  O  O19  1  0.03254000  0.61467800  0.78344000  1
  O  O20  1  0.73083500  0.96761700  0.09660100  1
  O  O21  1  0.92047200  0.67021300  0.04104000  1
  O  O22  1  0.07066500  0.60286700  0.38359200  1
  O  O23  1  0.25013600  0.07416600  0.27713900  1
  O  O24  1  0.42944900  0.00670800  0.61786700  1
  O  O25  1  0.61579700  0.70463100  0.55721700  1
  O  O26  1  0.26916500  0.03238300  0.90339900  1
  O  O27  1  0.96746000  0.38532200  0.21656000  1
  O  O28  1  0.74986400  0.92583400  0.72286100  1
  O  O29  1  0.41872900  0.28587900  0.06458500  1
  O  O30  1  0.07952800  0.32978700  0.95896000  1
  O  O31  1  0.69632900  0.61236300  0.28582000  1
