# generated using pymatgen
data_LiCr4(PO4)3
_symmetry_space_group_name_H-M   'P 1'
_cell_length_a   6.51519600
_cell_length_b   10.10047600
_cell_length_c   15.80746200
_cell_angle_alpha   90.00000000
_cell_angle_beta   90.00000000
_cell_angle_gamma   90.00000000
_symmetry_Int_Tables_number   1
_chemical_formula_structural   LiCr4(PO4)3
_chemical_formula_sum   'Li4 Cr16 P12 O48'
_cell_volume   1040.23502587
_cell_formula_units_Z   4
loop_
 _symmetry_equiv_pos_site_id
 _symmetry_equiv_pos_as_xyz
  1  'x, y, z'
loop_
 _atom_site_type_symbol
 _atom_site_label
 _atom_site_symmetry_multiplicity
 _atom_site_fract_x
 _atom_site_fract_y
 _atom_site_fract_z
 _atom_site_occupancy
  Li  Li0  1  0.75000000  0.25257200  0.72115200  1
  Li  Li1  1  0.25000000  0.24742800  0.22115200  1
  Li  Li2  1  0.75000000  0.75257200  0.77884800  1
  Li  Li3  1  0.25000000  0.74742800  0.27884800  1
  Cr  Cr4  1  0.25000000  0.03659900  0.62717300  1
  Cr  Cr5  1  0.75000000  0.06921900  0.12272700  1
  Cr  Cr6  1  0.49820500  0.24664200  0.95166100  1
  Cr  Cr7  1  0.00179500  0.24664200  0.95166100  1
  Cr  Cr8  1  0.50179500  0.25335800  0.45166100  1
  Cr  Cr9  1  0.99820500  0.25335800  0.45166100  1
  Cr  Cr10  1  0.25000000  0.43078100  0.62272700  1
  Cr  Cr11  1  0.75000000  0.46340100  0.12717300  1
  Cr  Cr12  1  0.25000000  0.53659900  0.87282700  1
  Cr  Cr13  1  0.75000000  0.56921900  0.37727300  1
  Cr  Cr14  1  0.00179500  0.74664200  0.54833900  1
  Cr  Cr15  1  0.49820500  0.74664200  0.54833900  1
  Cr  Cr16  1  0.50179500  0.75335800  0.04833900  1
  Cr  Cr17  1  0.99820500  0.75335800  0.04833900  1
  Cr  Cr18  1  0.25000000  0.93078100  0.87727300  1
  Cr  Cr19  1  0.75000000  0.96340100  0.37282700  1
  P  P20  1  0.75000000  0.02830000  0.56587000  1
  P  P21  1  0.25000000  0.04289000  0.06091800  1
  P  P22  1  0.25000000  0.20831800  0.76931600  1
  P  P23  1  0.75000000  0.29168200  0.26931600  1
  P  P24  1  0.75000000  0.45711000  0.56091800  1
  P  P25  1  0.25000000  0.47170000  0.06587000  1
  P  P26  1  0.75000000  0.52830000  0.93413000  1
  P  P27  1  0.25000000  0.54289000  0.43908200  1
  P  P28  1  0.25000000  0.70831800  0.73068400  1
  P  P29  1  0.75000000  0.79168200  0.23068400  1
  P  P30  1  0.75000000  0.95711000  0.93908200  1
  P  P31  1  0.25000000  0.97170000  0.43413000  1
  O  O32  1  0.25000000  0.05424200  0.76378300  1
  O  O33  1  0.55931200  0.06216200  0.61600000  1
  O  O34  1  0.94068800  0.06216200  0.61600000  1
  O  O35  1  0.06014700  0.09437400  0.10550100  1
  O  O36  1  0.43985300  0.09437400  0.10550100  1
  O  O37  1  0.25000000  0.10300100  0.96562800  1
  O  O38  1  0.75000000  0.11133000  0.95089400  1
  O  O39  1  0.75000000  0.11151500  0.47820900  1
  O  O40  1  0.25000000  0.12118500  0.46443400  1
  O  O41  1  0.55029000  0.24154800  0.31263400  1
  O  O42  1  0.94971000  0.24154800  0.31263400  1
  O  O43  1  0.25000000  0.24913800  0.67408600  1
  O  O44  1  0.75000000  0.25086200  0.17408600  1
  O  O45  1  0.05029000  0.25845200  0.81263400  1
  O  O46  1  0.44971000  0.25845200  0.81263400  1
  O  O47  1  0.75000000  0.37881500  0.96443400  1
  O  O48  1  0.25000000  0.38848500  0.97820900  1
  O  O49  1  0.25000000  0.38867000  0.45089400  1
  O  O50  1  0.75000000  0.39699900  0.46562800  1
  O  O51  1  0.93985300  0.40562600  0.60550100  1
  O  O52  1  0.56014700  0.40562600  0.60550100  1
  O  O53  1  0.05931200  0.43783800  0.11600000  1
  O  O54  1  0.44068800  0.43783800  0.11600000  1
  O  O55  1  0.75000000  0.44575800  0.26378300  1
  O  O56  1  0.25000000  0.55424200  0.73621700  1
  O  O57  1  0.55931200  0.56216200  0.88400000  1
  O  O58  1  0.94068800  0.56216200  0.88400000  1
  O  O59  1  0.06014700  0.59437400  0.39449900  1
  O  O60  1  0.43985300  0.59437400  0.39449900  1
  O  O61  1  0.25000000  0.60300100  0.53437200  1
  O  O62  1  0.75000000  0.61133000  0.54910600  1
  O  O63  1  0.75000000  0.61151500  0.02179100  1
  O  O64  1  0.25000000  0.62118500  0.03556600  1
  O  O65  1  0.55029000  0.74154800  0.18736600  1
  O  O66  1  0.94971000  0.74154800  0.18736600  1
  O  O67  1  0.25000000  0.74913800  0.82591400  1
  O  O68  1  0.75000000  0.75086200  0.32591400  1
  O  O69  1  0.05029000  0.75845200  0.68736600  1
  O  O70  1  0.44971000  0.75845200  0.68736600  1
  O  O71  1  0.75000000  0.87881500  0.53556600  1
  O  O72  1  0.25000000  0.88848500  0.52179100  1
  O  O73  1  0.25000000  0.88867000  0.04910600  1
  O  O74  1  0.75000000  0.89699900  0.03437200  1
  O  O75  1  0.56014700  0.90562600  0.89449900  1
  O  O76  1  0.93985300  0.90562600  0.89449900  1
  O  O77  1  0.05931200  0.93783800  0.38400000  1
  O  O78  1  0.44068800  0.93783800  0.38400000  1
  O  O79  1  0.75000000  0.94575800  0.23621700  1
