# generated using pymatgen
data_Li5MnO4
_symmetry_space_group_name_H-M   'P 1'
_cell_length_a   5.36011200
_cell_length_b   9.92618900
_cell_length_c   15.35609700
_cell_angle_alpha   90.00000000
_cell_angle_beta   90.00000000
_cell_angle_gamma   90.00000000
_symmetry_Int_Tables_number   1
_chemical_formula_structural   Li5MnO4
_chemical_formula_sum   'Li40 Mn8 O32'
_cell_volume   817.02858511
_cell_formula_units_Z   8
loop_
 _symmetry_equiv_pos_site_id
 _symmetry_equiv_pos_as_xyz
  1  'x, y, z'
loop_
 _atom_site_type_symbol
 _atom_site_label
 _atom_site_symmetry_multiplicity
 _atom_site_fract_x
 _atom_site_fract_y
 _atom_site_fract_z
 _atom_site_occupancy
  Li  Li0  1  0.92324500  0.95824700  0.43073200  1
  Li  Li1  1  0.57675500  0.95824700  0.93073200  1
  Li  Li2  1  0.40008500  0.87729200  0.75733800  1
  Li  Li3  1  0.09991500  0.87729200  0.25733800  1
  Li  Li4  1  0.29246400  0.78926500  0.99346100  1
  Li  Li5  1  0.20753600  0.78926500  0.49346100  1
  Li  Li6  1  0.89369100  0.83689100  0.82604500  1
  Li  Li7  1  0.60630900  0.83689100  0.32604500  1
  Li  Li8  1  0.43747000  0.82694900  0.15603300  1
  Li  Li9  1  0.06253000  0.82694900  0.65603300  1
  Li  Li10  1  0.93747000  0.67305100  0.15603300  1
  Li  Li11  1  0.56253000  0.67305100  0.65603300  1
  Li  Li12  1  0.39369100  0.66310900  0.82604500  1
  Li  Li13  1  0.10630900  0.66310900  0.32604500  1
  Li  Li14  1  0.79246400  0.71073500  0.99346100  1
  Li  Li15  1  0.70753600  0.71073500  0.49346100  1
  Li  Li16  1  0.59991500  0.62270800  0.25733800  1
  Li  Li17  1  0.90008500  0.62270800  0.75733800  1
  Li  Li18  1  0.07675500  0.54175300  0.93073200  1
  Li  Li19  1  0.42324500  0.54175300  0.43073200  1
  Li  Li20  1  0.92324500  0.45824700  0.06926800  1
  Li  Li21  1  0.57675500  0.45824700  0.56926800  1
  Li  Li22  1  0.09991500  0.37729200  0.24266200  1
  Li  Li23  1  0.40008500  0.37729200  0.74266200  1
  Li  Li24  1  0.20753600  0.28926500  0.00653900  1
  Li  Li25  1  0.29246400  0.28926500  0.50653900  1
  Li  Li26  1  0.60630900  0.33689100  0.17395500  1
  Li  Li27  1  0.89369100  0.33689100  0.67395500  1
  Li  Li28  1  0.43747000  0.32694900  0.34396700  1
  Li  Li29  1  0.06253000  0.32694900  0.84396700  1
  Li  Li30  1  0.93747000  0.17305100  0.34396700  1
  Li  Li31  1  0.56253000  0.17305100  0.84396700  1
  Li  Li32  1  0.39369100  0.16310900  0.67395500  1
  Li  Li33  1  0.10630900  0.16310900  0.17395500  1
  Li  Li34  1  0.79246400  0.21073500  0.50653900  1
  Li  Li35  1  0.70753600  0.21073500  0.00653900  1
  Li  Li36  1  0.90008500  0.12270800  0.74266200  1
  Li  Li37  1  0.59991500  0.12270800  0.24266200  1
  Li  Li38  1  0.07675500  0.04175300  0.56926800  1
  Li  Li39  1  0.42324500  0.04175300  0.06926800  1
  Mn  Mn40  1  0.85004200  0.94403800  0.12007300  1
  Mn  Mn41  1  0.64995800  0.94403800  0.62007300  1
  Mn  Mn42  1  0.35004200  0.55596200  0.12007300  1
  Mn  Mn43  1  0.14995800  0.55596200  0.62007300  1
  Mn  Mn44  1  0.85004200  0.44403800  0.37992700  1
  Mn  Mn45  1  0.64995800  0.44403800  0.87992700  1
  Mn  Mn46  1  0.35004200  0.05596200  0.37992700  1
  Mn  Mn47  1  0.14995800  0.05596200  0.87992700  1
  O  O48  1  0.18442100  0.97486000  0.14907900  1
  O  O49  1  0.31557900  0.97486000  0.64907900  1
  O  O50  1  0.77459500  0.81878700  0.21200300  1
  O  O51  1  0.72540500  0.81878700  0.71200300  1
  O  O52  1  0.60782800  0.86551700  0.04078300  1
  O  O53  1  0.89217200  0.86551700  0.54078300  1
  O  O54  1  0.23865500  0.86703400  0.37881200  1
  O  O55  1  0.26134500  0.86703400  0.87881200  1
  O  O56  1  0.73865500  0.63296600  0.37881200  1
  O  O57  1  0.76134500  0.63296600  0.87881200  1
  O  O58  1  0.10782800  0.63448300  0.04078300  1
  O  O59  1  0.39217200  0.63448300  0.54078300  1
  O  O60  1  0.22540500  0.68121300  0.71200300  1
  O  O61  1  0.27459500  0.68121300  0.21200300  1
  O  O62  1  0.68442100  0.52514000  0.14907900  1
  O  O63  1  0.81557900  0.52514000  0.64907900  1
  O  O64  1  0.18442100  0.47486000  0.35092100  1
  O  O65  1  0.31557900  0.47486000  0.85092100  1
  O  O66  1  0.72540500  0.31878700  0.78799700  1
  O  O67  1  0.77459500  0.31878700  0.28799700  1
  O  O68  1  0.89217200  0.36551700  0.95921700  1
  O  O69  1  0.60782800  0.36551700  0.45921700  1
  O  O70  1  0.23865500  0.36703400  0.12118800  1
  O  O71  1  0.26134500  0.36703400  0.62118800  1
  O  O72  1  0.76134500  0.13296600  0.62118800  1
  O  O73  1  0.73865500  0.13296600  0.12118800  1
  O  O74  1  0.10782800  0.13448300  0.45921700  1
  O  O75  1  0.39217200  0.13448300  0.95921700  1
  O  O76  1  0.22540500  0.18121300  0.78799700  1
  O  O77  1  0.27459500  0.18121300  0.28799700  1
  O  O78  1  0.68442100  0.02514000  0.35092100  1
  O  O79  1  0.81557900  0.02514000  0.85092100  1
