# generated using pymatgen
data_Li4Co3P4O15
_symmetry_space_group_name_H-M   'P 1'
_cell_length_a   6.43659100
_cell_length_b   10.45728400
_cell_length_c   17.53134100
_cell_angle_alpha   90.00000000
_cell_angle_beta   90.00000000
_cell_angle_gamma   90.00000000
_symmetry_Int_Tables_number   1
_chemical_formula_structural   Li4Co3P4O15
_chemical_formula_sum   'Li16 Co12 P16 O60'
_cell_volume   1180.02159090
_cell_formula_units_Z   4
loop_
 _symmetry_equiv_pos_site_id
 _symmetry_equiv_pos_as_xyz
  1  'x, y, z'
loop_
 _atom_site_type_symbol
 _atom_site_label
 _atom_site_symmetry_multiplicity
 _atom_site_fract_x
 _atom_site_fract_y
 _atom_site_fract_z
 _atom_site_occupancy
  Li  Li0  1  0.82247300  0.52023900  0.00563000  1
  Li  Li1  1  0.69495000  0.95061200  0.03456700  1
  Li  Li2  1  0.43854200  0.18155600  0.09641800  1
  Li  Li3  1  0.86585700  0.75613500  0.20324500  1
  Li  Li4  1  0.36585700  0.25613500  0.29675500  1
  Li  Li5  1  0.93854200  0.68155600  0.40358200  1
  Li  Li6  1  0.19495000  0.45061200  0.46543300  1
  Li  Li7  1  0.32247300  0.02023900  0.49437000  1
  Li  Li8  1  0.82247300  0.97976100  0.50563000  1
  Li  Li9  1  0.69495000  0.54938800  0.53456700  1
  Li  Li10  1  0.43854200  0.31844400  0.59641800  1
  Li  Li11  1  0.86585700  0.74386500  0.70324500  1
  Li  Li12  1  0.36585700  0.24386500  0.79675500  1
  Li  Li13  1  0.93854200  0.81844400  0.90358200  1
  Li  Li14  1  0.19495000  0.04938800  0.96543300  1
  Li  Li15  1  0.32247300  0.47976100  0.99437000  1
  Co  Co16  1  0.09275400  0.50500000  0.13426900  1
  Co  Co17  1  0.09996700  0.99958300  0.16576100  1
  Co  Co18  1  0.82567200  0.25820800  0.24047100  1
  Co  Co19  1  0.32567200  0.75820800  0.25952900  1
  Co  Co20  1  0.59996700  0.49958300  0.33423900  1
  Co  Co21  1  0.59275400  0.00500000  0.36573100  1
  Co  Co22  1  0.09275400  0.99500000  0.63426900  1
  Co  Co23  1  0.09996700  0.50041700  0.66576100  1
  Co  Co24  1  0.82567200  0.24179200  0.74047100  1
  Co  Co25  1  0.32567200  0.74179200  0.75952900  1
  Co  Co26  1  0.59996700  0.00041700  0.83423900  1
  Co  Co27  1  0.59275400  0.49500000  0.86573100  1
  P  P28  1  0.13371300  0.77448300  0.04939900  1
  P  P29  1  0.95998300  0.24026000  0.06184300  1
  P  P30  1  0.58893000  0.51911100  0.17295900  1
  P  P31  1  0.59748100  0.99589000  0.20532800  1
  P  P32  1  0.09748100  0.49589000  0.29467200  1
  P  P33  1  0.08893000  0.01911100  0.32704100  1
  P  P34  1  0.45998300  0.74026000  0.43815700  1
  P  P35  1  0.63371300  0.27448300  0.45060100  1
  P  P36  1  0.13371300  0.72551700  0.54940000  1
  P  P37  1  0.95998300  0.25974000  0.56184300  1
  P  P38  1  0.58893000  0.98088900  0.67295900  1
  P  P39  1  0.59748100  0.50411000  0.70532800  1
  P  P40  1  0.09748100  0.00411000  0.79467200  1
  P  P41  1  0.08893000  0.48088900  0.82704100  1
  P  P42  1  0.45998300  0.75974000  0.93815700  1
  P  P43  1  0.63371300  0.22551700  0.95060000  1
  O  O44  1  0.99579800  0.86887700  0.00582900  1
  O  O45  1  0.37141200  0.80904100  0.02077500  1
  O  O46  1  0.09768200  0.63260300  0.03127100  1
  O  O47  1  0.05829200  0.37163600  0.04631300  1
  O  O48  1  0.12590300  0.13783400  0.07881300  1
  O  O49  1  0.78113000  0.23948900  0.11875600  1
  O  O50  1  0.40161300  0.49780400  0.12020200  1
  O  O51  1  0.13216900  0.80290500  0.13500100  1
  O  O52  1  0.78419400  0.54422500  0.12419900  1
  O  O53  1  0.41476300  0.01922400  0.15142000  1
  O  O54  1  0.78613700  0.96052800  0.15455700  1
  O  O55  1  0.61134300  0.40180300  0.22895700  1
  O  O56  1  0.56859700  0.63483000  0.23038000  1
  O  O57  1  0.06416300  0.38650300  0.23495100  1
  O  O58  1  0.12216200  0.61633800  0.24170800  1
  O  O59  1  0.62216200  0.11633800  0.25829200  1
  O  O60  1  0.56416300  0.88650300  0.26504900  1
  O  O61  1  0.06859700  0.13483000  0.26962000  1
  O  O62  1  0.11134300  0.90180300  0.27104300  1
  O  O63  1  0.28613700  0.46052800  0.34544300  1
  O  O64  1  0.91476300  0.51922400  0.34858000  1
  O  O65  1  0.28419400  0.04422500  0.37580100  1
  O  O66  1  0.63216900  0.30290500  0.36499900  1
  O  O67  1  0.90161300  0.99780400  0.37979800  1
  O  O68  1  0.28113000  0.73948900  0.38124400  1
  O  O69  1  0.62590300  0.63783400  0.42118700  1
  O  O70  1  0.55829200  0.87163600  0.45368700  1
  O  O71  1  0.59768200  0.13260300  0.46872900  1
  O  O72  1  0.87141200  0.30904100  0.47922500  1
  O  O73  1  0.49579800  0.36887700  0.49417100  1
  O  O74  1  0.99579800  0.63112300  0.50582900  1
  O  O75  1  0.37141200  0.69095900  0.52077500  1
  O  O76  1  0.09768200  0.86739700  0.53127100  1
  O  O77  1  0.05829200  0.12836400  0.54631300  1
  O  O78  1  0.12590300  0.36216600  0.57881300  1
  O  O79  1  0.78113000  0.26051100  0.61875600  1
  O  O80  1  0.40161300  0.00219600  0.62020200  1
  O  O81  1  0.13216900  0.69709500  0.63500100  1
  O  O82  1  0.78419400  0.95577500  0.62419900  1
  O  O83  1  0.41476300  0.48077600  0.65142000  1
  O  O84  1  0.78613700  0.53947200  0.65455700  1
  O  O85  1  0.61134300  0.09819700  0.72895700  1
  O  O86  1  0.56859700  0.86517000  0.73038000  1
  O  O87  1  0.06416300  0.11349700  0.73495100  1
  O  O88  1  0.12216200  0.88366200  0.74170800  1
  O  O89  1  0.62216200  0.38366200  0.75829200  1
  O  O90  1  0.56416300  0.61349700  0.76504900  1
  O  O91  1  0.06859700  0.36517000  0.76962000  1
  O  O92  1  0.11134300  0.59819700  0.77104300  1
  O  O93  1  0.28613700  0.03947200  0.84544300  1
  O  O94  1  0.91476300  0.98077600  0.84858000  1
  O  O95  1  0.28419400  0.45577500  0.87580100  1
  O  O96  1  0.63216900  0.19709500  0.86499900  1
  O  O97  1  0.90161300  0.50219600  0.87979800  1
  O  O98  1  0.28113000  0.76051100  0.88124400  1
  O  O99  1  0.62590300  0.86216600  0.92118700  1
  O  O100  1  0.55829200  0.62836400  0.95368700  1
  O  O101  1  0.59768200  0.36739700  0.96872900  1
  O  O102  1  0.87141200  0.19095900  0.97922500  1
  O  O103  1  0.49579800  0.13112300  0.99417100  1
