# generated using pymatgen
data_Li3Al(FeO3)2
_symmetry_space_group_name_H-M   'P 1'
_cell_length_a   10.34856200
_cell_length_b   5.94677400
_cell_length_c   10.09067381
_cell_angle_alpha   54.50336240
_cell_angle_beta   90.00000000
_cell_angle_gamma   90.00000000
_symmetry_Int_Tables_number   1
_chemical_formula_structural   Li3Al(FeO3)2
_chemical_formula_sum   'Li12 Al4 Fe8 O24'
_cell_volume   505.57526569
_cell_formula_units_Z   4
loop_
 _symmetry_equiv_pos_site_id
 _symmetry_equiv_pos_as_xyz
  1  'x, y, z'
loop_
 _atom_site_type_symbol
 _atom_site_label
 _atom_site_symmetry_multiplicity
 _atom_site_fract_x
 _atom_site_fract_y
 _atom_site_fract_z
 _atom_site_occupancy
  Li  Li0  1  0.99777900  0.52118100  0.63607000  1
  Li  Li1  1  0.65798000  0.55686000  0.62393300  1
  Li  Li2  1  0.99708400  0.03530600  0.11610100  1
  Li  Li3  1  0.15798000  0.44314000  0.87606700  1
  Li  Li4  1  0.49708400  0.96469400  0.38389900  1
  Li  Li5  1  0.49777900  0.47881900  0.86393000  1
  Li  Li6  1  0.50222100  0.52118100  0.13607000  1
  Li  Li7  1  0.50291600  0.03530600  0.61610100  1
  Li  Li8  1  0.84202000  0.55686000  0.12393300  1
  Li  Li9  1  0.00291600  0.96469400  0.88389900  1
  Li  Li10  1  0.34202000  0.44314000  0.37606700  1
  Li  Li11  1  0.00222100  0.47881900  0.36393000  1
  Al  Al12  1  0.33247600  0.03944200  0.12646100  1
  Al  Al13  1  0.83247600  0.96055800  0.37353900  1
  Al  Al14  1  0.16752400  0.03944200  0.62646100  1
  Al  Al15  1  0.66752400  0.96055800  0.87353900  1
  Fe  Fe16  1  0.33381000  0.54913500  0.62138500  1
  Fe  Fe17  1  0.65345100  0.04726600  0.12692300  1
  Fe  Fe18  1  0.83381000  0.45086500  0.87861500  1
  Fe  Fe19  1  0.15345100  0.95273400  0.37307700  1
  Fe  Fe20  1  0.84654900  0.04726600  0.62692300  1
  Fe  Fe21  1  0.16619000  0.54913500  0.12138500  1
  Fe  Fe22  1  0.34654900  0.95273400  0.87307700  1
  Fe  Fe23  1  0.66619000  0.45086500  0.37861500  1
  O  O24  1  0.33048100  0.26789700  0.88354600  1
  O  O25  1  0.68186900  0.79556800  0.37084400  1
  O  O26  1  0.98774300  0.30340700  0.87648500  1
  O  O27  1  0.98539300  0.81861000  0.37109600  1
  O  O28  1  0.31695800  0.79240600  0.36691300  1
  O  O29  1  0.67182000  0.26616600  0.88055800  1
  O  O30  1  0.17182000  0.73383400  0.61944200  1
  O  O31  1  0.81695800  0.20759400  0.13308700  1
  O  O32  1  0.48539300  0.18139000  0.12890400  1
  O  O33  1  0.48774300  0.69659300  0.62351500  1
  O  O34  1  0.83048100  0.73210300  0.61645400  1
  O  O35  1  0.18186900  0.20443200  0.12915600  1
  O  O36  1  0.81813100  0.79556800  0.87084400  1
  O  O37  1  0.16951900  0.26789700  0.38354600  1
  O  O38  1  0.51225700  0.30340700  0.37648500  1
  O  O39  1  0.51460700  0.81861000  0.87109600  1
  O  O40  1  0.18304200  0.79240600  0.86691300  1
  O  O41  1  0.82818000  0.26616600  0.38055800  1
  O  O42  1  0.32818000  0.73383400  0.11944200  1
  O  O43  1  0.68304200  0.20759400  0.63308700  1
  O  O44  1  0.01460700  0.18139000  0.62890400  1
  O  O45  1  0.01225700  0.69659300  0.12351500  1
  O  O46  1  0.31813100  0.20443200  0.62915600  1
  O  O47  1  0.66951900  0.73210300  0.11645400  1
