# generated using pymatgen
data_LiMnF4
_symmetry_space_group_name_H-M   'P 1'
_cell_length_a   6.91073800
_cell_length_b   8.42097770
_cell_length_c   9.72133725
_cell_angle_alpha   96.95617722
_cell_angle_beta   106.85968777
_cell_angle_gamma   100.80421231
_symmetry_Int_Tables_number   1
_chemical_formula_structural   LiMnF4
_chemical_formula_sum   'Li6 Mn6 F24'
_cell_volume   522.47322110
_cell_formula_units_Z   6
loop_
 _symmetry_equiv_pos_site_id
 _symmetry_equiv_pos_as_xyz
  1  'x, y, z'
loop_
 _atom_site_type_symbol
 _atom_site_label
 _atom_site_symmetry_multiplicity
 _atom_site_fract_x
 _atom_site_fract_y
 _atom_site_fract_z
 _atom_site_occupancy
  Li  Li0  1  0.00359200  0.01264300  0.26649100  1
  Li  Li1  1  0.18981400  0.59941200  0.34913700  1
  Li  Li2  1  0.47705100  0.68213000  0.86506600  1
  Li  Li3  1  0.52294900  0.31787000  0.13493400  1
  Li  Li4  1  0.81018600  0.40058800  0.65086300  1
  Li  Li5  1  0.99640800  0.98735700  0.73350900  1
  Mn  Mn6  1  0.03640900  0.69578400  0.99079800  1
  Mn  Mn7  1  0.23671400  0.30989600  0.57470000  1
  Mn  Mn8  1  0.46985300  0.90123100  0.23084800  1
  Mn  Mn9  1  0.53014700  0.09876900  0.76915200  1
  Mn  Mn10  1  0.76328600  0.69010400  0.42530000  1
  Mn  Mn11  1  0.96359100  0.30421600  0.00920200  1
  F  F12  1  0.04488000  0.83486800  0.86018100  1
  F  F13  1  0.04535800  0.72336400  0.42875700  1
  F  F14  1  0.04647200  0.55309200  0.13535800  1
  F  F15  1  0.18398700  0.89549800  0.19261200  1
  F  F16  1  0.26216800  0.12620200  0.74487900  1
  F  F17  1  0.32642000  0.49081200  0.72482600  1
  F  F18  1  0.46900100  0.88719300  0.79670200  1
  F  F19  1  0.18184300  0.11112300  0.45063700  1
  F  F20  1  0.27262200  0.42782000  0.42467500  1
  F  F21  1  0.45118600  0.73531300  0.34611400  1
  F  F22  1  0.33488800  0.72133400  0.02710100  1
  F  F23  1  0.23671500  0.30371100  0.02851800  1
  F  F24  1  0.76328500  0.69628900  0.97148200  1
  F  F25  1  0.66511200  0.27866600  0.97289900  1
  F  F26  1  0.54881400  0.26468700  0.65388600  1
  F  F27  1  0.72737800  0.57218000  0.57532500  1
  F  F28  1  0.81815700  0.88887700  0.54936300  1
  F  F29  1  0.53099900  0.11280700  0.20329800  1
  F  F30  1  0.67358000  0.50918800  0.27517400  1
  F  F31  1  0.73783200  0.87379800  0.25512100  1
  F  F32  1  0.81601300  0.10450200  0.80738800  1
  F  F33  1  0.95352800  0.44690800  0.86464200  1
  F  F34  1  0.95464200  0.27663600  0.57124300  1
  F  F35  1  0.95512000  0.16513200  0.13981900  1
