# generated using pymatgen
data_Li4Cr3CoO8
_symmetry_space_group_name_H-M   'P 1'
_cell_length_a   5.10333800
_cell_length_b   5.85724745
_cell_length_c   10.15010654
_cell_angle_alpha   90.13544356
_cell_angle_beta   99.50102000
_cell_angle_gamma   106.68223393
_symmetry_Int_Tables_number   1
_chemical_formula_structural   Li4Cr3CoO8
_chemical_formula_sum   'Li8 Cr6 Co2 O16'
_cell_volume   286.24795985
_cell_formula_units_Z   2
loop_
 _symmetry_equiv_pos_site_id
 _symmetry_equiv_pos_as_xyz
  1  'x, y, z'
loop_
 _atom_site_type_symbol
 _atom_site_label
 _atom_site_symmetry_multiplicity
 _atom_site_fract_x
 _atom_site_fract_y
 _atom_site_fract_z
 _atom_site_occupancy
  Li  Li0  1  0.99577300  0.74669200  0.75043500  1
  Li  Li1  1  0.00051400  0.74817500  0.25269100  1
  Li  Li2  1  0.00000000  0.50000000  0.50000000  1
  Li  Li3  1  0.00000000  0.50000000  0.00000000  1
  Li  Li4  1  0.99948600  0.25182500  0.74730900  1
  Li  Li5  1  0.00422700  0.25330800  0.24956500  1
  Li  Li6  1  0.00000000  0.00000000  0.50000000  1
  Li  Li7  1  0.00000000  0.00000000  0.00000000  1
  Cr  Cr8  1  0.50005400  0.62366900  0.87298600  1
  Cr  Cr9  1  0.49994600  0.37633100  0.12701400  1
  Cr  Cr10  1  0.50022800  0.12728300  0.37728400  1
  Cr  Cr11  1  0.49960800  0.12578900  0.87278000  1
  Cr  Cr12  1  0.49977200  0.87271700  0.62271600  1
  Cr  Cr13  1  0.50039200  0.87421100  0.12722000  1
  Co  Co14  1  0.50027200  0.62450600  0.37667500  1
  Co  Co15  1  0.49972800  0.37549400  0.62332500  1
  O  O16  1  0.27671500  0.56396100  0.68670300  1
  O  O17  1  0.27621100  0.56908500  0.19485800  1
  O  O18  1  0.71867100  0.67276600  0.55744900  1
  O  O19  1  0.72728400  0.68143300  0.06044800  1
  O  O20  1  0.28132900  0.32723400  0.44255100  1
  O  O21  1  0.72328500  0.43603900  0.31329700  1
  O  O22  1  0.27271600  0.31856700  0.93955200  1
  O  O23  1  0.72378900  0.43091500  0.80514200  1
  O  O24  1  0.27554200  0.07298700  0.68581800  1
  O  O25  1  0.72328700  0.18563800  0.56209100  1
  O  O26  1  0.27264500  0.06883200  0.19108000  1
  O  O27  1  0.72672700  0.18224900  0.06086800  1
  O  O28  1  0.27671300  0.81436200  0.43790900  1
  O  O29  1  0.72445800  0.92701300  0.31418200  1
  O  O30  1  0.27327300  0.81775100  0.93913200  1
  O  O31  1  0.72735500  0.93116800  0.80892000  1
