# generated using pymatgen
data_Li4V3Co2Sb3O16
_symmetry_space_group_name_H-M   'P 1'
_cell_length_a   6.14499154
_cell_length_b   6.14499154
_cell_length_c   9.86087804
_cell_angle_alpha   89.55625905
_cell_angle_beta   89.55625905
_cell_angle_gamma   59.93121956
_symmetry_Int_Tables_number   1
_chemical_formula_structural   Li4V3Co2Sb3O16
_chemical_formula_sum   'Li4 V3 Co2 Sb3 O16'
_cell_volume   322.23300818
_cell_formula_units_Z   1
loop_
 _symmetry_equiv_pos_site_id
 _symmetry_equiv_pos_as_xyz
  1  'x, y, z'
loop_
 _atom_site_type_symbol
 _atom_site_label
 _atom_site_symmetry_multiplicity
 _atom_site_fract_x
 _atom_site_fract_y
 _atom_site_fract_z
 _atom_site_occupancy
  Li  Li0  1  0.66454300  0.66454300  0.12247900  1
  Li  Li1  1  0.98933500  0.98933500  0.00913700  1
  Li  Li2  1  0.99231000  0.99231000  0.49517300  1
  Li  Li3  1  0.32794100  0.32794100  0.60000700  1
  V  V4  1  0.83188300  0.83188300  0.78379700  1
  V  V5  1  0.17117500  0.66346700  0.28518600  1
  V  V6  1  0.66346700  0.17117500  0.28518600  1
  Co  Co7  1  0.67292500  0.67292500  0.48086900  1
  Co  Co8  1  0.34360100  0.34360100  0.02387800  1
  Sb  Sb9  1  0.33780800  0.83177900  0.78473400  1
  Sb  Sb10  1  0.83177900  0.33780800  0.78473400  1
  Sb  Sb11  1  0.17065000  0.17065000  0.28486700  1
  O  O12  1  0.31532100  0.84623800  0.39840800  1
  O  O13  1  0.51408700  0.51408700  0.66926800  1
  O  O14  1  0.66184100  0.66184100  0.89868500  1
  O  O15  1  0.00493200  0.00493200  0.67941700  1
  O  O16  1  0.00703200  0.00703200  0.18684600  1
  O  O17  1  0.84623800  0.31532100  0.39840800  1
  O  O18  1  0.51274900  0.96854300  0.67471100  1
  O  O19  1  0.96854300  0.51274900  0.67471100  1
  O  O20  1  0.15424400  0.15424400  0.89801500  1
  O  O21  1  0.84283100  0.84283100  0.39216100  1
  O  O22  1  0.03474400  0.48102100  0.16503700  1
  O  O23  1  0.48102100  0.03474400  0.16503700  1
  O  O24  1  0.32771400  0.32771400  0.39802900  1
  O  O25  1  0.15899100  0.69030600  0.89236400  1
  O  O26  1  0.48260100  0.48260100  0.16867600  1
  O  O27  1  0.69030600  0.15899100  0.89236400  1
