# generated using pymatgen
data_Li4Ti3Fe2Co3O16
_symmetry_space_group_name_H-M   'P 1'
_cell_length_a   5.77606679
_cell_length_b   5.83056848
_cell_length_c   9.53070059
_cell_angle_alpha   90.09252650
_cell_angle_beta   89.76961790
_cell_angle_gamma   120.57199645
_symmetry_Int_Tables_number   1
_chemical_formula_structural   Li4Ti3Fe2Co3O16
_chemical_formula_sum   'Li4 Ti3 Fe2 Co3 O16'
_cell_volume   276.35214446
_cell_formula_units_Z   1
loop_
 _symmetry_equiv_pos_site_id
 _symmetry_equiv_pos_as_xyz
  1  'x, y, z'
loop_
 _atom_site_type_symbol
 _atom_site_label
 _atom_site_symmetry_multiplicity
 _atom_site_fract_x
 _atom_site_fract_y
 _atom_site_fract_z
 _atom_site_occupancy
  Li  Li0  1  0.33982100  0.66798000  0.88968800  1
  Li  Li1  1  0.97918300  0.98957000  0.99486100  1
  Li  Li2  1  0.98915900  0.99164000  0.49808000  1
  Li  Li3  1  0.67228900  0.33618300  0.39645200  1
  Ti  Ti4  1  0.17510700  0.83410900  0.21568500  1
  Ti  Ti5  1  0.17484000  0.34108800  0.21505900  1
  Ti  Ti6  1  0.34565200  0.17310700  0.71771300  1
  Fe  Fe7  1  0.33298600  0.67098600  0.49383500  1
  Fe  Fe8  1  0.67519600  0.33973100  0.99017700  1
  Co  Co9  1  0.65618600  0.82824600  0.21322400  1
  Co  Co10  1  0.83040100  0.66029900  0.71315500  1
  Co  Co11  1  0.83108100  0.16832600  0.71226900  1
  O  O12  1  0.16356300  0.83988400  0.60124200  1
  O  O13  1  0.03625600  0.51750100  0.33546100  1
  O  O14  1  0.32806800  0.66465200  0.10050900  1
  O  O15  1  0.99152800  0.99540000  0.31064400  1
  O  O16  1  0.99146800  0.99626100  0.80891100  1
  O  O17  1  0.15503100  0.32183700  0.60337200  1
  O  O18  1  0.48580800  0.96570800  0.33829100  1
  O  O19  1  0.48465600  0.51951000  0.33933700  1
  O  O20  1  0.32692500  0.16326700  0.09947300  1
  O  O21  1  0.67722900  0.84501400  0.61014000  1
  O  O22  1  0.52019800  0.48261600  0.83809400  1
  O  O23  1  0.52661800  0.03638600  0.83511800  1
  O  O24  1  0.67316000  0.33592000  0.60454100  1
  O  O25  1  0.83684400  0.67489400  0.10356300  1
  O  O26  1  0.96401100  0.47803200  0.82591200  1
  O  O27  1  0.83673800  0.16215000  0.10303900  1
