# generated using pymatgen
data_Li3V2(PO4)3
_symmetry_space_group_name_H-M   'P 1'
_cell_length_a   8.75528355
_cell_length_b   8.75528355
_cell_length_c   8.73975671
_cell_angle_alpha   60.77142201
_cell_angle_beta   60.77142201
_cell_angle_gamma   59.68615684
_symmetry_Int_Tables_number   1
_chemical_formula_structural   Li3V2(PO4)3
_chemical_formula_sum   'Li6 V4 P6 O24'
_cell_volume   477.99970016
_cell_formula_units_Z   2
loop_
 _symmetry_equiv_pos_site_id
 _symmetry_equiv_pos_as_xyz
  1  'x, y, z'
loop_
 _atom_site_type_symbol
 _atom_site_label
 _atom_site_symmetry_multiplicity
 _atom_site_fract_x
 _atom_site_fract_y
 _atom_site_fract_z
 _atom_site_occupancy
  Li  Li0  1  0.03624600  0.34904700  0.17678700  1
  Li  Li1  1  0.74046300  0.88874800  0.20395100  1
  Li  Li2  1  0.34904700  0.03624600  0.67678700  1
  Li  Li3  1  0.62016900  0.36282400  0.24763700  1
  Li  Li4  1  0.36282400  0.62016900  0.74763700  1
  Li  Li5  1  0.88874800  0.74046300  0.70395100  1
  V  V6  1  0.85336900  0.35621300  0.85885200  1
  V  V7  1  0.35621300  0.85336900  0.35885200  1
  V  V8  1  0.15328000  0.64342600  0.14048700  1
  V  V9  1  0.64342600  0.15328000  0.64048700  1
  P  P10  1  0.24989800  0.47323100  0.54024500  1
  P  P11  1  0.52891800  0.75261300  0.95641800  1
  P  P12  1  0.47323100  0.24989800  0.04024500  1
  P  P13  1  0.75261300  0.52891800  0.45641800  1
  P  P14  1  0.04472100  0.95174200  0.75466200  1
  P  P15  1  0.95174200  0.04472100  0.25466200  1
  O  O16  1  0.05538500  0.47700400  0.68328900  1
  O  O17  1  0.75507700  0.48109600  0.64789600  1
  O  O18  1  0.98161000  0.89052700  0.19384600  1
  O  O19  1  0.61919000  0.29176100  0.05235600  1
  O  O20  1  0.47700400  0.05538500  0.18328900  1
  O  O21  1  0.89052700  0.98161000  0.69384600  1
  O  O22  1  0.92810500  0.24054600  0.09983700  1
  O  O23  1  0.37814800  0.71891000  0.94346900  1
  O  O24  1  0.54991500  0.93332200  0.79407600  1
  O  O25  1  0.00909600  0.11514300  0.80622400  1
  O  O26  1  0.72431700  0.59624800  0.91937300  1
  O  O27  1  0.05855800  0.76676400  0.91937900  1
  O  O28  1  0.29176100  0.61919000  0.55235600  1
  O  O29  1  0.24054600  0.92810500  0.59983700  1
  O  O30  1  0.59624800  0.72431700  0.41937300  1
  O  O31  1  0.11514300  0.00909600  0.30622400  1
  O  O32  1  0.27376800  0.39812300  0.08460800  1
  O  O33  1  0.39812300  0.27376800  0.58460800  1
  O  O34  1  0.52037600  0.26310300  0.84106800  1
  O  O35  1  0.93332200  0.54991500  0.29407600  1
  O  O36  1  0.48109600  0.75507700  0.14789600  1
  O  O37  1  0.71891000  0.37814800  0.44346900  1
  O  O38  1  0.76676400  0.05855800  0.41937900  1
  O  O39  1  0.26310300  0.52037600  0.34106800  1
