# generated using pymatgen
data_LiMn(PO3)4
_symmetry_space_group_name_H-M   'P 1'
_cell_length_a   9.17852366
_cell_length_b   9.17852366
_cell_length_c   10.40430858
_cell_angle_alpha   56.24243012
_cell_angle_beta   56.24243012
_cell_angle_gamma   46.34363402
_symmetry_Int_Tables_number   1
_chemical_formula_structural   LiMn(PO3)4
_chemical_formula_sum   'Li2 Mn2 P8 O24'
_cell_volume   505.19705357
_cell_formula_units_Z   2
loop_
 _symmetry_equiv_pos_site_id
 _symmetry_equiv_pos_as_xyz
  1  'x, y, z'
loop_
 _atom_site_type_symbol
 _atom_site_label
 _atom_site_symmetry_multiplicity
 _atom_site_fract_x
 _atom_site_fract_y
 _atom_site_fract_z
 _atom_site_occupancy
  Li  Li0  1  0.64626100  0.35373900  0.25000000  1
  Li  Li1  1  0.35373900  0.64626100  0.75000000  1
  Mn  Mn2  1  0.00000000  0.00000000  0.50000000  1
  Mn  Mn3  1  0.00000000  0.00000000  0.00000000  1
  P  P4  1  0.44367700  0.29356100  0.10055200  1
  P  P5  1  0.03446500  0.65817800  0.20776700  1
  P  P6  1  0.34182200  0.96553500  0.29223300  1
  P  P7  1  0.70643900  0.55632300  0.39944800  1
  P  P8  1  0.29356100  0.44367700  0.60055200  1
  P  P9  1  0.65817800  0.03446500  0.70776700  1
  P  P10  1  0.96553500  0.34182200  0.79223300  1
  P  P11  1  0.55632300  0.70643900  0.89944800  1
  O  O12  1  0.99880600  0.76003200  0.04157300  1
  O  O13  1  0.63496700  0.16681300  0.15168300  1
  O  O14  1  0.37616300  0.14111500  0.14565800  1
  O  O15  1  0.24111600  0.43025600  0.22971500  1
  O  O16  1  0.56603100  0.57486300  0.06643200  1
  O  O17  1  0.56974400  0.75888400  0.27028500  1
  O  O18  1  0.85888500  0.62383700  0.35434200  1
  O  O19  1  0.18574800  0.96073200  0.28076500  1
  O  O20  1  0.83318700  0.36503300  0.34831700  1
  O  O21  1  0.03926800  0.81425200  0.21923500  1
  O  O22  1  0.23996800  0.00119400  0.45842700  1
  O  O23  1  0.42513700  0.43396900  0.43356800  1
  O  O24  1  0.57486300  0.56603100  0.56643200  1
  O  O25  1  0.76003200  0.99880600  0.54157300  1
  O  O26  1  0.96073200  0.18574800  0.78076500  1
  O  O27  1  0.16681300  0.63496700  0.65168300  1
  O  O28  1  0.81425200  0.03926800  0.71923500  1
  O  O29  1  0.14111500  0.37616300  0.64565800  1
  O  O30  1  0.43025600  0.24111600  0.72971500  1
  O  O31  1  0.43396900  0.42513700  0.93356800  1
  O  O32  1  0.75888400  0.56974400  0.77028500  1
  O  O33  1  0.62383700  0.85888500  0.85434200  1
  O  O34  1  0.36503300  0.83318700  0.84831700  1
  O  O35  1  0.00119400  0.23996800  0.95842700  1
