# generated using pymatgen
data_Li2MnV(PO4)3
_symmetry_space_group_name_H-M   'P 1'
_cell_length_a   8.98137147
_cell_length_b   8.25838584
_cell_length_c   8.36480831
_cell_angle_alpha   60.13658316
_cell_angle_beta   63.85493628
_cell_angle_gamma   91.21562163
_symmetry_Int_Tables_number   1
_chemical_formula_structural   Li2MnV(PO4)3
_chemical_formula_sum   'Li4 Mn2 V2 P6 O24'
_cell_volume   459.34290303
_cell_formula_units_Z   2
loop_
 _symmetry_equiv_pos_site_id
 _symmetry_equiv_pos_as_xyz
  1  'x, y, z'
loop_
 _atom_site_type_symbol
 _atom_site_label
 _atom_site_symmetry_multiplicity
 _atom_site_fract_x
 _atom_site_fract_y
 _atom_site_fract_z
 _atom_site_occupancy
  Li  Li0  1  0.37520000  0.19171400  0.36755900  1
  Li  Li1  1  0.86590200  0.67920800  0.06149900  1
  Li  Li2  1  0.88468700  0.92838800  0.37519300  1
  Li  Li3  1  0.87863400  0.24879400  0.81139500  1
  Mn  Mn4  1  0.56388700  0.86086900  0.28502500  1
  Mn  Mn5  1  0.43000800  0.13588500  0.72476000  1
  V  V6  1  0.04818000  0.35610400  0.29878700  1
  V  V7  1  0.96367400  0.65171000  0.69062500  1
  P  P8  1  0.24865400  0.04971500  0.20834200  1
  P  P9  1  0.25108000  0.46473400  0.49645000  1
  P  P10  1  0.25381200  0.75111200  0.79235500  1
  P  P11  1  0.75432400  0.24928600  0.20709200  1
  P  P12  1  0.74819600  0.53068800  0.50454400  1
  P  P13  1  0.75289600  0.95762500  0.77737800  1
  O  O14  1  0.10133800  0.84571200  0.37854400  1
  O  O15  1  0.26253100  0.13318300  0.99469600  1
  O  O16  1  0.19374800  0.18547500  0.29284100  1
  O  O17  1  0.18558000  0.49159100  0.34378700  1
  O  O18  1  0.10015100  0.46618200  0.68646200  1
  O  O19  1  0.09901200  0.77473000  0.74306600  1
  O  O20  1  0.41866700  0.03373800  0.21100600  1
  O  O21  1  0.28148100  0.26341700  0.58769700  1
  O  O22  1  0.42193800  0.62771600  0.36828000  1
  O  O23  1  0.18239100  0.53793700  0.99862800  1
  O  O24  1  0.26222400  0.89359800  0.85721800  1
  O  O25  1  0.41812200  0.78616500  0.60319700  1
  O  O26  1  0.57871900  0.20972700  0.39007000  1
  O  O27  1  0.74287700  0.11442600  0.12895200  1
  O  O28  1  0.81860000  0.46687400  0.01238600  1
  O  O29  1  0.57498200  0.37200900  0.64035000  1
  O  O30  1  0.73388400  0.73929200  0.39184100  1
  O  O31  1  0.57800700  0.97291900  0.79920700  1
  O  O32  1  0.89307900  0.20323100  0.27503700  1
  O  O33  1  0.88571200  0.51648600  0.31886300  1
  O  O34  1  0.81733500  0.50754200  0.65649500  1
  O  O35  1  0.81983700  0.83148200  0.68580800  1
  O  O36  1  0.74578400  0.87097200  0.99251700  1
  O  O37  1  0.89379100  0.16887300  0.61665500  1
