# generated using pymatgen
data_Li5FeO4
_symmetry_space_group_name_H-M   'P 1'
_cell_length_a   6.93479400
_cell_length_b   7.06914300
_cell_length_c   8.11567700
_cell_angle_alpha   90.00000000
_cell_angle_beta   90.00000000
_cell_angle_gamma   90.00000000
_symmetry_Int_Tables_number   1
_chemical_formula_structural   Li5FeO4
_chemical_formula_sum   'Li20 Fe4 O16'
_cell_volume   397.85524310
_cell_formula_units_Z   4
loop_
 _symmetry_equiv_pos_site_id
 _symmetry_equiv_pos_as_xyz
  1  'x, y, z'
loop_
 _atom_site_type_symbol
 _atom_site_label
 _atom_site_symmetry_multiplicity
 _atom_site_fract_x
 _atom_site_fract_y
 _atom_site_fract_z
 _atom_site_occupancy
  Li  Li0  1  0.72492800  0.50000000  0.00000000  1
  Li  Li1  1  0.27507200  0.50000000  0.00000000  1
  Li  Li2  1  0.50000000  0.75955900  0.07659200  1
  Li  Li3  1  0.74631000  0.98645300  0.15262800  1
  Li  Li4  1  0.25369000  0.98645300  0.15262800  1
  Li  Li5  1  0.00000000  0.74643800  0.25262000  1
  Li  Li6  1  0.50000000  0.24643800  0.24738000  1
  Li  Li7  1  0.75369000  0.48645300  0.34737200  1
  Li  Li8  1  0.24631000  0.48645300  0.34737200  1
  Li  Li9  1  0.00000000  0.25955900  0.42340800  1
  Li  Li10  1  0.22492800  0.00000000  0.50000000  1
  Li  Li11  1  0.77507200  0.00000000  0.50000000  1
  Li  Li12  1  0.00000000  0.74044100  0.57659200  1
  Li  Li13  1  0.75369000  0.51354700  0.65262800  1
  Li  Li14  1  0.24631000  0.51354700  0.65262800  1
  Li  Li15  1  0.50000000  0.75356200  0.75262000  1
  Li  Li16  1  0.00000000  0.25356200  0.74738000  1
  Li  Li17  1  0.74631000  0.01354700  0.84737200  1
  Li  Li18  1  0.25369000  0.01354700  0.84737200  1
  Li  Li19  1  0.50000000  0.24044100  0.92340800  1
  Fe  Fe20  1  0.00000000  0.24190100  0.11707600  1
  Fe  Fe21  1  0.50000000  0.74190100  0.38292400  1
  Fe  Fe22  1  0.50000000  0.25809900  0.61707600  1
  Fe  Fe23  1  0.00000000  0.75809900  0.88292400  1
  O  O24  1  0.75777100  0.22084700  0.01059900  1
  O  O25  1  0.24222900  0.22084700  0.01059900  1
  O  O26  1  0.50000000  0.52979500  0.22610100  1
  O  O27  1  0.00000000  0.46964300  0.23902900  1
  O  O28  1  0.50000000  0.96964300  0.26097100  1
  O  O29  1  0.00000000  0.02979500  0.27389900  1
  O  O30  1  0.25777100  0.72084700  0.48940100  1
  O  O31  1  0.74222900  0.72084700  0.48940100  1
  O  O32  1  0.74222900  0.27915300  0.51059900  1
  O  O33  1  0.25777100  0.27915300  0.51059900  1
  O  O34  1  0.00000000  0.97020500  0.72610100  1
  O  O35  1  0.50000000  0.03035700  0.73902900  1
  O  O36  1  0.00000000  0.53035700  0.76097100  1
  O  O37  1  0.50000000  0.47020500  0.77389900  1
  O  O38  1  0.75777100  0.77915300  0.98940100  1
  O  O39  1  0.24222900  0.77915300  0.98940100  1
