# generated using pymatgen
data_NaLi5Mn2P2(CO7)2
_symmetry_space_group_name_H-M   'P 1'
_cell_length_a   5.01175500
_cell_length_b   8.65484623
_cell_length_c   13.30711662
_cell_angle_alpha   90.66802169
_cell_angle_beta   90.08110985
_cell_angle_gamma   92.20772748
_symmetry_Int_Tables_number   1
_chemical_formula_structural   NaLi5Mn2P2(CO7)2
_chemical_formula_sum   'Na2 Li10 Mn4 P4 C4 O28'
_cell_volume   576.74042487
_cell_formula_units_Z   2
loop_
 _symmetry_equiv_pos_site_id
 _symmetry_equiv_pos_as_xyz
  1  'x, y, z'
loop_
 _atom_site_type_symbol
 _atom_site_label
 _atom_site_symmetry_multiplicity
 _atom_site_fract_x
 _atom_site_fract_y
 _atom_site_fract_z
 _atom_site_occupancy
  Na  Na0  1  0.75188900  0.91205000  0.37657500  1
  Na  Na1  1  0.25279100  0.75297700  0.99931900  1
  Li  Li2  1  0.74619100  0.91635300  0.86404300  1
  Li  Li3  1  0.22914000  0.72973400  0.76175800  1
  Li  Li4  1  0.22423800  0.73323400  0.48898300  1
  Li  Li5  1  0.22313700  0.72764800  0.26772200  1
  Li  Li6  1  0.77087800  0.26778200  0.73494900  1
  Li  Li7  1  0.77457100  0.26419700  0.51215100  1
  Li  Li8  1  0.77277300  0.26436400  0.24008000  1
  Li  Li9  1  0.77054900  0.26556600  0.01319900  1
  Li  Li10  1  0.25767500  0.08990200  0.13184800  1
  Li  Li11  1  0.25844100  0.08507000  0.62662300  1
  Mn  Mn12  1  0.77385700  0.64622900  0.62665400  1
  Mn  Mn13  1  0.77251000  0.64335000  0.12623800  1
  Mn  Mn14  1  0.22315400  0.35307000  0.87451400  1
  Mn  Mn15  1  0.22900000  0.35132600  0.37548600  1
  P  P16  1  0.71225300  0.58349500  0.37552400  1
  P  P17  1  0.70744500  0.59115500  0.87265600  1
  P  P18  1  0.28724100  0.40900900  0.62604700  1
  P  P19  1  0.28651200  0.40660000  0.12631000  1
  C  C20  1  0.72695900  0.96043900  0.62260300  1
  C  C21  1  0.73117200  0.96094500  0.12774900  1
  C  C22  1  0.26597800  0.04673900  0.37567400  1
  C  C23  1  0.27947600  0.04290200  0.86838700  1
  O  O24  1  0.34728300  0.90012300  0.85868800  1
  O  O25  1  0.27831200  0.89627800  0.37642700  1
  O  O26  1  0.97792500  0.92131700  0.12605700  1
  O  O27  1  0.97454700  0.92132200  0.62246200  1
  O  O28  1  0.53948500  0.85554200  0.13277200  1
  O  O29  1  0.53609200  0.85379500  0.62029600  1
  O  O30  1  0.78262100  0.68633200  0.96899100  1
  O  O31  1  0.82806700  0.68908200  0.78487800  1
  O  O32  1  0.82488000  0.67359500  0.46868200  1
  O  O33  1  0.81942000  0.67566600  0.28368900  1
  O  O34  1  0.39695800  0.57932400  0.86170800  1
  O  O35  1  0.39905500  0.58419400  0.37646600  1
  O  O36  1  0.19575100  0.57897400  0.62720300  1
  O  O37  1  0.19243600  0.57539500  0.13291400  1
  O  O38  1  0.80829100  0.42351800  0.87456100  1
  O  O39  1  0.79632500  0.41282200  0.37309500  1
  O  O40  1  0.60051900  0.41579600  0.62715500  1
  O  O41  1  0.59929700  0.41426200  0.12383500  1
  O  O42  1  0.17822700  0.31196600  0.71577200  1
  O  O43  1  0.18315100  0.31598100  0.53259400  1
  O  O44  1  0.18837200  0.30694500  0.21654300  1
  O  O45  1  0.17446200  0.31692100  0.03281600  1
  O  O46  1  0.46808800  0.15080900  0.87481000  1
  O  O47  1  0.48219000  0.13433500  0.37559800  1
  O  O48  1  0.03059200  0.07897600  0.87200400  1
  O  O49  1  0.03705000  0.11148700  0.37487900  1
  O  O50  1  0.66861400  0.10591900  0.12522000  1
  O  O51  1  0.66416100  0.10519000  0.62479000  1
