# generated using pymatgen
data_LiV2OF5
_symmetry_space_group_name_H-M   'P 1'
_cell_length_a   5.22439900
_cell_length_b   5.52429841
_cell_length_c   17.32514200
_cell_angle_alpha   84.57454826
_cell_angle_beta   82.76469510
_cell_angle_gamma   62.08987082
_symmetry_Int_Tables_number   1
_chemical_formula_structural   LiV2OF5
_chemical_formula_sum   'Li4 V8 O4 F20'
_cell_volume   437.98210194
_cell_formula_units_Z   4
loop_
 _symmetry_equiv_pos_site_id
 _symmetry_equiv_pos_as_xyz
  1  'x, y, z'
loop_
 _atom_site_type_symbol
 _atom_site_label
 _atom_site_symmetry_multiplicity
 _atom_site_fract_x
 _atom_site_fract_y
 _atom_site_fract_z
 _atom_site_occupancy
  Li  Li0  1  0.50369200  0.66647000  0.31283100  1
  Li  Li1  1  0.62290700  0.79408200  0.91959800  1
  Li  Li2  1  0.74608900  0.92274400  0.56203700  1
  Li  Li3  1  0.27481400  0.40922200  0.05681000  1
  V  V4  1  0.65571200  0.60307400  0.12821100  1
  V  V5  1  0.73089700  0.76936200  0.74344400  1
  V  V6  1  0.13621700  0.12168000  0.62938500  1
  V  V7  1  0.24046400  0.25566100  0.24400400  1
  V  V8  1  0.89689300  0.86186700  0.37770400  1
  V  V9  1  0.01869200  0.97848500  0.99773000  1
  V  V10  1  0.36676600  0.40458700  0.87453200  1
  V  V11  1  0.48004600  0.51164900  0.49604500  1
  O  O12  1  0.50863600  0.91819900  0.65994400  1
  O  O13  1  0.03321700  0.40743100  0.15608600  1
  O  O14  1  0.26731000  0.66132100  0.40943300  1
  O  O15  1  0.30250900  0.68511200  0.94117600  1
  F  F16  1  0.23730900  0.79923800  0.09142600  1
  F  F17  1  0.16254200  0.81407000  0.56525400  1
  F  F18  1  0.68873200  0.29706000  0.06438800  1
  F  F19  1  0.55395200  0.93772800  0.18105000  1
  F  F20  1  0.52512100  0.53978100  0.78465800  1
  F  F21  1  0.74104100  0.31888800  0.58354300  1
  F  F22  1  0.07907100  0.00020200  0.28152300  1
  F  F23  1  0.78790900  0.75821600  0.02500200  1
  F  F24  1  0.70701200  0.73119500  0.47508000  1
  F  F25  1  0.92252700  0.55638300  0.31402500  1
  F  F26  1  0.04014900  0.45313500  0.68364300  1
  F  F27  1  0.95072200  0.60010600  0.84450600  1
  F  F28  1  0.31713900  0.25945500  0.53378100  1
  F  F29  1  0.49797900  0.05749800  0.33285900  1
  F  F30  1  0.24309800  0.20705800  0.97282200  1
  F  F31  1  0.94374100  0.98097300  0.72025800  1
  F  F32  1  0.47531000  0.46807400  0.22651200  1
  F  F33  1  0.45315900  0.05425600  0.82653300  1
  F  F34  1  0.79055300  0.19540000  0.43203800  1
  F  F35  1  0.77325200  0.16269100  0.91310400  1
