# generated using pymatgen
data_LiP4WO12
_symmetry_space_group_name_H-M   'P 1'
_cell_length_a   7.60237789
_cell_length_b   7.60237789
_cell_length_c   18.25599900
_cell_angle_alpha   90.00000000
_cell_angle_beta   90.00000000
_cell_angle_gamma   100.42167410
_symmetry_Int_Tables_number   1
_chemical_formula_structural   LiP4WO12
_chemical_formula_sum   'Li4 P16 W4 O48'
_cell_volume   1037.72014646
_cell_formula_units_Z   4
loop_
 _symmetry_equiv_pos_site_id
 _symmetry_equiv_pos_as_xyz
  1  'x, y, z'
loop_
 _atom_site_type_symbol
 _atom_site_label
 _atom_site_symmetry_multiplicity
 _atom_site_fract_x
 _atom_site_fract_y
 _atom_site_fract_z
 _atom_site_occupancy
  Li  Li0  1  0.19493700  0.10148300  0.64484200  1
  Li  Li1  1  0.89851700  0.80506300  0.85515800  1
  Li  Li2  1  0.80506300  0.89851700  0.14484200  1
  Li  Li3  1  0.10148300  0.19493700  0.35515800  1
  P  P4  1  0.04639100  0.75885700  0.34502100  1
  P  P5  1  0.24114300  0.95360900  0.15497900  1
  P  P6  1  0.29349500  0.77754600  0.01277900  1
  P  P7  1  0.22245400  0.70650500  0.48722100  1
  P  P8  1  0.37113400  0.62886600  0.75000000  1
  P  P9  1  0.67158200  0.74433900  0.30783200  1
  P  P10  1  0.25566100  0.32841800  0.19216800  1
  P  P11  1  0.35899000  0.35899000  0.50000000  1
  P  P12  1  0.64101000  0.64101000  0.00000000  1
  P  P13  1  0.74433900  0.67158200  0.69216800  1
  P  P14  1  0.32841800  0.25566100  0.80783200  1
  P  P15  1  0.62886600  0.37113400  0.25000000  1
  P  P16  1  0.77754600  0.29349500  0.98722100  1
  P  P17  1  0.70650500  0.22245400  0.51277900  1
  P  P18  1  0.75885700  0.04639100  0.65497900  1
  P  P19  1  0.95360900  0.24114300  0.84502100  1
  W  W20  1  0.56489500  0.96086100  0.88137200  1
  W  W21  1  0.03913900  0.43510500  0.61862800  1
  W  W22  1  0.43510500  0.03913900  0.38137200  1
  W  W23  1  0.96086100  0.56489500  0.11862800  1
  O  O24  1  0.15194800  0.94989600  0.35194200  1
  O  O25  1  0.05010400  0.84805200  0.14805800  1
  O  O26  1  0.06166000  0.64512000  0.28154200  1
  O  O27  1  0.35488000  0.93834000  0.21845800  1
  O  O28  1  0.10954300  0.66814900  0.02128000  1
  O  O29  1  0.33185100  0.89045700  0.47872000  1
  O  O30  1  0.09164200  0.65133800  0.41984600  1
  O  O31  1  0.34866200  0.90835800  0.08015400  1
  O  O32  1  0.12197800  0.67955500  0.55842600  1
  O  O33  1  0.32044500  0.87802200  0.94157400  1
  O  O34  1  0.40755500  0.79582100  0.79552700  1
  O  O35  1  0.20417900  0.59244500  0.70447300  1
  O  O36  1  0.52320800  0.80202600  0.35110600  1
  O  O37  1  0.19797400  0.47679200  0.14889400  1
  O  O38  1  0.35898600  0.56364400  0.48215300  1
  O  O39  1  0.43635600  0.64101400  0.01784700  1
  O  O40  1  0.78078800  0.84262200  0.63670900  1
  O  O41  1  0.15737800  0.21921200  0.86329100  1
  O  O42  1  0.52891900  0.61844800  0.69205600  1
  O  O43  1  0.38155200  0.47108100  0.80794400  1
  O  O44  1  0.25036800  0.30487200  0.56874200  1
  O  O45  1  0.69512800  0.74963200  0.93125800  1
  O  O46  1  0.71823100  0.81751200  0.23402800  1
  O  O47  1  0.18248800  0.28176900  0.26597200  1
  O  O48  1  0.28176900  0.18248800  0.73402800  1
  O  O49  1  0.81751200  0.71823100  0.76597200  1
  O  O50  1  0.30487200  0.25036800  0.43125800  1
  O  O51  1  0.74963200  0.69512800  0.06874200  1
  O  O52  1  0.61844800  0.52891900  0.30794400  1
  O  O53  1  0.47108100  0.38155200  0.19205600  1
  O  O54  1  0.21921200  0.15737800  0.13670900  1
  O  O55  1  0.84262200  0.78078800  0.36329100  1
  O  O56  1  0.64101400  0.43635600  0.98215300  1
  O  O57  1  0.56364400  0.35898600  0.51784700  1
  O  O58  1  0.47679200  0.19797400  0.85110600  1
  O  O59  1  0.80202600  0.52320800  0.64889400  1
  O  O60  1  0.79582100  0.40755500  0.20447300  1
  O  O61  1  0.59244500  0.20417900  0.29552700  1
  O  O62  1  0.67955500  0.12197800  0.44157400  1
  O  O63  1  0.87802200  0.32044500  0.05842600  1
  O  O64  1  0.65133800  0.09164200  0.58015400  1
  O  O65  1  0.90835800  0.34866200  0.91984600  1
  O  O66  1  0.89045700  0.33185100  0.52128000  1
  O  O67  1  0.66814900  0.10954300  0.97872000  1
  O  O68  1  0.64512000  0.06166000  0.71845800  1
  O  O69  1  0.93834000  0.35488000  0.78154200  1
  O  O70  1  0.94989600  0.15194800  0.64805800  1
  O  O71  1  0.84805200  0.05010400  0.85194200  1
