# generated using pymatgen
data_Li6Cr(BO3)3
_symmetry_space_group_name_H-M   'P 1'
_cell_length_a   16.60805100
_cell_length_b   6.49899400
_cell_length_c   6.98738968
_cell_angle_alpha   76.26023083
_cell_angle_beta   90.00000000
_cell_angle_gamma   90.00000000
_symmetry_Int_Tables_number   1
_chemical_formula_structural   Li6Cr(BO3)3
_chemical_formula_sum   'Li24 Cr4 B12 O36'
_cell_volume   732.60678628
_cell_formula_units_Z   4
loop_
 _symmetry_equiv_pos_site_id
 _symmetry_equiv_pos_as_xyz
  1  'x, y, z'
loop_
 _atom_site_type_symbol
 _atom_site_label
 _atom_site_symmetry_multiplicity
 _atom_site_fract_x
 _atom_site_fract_y
 _atom_site_fract_z
 _atom_site_occupancy
  Li  Li0  1  0.00682300  0.32461500  0.06977400  1
  Li  Li1  1  0.44564000  0.40020300  0.13821400  1
  Li  Li2  1  0.49317700  0.82461500  0.06977400  1
  Li  Li3  1  0.53867500  0.05002100  0.31261700  1
  Li  Li4  1  0.05436000  0.90020300  0.13821400  1
  Li  Li5  1  0.29803700  0.37765600  0.27444700  1
  Li  Li6  1  0.96132500  0.55002100  0.31261700  1
  Li  Li7  1  0.70933000  0.05075700  0.40084200  1
  Li  Li8  1  0.04376300  0.16416700  0.45742200  1
  Li  Li9  1  0.20196300  0.87765600  0.27444700  1
  Li  Li10  1  0.79067000  0.55075700  0.40084200  1
  Li  Li11  1  0.45623700  0.66416700  0.45742200  1
  Li  Li12  1  0.54376300  0.33583300  0.54257800  1
  Li  Li13  1  0.20933000  0.44924300  0.59915800  1
  Li  Li14  1  0.79803700  0.12234400  0.72555300  1
  Li  Li15  1  0.95623700  0.83583300  0.54257800  1
  Li  Li16  1  0.29067000  0.94924300  0.59915800  1
  Li  Li17  1  0.03867500  0.44997900  0.68738300  1
  Li  Li18  1  0.70196300  0.62234400  0.72555300  1
  Li  Li19  1  0.94564000  0.09979700  0.86178600  1
  Li  Li20  1  0.46132500  0.94997900  0.68738300  1
  Li  Li21  1  0.50682300  0.17538500  0.93022600  1
  Li  Li22  1  0.55436000  0.59979700  0.86178600  1
  Li  Li23  1  0.99317700  0.67538500  0.93022600  1
  Cr  Cr24  1  0.80630000  0.33219600  0.05540900  1
  Cr  Cr25  1  0.69370000  0.83219600  0.05540900  1
  Cr  Cr26  1  0.30630000  0.16780400  0.94459100  1
  Cr  Cr27  1  0.19370000  0.66780400  0.94459100  1
  B  B28  1  0.63737000  0.35045800  0.08121600  1
  B  B29  1  0.86263000  0.85045800  0.08121600  1
  B  B30  1  0.12795000  0.50597900  0.27804200  1
  B  B31  1  0.88855100  0.19138000  0.42480700  1
  B  B32  1  0.37205000  0.00597900  0.27804200  1
  B  B33  1  0.61144900  0.69138000  0.42480700  1
  B  B34  1  0.38855100  0.30862000  0.57519300  1
  B  B35  1  0.62795000  0.99402100  0.72195800  1
  B  B36  1  0.11144900  0.80862000  0.57519300  1
  B  B37  1  0.87205000  0.49402100  0.72195800  1
  B  B38  1  0.13737000  0.14954200  0.91878400  1
  B  B39  1  0.36263000  0.64954200  0.91878400  1
  O  O40  1  0.33555500  0.44417800  0.99422000  1
  O  O41  1  0.41740400  0.05061700  0.10513500  1
  O  O42  1  0.55656300  0.31406400  0.10748200  1
  O  O43  1  0.69502700  0.19015300  0.10925000  1
  O  O44  1  0.16444500  0.94417800  0.99422000  1
  O  O45  1  0.08259600  0.55061700  0.10513500  1
  O  O46  1  0.29158400  0.06856400  0.24562200  1
  O  O47  1  0.94343700  0.81406400  0.10748200  1
  O  O48  1  0.80497300  0.69015300  0.10925000  1
  O  O49  1  0.95136200  0.25800900  0.29917900  1
  O  O50  1  0.20841600  0.56856400  0.24562200  1
  O  O51  1  0.54863800  0.75800900  0.29917900  1
  O  O52  1  0.80946000  0.24470400  0.35901500  1
  O  O53  1  0.40301200  0.42790600  0.38694700  1
  O  O54  1  0.59956300  0.08220100  0.53809800  1
  O  O55  1  0.09956300  0.41779900  0.46190200  1
  O  O56  1  0.69054000  0.74470400  0.35901500  1
  O  O57  1  0.90301200  0.07209400  0.61305300  1
  O  O58  1  0.09698800  0.92790600  0.38694700  1
  O  O59  1  0.30946000  0.25529600  0.64098500  1
  O  O60  1  0.90043700  0.58220100  0.53809800  1
  O  O61  1  0.40043700  0.91779900  0.46190200  1
  O  O62  1  0.59698800  0.57209400  0.61305300  1
  O  O63  1  0.19054000  0.75529600  0.64098500  1
  O  O64  1  0.45136200  0.24199100  0.70082100  1
  O  O65  1  0.79158400  0.43143600  0.75437800  1
  O  O66  1  0.04863800  0.74199100  0.70082100  1
  O  O67  1  0.19502700  0.30984700  0.89075000  1
  O  O68  1  0.05656300  0.18593600  0.89251800  1
  O  O69  1  0.70841600  0.93143600  0.75437800  1
  O  O70  1  0.91740400  0.44938300  0.89486500  1
  O  O71  1  0.83555500  0.05582200  0.00578000  1
  O  O72  1  0.30497300  0.80984700  0.89075000  1
  O  O73  1  0.44343700  0.68593600  0.89251800  1
  O  O74  1  0.58259600  0.94938300  0.89486500  1
  O  O75  1  0.66444500  0.55582200  0.00578000  1
