# generated using pymatgen
data_Li2Sn(BO3)2
_symmetry_space_group_name_H-M   'P 1'
_cell_length_a   8.98132500
_cell_length_b   5.22364600
_cell_length_c   10.48521604
_cell_angle_alpha   86.81687050
_cell_angle_beta   90.00000000
_cell_angle_gamma   90.00000000
_symmetry_Int_Tables_number   1
_chemical_formula_structural   Li2Sn(BO3)2
_chemical_formula_sum   'Li8 Sn4 B8 O24'
_cell_volume   491.15771188
_cell_formula_units_Z   4
loop_
 _symmetry_equiv_pos_site_id
 _symmetry_equiv_pos_as_xyz
  1  'x, y, z'
loop_
 _atom_site_type_symbol
 _atom_site_label
 _atom_site_symmetry_multiplicity
 _atom_site_fract_x
 _atom_site_fract_y
 _atom_site_fract_z
 _atom_site_occupancy
  Li  Li0  1  0.34321000  0.05362100  0.38995100  1
  Li  Li1  1  0.02815300  0.05488700  0.84893000  1
  Li  Li2  1  0.84321000  0.94637900  0.61004900  1
  Li  Li3  1  0.52815300  0.94511300  0.15107000  1
  Li  Li4  1  0.48417600  0.57852900  0.33835300  1
  Li  Li5  1  0.45862400  0.61193400  0.93263500  1
  Li  Li6  1  0.98417600  0.42147100  0.66164700  1
  Li  Li7  1  0.95862400  0.38806600  0.06736500  1
  Sn  Sn8  1  0.69453200  0.11619200  0.87803400  1
  Sn  Sn9  1  0.19453200  0.88380800  0.12196600  1
  Sn  Sn10  1  0.83018100  0.59555800  0.37640800  1
  Sn  Sn11  1  0.33018100  0.40444200  0.62359200  1
  B  B12  1  0.66874500  0.07830700  0.36579300  1
  B  B13  1  0.35080800  0.10464200  0.88164200  1
  B  B14  1  0.16874500  0.92169300  0.63420700  1
  B  B15  1  0.85080800  0.89535800  0.11835800  1
  B  B16  1  0.17096200  0.58030800  0.38013600  1
  B  B17  1  0.79945800  0.57373700  0.87150300  1
  B  B18  1  0.67096200  0.41969200  0.61986400  1
  B  B19  1  0.29945800  0.42626300  0.12849700  1
  O  O20  1  0.68889400  0.17830400  0.68100100  1
  O  O21  1  0.34305500  0.17595400  0.15293300  1
  O  O22  1  0.05100400  0.07051200  0.66218900  1
  O  O23  1  0.98421200  0.02447900  0.09498100  1
  O  O24  1  0.72155900  0.01269500  0.07243900  1
  O  O25  1  0.80782300  0.97637800  0.40432300  1
  O  O26  1  0.30782300  0.02362200  0.59567700  1
  O  O27  1  0.22155900  0.98730500  0.92756100  1
  O  O28  1  0.48421200  0.97552100  0.90501900  1
  O  O29  1  0.55100400  0.92948800  0.33781100  1
  O  O30  1  0.18889400  0.82169600  0.31899900  1
  O  O31  1  0.84305500  0.82404600  0.84706700  1
  O  O32  1  0.15811900  0.65194000  0.64407500  1
  O  O33  1  0.84860400  0.65375000  0.18045900  1
  O  O34  1  0.39788000  0.63214600  0.13031500  1
  O  O35  1  0.53641000  0.53780100  0.59541000  1
  O  O36  1  0.80095700  0.55059400  0.57767800  1
  O  O37  1  0.65306200  0.50406000  0.89776200  1
  O  O38  1  0.15306200  0.49594000  0.10223800  1
  O  O39  1  0.30095700  0.44940600  0.42232200  1
  O  O40  1  0.03641000  0.46219900  0.40459000  1
  O  O41  1  0.89788000  0.36785400  0.86968500  1
  O  O42  1  0.65811900  0.34806000  0.35592500  1
  O  O43  1  0.34860400  0.34625000  0.81954100  1
