# generated using pymatgen
data_Li2Sn(BO3)2
_symmetry_space_group_name_H-M   'P 1'
_cell_length_a   6.50745100
_cell_length_b   8.15451900
_cell_length_c   9.94281800
_cell_angle_alpha   64.18143446
_cell_angle_beta   90.00000000
_cell_angle_gamma   90.00000000
_symmetry_Int_Tables_number   1
_chemical_formula_structural   Li2Sn(BO3)2
_chemical_formula_sum   'Li8 Sn4 B8 O24'
_cell_volume   474.94901748
_cell_formula_units_Z   4
loop_
 _symmetry_equiv_pos_site_id
 _symmetry_equiv_pos_as_xyz
  1  'x, y, z'
loop_
 _atom_site_type_symbol
 _atom_site_label
 _atom_site_symmetry_multiplicity
 _atom_site_fract_x
 _atom_site_fract_y
 _atom_site_fract_z
 _atom_site_occupancy
  Li  Li0  1  0.99335300  0.59356900  0.50667200  1
  Li  Li1  1  0.49789700  0.42956900  0.98345400  1
  Li  Li2  1  0.47652700  0.80558300  0.45345600  1
  Li  Li3  1  0.52347300  0.80558300  0.95345600  1
  Li  Li4  1  0.16951000  0.27001800  0.14551000  1
  Li  Li5  1  0.00664700  0.59356900  0.00667200  1
  Li  Li6  1  0.83049000  0.27001800  0.64551000  1
  Li  Li7  1  0.50210300  0.42956900  0.48345400  1
  Sn  Sn8  1  0.20353700  0.82271400  0.17183700  1
  Sn  Sn9  1  0.79646300  0.82271400  0.67183700  1
  Sn  Sn10  1  0.70960600  0.19147900  0.30799500  1
  Sn  Sn11  1  0.29039400  0.19147900  0.80799500  1
  B  B12  1  0.09127900  0.46900600  0.80787200  1
  B  B13  1  0.60579000  0.53510800  0.69827500  1
  B  B14  1  0.57508300  0.07132800  0.12093400  1
  B  B15  1  0.08117700  0.92703900  0.38943900  1
  B  B16  1  0.42491700  0.07132800  0.62093400  1
  B  B17  1  0.91882300  0.92703900  0.88943900  1
  B  B18  1  0.90872100  0.46900600  0.30787200  1
  B  B19  1  0.39421000  0.53510800  0.19827500  1
  O  O20  1  0.54654500  0.36557300  0.71245300  1
  O  O21  1  0.05461600  0.39250300  0.70766200  1
  O  O22  1  0.22314600  0.35941400  0.92531700  1
  O  O23  1  0.71292900  0.64866300  0.56732200  1
  O  O24  1  0.57840500  0.61353900  0.79484700  1
  O  O25  1  0.44705800  0.00586500  0.04059500  1
  O  O26  1  0.19225800  0.77714800  0.46675700  1
  O  O27  1  0.01957300  0.63130800  0.79682300  1
  O  O28  1  0.57138500  0.98167700  0.27613800  1
  O  O29  1  0.09734600  0.01723200  0.23301300  1
  O  O30  1  0.68625900  0.22762300  0.06417700  1
  O  O31  1  0.93190700  0.99547100  0.45403500  1
  O  O32  1  0.55294200  0.00586500  0.54059500  1
  O  O33  1  0.80774200  0.77714800  0.96675700  1
  O  O34  1  0.42861500  0.98167700  0.77613800  1
  O  O35  1  0.90265400  0.01723200  0.73301300  1
  O  O36  1  0.45345500  0.36557300  0.21245300  1
  O  O37  1  0.31374100  0.22762300  0.56417700  1
  O  O38  1  0.06809300  0.99547100  0.95403500  1
  O  O39  1  0.94538400  0.39250300  0.20766200  1
  O  O40  1  0.77685400  0.35941400  0.42531700  1
  O  O41  1  0.28707100  0.64866300  0.06732200  1
  O  O42  1  0.42159500  0.61353900  0.29484700  1
  O  O43  1  0.98042700  0.63130800  0.29682300  1
