# generated using pymatgen
data_Li4V3Sn3(SbO8)2
_symmetry_space_group_name_H-M   'P 1'
_cell_length_a   6.20744840
_cell_length_b   20.49734838
_cell_length_c   6.25467008
_cell_angle_alpha   89.42318316
_cell_angle_beta   119.46090090
_cell_angle_gamma   90.15049023
_symmetry_Int_Tables_number   1
_chemical_formula_structural   Li4V3Sn3(SbO8)2
_chemical_formula_sum   'Li8 V6 Sn6 Sb4 O32'
_cell_volume   692.87671927
_cell_formula_units_Z   2
loop_
 _symmetry_equiv_pos_site_id
 _symmetry_equiv_pos_as_xyz
  1  'x, y, z'
loop_
 _atom_site_type_symbol
 _atom_site_label
 _atom_site_symmetry_multiplicity
 _atom_site_fract_x
 _atom_site_fract_y
 _atom_site_fract_z
 _atom_site_occupancy
  Li  Li0  1  0.66711100  0.44581500  0.33972200  1
  Li  Li1  1  0.66707900  0.94579200  0.33963200  1
  Li  Li2  1  0.99318500  0.49632400  0.98421600  1
  Li  Li3  1  0.99326300  0.99629200  0.98439200  1
  Li  Li4  1  0.99749400  0.24925200  0.98987600  1
  Li  Li5  1  0.99735800  0.74920800  0.98969800  1
  Li  Li6  1  0.33051700  0.19909000  0.66391600  1
  Li  Li7  1  0.33057800  0.69908000  0.66403300  1
  V  V8  1  0.83050400  0.60833300  0.66219800  1
  V  V9  1  0.66388700  0.35779000  0.83222200  1
  V  V10  1  0.16949400  0.35736500  0.82837200  1
  V  V11  1  0.83045800  0.10834600  0.66216600  1
  V  V12  1  0.66389100  0.85778800  0.83208400  1
  V  V13  1  0.16945600  0.85735400  0.82835700  1
  Sn  Sn14  1  0.83358200  0.10750800  0.16936900  1
  Sn  Sn15  1  0.83353600  0.60748700  0.16935300  1
  Sn  Sn16  1  0.33583200  0.10769600  0.16983600  1
  Sn  Sn17  1  0.33587000  0.60767800  0.16980200  1
  Sn  Sn18  1  0.16995400  0.35744000  0.33488300  1
  Sn  Sn19  1  0.16992100  0.85743600  0.33489800  1
  Sb  Sb20  1  0.66738600  0.24856900  0.33107100  1
  Sb  Sb21  1  0.66746600  0.74859700  0.33119400  1
  Sb  Sb22  1  0.33497200  0.49509000  0.67376500  1
  Sb  Sb23  1  0.33511500  0.99506100  0.67416100  1
  O  O24  1  0.83815000  0.30125500  0.14427900  1
  O  O25  1  0.83816800  0.80127700  0.14422100  1
  O  O26  1  0.51874200  0.17117900  0.03520900  1
  O  O27  1  0.51875600  0.67123800  0.03527900  1
  O  O28  1  0.66336300  0.05212500  0.32869000  1
  O  O29  1  0.66372800  0.55217400  0.32936500  1
  O  O30  1  0.00054000  0.15925500  0.99975500  1
  O  O31  1  0.00026100  0.65918800  0.99922000  1
  O  O32  1  0.00937200  0.40707400  0.00102800  1
  O  O33  1  0.00947500  0.90709200  0.00106800  1
  O  O34  1  0.30808800  0.30040400  0.14416500  1
  O  O35  1  0.30800300  0.80041200  0.14417100  1
  O  O36  1  0.97216800  0.16319500  0.48758900  1
  O  O37  1  0.97189400  0.66305600  0.48819400  1
  O  O38  1  0.51572700  0.16264100  0.48983000  1
  O  O39  1  0.51662300  0.66246200  0.49051100  1
  O  O40  1  0.15147800  0.04749000  0.30493500  1
  O  O41  1  0.15157100  0.54737100  0.30508500  1
  O  O42  1  0.86989100  0.30910500  0.71161900  1
  O  O43  1  0.86981900  0.80911400  0.71167300  1
  O  O44  1  0.49293200  0.41448400  0.52501300  1
  O  O45  1  0.49303000  0.91443800  0.52506400  1
  O  O46  1  0.03161800  0.41473800  0.52480600  1
  O  O47  1  0.03153500  0.91471600  0.52479800  1
  O  O48  1  0.32145500  0.30381200  0.66556700  1
  O  O49  1  0.32134600  0.80379500  0.66546000  1
  O  O50  1  0.69501000  0.05319600  0.84600700  1
  O  O51  1  0.69533400  0.55331200  0.84535900  1
  O  O52  1  0.46745400  0.40989000  0.96751400  1
  O  O53  1  0.46753000  0.90992900  0.96750400  1
  O  O54  1  0.15032900  0.05394500  0.84426600  1
  O  O55  1  0.14930000  0.55409000  0.84354400  1
