# generated using pymatgen
data_Li3V3P8O29
_symmetry_space_group_name_H-M   'P 1'
_cell_length_a   9.77988700
_cell_length_b   9.78094359
_cell_length_c   14.15049945
_cell_angle_alpha   89.62055779
_cell_angle_beta   89.65352654
_cell_angle_gamma   60.14178840
_symmetry_Int_Tables_number   1
_chemical_formula_structural   Li3V3P8O29
_chemical_formula_sum   'Li6 V6 P16 O58'
_cell_volume   1173.88083660
_cell_formula_units_Z   2
loop_
 _symmetry_equiv_pos_site_id
 _symmetry_equiv_pos_as_xyz
  1  'x, y, z'
loop_
 _atom_site_type_symbol
 _atom_site_label
 _atom_site_symmetry_multiplicity
 _atom_site_fract_x
 _atom_site_fract_y
 _atom_site_fract_z
 _atom_site_occupancy
  Li  Li0  1  0.09387000  0.68227900  0.05736600  1
  Li  Li1  1  0.31018300  0.91159000  0.44345500  1
  Li  Li2  1  0.69288100  0.08208900  0.55838400  1
  Li  Li3  1  0.77385900  0.91514500  0.94207400  1
  Li  Li4  1  0.77258200  0.31979200  0.44150600  1
  Li  Li5  1  0.91479000  0.30971300  0.94186700  1
  V  V6  1  0.00193600  0.43267500  0.74301500  1
  V  V7  1  0.43116500  0.56926600  0.75314900  1
  V  V8  1  0.43144800  0.00253000  0.24474000  1
  V  V9  1  0.56200900  0.99983800  0.75204300  1
  V  V10  1  0.56327700  0.43272100  0.24340200  1
  V  V11  1  0.99482200  0.56995700  0.26013000  1
  P  P12  1  0.08526800  0.68087300  0.83970400  1
  P  P13  1  0.23303600  0.68346400  0.34217500  1
  P  P14  1  0.08735100  0.22646200  0.33973600  1
  P  P15  1  0.33879500  0.33318500  0.63073700  1
  P  P16  1  0.32677400  0.33877900  0.12923000  1
  P  P17  1  0.22500900  0.08739500  0.84236100  1
  P  P18  1  0.31647100  0.91204600  0.65982600  1
  P  P19  1  0.68363200  0.22964200  0.84159000  1
  P  P20  1  0.31415100  0.77181700  0.15758800  1
  P  P21  1  0.67932600  0.08954200  0.34060400  1
  P  P22  1  0.77271900  0.91021000  0.15979200  1
  P  P23  1  0.67112200  0.66275900  0.86938600  1
  P  P24  1  0.65883300  0.66677800  0.37079900  1
  P  P25  1  0.91337500  0.77346800  0.65644100  1
  P  P26  1  0.76595000  0.31967300  0.65844100  1
  P  P27  1  0.91437900  0.32161400  0.15815100  1
  O  O28  1  0.00039200  0.76395800  0.56978700  1
  O  O29  1  0.09019200  0.65455100  0.33458400  1
  O  O30  1  0.20864000  0.79203200  0.24990600  1
  O  O31  1  0.23447200  0.76253800  0.07178700  1
  O  O32  1  0.09373000  0.52118000  0.82061600  1
  O  O33  1  0.25361200  0.65740900  0.83433900  1
  O  O34  1  0.17995300  0.48746700  0.16963100  1
  O  O35  1  0.09727400  0.38057300  0.32466100  1
  O  O36  1  0.98744000  0.25552500  0.06610200  1
  O  O37  1  0.08121100  0.25794700  0.83639100  1
  O  O38  1  0.33982600  0.47760900  0.67704800  1
  O  O39  1  0.18724700  0.33465900  0.67405200  1
  O  O40  1  0.38464800  0.52375300  0.32195600  1
  O  O41  1  0.34425800  0.32829600  0.52630500  1
  O  O42  1  0.33568800  0.33445300  0.02485400  1
  O  O43  1  0.52362100  0.38254200  0.82506700  1
  O  O44  1  0.33254500  0.18604700  0.17456300  1
  O  O45  1  0.47782800  0.33708600  0.17450100  1
  O  O46  1  0.25650600  0.08167200  0.33889800  1
  O  O47  1  0.20404100  0.00809600  0.74646200  1
  O  O48  1  0.23837700  0.99960200  0.92938400  1
  O  O49  1  0.25403000  0.98917500  0.56784400  1
  O  O50  1  0.37994400  0.09625700  0.82021300  1
  O  O51  1  0.48889500  0.18044800  0.67262800  1
  O  O52  1  0.65805200  0.25794500  0.33482100  1
  O  O53  1  0.34343400  0.91348700  0.16569600  1
  O  O54  1  0.52074400  0.09520600  0.31869500  1
  O  O55  1  0.23944200  0.76447300  0.42795500  1
  O  O56  1  0.75743200  0.24539900  0.56813000  1
  O  O57  1  0.47872600  0.90282600  0.68191000  1
  O  O58  1  0.65956800  0.08356900  0.84083000  1
  O  O59  1  0.78480500  0.20474000  0.74488900  1
  O  O60  1  0.34179300  0.74352300  0.67063300  1
  O  O61  1  0.51201200  0.81716700  0.32879300  1
  O  O62  1  0.61881200  0.90165700  0.17903800  1
  O  O63  1  0.76275800  0.98941000  0.06853100  1
  O  O64  1  0.74920000  0.01122000  0.43154800  1
  O  O65  1  0.79019500  0.99978200  0.25017500  1
  O  O66  1  0.74251800  0.91803200  0.66292500  1
  O  O67  1  0.52384000  0.66180500  0.82511800  1
  O  O68  1  0.47673700  0.61817400  0.17515000  1
  O  O69  1  0.67042700  0.81621100  0.82854300  1
  O  O70  1  0.66479400  0.66594500  0.47551800  1
  O  O71  1  0.67401300  0.66391500  0.97413700  1
  O  O72  1  0.61527900  0.47876800  0.67693300  1
  O  O73  1  0.81248800  0.66627900  0.32677600  1
  O  O74  1  0.66557100  0.51508900  0.33001900  1
  O  O75  1  0.91919800  0.74243600  0.16573600  1
  O  O76  1  0.99207300  0.79480200  0.75276800  1
  O  O77  1  0.00082400  0.75361500  0.93031400  1
  O  O78  1  0.90554700  0.61821500  0.67703200  1
  O  O79  1  0.81970500  0.51410500  0.82709600  1
  O  O80  1  0.74509900  0.34569400  0.17041800  1
  O  O81  1  0.90708300  0.47971800  0.18225600  1
  O  O82  1  0.77109700  0.23600800  0.92460500  1
  O  O83  1  0.91163500  0.34238100  0.66549400  1
  O  O84  1  0.99233400  0.23641100  0.42375500  1
  O  O85  1  0.01140000  0.20436700  0.24378000  1
