# generated using pymatgen
data_LiP4WO13
_symmetry_space_group_name_H-M   'P 1'
_cell_length_a   5.24342200
_cell_length_b   8.09168130
_cell_length_c   14.02169608
_cell_angle_alpha   78.79997911
_cell_angle_beta   85.84363319
_cell_angle_gamma   80.10186515
_symmetry_Int_Tables_number   1
_chemical_formula_structural   LiP4WO13
_chemical_formula_sum   'Li2 P8 W2 O26'
_cell_volume   574.42659594
_cell_formula_units_Z   2
loop_
 _symmetry_equiv_pos_site_id
 _symmetry_equiv_pos_as_xyz
  1  'x, y, z'
loop_
 _atom_site_type_symbol
 _atom_site_label
 _atom_site_symmetry_multiplicity
 _atom_site_fract_x
 _atom_site_fract_y
 _atom_site_fract_z
 _atom_site_occupancy
  Li  Li0  1  0.55580100  0.46093800  0.99759500  1
  Li  Li1  1  0.01019200  0.60941900  0.51404200  1
  P  P2  1  0.12714200  0.79708500  0.12861100  1
  P  P3  1  0.99745300  0.87897000  0.65516900  1
  P  P4  1  0.34805500  0.58117400  0.31292600  1
  P  P5  1  0.30693600  0.65371200  0.80360900  1
  P  P6  1  0.67366200  0.34125400  0.20499200  1
  P  P7  1  0.63697400  0.42748500  0.67917700  1
  P  P8  1  0.98456900  0.10211100  0.35083700  1
  P  P9  1  0.86543800  0.20731400  0.85931400  1
  W  W10  1  0.43201500  0.04901000  0.75380700  1
  W  W11  1  0.55576500  0.94850600  0.24038700  1
  O  O12  1  0.16241300  0.01592000  0.66671600  1
  O  O13  1  0.17163100  0.63793700  0.22031900  1
  O  O14  1  0.27089000  0.01742500  0.32934900  1
  O  O15  1  0.19266300  0.55774400  0.40461500  1
  O  O16  1  0.16429000  0.73960500  0.03475400  1
  O  O17  1  0.05908600  0.79749000  0.56920500  1
  O  O18  1  0.03127600  0.73480500  0.75712300  1
  O  O19  1  0.15883300  0.12909200  0.84387100  1
  O  O20  1  0.29914600  0.92691200  0.14560300  1
  O  O21  1  0.30072100  0.51182200  0.88705700  1
  O  O22  1  0.54147300  0.19775200  0.18095600  1
  O  O23  1  0.50587800  0.40017200  0.29731800  1
  O  O24  1  0.45579200  0.29322500  0.68466300  1
  O  O25  1  0.55022800  0.70252400  0.30437200  1
  O  O26  1  0.46775200  0.59572200  0.70937500  1
  O  O27  1  0.43039600  0.80520800  0.82160400  1
  O  O28  1  0.69271100  0.48213200  0.12136800  1
  O  O29  1  0.70654700  0.07219500  0.84037900  1
  O  O30  1  0.84014100  0.88138600  0.15233000  1
  O  O31  1  0.94310500  0.25448400  0.25185800  1
  O  O32  1  0.93781900  0.16847600  0.44164500  1
  O  O33  1  0.80001900  0.26957000  0.95150500  1
  O  O34  1  0.77383500  0.47840700  0.58565200  1
  O  O35  1  0.70717600  0.96230400  0.66570900  1
  O  O36  1  0.83465500  0.36190900  0.76567600  1
  O  O37  1  0.81358100  0.96974600  0.33495800  1
