# generated using pymatgen
data_Li2Ti3MnO8
_symmetry_space_group_name_H-M   'P 1'
_cell_length_a   8.56253500
_cell_length_b   8.56253500
_cell_length_c   8.56253500
_cell_angle_alpha   90.00000000
_cell_angle_beta   90.00000000
_cell_angle_gamma   90.00000000
_symmetry_Int_Tables_number   1
_chemical_formula_structural   Li2Ti3MnO8
_chemical_formula_sum   'Li8 Ti12 Mn4 O32'
_cell_volume   627.77942677
_cell_formula_units_Z   4
loop_
 _symmetry_equiv_pos_site_id
 _symmetry_equiv_pos_as_xyz
  1  'x, y, z'
loop_
 _atom_site_type_symbol
 _atom_site_label
 _atom_site_symmetry_multiplicity
 _atom_site_fract_x
 _atom_site_fract_y
 _atom_site_fract_z
 _atom_site_occupancy
  Li  Li0  1  0.00152800  0.00152800  0.00152800  1
  Li  Li1  1  0.24847200  0.24847200  0.24847200  1
  Li  Li2  1  0.25152800  0.75152800  0.74847200  1
  Li  Li3  1  0.49847200  0.99847200  0.50152800  1
  Li  Li4  1  0.50152800  0.49847200  0.99847200  1
  Li  Li5  1  0.74847200  0.25152800  0.75152800  1
  Li  Li6  1  0.75152800  0.74847200  0.25152800  1
  Li  Li7  1  0.99847200  0.50152800  0.49847200  1
  Ti  Ti8  1  0.12192900  0.12807100  0.62500000  1
  Ti  Ti9  1  0.12500000  0.37807100  0.87192900  1
  Ti  Ti10  1  0.12807100  0.62500000  0.12192900  1
  Ti  Ti11  1  0.37192900  0.37500000  0.62192900  1
  Ti  Ti12  1  0.37500000  0.62192900  0.37192900  1
  Ti  Ti13  1  0.37807100  0.87192900  0.12500000  1
  Ti  Ti14  1  0.62192900  0.37192900  0.37500000  1
  Ti  Ti15  1  0.62500000  0.12192900  0.12807100  1
  Ti  Ti16  1  0.62807100  0.87500000  0.87807100  1
  Ti  Ti17  1  0.87192900  0.12500000  0.37807100  1
  Ti  Ti18  1  0.87500000  0.87807100  0.62807100  1
  Ti  Ti19  1  0.87807100  0.62807100  0.87500000  1
  Mn  Mn20  1  0.12500000  0.87500000  0.37500000  1
  Mn  Mn21  1  0.37500000  0.12500000  0.87500000  1
  Mn  Mn22  1  0.62500000  0.62500000  0.62500000  1
  Mn  Mn23  1  0.87500000  0.37500000  0.12500000  1
  O  O24  1  0.09734300  0.13020900  0.39296100  1
  O  O25  1  0.10703900  0.90265700  0.63020900  1
  O  O26  1  0.11470800  0.61470800  0.88529200  1
  O  O27  1  0.11979100  0.15265700  0.85703900  1
  O  O28  1  0.13020900  0.39296100  0.09734300  1
  O  O29  1  0.13529200  0.36470800  0.63529200  1
  O  O30  1  0.14296100  0.61979100  0.34734300  1
  O  O31  1  0.15265700  0.85703900  0.11979100  1
  O  O32  1  0.34734300  0.14296100  0.61979100  1
  O  O33  1  0.35703900  0.38020900  0.84734300  1
  O  O34  1  0.36470800  0.63529200  0.13529200  1
  O  O35  1  0.36979100  0.60703900  0.59734300  1
  O  O36  1  0.38020900  0.84734300  0.35703900  1
  O  O37  1  0.38529200  0.38529200  0.38529200  1
  O  O38  1  0.39296100  0.09734300  0.13020900  1
  O  O39  1  0.40265700  0.86979100  0.89296100  1
  O  O40  1  0.59734300  0.36979100  0.60703900  1
  O  O41  1  0.60703900  0.59734300  0.36979100  1
  O  O42  1  0.61470800  0.88529200  0.11470800  1
  O  O43  1  0.61979100  0.34734300  0.14296100  1
  O  O44  1  0.63020900  0.10703900  0.90265700  1
  O  O45  1  0.63529200  0.13529200  0.36470800  1
  O  O46  1  0.64296100  0.88020900  0.65265700  1
  O  O47  1  0.65265700  0.64296100  0.88020900  1
  O  O48  1  0.84734300  0.35703900  0.38020900  1
  O  O49  1  0.85703900  0.11979100  0.15265700  1
  O  O50  1  0.86470800  0.86470800  0.86470800  1
  O  O51  1  0.86979100  0.89296100  0.40265700  1
  O  O52  1  0.88020900  0.65265700  0.64296100  1
  O  O53  1  0.88529200  0.11470800  0.61470800  1
  O  O54  1  0.89296100  0.40265700  0.86979100  1
  O  O55  1  0.90265700  0.63020900  0.10703900  1
