# generated using pymatgen
data_Li5Fe3(NiO5)2
_symmetry_space_group_name_H-M   'P 1'
_cell_length_a   5.16873781
_cell_length_b   5.09475180
_cell_length_c   7.82961565
_cell_angle_alpha   110.08357656
_cell_angle_beta   102.97698570
_cell_angle_gamma   98.50346752
_symmetry_Int_Tables_number   1
_chemical_formula_structural   Li5Fe3(NiO5)2
_chemical_formula_sum   'Li5 Fe3 Ni2 O10'
_cell_volume   182.90745365
_cell_formula_units_Z   1
loop_
 _symmetry_equiv_pos_site_id
 _symmetry_equiv_pos_as_xyz
  1  'x, y, z'
loop_
 _atom_site_type_symbol
 _atom_site_label
 _atom_site_symmetry_multiplicity
 _atom_site_fract_x
 _atom_site_fract_y
 _atom_site_fract_z
 _atom_site_occupancy
  Li  Li0  1  0.22103600  0.89866300  0.41305900  1
  Li  Li1  1  0.38557400  0.28805000  0.77497800  1
  Li  Li2  1  0.50000000  0.50000000  0.50000000  1
  Li  Li3  1  0.61442600  0.71195000  0.22502200  1
  Li  Li4  1  0.77896400  0.10133700  0.58694100  1
  Fe  Fe5  1  0.00000000  0.50000000  0.00000000  1
  Fe  Fe6  1  0.68681500  0.88920100  0.88257100  1
  Fe  Fe7  1  0.31318500  0.11079900  0.11742900  1
  Ni  Ni8  1  0.09934100  0.70082600  0.69228900  1
  Ni  Ni9  1  0.90065900  0.29917400  0.30771100  1
  O  O10  1  0.04870100  0.09543300  0.85713200  1
  O  O11  1  0.32558100  0.70804200  0.93376600  1
  O  O12  1  0.12599100  0.32041600  0.54114800  1
  O  O13  1  0.24297000  0.49184100  0.23125300  1
  O  O14  1  0.45610500  0.90239100  0.66109100  1
  O  O15  1  0.54389500  0.09760900  0.33890900  1
  O  O16  1  0.75703000  0.50815900  0.76874700  1
  O  O17  1  0.87400900  0.67958400  0.45885200  1
  O  O18  1  0.67441900  0.29195800  0.06623400  1
  O  O19  1  0.95129900  0.90456700  0.14286800  1
