# generated using pymatgen
data_LiZn2Fe9O16
_symmetry_space_group_name_H-M   'P 1'
_cell_length_a   6.04503359
_cell_length_b   6.04983404
_cell_length_c   20.01459596
_cell_angle_alpha   98.87053323
_cell_angle_beta   89.74758090
_cell_angle_gamma   119.97586987
_symmetry_Int_Tables_number   1
_chemical_formula_structural   LiZn2Fe9O16
_chemical_formula_sum   'Li2 Zn4 Fe18 O32'
_cell_volume   624.20838555
_cell_formula_units_Z   2
loop_
 _symmetry_equiv_pos_site_id
 _symmetry_equiv_pos_as_xyz
  1  'x, y, z'
loop_
 _atom_site_type_symbol
 _atom_site_label
 _atom_site_symmetry_multiplicity
 _atom_site_fract_x
 _atom_site_fract_y
 _atom_site_fract_z
 _atom_site_occupancy
  Li  Li0  1  0.18200300  0.36968600  0.56016800  1
  Li  Li1  1  0.93885400  0.87683900  0.81310100  1
  Zn  Zn2  1  0.34418300  0.68854400  0.03079500  1
  Zn  Zn3  1  0.22041200  0.93873500  0.15627800  1
  Zn  Zn4  1  0.09738600  0.18829200  0.28279200  1
  Zn  Zn5  1  0.97280700  0.43617300  0.40870200  1
  Fe  Fe6  1  0.99586600  0.99724300  0.99619800  1
  Fe  Fe7  1  0.72053300  0.93905100  0.15634600  1
  Fe  Fe8  1  0.21914400  0.43761300  0.15639100  1
  Fe  Fe9  1  0.69324000  0.37525200  0.06535700  1
  Fe  Fe10  1  0.44604500  0.87128000  0.31358100  1
  Fe  Fe11  1  0.74711400  0.50604500  0.25064300  1
  Fe  Fe12  1  0.97197000  0.94358000  0.40809500  1
  Fe  Fe13  1  0.46315200  0.43391500  0.40765700  1
  Fe  Fe14  1  0.20492700  0.92763000  0.65480800  1
  Fe  Fe15  1  0.83855200  0.68505800  0.53414700  1
  Fe  Fe16  1  0.72094000  0.92707100  0.65475600  1
  Fe  Fe17  1  0.49004300  0.00373400  0.50135500  1
  Fe  Fe18  1  0.25104500  0.49714300  0.74767100  1
  Fe  Fe19  1  0.46854900  0.93851100  0.90392800  1
  Fe  Fe20  1  0.72432100  0.44506800  0.65486600  1
  Fe  Fe21  1  0.46971800  0.43178400  0.90365400  1
  Fe  Fe22  1  0.59775900  0.19010100  0.78313900  1
  Fe  Fe23  1  0.96282200  0.43238400  0.90429200  1
  O  O24  1  0.04941300  0.56385800  0.09568100  1
  O  O25  1  0.52704900  0.57246600  0.09712900  1
  O  O26  1  0.41066200  0.80431000  0.21341900  1
  O  O27  1  0.02759800  0.06897000  0.09572700  1
  O  O28  1  0.90506800  0.82615400  0.21574500  1
  O  O29  1  0.39196300  0.31260400  0.21556500  1
  O  O30  1  0.13062500  0.80934700  0.47177500  1
  O  O31  1  0.28673300  0.55217700  0.34652000  1
  O  O32  1  0.53474400  0.04829200  0.09530900  1
  O  O33  1  0.28338200  0.06810000  0.34867100  1
  O  O34  1  0.01864600  0.57513000  0.59741600  1
  O  O35  1  0.15898600  0.29811000  0.45947000  1
  O  O36  1  0.91026500  0.30523100  0.21437900  1
  O  O37  1  0.78131200  0.57073000  0.34993300  1
  O  O38  1  0.65718300  0.80408000  0.46816000  1
  O  O39  1  0.65693800  0.33344900  0.47166000  1
  O  O40  1  0.41568500  0.83133000  0.71783100  1
  O  O41  1  0.79780300  0.06191500  0.34663400  1
  O  O42  1  0.55839800  0.57511300  0.59708500  1
  O  O43  1  0.01238400  0.02890600  0.59623400  1
  O  O44  1  0.90124500  0.80571800  0.71103500  1
  O  O45  1  0.16290200  0.80529400  0.96288600  1
  O  O46  1  0.41599400  0.29930900  0.71714500  1
  O  O47  1  0.53094900  0.06464600  0.60095800  1
  O  O48  1  0.28468200  0.56626600  0.84744100  1
  O  O49  1  0.63958900  0.80375100  0.96185200  1
  O  O50  1  0.88781900  0.30036800  0.71700700  1
  O  O51  1  0.16202500  0.32516600  0.96280500  1
  O  O52  1  0.31730000  0.08111500  0.84763000  1
  O  O53  1  0.76913200  0.53329300  0.84721100  1
  O  O54  1  0.76630400  0.08177900  0.84762900  1
  O  O55  1  0.65494500  0.31138300  0.96577200  1
