# generated using pymatgen
data_Li3Cr(BO3)2
_symmetry_space_group_name_H-M   'P 1'
_cell_length_a   8.70554600
_cell_length_b   5.26296800
_cell_length_c   10.77113024
_cell_angle_alpha   63.55560201
_cell_angle_beta   90.00000000
_cell_angle_gamma   90.00000000
_symmetry_Int_Tables_number   1
_chemical_formula_structural   Li3Cr(BO3)2
_chemical_formula_sum   'Li12 Cr4 B8 O24'
_cell_volume   441.86446778
_cell_formula_units_Z   4
loop_
 _symmetry_equiv_pos_site_id
 _symmetry_equiv_pos_as_xyz
  1  'x, y, z'
loop_
 _atom_site_type_symbol
 _atom_site_label
 _atom_site_symmetry_multiplicity
 _atom_site_fract_x
 _atom_site_fract_y
 _atom_site_fract_z
 _atom_site_occupancy
  Li  Li0  1  0.95751400  0.52285200  0.85250700  1
  Li  Li1  1  0.65215500  0.44057200  0.87641400  1
  Li  Li2  1  0.15215500  0.55942800  0.62358600  1
  Li  Li3  1  0.96923700  0.92308700  0.38655400  1
  Li  Li4  1  0.45751400  0.47714800  0.64749300  1
  Li  Li5  1  0.46923700  0.07691300  0.11344600  1
  Li  Li6  1  0.53076300  0.92308700  0.88655400  1
  Li  Li7  1  0.54248600  0.52285200  0.35250700  1
  Li  Li8  1  0.03076300  0.07691300  0.61344600  1
  Li  Li9  1  0.84784500  0.44057200  0.37641400  1
  Li  Li10  1  0.34784500  0.55942800  0.12358600  1
  Li  Li11  1  0.04248600  0.47714800  0.14749300  1
  Cr  Cr12  1  0.29013800  0.01383100  0.37567000  1
  Cr  Cr13  1  0.20986200  0.01383100  0.87567000  1
  Cr  Cr14  1  0.79013800  0.98616900  0.12433000  1
  Cr  Cr15  1  0.70986200  0.98616900  0.62433000  1
  B  B16  1  0.30485700  0.45139700  0.88209500  1
  B  B17  1  0.64301600  0.97043100  0.36535600  1
  B  B18  1  0.80485700  0.54860300  0.61790500  1
  B  B19  1  0.14301600  0.02956900  0.13464400  1
  B  B20  1  0.85698400  0.97043100  0.86535600  1
  B  B21  1  0.19514300  0.45139700  0.38209500  1
  B  B22  1  0.35698400  0.02956900  0.63464400  1
  B  B23  1  0.69514300  0.54860300  0.11790500  1
  O  O24  1  0.32507000  0.83364500  0.58475400  1
  O  O25  1  0.91064900  0.75826000  0.60727800  1
  O  O26  1  0.65595100  0.32676500  0.09045600  1
  O  O27  1  0.65908100  0.59222100  0.65659900  1
  O  O28  1  0.26229000  0.16699400  0.16755800  1
  O  O29  1  0.15908100  0.40777900  0.84340100  1
  O  O30  1  0.99666900  0.10822000  0.15274900  1
  O  O31  1  0.49666900  0.89178000  0.34725100  1
  O  O32  1  0.41064900  0.24174000  0.89272200  1
  O  O33  1  0.76229000  0.83300600  0.33244200  1
  O  O34  1  0.82507000  0.16635500  0.91524600  1
  O  O35  1  0.15595100  0.67323500  0.40954400  1
  O  O36  1  0.84404900  0.32676500  0.59045600  1
  O  O37  1  0.17493000  0.83364500  0.08475400  1
  O  O38  1  0.23771000  0.16699400  0.66755800  1
  O  O39  1  0.58935100  0.75826000  0.10727800  1
  O  O40  1  0.50333100  0.10822000  0.65274900  1
  O  O41  1  0.00333100  0.89178000  0.84725100  1
  O  O42  1  0.84091900  0.59222100  0.15659900  1
  O  O43  1  0.73771000  0.83300600  0.83244200  1
  O  O44  1  0.34091900  0.40777900  0.34340100  1
  O  O45  1  0.34404900  0.67323500  0.90954400  1
  O  O46  1  0.08935100  0.24174000  0.39272200  1
  O  O47  1  0.67493000  0.16635500  0.41524600  1
