# generated using pymatgen
data_Li8V11O22
_symmetry_space_group_name_H-M   'P 1'
_cell_length_a   5.18336900
_cell_length_b   8.92672800
_cell_length_c   10.03221378
_cell_angle_alpha   114.17045152
_cell_angle_beta   95.51092403
_cell_angle_gamma   95.01838457
_symmetry_Int_Tables_number   1
_chemical_formula_structural   Li8V11O22
_chemical_formula_sum   'Li8 V11 O22'
_cell_volume   417.41357785
_cell_formula_units_Z   1
loop_
 _symmetry_equiv_pos_site_id
 _symmetry_equiv_pos_as_xyz
  1  'x, y, z'
loop_
 _atom_site_type_symbol
 _atom_site_label
 _atom_site_symmetry_multiplicity
 _atom_site_fract_x
 _atom_site_fract_y
 _atom_site_fract_z
 _atom_site_occupancy
  Li  Li0  1  0.53432400  0.67202200  0.58532700  1
  Li  Li1  1  0.46567600  0.32797800  0.41467300  1
  Li  Li2  1  0.90373200  0.13335800  0.31661900  1
  Li  Li3  1  0.34769100  0.94622800  0.22753800  1
  Li  Li4  1  0.27254200  0.58799800  0.04573600  1
  Li  Li5  1  0.72745800  0.41200200  0.95426400  1
  Li  Li6  1  0.65230900  0.05377200  0.77246200  1
  Li  Li7  1  0.09626800  0.86664200  0.68338100  1
  V  V8  1  0.27663700  0.09029200  0.55244000  1
  V  V9  1  0.54056700  0.18170200  0.08606500  1
  V  V10  1  0.00000000  0.00000000  0.00000000  1
  V  V11  1  0.72336300  0.90970800  0.44756000  1
  V  V12  1  0.45943300  0.81829800  0.91393500  1
  V  V13  1  0.17697900  0.72451300  0.36370900  1
  V  V14  1  0.64735900  0.54989700  0.27781400  1
  V  V15  1  0.90526100  0.64065200  0.81888600  1
  V  V16  1  0.35264100  0.45010300  0.72218600  1
  V  V17  1  0.09473900  0.35934800  0.18111400  1
  V  V18  1  0.82302100  0.27548700  0.63629100  1
  O  O19  1  0.76751800  0.33970500  0.27453100  1
  O  O20  1  0.15437900  0.29851600  0.54007900  1
  O  O21  1  0.21856300  0.15594800  0.19174200  1
  O  O22  1  0.58965900  0.11550000  0.44131500  1
  O  O23  1  0.41034100  0.88450000  0.55868500  1
  O  O24  1  0.05359000  0.93162800  0.35890000  1
  O  O25  1  0.68643700  0.98437000  0.10013300  1
  O  O26  1  0.49115700  0.74342400  0.26149900  1
  O  O27  1  0.84562100  0.70148400  0.45992100  1
  O  O28  1  0.14007400  0.81191400  0.01605100  1
  O  O29  1  0.78143700  0.84405200  0.80825800  1
  O  O30  1  0.57751900  0.60241700  0.90814800  1
  O  O31  1  0.33726200  0.52727300  0.37312100  1
  O  O32  1  0.23248200  0.66029500  0.72546900  1
  O  O33  1  0.95595500  0.55536500  0.16997700  1
  O  O34  1  0.42248100  0.39758300  0.09185200  1
  O  O35  1  0.66273800  0.47272700  0.62687900  1
  O  O36  1  0.04404500  0.44463500  0.83002300  1
  O  O37  1  0.85992600  0.18808600  0.98394900  1
  O  O38  1  0.50884300  0.25657600  0.73850100  1
  O  O39  1  0.31356300  0.01563000  0.89986700  1
  O  O40  1  0.94641000  0.06837200  0.64110000  1
