# generated using pymatgen
data_Li2BiBO5
_symmetry_space_group_name_H-M   'P 1'
_cell_length_a   6.29804600
_cell_length_b   6.29804600
_cell_length_c   4.74691400
_cell_angle_alpha   90.00000000
_cell_angle_beta   90.00000000
_cell_angle_gamma   90.00000000
_symmetry_Int_Tables_number   1
_chemical_formula_structural   Li2BiBO5
_chemical_formula_sum   'Li4 Bi2 B2 O10'
_cell_volume   188.28816386
_cell_formula_units_Z   2
loop_
 _symmetry_equiv_pos_site_id
 _symmetry_equiv_pos_as_xyz
  1  'x, y, z'
loop_
 _atom_site_type_symbol
 _atom_site_label
 _atom_site_symmetry_multiplicity
 _atom_site_fract_x
 _atom_site_fract_y
 _atom_site_fract_z
 _atom_site_occupancy
  Li  Li0  1  0.75000000  0.25000000  0.00000000  1
  Li  Li1  1  0.25000000  0.25000000  0.00000000  1
  Li  Li2  1  0.25000000  0.75000000  0.00000000  1
  Li  Li3  1  0.75000000  0.75000000  0.00000000  1
  Bi  Bi4  1  0.00000000  0.50000000  0.54817300  1
  Bi  Bi5  1  0.50000000  0.00000000  0.45182700  1
  B  B6  1  0.50000000  0.50000000  0.50000000  1
  B  B7  1  0.00000000  0.00000000  0.50000000  1
  O  O8  1  0.50000000  0.31922400  0.29852300  1
  O  O9  1  0.00000000  0.50000000  0.11939600  1
  O  O10  1  0.31922400  0.50000000  0.70147700  1
  O  O11  1  0.68077600  0.50000000  0.70147700  1
  O  O12  1  0.50000000  0.68077600  0.29852300  1
  O  O13  1  0.00000000  0.81922400  0.70147700  1
  O  O14  1  0.81922400  0.00000000  0.29852300  1
  O  O15  1  0.18077600  0.00000000  0.29852300  1
  O  O16  1  0.50000000  0.00000000  0.88060400  1
  O  O17  1  0.00000000  0.18077600  0.70147700  1
