# generated using pymatgen
data_Li4V3Fe3(WO8)2
_symmetry_space_group_name_H-M   'P 1'
_cell_length_a   6.04838949
_cell_length_b   6.04838949
_cell_length_c   9.82020046
_cell_angle_alpha   89.18401976
_cell_angle_beta   89.18401976
_cell_angle_gamma   60.04673978
_symmetry_Int_Tables_number   1
_chemical_formula_structural   Li4V3Fe3(WO8)2
_chemical_formula_sum   'Li4 V3 Fe3 W2 O16'
_cell_volume   311.22615117
_cell_formula_units_Z   1
loop_
 _symmetry_equiv_pos_site_id
 _symmetry_equiv_pos_as_xyz
  1  'x, y, z'
loop_
 _atom_site_type_symbol
 _atom_site_label
 _atom_site_symmetry_multiplicity
 _atom_site_fract_x
 _atom_site_fract_y
 _atom_site_fract_z
 _atom_site_occupancy
  Li  Li0  1  0.67032900  0.67032900  0.90474200  1
  Li  Li1  1  0.99651200  0.99651200  0.98874600  1
  Li  Li2  1  0.99790600  0.99790600  0.48796500  1
  Li  Li3  1  0.33833000  0.33833000  0.40646100  1
  V  V4  1  0.82381200  0.82381200  0.22218800  1
  V  V5  1  0.65436700  0.16583400  0.71618700  1
  V  V6  1  0.16583400  0.65436700  0.71618700  1
  Fe  Fe7  1  0.82693100  0.33707400  0.21207900  1
  Fe  Fe8  1  0.33707400  0.82693100  0.21207900  1
  Fe  Fe9  1  0.16877000  0.16877000  0.71130200  1
  W  W10  1  0.66301700  0.66301700  0.48885800  1
  W  W11  1  0.32924900  0.32924900  0.98853200  1
  O  O12  1  0.81846000  0.34491100  0.58545100  1
  O  O13  1  0.52524900  0.52524900  0.35823700  1
  O  O14  1  0.68352100  0.68352100  0.11152600  1
  O  O15  1  0.98658600  0.98658600  0.29654600  1
  O  O16  1  0.99572200  0.99572200  0.80045200  1
  O  O17  1  0.34491100  0.81846000  0.58545100  1
  O  O18  1  0.96115400  0.53650900  0.35150800  1
  O  O19  1  0.53650900  0.96115400  0.35150800  1
  O  O20  1  0.17045400  0.17045400  0.08076300  1
  O  O21  1  0.82453400  0.82453400  0.59252000  1
  O  O22  1  0.49446000  0.04153800  0.85210500  1
  O  O23  1  0.04153800  0.49446000  0.85210500  1
  O  O24  1  0.33725900  0.33725900  0.60803800  1
  O  O25  1  0.64690200  0.16667900  0.08826900  1
  O  O26  1  0.47988400  0.47988400  0.84799600  1
  O  O27  1  0.16667900  0.64690200  0.08826900  1
