# generated using pymatgen
data_Li3V5O14
_symmetry_space_group_name_H-M   'P 1'
_cell_length_a   8.77079227
_cell_length_b   8.77079227
_cell_length_c   4.89228100
_cell_angle_alpha   90.00000000
_cell_angle_beta   90.00000000
_cell_angle_gamma   120.00000207
_symmetry_Int_Tables_number   1
_chemical_formula_structural   Li3V5O14
_chemical_formula_sum   'Li3 V5 O14'
_cell_volume   325.92649573
_cell_formula_units_Z   1
loop_
 _symmetry_equiv_pos_site_id
 _symmetry_equiv_pos_as_xyz
  1  'x, y, z'
loop_
 _atom_site_type_symbol
 _atom_site_label
 _atom_site_symmetry_multiplicity
 _atom_site_fract_x
 _atom_site_fract_y
 _atom_site_fract_z
 _atom_site_occupancy
  Li  Li0  1  0.00000000  0.61799800  0.16558900  1
  Li  Li1  1  0.38200200  0.38200200  0.16558900  1
  Li  Li2  1  0.61799800  0.00000000  0.16558900  1
  V  V3  1  0.00000000  0.22489300  0.43619000  1
  V  V4  1  0.33333300  0.66666700  0.46177800  1
  V  V5  1  0.22489300  0.00000000  0.43619000  1
  V  V6  1  0.77510700  0.77510700  0.43619000  1
  V  V7  1  0.66666700  0.33333300  0.46177800  1
  O  O8  1  0.00000000  0.82519400  0.33479600  1
  O  O9  1  0.00000000  0.22615400  0.76765400  1
  O  O10  1  0.29619300  0.83316100  0.32683500  1
  O  O11  1  0.16683900  0.46303200  0.32683500  1
  O  O12  1  0.33333300  0.66666700  0.79784400  1
  O  O13  1  0.17480600  0.17480600  0.33479600  1
  O  O14  1  0.53696800  0.70380700  0.32683500  1
  O  O15  1  0.22615400  0.00000000  0.76765400  1
  O  O16  1  0.77384600  0.77384600  0.76765400  1
  O  O17  1  0.46303200  0.16683900  0.32683500  1
  O  O18  1  0.70380700  0.53696800  0.32683500  1
  O  O19  1  0.66666700  0.33333300  0.79784400  1
  O  O20  1  0.83316100  0.29619300  0.32683500  1
  O  O21  1  0.82519400  0.00000000  0.33479600  1
