# generated using pymatgen
data_Li2TiV3O8
_symmetry_space_group_name_H-M   'P 1'
_cell_length_a   5.94526690
_cell_length_b   5.94526690
_cell_length_c   9.57359588
_cell_angle_alpha   89.95159168
_cell_angle_beta   89.95159168
_cell_angle_gamma   120.51803825
_symmetry_Int_Tables_number   1
_chemical_formula_structural   Li2TiV3O8
_chemical_formula_sum   'Li4 Ti2 V6 O16'
_cell_volume   291.51237396
_cell_formula_units_Z   2
loop_
 _symmetry_equiv_pos_site_id
 _symmetry_equiv_pos_as_xyz
  1  'x, y, z'
loop_
 _atom_site_type_symbol
 _atom_site_label
 _atom_site_symmetry_multiplicity
 _atom_site_fract_x
 _atom_site_fract_y
 _atom_site_fract_z
 _atom_site_occupancy
  Li  Li0  1  0.32790200  0.66359500  0.89302700  1
  Li  Li1  1  0.00361500  0.00726800  0.99508200  1
  Li  Li2  1  0.00726800  0.00361500  0.49508200  1
  Li  Li3  1  0.66359500  0.32790200  0.39302700  1
  Ti  Ti4  1  0.33199100  0.67122100  0.49554200  1
  Ti  Ti5  1  0.67122100  0.33199100  0.99554200  1
  V  V6  1  0.65645900  0.82631000  0.21387400  1
  V  V7  1  0.17025300  0.82869600  0.21335100  1
  V  V8  1  0.82869600  0.17025300  0.71335100  1
  V  V9  1  0.35177000  0.17937500  0.71994000  1
  V  V10  1  0.17937500  0.35177000  0.21994000  1
  V  V11  1  0.82631000  0.65645900  0.71387400  1
  O  O12  1  0.66742100  0.83367600  0.59551300  1
  O  O13  1  0.47575700  0.51175300  0.34441700  1
  O  O14  1  0.32337200  0.64548400  0.10129600  1
  O  O15  1  0.00632000  0.01724600  0.30695000  1
  O  O16  1  0.01724600  0.00632000  0.80695000  1
  O  O17  1  0.17034000  0.33956400  0.59662700  1
  O  O18  1  0.48040700  0.95642200  0.34155900  1
  O  O19  1  0.03844300  0.51326500  0.34307200  1
  O  O20  1  0.83159900  0.17077500  0.09367000  1
  O  O21  1  0.17077500  0.83159900  0.59367000  1
  O  O22  1  0.95642200  0.48040700  0.84155900  1
  O  O23  1  0.51326500  0.03844300  0.84307200  1
  O  O24  1  0.64548400  0.32337200  0.60129600  1
  O  O25  1  0.83367600  0.66742100  0.09551300  1
  O  O26  1  0.51175300  0.47575700  0.84441700  1
  O  O27  1  0.33956400  0.17034000  0.09662700  1
