# generated using pymatgen
data_LiSn3(P3O10)2
_symmetry_space_group_name_H-M   'P 1'
_cell_length_a   8.76783090
_cell_length_b   8.76783090
_cell_length_c   12.51792400
_cell_angle_alpha   90.00000000
_cell_angle_beta   90.00000000
_cell_angle_gamma   105.53889699
_symmetry_Int_Tables_number   1
_chemical_formula_structural   LiSn3(P3O10)2
_chemical_formula_sum   'Li2 Sn6 P12 O40'
_cell_volume   927.13992797
_cell_formula_units_Z   2
loop_
 _symmetry_equiv_pos_site_id
 _symmetry_equiv_pos_as_xyz
  1  'x, y, z'
loop_
 _atom_site_type_symbol
 _atom_site_label
 _atom_site_symmetry_multiplicity
 _atom_site_fract_x
 _atom_site_fract_y
 _atom_site_fract_z
 _atom_site_occupancy
  Li  Li0  1  0.58274100  0.58274100  0.50000000  1
  Li  Li1  1  0.41725900  0.41725900  0.00000000  1
  Sn  Sn2  1  0.12638100  0.12638100  0.00000000  1
  Sn  Sn3  1  0.70289600  0.29710400  0.25000000  1
  Sn  Sn4  1  0.77635500  0.22364500  0.75000000  1
  Sn  Sn5  1  0.29710400  0.70289600  0.75000000  1
  Sn  Sn6  1  0.22364500  0.77635500  0.25000000  1
  Sn  Sn7  1  0.87361900  0.87361900  0.50000000  1
  P  P8  1  0.09267800  0.37797700  0.31799100  1
  P  P9  1  0.37797700  0.09267800  0.68200900  1
  P  P10  1  0.21934300  0.31717400  0.77745000  1
  P  P11  1  0.31717400  0.21934300  0.22255000  1
  P  P12  1  0.71457800  0.14513100  0.01640400  1
  P  P13  1  0.14513100  0.71457800  0.98359600  1
  P  P14  1  0.85486900  0.28542200  0.48359600  1
  P  P15  1  0.28542200  0.85486900  0.51640400  1
  P  P16  1  0.68282600  0.78065700  0.72255000  1
  P  P17  1  0.78065700  0.68282600  0.27745000  1
  P  P18  1  0.90732200  0.62202300  0.81799100  1
  P  P19  1  0.62202300  0.90732200  0.18200900  1
  O  O20  1  0.24300700  0.18335200  0.69131400  1
  O  O21  1  0.18335200  0.24300700  0.30868600  1
  O  O22  1  0.36419800  0.03590200  0.56070800  1
  O  O23  1  0.03590200  0.36419800  0.43929200  1
  O  O24  1  0.31625200  0.32634900  0.12652800  1
  O  O25  1  0.32634900  0.31625200  0.87347200  1
  O  O26  1  0.04946100  0.66586800  0.74288400  1
  O  O27  1  0.66586800  0.04946100  0.25711600  1
  O  O28  1  0.46925500  0.26582000  0.29033700  1
  O  O29  1  0.26582000  0.46925500  0.70966300  1
  O  O30  1  0.95531000  0.73692300  0.30962200  1
  O  O31  1  0.73692300  0.95531000  0.69037800  1
  O  O32  1  0.21111000  0.53692500  0.30478000  1
  O  O33  1  0.53692500  0.21111000  0.69522000  1
  O  O34  1  0.14345100  0.65125800  0.09637700  1
  O  O35  1  0.65125800  0.14345100  0.90362300  1
  O  O36  1  0.10844600  0.82385000  0.52991400  1
  O  O37  1  0.82385000  0.10844600  0.47008600  1
  O  O38  1  0.25509900  0.64623700  0.91054700  1
  O  O39  1  0.64623700  0.25509900  0.08945300  1
  O  O40  1  0.74490100  0.35376300  0.41054700  1
  O  O41  1  0.35376300  0.74490100  0.58945300  1
  O  O42  1  0.89155400  0.17615000  0.02991400  1
  O  O43  1  0.17615000  0.89155400  0.97008600  1
  O  O44  1  0.85654900  0.34874200  0.59637700  1
  O  O45  1  0.34874200  0.85654900  0.40362300  1
  O  O46  1  0.78889000  0.46307500  0.80478000  1
  O  O47  1  0.46307500  0.78889000  0.19522000  1
  O  O48  1  0.04469000  0.26307700  0.80962200  1
  O  O49  1  0.26307700  0.04469000  0.19037800  1
  O  O50  1  0.53074500  0.73418000  0.79033700  1
  O  O51  1  0.73418000  0.53074500  0.20966300  1
  O  O52  1  0.95053900  0.33413200  0.24288400  1
  O  O53  1  0.33413200  0.95053900  0.75711600  1
  O  O54  1  0.68374800  0.67365100  0.62652800  1
  O  O55  1  0.67365100  0.68374800  0.37347200  1
  O  O56  1  0.96409800  0.63580200  0.93929200  1
  O  O57  1  0.63580200  0.96409800  0.06070800  1
  O  O58  1  0.81664800  0.75699300  0.80868600  1
  O  O59  1  0.75699300  0.81664800  0.19131400  1
