# generated using pymatgen
data_Li4Co15O28
_symmetry_space_group_name_H-M   'P 1'
_cell_length_a   8.17327362
_cell_length_b   8.72043617
_cell_length_c   7.69778328
_cell_angle_alpha   107.06780432
_cell_angle_beta   78.10015103
_cell_angle_gamma   74.07329723
_symmetry_Int_Tables_number   1
_chemical_formula_structural   Li4Co15O28
_chemical_formula_sum   'Li4 Co15 O28'
_cell_volume   479.19436831
_cell_formula_units_Z   1
loop_
 _symmetry_equiv_pos_site_id
 _symmetry_equiv_pos_as_xyz
  1  'x, y, z'
loop_
 _atom_site_type_symbol
 _atom_site_label
 _atom_site_symmetry_multiplicity
 _atom_site_fract_x
 _atom_site_fract_y
 _atom_site_fract_z
 _atom_site_occupancy
  Li  Li0  1  0.27288800  0.28439000  0.55708100  1
  Li  Li1  1  0.43032700  0.42457500  0.85286500  1
  Li  Li2  1  0.56967300  0.57542500  0.14713500  1
  Li  Li3  1  0.72711200  0.71561000  0.44291900  1
  Co  Co4  1  0.00000000  0.00000000  0.00000000  1
  Co  Co5  1  0.07155300  0.07194600  0.64015900  1
  Co  Co6  1  0.07428300  0.57195000  0.13893600  1
  Co  Co7  1  0.21432900  0.21524200  0.92913600  1
  Co  Co8  1  0.50000000  0.00000000  0.00000000  1
  Co  Co9  1  0.35479800  0.35687400  0.21654300  1
  Co  Co10  1  0.21102900  0.71173100  0.43159700  1
  Co  Co11  1  0.63907200  0.14398600  0.29055200  1
  Co  Co12  1  0.50000000  0.50000000  0.50000000  1
  Co  Co13  1  0.36092800  0.85601400  0.70944800  1
  Co  Co14  1  0.78897100  0.28826900  0.56840300  1
  Co  Co15  1  0.64520200  0.64312600  0.78345700  1
  Co  Co16  1  0.78567100  0.78475800  0.07086400  1
  Co  Co17  1  0.92571700  0.42805000  0.86106400  1
  Co  Co18  1  0.92844700  0.92805400  0.35984100  1
  O  O19  1  0.01718100  0.27851600  0.59991300  1
  O  O20  1  0.01219200  0.78828800  0.09273800  1
  O  O21  1  0.13034100  0.36554700  0.18429900  1
  O  O22  1  0.26706600  0.00575200  0.97193100  1
  O  O23  1  0.16256500  0.41603800  0.87501800  1
  O  O24  1  0.29882600  0.06645600  0.66736600  1
  O  O25  1  0.15295400  0.91978000  0.38615200  1
  O  O26  1  0.30661600  0.56104600  0.16509300  1
  O  O27  1  0.12696600  0.86818200  0.69914900  1
  O  O28  1  0.27368800  0.49997700  0.47346500  1
  O  O29  1  0.41456600  0.15077600  0.26389500  1
  O  O30  1  0.43905200  0.21023400  0.95392600  1
  O  O31  1  0.58283600  0.34923200  0.24066000  1
  O  O32  1  0.44573700  0.70521900  0.44912100  1
  O  O33  1  0.55426300  0.29478100  0.55087900  1
  O  O34  1  0.41716400  0.65076800  0.75934000  1
  O  O35  1  0.56094800  0.78976600  0.04607400  1
  O  O36  1  0.58543400  0.84922400  0.73610500  1
  O  O37  1  0.72631200  0.50002300  0.52653500  1
  O  O38  1  0.87303400  0.13181800  0.30085100  1
  O  O39  1  0.69338400  0.43895400  0.83490700  1
  O  O40  1  0.84704600  0.08022000  0.61384800  1
  O  O41  1  0.70117400  0.93354400  0.33263400  1
  O  O42  1  0.83743500  0.58396200  0.12498200  1
  O  O43  1  0.73293400  0.99424800  0.02806900  1
  O  O44  1  0.86965900  0.63445300  0.81570100  1
  O  O45  1  0.98780800  0.21171200  0.90726200  1
  O  O46  1  0.98281900  0.72148400  0.40008700  1
