# generated using pymatgen
data_Li3BiH8O7
_symmetry_space_group_name_H-M   'P 1'
_cell_length_a   6.46780700
_cell_length_b   7.06820634
_cell_length_c   8.05449052
_cell_angle_alpha   92.58688277
_cell_angle_beta   91.35367229
_cell_angle_gamma   115.79623462
_symmetry_Int_Tables_number   1
_chemical_formula_structural   Li3BiH8O7
_chemical_formula_sum   'Li6 Bi2 H16 O14'
_cell_volume   330.80236934
_cell_formula_units_Z   2
loop_
 _symmetry_equiv_pos_site_id
 _symmetry_equiv_pos_as_xyz
  1  'x, y, z'
loop_
 _atom_site_type_symbol
 _atom_site_label
 _atom_site_symmetry_multiplicity
 _atom_site_fract_x
 _atom_site_fract_y
 _atom_site_fract_z
 _atom_site_occupancy
  Li  Li0  1  0.02544300  0.34202100  0.38550300  1
  Li  Li1  1  0.32307900  0.83751700  0.37010600  1
  Li  Li2  1  0.21197300  0.11010000  0.60013100  1
  Li  Li3  1  0.78802700  0.88990000  0.39986900  1
  Li  Li4  1  0.67692100  0.16248300  0.62989400  1
  Li  Li5  1  0.97455700  0.65797900  0.61449700  1
  Bi  Bi6  1  0.46432500  0.62078300  0.67940300  1
  Bi  Bi7  1  0.53567500  0.37921700  0.32059700  1
  H  H8  1  0.98492100  0.31818600  0.03230400  1
  H  H9  1  0.01580900  0.33505800  0.74072500  1
  H  H10  1  0.32077000  0.93410900  0.75648700  1
  H  H11  1  0.37919300  0.83417500  0.06575600  1
  H  H12  1  0.17803800  0.54731200  0.10067200  1
  H  H13  1  0.12581700  0.03267300  0.25625000  1
  H  H14  1  0.21376300  0.02736000  0.96980700  1
  H  H15  1  0.23656300  0.25824200  0.96327000  1
  H  H16  1  0.76343700  0.74175800  0.03673000  1
  H  H17  1  0.78623700  0.97264000  0.03019300  1
  H  H18  1  0.87418300  0.96732700  0.74375000  1
  H  H19  1  0.82196200  0.45268800  0.89932800  1
  H  H20  1  0.62080700  0.16582500  0.93424400  1
  H  H21  1  0.67923000  0.06589100  0.24351300  1
  H  H22  1  0.98419100  0.66494200  0.25927500  1
  H  H23  1  0.01507900  0.68181400  0.96769600  1
  O  O24  1  0.22696900  0.81599000  0.09882600  1
  O  O25  1  0.07021300  0.39050300  0.63220200  1
  O  O26  1  0.32157600  0.88146400  0.64270600  1
  O  O27  1  0.13728600  0.39332100  0.09967100  1
  O  O28  1  0.16310000  0.11405700  0.36306400  1
  O  O29  1  0.44805100  0.63843600  0.41629800  1
  O  O30  1  0.24984000  0.14384400  0.89361700  1
  O  O31  1  0.75016000  0.85615600  0.10638300  1
  O  O32  1  0.55194900  0.36156400  0.58370200  1
  O  O33  1  0.83690000  0.88594300  0.63693600  1
  O  O34  1  0.86271400  0.60667900  0.90032900  1
  O  O35  1  0.67842400  0.11853600  0.35729400  1
  O  O36  1  0.92978700  0.60949700  0.36779800  1
  O  O37  1  0.77303100  0.18401000  0.90117400  1
