# generated using pymatgen
data_Li3Mn3OF7
_symmetry_space_group_name_H-M   'P 1'
_cell_length_a   6.19293233
_cell_length_b   8.85717500
_cell_length_c   6.32869454
_cell_angle_alpha   90.12734254
_cell_angle_beta   89.97678585
_cell_angle_gamma   91.97088834
_symmetry_Int_Tables_number   1
_chemical_formula_structural   Li3Mn3OF7
_chemical_formula_sum   'Li6 Mn6 O2 F14'
_cell_volume   346.93459416
_cell_formula_units_Z   2
loop_
 _symmetry_equiv_pos_site_id
 _symmetry_equiv_pos_as_xyz
  1  'x, y, z'
loop_
 _atom_site_type_symbol
 _atom_site_label
 _atom_site_symmetry_multiplicity
 _atom_site_fract_x
 _atom_site_fract_y
 _atom_site_fract_z
 _atom_site_occupancy
  Li  Li0  1  0.99908200  0.99954100  0.99996000  1
  Li  Li1  1  0.49908700  0.49954400  0.49995700  1
  Li  Li2  1  0.51686000  0.25851000  0.00009100  1
  Li  Li3  1  0.01685700  0.75850500  0.50008700  1
  Li  Li4  1  0.24568100  0.62279600  0.99999700  1
  Li  Li5  1  0.74569100  0.12279800  0.49999500  1
  Mn  Mn6  1  0.48685500  0.87314500  0.73930000  1
  Mn  Mn7  1  0.98493200  0.37393700  0.76237600  1
  Mn  Mn8  1  0.24711300  0.11307000  0.49903500  1
  Mn  Mn9  1  0.98682400  0.37312500  0.23933500  1
  Mn  Mn10  1  0.48492400  0.87392200  0.26233200  1
  Mn  Mn11  1  0.74708700  0.61306600  0.99905700  1
  O  O12  1  0.77085400  0.38548500  0.00022600  1
  O  O13  1  0.27085700  0.88549600  0.50022400  1
  F  F14  1  0.72985400  0.86481000  0.00034100  1
  F  F15  1  0.22985700  0.36482200  0.50033100  1
  F  F16  1  0.24912400  0.38581500  0.99999500  1
  F  F17  1  0.74912700  0.88581100  0.49997300  1
  F  F18  1  0.01048100  0.62459900  0.76117100  1
  F  F19  1  0.51049300  0.12459700  0.26115900  1
  F  F20  1  0.00907800  0.62327500  0.23764300  1
  F  F21  1  0.50910500  0.12329200  0.73764700  1
  F  F22  1  0.49547700  0.62924600  0.76313800  1
  F  F23  1  0.99546800  0.12924700  0.26312800  1
  F  F24  1  0.49575700  0.62955800  0.23666800  1
  F  F25  1  0.99574500  0.12955800  0.73666500  1
  F  F26  1  0.25886600  0.86621300  0.00008600  1
  F  F27  1  0.75885800  0.36621700  0.50008300  1
