# generated using pymatgen
data_LiSnPO4
_symmetry_space_group_name_H-M   'P 1'
_cell_length_a   4.86877900
_cell_length_b   7.16946500
_cell_length_c   10.87027100
_cell_angle_alpha   90.00000000
_cell_angle_beta   90.00000000
_cell_angle_gamma   90.00000000
_symmetry_Int_Tables_number   1
_chemical_formula_structural   LiSnPO4
_chemical_formula_sum   'Li4 Sn4 P4 O16'
_cell_volume   379.44355636
_cell_formula_units_Z   4
loop_
 _symmetry_equiv_pos_site_id
 _symmetry_equiv_pos_as_xyz
  1  'x, y, z'
loop_
 _atom_site_type_symbol
 _atom_site_label
 _atom_site_symmetry_multiplicity
 _atom_site_fract_x
 _atom_site_fract_y
 _atom_site_fract_z
 _atom_site_occupancy
  Li  Li0  1  0.47094600  0.74425900  0.24148300  1
  Li  Li1  1  0.52905400  0.24425900  0.25851700  1
  Li  Li2  1  0.02905400  0.25574100  0.74148300  1
  Li  Li3  1  0.97094600  0.75574100  0.75851700  1
  Sn  Sn4  1  0.94536800  0.00501500  0.04121000  1
  Sn  Sn5  1  0.05463200  0.50501500  0.45879000  1
  Sn  Sn6  1  0.55463200  0.99498500  0.54121000  1
  Sn  Sn7  1  0.44536800  0.49498500  0.95879000  1
  P  P8  1  0.87430400  0.51197000  0.16743500  1
  P  P9  1  0.12569600  0.01197000  0.33256500  1
  P  P10  1  0.62569600  0.48803000  0.66743500  1
  P  P11  1  0.37430400  0.98803000  0.83256500  1
  O  O12  1  0.74573400  0.68140300  0.09524900  1
  O  O13  1  0.76713900  0.33475100  0.09639400  1
  O  O14  1  0.18721900  0.52249700  0.17994200  1
  O  O15  1  0.26791300  0.00779000  0.20190200  1
  O  O16  1  0.73208700  0.50779000  0.29809800  1
  O  O17  1  0.81278100  0.02249700  0.32005800  1
  O  O18  1  0.23286100  0.83475100  0.40360600  1
  O  O19  1  0.25426600  0.18140300  0.40475100  1
  O  O20  1  0.75426600  0.31859700  0.59524900  1
  O  O21  1  0.73286100  0.66524900  0.59639400  1
  O  O22  1  0.31278100  0.47750300  0.67994200  1
  O  O23  1  0.23208700  0.99221000  0.70190200  1
  O  O24  1  0.76791300  0.49221000  0.79809800  1
  O  O25  1  0.68721900  0.97750300  0.82005800  1
  O  O26  1  0.26713900  0.16524900  0.90360600  1
  O  O27  1  0.24573400  0.81859700  0.90475100  1
