# generated using pymatgen
data_Li5V3P8O29
_symmetry_space_group_name_H-M   'P 1'
_cell_length_a   9.77463800
_cell_length_b   9.81109951
_cell_length_c   14.07564472
_cell_angle_alpha   89.84965582
_cell_angle_beta   90.37817420
_cell_angle_gamma   119.87179254
_symmetry_Int_Tables_number   1
_chemical_formula_structural   Li5V3P8O29
_chemical_formula_sum   'Li10 V6 P16 O58'
_cell_volume   1170.48896064
_cell_formula_units_Z   2
loop_
 _symmetry_equiv_pos_site_id
 _symmetry_equiv_pos_as_xyz
  1  'x, y, z'
loop_
 _atom_site_type_symbol
 _atom_site_label
 _atom_site_symmetry_multiplicity
 _atom_site_fract_x
 _atom_site_fract_y
 _atom_site_fract_z
 _atom_site_occupancy
  Li  Li0  1  0.68661700  0.91044900  0.94268200  1
  Li  Li1  1  0.66369800  0.76703600  0.43883400  1
  Li  Li2  1  0.23636400  0.90780100  0.43937800  1
  Li  Li3  1  0.08512900  0.77412400  0.94251100  1
  Li  Li4  1  0.22600800  0.32050900  0.94163200  1
  Li  Li5  1  0.90531400  0.67121800  0.55782700  1
  Li  Li6  1  0.09943300  0.33947800  0.43734200  1
  Li  Li7  1  0.67343400  0.34166400  0.89148400  1
  Li  Li8  1  0.30963900  0.08455700  0.06337200  1
  Li  Li9  1  0.00751000  0.04395600  0.49735700  1
  V  V10  1  0.99867600  0.56214800  0.75100600  1
  V  V11  1  0.99983400  0.43142300  0.24725900  1
  V  V12  1  0.56624200  0.56764300  0.24853800  1
  V  V13  1  0.43066700  0.43019300  0.74891200  1
  V  V14  1  0.57151400  0.00103000  0.74230500  1
  V  V15  1  0.43368800  0.99739900  0.25399400  1
  P  P16  1  0.68013700  0.91240100  0.15736500  1
  P  P17  1  0.68636600  0.76825900  0.65739300  1
  P  P18  1  0.22467400  0.91406900  0.65681000  1
  P  P19  1  0.33717900  0.67119900  0.86980300  1
  P  P20  1  0.33371500  0.66485900  0.37225400  1
  P  P21  1  0.08821100  0.76814300  0.15881500  1
  P  P22  1  0.91325300  0.68331700  0.34070000  1
  P  P23  1  0.23012500  0.31855600  0.15667000  1
  P  P24  1  0.77088300  0.68220300  0.84178100  1
  P  P25  1  0.08376100  0.31283700  0.65579700  1
  P  P26  1  0.90986100  0.22448700  0.83845200  1
  P  P27  1  0.66532000  0.33392400  0.62894700  1
  P  P28  1  0.66175900  0.32992700  0.13130000  1
  P  P29  1  0.77889900  0.08529700  0.33995400  1
  P  P30  1  0.30817600  0.22525000  0.34075300  1
  P  P31  1  0.32227900  0.08954800  0.84131500  1
  O  O32  1  0.79597700  0.99396700  0.42067700  1
  O  O33  1  0.66455800  0.91540000  0.66560100  1
  O  O34  1  0.75786500  0.76893900  0.92315400  1
  O  O35  1  0.65870300  0.74386600  0.17123800  1
  O  O36  1  0.51952600  0.90018600  0.17921900  1
  O  O37  1  0.48044000  0.81988700  0.82153600  1
  O  O38  1  0.38415800  0.91540800  0.67314900  1
  O  O39  1  0.24644300  0.99693500  0.92951600  1
  O  O40  1  0.25370000  0.91815200  0.16487900  1
  O  O41  1  0.48926900  0.67525300  0.32945700  1
  O  O42  1  0.52929900  0.61924000  0.67211600  1
  O  O43  1  0.32041800  0.80873000  0.33340400  1
  O  O44  1  0.34598400  0.68681300  0.97495500  1
  O  O45  1  0.34425600  0.66858300  0.47833900  1
  O  O46  1  0.18122800  0.66405600  0.82912900  1
  O  O47  1  0.38121500  0.47990100  0.17844000  1
  O  O48  1  0.33615200  0.52053100  0.83361300  1
  O  O49  1  0.08298100  0.74630600  0.66214200  1
  O  O50  1  0.99479900  0.78878800  0.24780900  1
  O  O51  1  0.99857800  0.77460500  0.42916100  1
  O  O52  1  0.00848500  0.75935400  0.06729200  1
  O  O53  1  0.10285100  0.62099100  0.18023400  1
  O  O54  1  0.19009500  0.51005500  0.33365200  1
  O  O55  1  0.91638600  0.65912900  0.84521500  1
  O  O56  1  0.08520200  0.46895100  0.66871400  1
  O  O57  1  0.25312200  0.34086800  0.67178700  1
  O  O58  1  0.79969800  0.78339400  0.74416000  1
  O  O59  1  0.76968800  0.77419200  0.56624600  1
  O  O60  1  0.20128300  0.21165100  0.42022700  1
  O  O61  1  0.74220000  0.65747300  0.34042900  1
  O  O62  1  0.91215200  0.52866900  0.33009600  1
  O  O63  1  0.08634300  0.33983400  0.15994200  1
  O  O64  1  0.81489900  0.48722800  0.67034900  1
  O  O65  1  0.88444700  0.36846200  0.82506100  1
  O  O66  1  0.00810600  0.23608800  0.92142600  1
  O  O67  1  0.01771500  0.23216300  0.56318300  1
  O  O68  1  0.98283800  0.19896700  0.74160400  1
  O  O69  1  0.91803100  0.25667800  0.33917600  1
  O  O70  1  0.65627600  0.47556500  0.17839200  1
  O  O71  1  0.62377200  0.51571900  0.82551900  1
  O  O72  1  0.80987800  0.33211600  0.17219600  1
  O  O73  1  0.65821500  0.33849700  0.02501200  1
  O  O74  1  0.67092400  0.33234200  0.52388500  1
  O  O75  1  0.67157200  0.18603500  0.67507400  1
  O  O76  1  0.46296000  0.38425300  0.33137400  1
  O  O77  1  0.51806200  0.32590200  0.67428800  1
  O  O78  1  0.74093000  0.07629300  0.83968900  1
  O  O79  1  0.79963000  0.01251100  0.24143600  1
  O  O80  1  0.74765100  0.98410300  0.06488700  1
  O  O81  1  0.62041500  0.08224300  0.33325400  1
  O  O82  1  0.51072000  0.18157400  0.16839700  1
  O  O83  1  0.48835800  0.11025400  0.82355500  1
  O  O84  1  0.33702600  0.25387700  0.84408800  1
  O  O85  1  0.24968100  0.24959000  0.06608200  1
  O  O86  1  0.21358000  0.20171300  0.24143700  1
  O  O87  1  0.34161000  0.08638600  0.34237300  1
  O  O88  1  0.22064200  0.99160500  0.56647900  1
  O  O89  1  0.21173000  0.00324800  0.74997500  1
