# generated using pymatgen
data_Li4VO3F2
_symmetry_space_group_name_H-M   'P 1'
_cell_length_a   5.16170473
_cell_length_b   7.66306106
_cell_length_c   10.32780365
_cell_angle_alpha   104.35852981
_cell_angle_beta   80.58228976
_cell_angle_gamma   71.83707482
_symmetry_Int_Tables_number   1
_chemical_formula_structural   Li4VO3F2
_chemical_formula_sum   'Li16 V4 O12 F8'
_cell_volume   362.92183999
_cell_formula_units_Z   4
loop_
 _symmetry_equiv_pos_site_id
 _symmetry_equiv_pos_as_xyz
  1  'x, y, z'
loop_
 _atom_site_type_symbol
 _atom_site_label
 _atom_site_symmetry_multiplicity
 _atom_site_fract_x
 _atom_site_fract_y
 _atom_site_fract_z
 _atom_site_occupancy
  Li  Li0  1  0.91727800  0.68912000  0.74638400  1
  Li  Li1  1  0.91722100  0.68931300  0.24628900  1
  Li  Li2  1  0.48791600  0.51050800  0.73210800  1
  Li  Li3  1  0.48808500  0.51044400  0.23197000  1
  Li  Li4  1  0.50287500  0.01032700  0.49317900  1
  Li  Li5  1  0.50302400  0.01023000  0.99301400  1
  Li  Li6  1  0.27270100  0.91375600  0.74593900  1
  Li  Li7  1  0.27256700  0.91363000  0.24603400  1
  Li  Li8  1  0.28789800  0.40466500  0.49887700  1
  Li  Li9  1  0.28769400  0.40486700  0.99872900  1
  Li  Li10  1  0.69312400  0.59267800  0.50539600  1
  Li  Li11  1  0.69319700  0.59275600  0.00527800  1
  Li  Li12  1  0.67355900  0.10343800  0.26542300  1
  Li  Li13  1  0.67379100  0.10355400  0.76529700  1
  Li  Li14  1  0.10845200  0.30230900  0.25303000  1
  Li  Li15  1  0.10843700  0.30203700  0.75290900  1
  V  V16  1  0.94632000  0.19214000  0.50034000  1
  V  V17  1  0.11001500  0.78328400  0.99963500  1
  V  V18  1  0.94638500  0.19204100  0.00046700  1
  V  V19  1  0.10995300  0.78329300  0.49959000  1
  O  O20  1  0.89753700  0.96599800  0.89518300  1
  O  O21  1  0.89751400  0.96596200  0.39506800  1
  O  O22  1  0.89067000  0.42736000  0.61799800  1
  O  O23  1  0.89070100  0.42730600  0.11799600  1
  O  O24  1  0.28657500  0.66485700  0.61566800  1
  O  O25  1  0.28653700  0.66485800  0.11575000  1
  O  O26  1  0.28444100  0.15232900  0.37924900  1
  O  O27  1  0.28429800  0.15241100  0.87932200  1
  O  O28  1  0.09338200  0.57709600  0.38021000  1
  O  O29  1  0.09325400  0.57714500  0.88023300  1
  O  O30  1  0.10795100  0.03614700  0.10849100  1
  O  O31  1  0.10851800  0.03606900  0.60848100  1
  F  F32  1  0.50712000  0.24907100  0.13042700  1
  F  F33  1  0.50730800  0.24911600  0.63026000  1
  F  F34  1  0.72194400  0.84392300  0.62569800  1
  F  F35  1  0.72163600  0.84398900  0.12570700  1
  F  F36  1  0.71629600  0.33892200  0.37982600  1
  F  F37  1  0.71620200  0.33886300  0.87988900  1
  F  F38  1  0.49374500  0.74214600  0.37733900  1
  F  F39  1  0.49387800  0.74204200  0.87731500  1
