# generated using pymatgen
data_LiMn2(PO4)2
_symmetry_space_group_name_H-M   'P 1'
_cell_length_a   8.70266100
_cell_length_b   9.05059345
_cell_length_c   12.53307046
_cell_angle_alpha   104.78419388
_cell_angle_beta   99.35024690
_cell_angle_gamma   104.95176225
_symmetry_Int_Tables_number   1
_chemical_formula_structural   LiMn2(PO4)2
_chemical_formula_sum   'Li6 Mn12 P12 O48'
_cell_volume   894.19681106
_cell_formula_units_Z   6
loop_
 _symmetry_equiv_pos_site_id
 _symmetry_equiv_pos_as_xyz
  1  'x, y, z'
loop_
 _atom_site_type_symbol
 _atom_site_label
 _atom_site_symmetry_multiplicity
 _atom_site_fract_x
 _atom_site_fract_y
 _atom_site_fract_z
 _atom_site_occupancy
  Li  Li0  1  0.99805200  0.87166000  0.88263500  1
  Li  Li1  1  0.50255600  0.49342200  0.98108900  1
  Li  Li2  1  0.00703100  0.61550200  0.59867600  1
  Li  Li3  1  0.49545100  0.00467000  0.51971400  1
  Li  Li4  1  0.50340000  0.75199300  0.25054400  1
  Li  Li5  1  0.98794900  0.14144300  0.13670200  1
  Mn  Mn6  1  0.61915000  0.89324900  0.95873000  1
  Mn  Mn7  1  0.27969400  0.47712500  0.75800800  1
  Mn  Mn8  1  0.93807900  0.48749800  0.87186600  1
  Mn  Mn9  1  0.05986600  0.01187900  0.62606200  1
  Mn  Mn10  1  0.37582800  0.60273300  0.53828000  1
  Mn  Mn11  1  0.71838000  0.01868500  0.74029100  1
  Mn  Mn12  1  0.27647900  0.99371700  0.26474100  1
  Mn  Mn13  1  0.61456800  0.39607800  0.46329100  1
  Mn  Mn14  1  0.93618800  0.98991600  0.36817400  1
  Mn  Mn15  1  0.06449300  0.51656100  0.13301100  1
  Mn  Mn16  1  0.73256100  0.50625900  0.24108400  1
  Mn  Mn17  1  0.38379800  0.10142700  0.03482900  1
  P  P18  1  0.12061900  0.23345600  0.89242400  1
  P  P19  1  0.33301200  0.86957000  0.74408100  1
  P  P20  1  0.71154600  0.27736000  0.98052900  1
  P  P21  1  0.66536300  0.63036700  0.75547300  1
  P  P22  1  0.12484900  0.73990800  0.39439200  1
  P  P23  1  0.28840900  0.22277800  0.52023300  1
  P  P24  1  0.71138800  0.77166500  0.47814100  1
  P  P25  1  0.87518900  0.26589800  0.60839700  1
  P  P26  1  0.34279700  0.37921600  0.24864400  1
  P  P27  1  0.28814300  0.72802500  0.02118000  1
  P  P28  1  0.65512100  0.11581500  0.24636100  1
  P  P29  1  0.88054600  0.76789400  0.10911200  1
  O  O30  1  0.03681600  0.35562000  0.95285100  1
  O  O31  1  0.39097800  0.93117700  0.87587900  1
  O  O32  1  0.16491000  0.63501400  0.90346100  1
  O  O33  1  0.15928800  0.13116300  0.97053100  1
  O  O34  1  0.15533600  0.88200500  0.70780000  1
  O  O35  1  0.53972100  0.27924100  0.00140000  1
  O  O36  1  0.27513800  0.33157700  0.86824500  1
  O  O37  1  0.45793400  0.95780500  0.68983100  1
  O  O38  1  0.00605300  0.38616700  0.71610000  1
  O  O39  1  0.69306000  0.81560000  0.79915200  1
  O  O40  1  0.30786200  0.68527500  0.70220400  1
  O  O41  1  0.54292600  0.54320100  0.81120800  1
  O  O42  1  0.73327900  0.36664700  0.89109400  1
  O  O43  1  0.03634900  0.86233500  0.44889900  1
  O  O44  1  0.72987100  0.11026000  0.92980000  1
  O  O45  1  0.84352500  0.61851900  0.79254400  1
  O  O46  1  0.16368700  0.65687200  0.48314300  1
  O  O47  1  0.27410500  0.39095300  0.57249200  1
  O  O48  1  0.83429500  0.86531300  0.59631900  1
  O  O49  1  0.60642800  0.57020500  0.62408000  1
  O  O50  1  0.26559400  0.13534600  0.61124200  1
  O  O51  1  0.54039100  0.77129800  0.49440600  1
  O  O52  1  0.27918800  0.83313300  0.36601600  1
  O  O53  1  0.01070700  0.89203800  0.21592300  1
  O  O54  1  0.99190700  0.11196200  0.78414200  1
  O  O55  1  0.72308000  0.16512200  0.63445900  1
  O  O56  1  0.46039300  0.22031900  0.49982500  1
  O  O57  1  0.73021900  0.84996200  0.38121800  1
  O  O58  1  0.39491400  0.42817500  0.38196300  1
  O  O59  1  0.16808100  0.13515200  0.40019300  1
  O  O60  1  0.73446000  0.60237400  0.43367400  1
  O  O61  1  0.83122400  0.37050600  0.53514900  1
  O  O62  1  0.16535900  0.38619300  0.20745300  1
  O  O63  1  0.26570800  0.89766200  0.06580600  1
  O  O64  1  0.95918200  0.14610900  0.54523100  1
  O  O65  1  0.27033300  0.65050100  0.11879800  1
  O  O66  1  0.47151000  0.48941200  0.20854500  1
  O  O67  1  0.66929400  0.29475200  0.29920100  1
  O  O68  1  0.32475300  0.19757000  0.19971800  1
  O  O69  1  0.99905000  0.61495200  0.28633100  1
  O  O70  1  0.53053500  0.00390700  0.28813500  1
  O  O71  1  0.72747600  0.67383700  0.13768000  1
  O  O72  1  0.45859200  0.72566100  0.00519000  1
  O  O73  1  0.82815800  0.09489300  0.27103600  1
  O  O74  1  0.84623900  0.86481200  0.02725100  1
  O  O75  1  0.83498400  0.36241600  0.10081900  1
  O  O76  1  0.59684900  0.07058200  0.11271300  1
  O  O77  1  0.96428900  0.64337300  0.05141900  1
