# generated using pymatgen
data_Li3V2H4(OF5)2
_symmetry_space_group_name_H-M   'P 1'
_cell_length_a   6.43555000
_cell_length_b   7.84452600
_cell_length_c   11.87302287
_cell_angle_alpha   53.20322348
_cell_angle_beta   90.00000000
_cell_angle_gamma   90.00000000
_symmetry_Int_Tables_number   1
_chemical_formula_structural   Li3V2H4(OF5)2
_chemical_formula_sum   'Li6 V4 H8 O4 F20'
_cell_volume   479.97520311
_cell_formula_units_Z   2
loop_
 _symmetry_equiv_pos_site_id
 _symmetry_equiv_pos_as_xyz
  1  'x, y, z'
loop_
 _atom_site_type_symbol
 _atom_site_label
 _atom_site_symmetry_multiplicity
 _atom_site_fract_x
 _atom_site_fract_y
 _atom_site_fract_z
 _atom_site_occupancy
  Li  Li0  1  0.72710100  0.71704600  0.77689700  1
  Li  Li1  1  0.73346700  0.23163900  0.77068900  1
  Li  Li2  1  0.27743200  0.77352300  0.72913800  1
  Li  Li3  1  0.26653300  0.23163900  0.27068900  1
  Li  Li4  1  0.72256800  0.77352300  0.22913800  1
  Li  Li5  1  0.27289900  0.71704600  0.27689700  1
  V  V6  1  0.01854900  0.74600200  0.00284000  1
  V  V7  1  0.48023000  0.24958100  0.00214600  1
  V  V8  1  0.98145100  0.74600200  0.50284000  1
  V  V9  1  0.51977000  0.24958100  0.50214600  1
  H  H10  1  0.07312800  0.36306300  0.96745800  1
  H  H11  1  0.41384100  0.89949700  0.95560800  1
  H  H12  1  0.92468300  0.11969500  0.53098700  1
  H  H13  1  0.92687200  0.36306300  0.46745800  1
  H  H14  1  0.58886500  0.63668800  0.52675700  1
  H  H15  1  0.58615900  0.89949700  0.45560800  1
  H  H16  1  0.07531700  0.11969500  0.03098700  1
  H  H17  1  0.41113500  0.63668800  0.02675700  1
  O  O18  1  0.16517700  0.24342800  0.99623300  1
  O  O19  1  0.32831800  0.76937600  0.98559500  1
  O  O20  1  0.83482300  0.24342800  0.49623300  1
  O  O21  1  0.67168200  0.76937600  0.48559500  1
  F  F22  1  0.77353800  0.26648600  0.98919800  1
  F  F23  1  0.01937500  0.65345200  0.88535500  1
  F  F24  1  0.73469100  0.72003900  0.01775300  1
  F  F25  1  0.99116700  0.02167300  0.84351100  1
  F  F26  1  0.93692900  0.47801600  0.66560600  1
  F  F27  1  0.50486000  0.11621200  0.90183600  1
  F  F28  1  0.98386700  0.84446200  0.61855200  1
  F  F29  1  0.47787900  0.54682900  0.82224900  1
  F  F30  1  0.22646200  0.26648600  0.48919800  1
  F  F31  1  0.52569800  0.95232200  0.68106700  1
  F  F32  1  0.98062500  0.65345200  0.38535500  1
  F  F33  1  0.55957000  0.37335400  0.60407000  1
  F  F34  1  0.00883300  0.02167300  0.34351100  1
  F  F35  1  0.26530900  0.72003900  0.51775300  1
  F  F36  1  0.06307100  0.47801600  0.16560600  1
  F  F37  1  0.49514000  0.11621200  0.40183600  1
  F  F38  1  0.01613300  0.84446200  0.11855200  1
  F  F39  1  0.52212100  0.54682900  0.32224900  1
  F  F40  1  0.47430200  0.95232200  0.18106700  1
  F  F41  1  0.44043000  0.37335400  0.10407000  1
