# generated using pymatgen
data_Li8TiMn3(PO4)6
_symmetry_space_group_name_H-M   'P 1'
_cell_length_a   8.92072086
_cell_length_b   8.92072086
_cell_length_c   8.92072060
_cell_angle_alpha   60.85266430
_cell_angle_beta   60.85266430
_cell_angle_gamma   60.85266998
_symmetry_Int_Tables_number   1
_chemical_formula_structural   Li8TiMn3(PO4)6
_chemical_formula_sum   'Li8 Ti1 Mn3 P6 O24'
_cell_volume   511.62884145
_cell_formula_units_Z   1
loop_
 _symmetry_equiv_pos_site_id
 _symmetry_equiv_pos_as_xyz
  1  'x, y, z'
loop_
 _atom_site_type_symbol
 _atom_site_label
 _atom_site_symmetry_multiplicity
 _atom_site_fract_x
 _atom_site_fract_y
 _atom_site_fract_z
 _atom_site_occupancy
  Li  Li0  1  0.03458600  0.03458600  0.03458600  1
  Li  Li1  1  0.76348000  0.35744200  0.19803000  1
  Li  Li2  1  0.19803000  0.76348000  0.35744200  1
  Li  Li3  1  0.35744200  0.19803000  0.76348000  1
  Li  Li4  1  0.52632500  0.52632500  0.52632500  1
  Li  Li5  1  0.68064300  0.86569900  0.27631500  1
  Li  Li6  1  0.86569900  0.27631500  0.68064300  1
  Li  Li7  1  0.27631500  0.68064300  0.86569900  1
  Ti  Ti8  1  0.85094700  0.85094700  0.85094700  1
  Mn  Mn9  1  0.16142000  0.16142000  0.16142000  1
  Mn  Mn10  1  0.65723500  0.65723500  0.65723500  1
  Mn  Mn11  1  0.35181300  0.35181300  0.35181300  1
  P  P12  1  0.45098000  0.75285800  0.04635700  1
  P  P13  1  0.75285800  0.04635700  0.45098000  1
  P  P14  1  0.04635700  0.45098000  0.75285800  1
  P  P15  1  0.94070500  0.55618900  0.24514500  1
  P  P16  1  0.24514500  0.94070500  0.55618900  1
  P  P17  1  0.55618900  0.24514500  0.94070500  1
  O  O18  1  0.26858700  0.91049500  0.07787800  1
  O  O19  1  0.61700000  0.81513000  0.97616600  1
  O  O20  1  0.45018000  0.59698900  0.23088900  1
  O  O21  1  0.69531300  0.90217700  0.46507900  1
  O  O22  1  0.91049500  0.07787800  0.26858700  1
  O  O23  1  0.59698900  0.23088900  0.45018000  1
  O  O24  1  0.90217700  0.46507900  0.69531300  1
  O  O25  1  0.23088900  0.45018000  0.59698900  1
  O  O26  1  0.95675200  0.39923500  0.20304500  1
  O  O27  1  0.90449000  0.74249300  0.08530300  1
  O  O28  1  0.46507900  0.69531300  0.90217700  1
  O  O29  1  0.20304500  0.95675200  0.39923500  1
  O  O30  1  0.81513000  0.97616600  0.61700000  1
  O  O31  1  0.52430200  0.26990800  0.11311900  1
  O  O32  1  0.07787800  0.26858700  0.91049500  1
  O  O33  1  0.97616600  0.61700000  0.81513000  1
  O  O34  1  0.76227900  0.58613400  0.40689800  1
  O  O35  1  0.11311900  0.52430200  0.26990800  1
  O  O36  1  0.40689800  0.76227900  0.58613400  1
  O  O37  1  0.08530300  0.90449000  0.74249300  1
  O  O38  1  0.26990800  0.11311900  0.52430200  1
  O  O39  1  0.39923500  0.20304500  0.95675200  1
  O  O40  1  0.58613400  0.40689800  0.76227900  1
  O  O41  1  0.74249300  0.08530300  0.90449000  1
