# generated using pymatgen
data_Li5V3P8O29
_symmetry_space_group_name_H-M   'P 1'
_cell_length_a   9.77068600
_cell_length_b   9.78150774
_cell_length_c   14.01688073
_cell_angle_alpha   90.22287200
_cell_angle_beta   90.12559653
_cell_angle_gamma   119.70887610
_symmetry_Int_Tables_number   1
_chemical_formula_structural   Li5V3P8O29
_chemical_formula_sum   'Li10 V6 P16 O58'
_cell_volume   1163.51306761
_cell_formula_units_Z   2
loop_
 _symmetry_equiv_pos_site_id
 _symmetry_equiv_pos_as_xyz
  1  'x, y, z'
loop_
 _atom_site_type_symbol
 _atom_site_label
 _atom_site_symmetry_multiplicity
 _atom_site_fract_x
 _atom_site_fract_y
 _atom_site_fract_z
 _atom_site_occupancy
  Li  Li0  1  0.67656300  0.90796600  0.56263800  1
  Li  Li1  1  0.34755200  0.66867200  0.88701000  1
  Li  Li2  1  0.08948200  0.32485300  0.05954200  1
  Li  Li3  1  0.23013600  0.91283400  0.06076100  1
  Li  Li4  1  0.91671200  0.22351700  0.44090800  1
  Li  Li5  1  0.09305300  0.77248700  0.56051700  1
  Li  Li6  1  0.89378700  0.66173800  0.94170700  1
  Li  Li7  1  0.77101500  0.67757600  0.43864800  1
  Li  Li8  1  0.31933600  0.09272400  0.44489000  1
  Li  Li9  1  0.95312300  0.00236000  0.99034300  1
  V  V10  1  0.00014100  0.43079400  0.25178800  1
  V  V11  1  0.99824900  0.56669600  0.74627600  1
  V  V12  1  0.57073000  0.00391700  0.75752000  1
  V  V13  1  0.43679700  0.00185800  0.24745800  1
  V  V14  1  0.56166000  0.56610000  0.24336600  1
  V  V15  1  0.43095400  0.42509900  0.74838400  1
  P  P16  1  0.69110600  0.77704100  0.84155100  1
  P  P17  1  0.68075800  0.91109600  0.34115200  1
  P  P18  1  0.23404000  0.31689700  0.34532300  1
  P  P19  1  0.32818600  0.66350100  0.12605500  1
  P  P20  1  0.33911100  0.67037400  0.62999100  1
  P  P21  1  0.09266500  0.31644600  0.84135400  1
  P  P22  1  0.91183000  0.22844900  0.65824300  1
  P  P23  1  0.22371400  0.90669300  0.84383400  1
  P  P24  1  0.77738300  0.08408400  0.15692900  1
  P  P25  1  0.09126900  0.76971600  0.34119200  1
  P  P26  1  0.91114900  0.68317500  0.15947500  1
  P  P27  1  0.66675800  0.33639200  0.36893800  1
  P  P28  1  0.66808100  0.33880100  0.87289000  1
  P  P29  1  0.76496900  0.68195900  0.65505900  1
  P  P30  1  0.31741100  0.08403600  0.66109200  1
  P  P31  1  0.30702000  0.22543700  0.15743700  1
  O  O32  1  0.75140200  0.75480400  0.56388500  1
  O  O33  1  0.66182400  0.74413600  0.33829100  1
  O  O34  1  0.80240700  0.00587900  0.07418600  1
  O  O35  1  0.65875900  0.91565800  0.84294900  1
  O  O36  1  0.53031200  0.62243400  0.83461500  1
  O  O37  1  0.48048000  0.66906500  0.17260600  1
  O  O38  1  0.38375500  0.47721400  0.32202400  1
  O  O39  1  0.21097900  0.21996300  0.07364200  1
  O  O40  1  0.26266100  0.34144600  0.83304900  1
  O  O41  1  0.48851100  0.81940700  0.67220200  1
  O  O42  1  0.51966100  0.90003500  0.32005300  1
  O  O43  1  0.34082600  0.52588500  0.68039500  1
  O  O44  1  0.33356600  0.65949900  0.01932400  1
  O  O45  1  0.34400000  0.66600000  0.52424500  1
  O  O46  1  0.18541400  0.50929500  0.16351600  1
  O  O47  1  0.37169600  0.88819800  0.83083300  1
  O  O48  1  0.32094400  0.81038100  0.16291700  1
  O  O49  1  0.08641200  0.33707300  0.34325900  1
  O  O50  1  0.00271100  0.21026900  0.74963800  1
  O  O51  1  0.99438900  0.24177500  0.56770300  1
  O  O52  1  0.01624600  0.22935400  0.93065000  1
  O  O53  1  0.10672900  0.48023400  0.83028300  1
  O  O54  1  0.18702300  0.67329900  0.66636500  1
  O  O55  1  0.91712800  0.25770500  0.16526700  1
  O  O56  1  0.10283500  0.62015600  0.32111000  1
  O  O57  1  0.25622300  0.91781800  0.34140400  1
  O  O58  1  0.79567400  0.00511400  0.25518900  1
  O  O59  1  0.75320900  0.99614800  0.43302100  1
  O  O60  1  0.23636900  0.99750000  0.57135700  1
  O  O61  1  0.74647000  0.08216200  0.66318000  1
  O  O62  1  0.90151500  0.37994800  0.68105900  1
  O  O63  1  0.07661800  0.73838400  0.83618100  1
  O  O64  1  0.81528700  0.32866600  0.33225000  1
  O  O65  1  0.90774200  0.52686500  0.17181800  1
  O  O66  1  0.99315200  0.77140800  0.07056100  1
  O  O67  1  0.00054700  0.75471200  0.43068500  1
  O  O68  1  0.00121700  0.79294200  0.25119200  1
  O  O69  1  0.91538400  0.66624100  0.65635000  1
  O  O70  1  0.66823600  0.18974900  0.83068200  1
  O  O71  1  0.61920300  0.08129200  0.16558700  1
  O  O72  1  0.81498400  0.48923100  0.83356800  1
  O  O73  1  0.65886600  0.34437600  0.97800900  1
  O  O74  1  0.66573900  0.34539700  0.47502800  1
  O  O75  1  0.66915200  0.48578600  0.32299700  1
  O  O76  1  0.47591900  0.09220000  0.67727200  1
  O  O77  1  0.51562100  0.18658500  0.32842600  1
  O  O78  1  0.74160400  0.65893500  0.16598600  1
  O  O79  1  0.78378800  0.79674600  0.74164300  1
  O  O80  1  0.80003700  0.78998200  0.92064600  1
  O  O81  1  0.61814400  0.52263300  0.67639900  1
  O  O82  1  0.52022400  0.33640000  0.82209600  1
  O  O83  1  0.46718700  0.38246600  0.17028500  1
  O  O84  1  0.33943300  0.08520700  0.15944200  1
  O  O85  1  0.21738500  0.98393300  0.93386400  1
  O  O86  1  0.20690400  0.99589100  0.75177000  1
  O  O87  1  0.33877400  0.25246900  0.66450100  1
  O  O88  1  0.24748000  0.23735700  0.43125900  1
  O  O89  1  0.20959600  0.20675000  0.25285100  1
