# generated using pymatgen
data_Li3CrPCO7
_symmetry_space_group_name_H-M   'P 1'
_cell_length_a   6.48494100
_cell_length_b   8.55502200
_cell_length_c   9.98871122
_cell_angle_alpha   84.91204430
_cell_angle_beta   90.00000000
_cell_angle_gamma   90.00000000
_symmetry_Int_Tables_number   1
_chemical_formula_structural   Li3CrPCO7
_chemical_formula_sum   'Li12 Cr4 P4 C4 O28'
_cell_volume   551.97829380
_cell_formula_units_Z   4
loop_
 _symmetry_equiv_pos_site_id
 _symmetry_equiv_pos_as_xyz
  1  'x, y, z'
loop_
 _atom_site_type_symbol
 _atom_site_label
 _atom_site_symmetry_multiplicity
 _atom_site_fract_x
 _atom_site_fract_y
 _atom_site_fract_z
 _atom_site_occupancy
  Li  Li0  1  0.74631000  0.89311000  0.61503800  1
  Li  Li1  1  0.75369000  0.89311000  0.11503800  1
  Li  Li2  1  0.98054100  0.70748800  0.88358900  1
  Li  Li3  1  0.51945900  0.70748800  0.38358900  1
  Li  Li4  1  0.25822800  0.64570500  0.61112800  1
  Li  Li5  1  0.24177200  0.64570500  0.11112800  1
  Li  Li6  1  0.75822800  0.35429500  0.88887200  1
  Li  Li7  1  0.74177200  0.35429500  0.38887200  1
  Li  Li8  1  0.48054100  0.29251200  0.61641100  1
  Li  Li9  1  0.01945900  0.29251200  0.11641100  1
  Li  Li10  1  0.24631000  0.10689000  0.88496200  1
  Li  Li11  1  0.25369000  0.10689000  0.38496200  1
  Cr  Cr12  1  0.48992000  0.73824900  0.87562000  1
  Cr  Cr13  1  0.01008000  0.73824900  0.37562000  1
  Cr  Cr14  1  0.98992000  0.26175100  0.62438000  1
  Cr  Cr15  1  0.51008000  0.26175100  0.12438000  1
  P  P16  1  0.75343200  0.58954300  0.63900200  1
  P  P17  1  0.74656800  0.58954300  0.13900200  1
  P  P18  1  0.25343200  0.41045700  0.86099800  1
  P  P19  1  0.24656800  0.41045700  0.36099800  1
  C  C20  1  0.25048100  0.96185200  0.64719000  1
  C  C21  1  0.24951900  0.96185200  0.14719000  1
  C  C22  1  0.75048100  0.03814800  0.85281000  1
  C  C23  1  0.74951900  0.03814800  0.35281000  1
  O  O24  1  0.24669300  0.93536400  0.52354200  1
  O  O25  1  0.73407400  0.89238500  0.81774700  1
  O  O26  1  0.25330700  0.93536400  0.02354200  1
  O  O27  1  0.26763600  0.85024100  0.74266000  1
  O  O28  1  0.76592600  0.89238500  0.31774700  1
  O  O29  1  0.23236400  0.85024100  0.24266000  1
  O  O30  1  0.94300300  0.68830700  0.58343200  1
  O  O31  1  0.56401000  0.68593700  0.58638800  1
  O  O32  1  0.93599000  0.68593700  0.08638800  1
  O  O33  1  0.55699700  0.68830700  0.08343200  1
  O  O34  1  0.25175100  0.57827000  0.91114500  1
  O  O35  1  0.76150900  0.57365200  0.79480900  1
  O  O36  1  0.24824900  0.57827000  0.41114500  1
  O  O37  1  0.73849100  0.57365200  0.29480900  1
  O  O38  1  0.26150900  0.42634800  0.70519100  1
  O  O39  1  0.75175100  0.42173000  0.58885500  1
  O  O40  1  0.23849100  0.42634800  0.20519100  1
  O  O41  1  0.74824900  0.42173000  0.08885500  1
  O  O42  1  0.06401000  0.31406300  0.91361200  1
  O  O43  1  0.44300300  0.31169300  0.91656800  1
  O  O44  1  0.43599000  0.31406300  0.41361200  1
  O  O45  1  0.05699700  0.31169300  0.41656800  1
  O  O46  1  0.76763600  0.14975900  0.75734000  1
  O  O47  1  0.23407400  0.10761500  0.68225300  1
  O  O48  1  0.73236400  0.14975900  0.25734000  1
  O  O49  1  0.74669300  0.06463600  0.97645800  1
  O  O50  1  0.26592600  0.10761500  0.18225300  1
  O  O51  1  0.75330700  0.06463600  0.47645800  1
