# generated using pymatgen
data_LiMnPO4
_symmetry_space_group_name_H-M   'P 1'
_cell_length_a   7.97037700
_cell_length_b   8.83785500
_cell_length_c   17.63800917
_cell_angle_alpha   60.77301366
_cell_angle_beta   90.00000000
_cell_angle_gamma   90.00000000
_symmetry_Int_Tables_number   1
_chemical_formula_structural   LiMnPO4
_chemical_formula_sum   'Li12 Mn12 P12 O48'
_cell_volume   1084.26738341
_cell_formula_units_Z   12
loop_
 _symmetry_equiv_pos_site_id
 _symmetry_equiv_pos_as_xyz
  1  'x, y, z'
loop_
 _atom_site_type_symbol
 _atom_site_label
 _atom_site_symmetry_multiplicity
 _atom_site_fract_x
 _atom_site_fract_y
 _atom_site_fract_z
 _atom_site_occupancy
  Li  Li0  1  0.99196600  0.27169800  0.93560100  1
  Li  Li1  1  0.01546200  0.63727200  0.58658400  1
  Li  Li2  1  0.86712100  0.00429900  0.24629800  1
  Li  Li3  1  0.36712100  0.99570100  0.25370200  1
  Li  Li4  1  0.51546200  0.36272800  0.91341600  1
  Li  Li5  1  0.49196600  0.72830200  0.56439900  1
  Li  Li6  1  0.50803400  0.27169800  0.43560100  1
  Li  Li7  1  0.48453800  0.63727200  0.08658400  1
  Li  Li8  1  0.63287900  0.00429900  0.74629800  1
  Li  Li9  1  0.13287900  0.99570100  0.75370200  1
  Li  Li10  1  0.98453800  0.36272800  0.41341600  1
  Li  Li11  1  0.00803400  0.72830200  0.06439900  1
  Mn  Mn12  1  0.66479300  0.65226300  0.40484600  1
  Mn  Mn13  1  0.82308600  0.31486100  0.76302800  1
  Mn  Mn14  1  0.66457100  0.01686800  0.08126100  1
  Mn  Mn15  1  0.16457100  0.98313200  0.41873900  1
  Mn  Mn16  1  0.32308600  0.68513900  0.73697200  1
  Mn  Mn17  1  0.16479300  0.34773700  0.09515400  1
  Mn  Mn18  1  0.83520700  0.65226300  0.90484600  1
  Mn  Mn19  1  0.67691400  0.31486100  0.26302800  1
  Mn  Mn20  1  0.83542900  0.01686800  0.58126100  1
  Mn  Mn21  1  0.33542900  0.98313200  0.91873900  1
  Mn  Mn22  1  0.17691400  0.68513900  0.23697200  1
  Mn  Mn23  1  0.33520700  0.34773700  0.59515400  1
  P  P24  1  0.25800700  0.63883200  0.41264200  1
  P  P25  1  0.22176300  0.31344600  0.77229000  1
  P  P26  1  0.26488500  0.03615700  0.07182500  1
  P  P27  1  0.76488500  0.96384300  0.42817500  1
  P  P28  1  0.72176300  0.68655400  0.72771000  1
  P  P29  1  0.75800700  0.36116800  0.08735800  1
  P  P30  1  0.24199300  0.63883200  0.91264200  1
  P  P31  1  0.27823700  0.31344600  0.27229000  1
  P  P32  1  0.23511500  0.03615700  0.57182500  1
  P  P33  1  0.73511500  0.96384300  0.92817500  1
  P  P34  1  0.77823700  0.68655400  0.22771000  1
  P  P35  1  0.74199300  0.36116800  0.58735800  1
  O  O36  1  0.57336000  0.44108500  0.59622100  1
  O  O37  1  0.88091200  0.41473700  0.63164500  1
  O  O38  1  0.78228200  0.09181200  0.96195200  1
  O  O39  1  0.05476000  0.26389100  0.82531800  1
  O  O40  1  0.36778600  0.25417300  0.83906000  1
  O  O41  1  0.76752300  0.78620000  0.28031300  1
  O  O42  1  0.21569400  0.57716800  0.50941600  1
  O  O43  1  0.28602000  0.93038400  0.17238400  1
  O  O44  1  0.43352000  0.13099700  0.03098800  1
  O  O45  1  0.22621300  0.50978200  0.70468000  1
  O  O46  1  0.27235400  0.84138700  0.36430700  1
  O  O47  1  0.12610700  0.17582700  0.04666000  1
  O  O48  1  0.62610700  0.82417300  0.45334000  1
  O  O49  1  0.77235400  0.15861300  0.13569300  1
  O  O50  1  0.72621300  0.49021800  0.79532000  1
  O  O51  1  0.93352000  0.86900300  0.46901200  1
  O  O52  1  0.78602000  0.06961600  0.32761600  1
  O  O53  1  0.71569400  0.42283200  0.99058400  1
  O  O54  1  0.86778600  0.74582700  0.66094000  1
  O  O55  1  0.26752300  0.21380000  0.21968700  1
  O  O56  1  0.55476000  0.73610900  0.67468200  1
  O  O57  1  0.28228200  0.90818800  0.53804800  1
  O  O58  1  0.38091200  0.58526300  0.86835500  1
  O  O59  1  0.07336000  0.55891500  0.90377900  1
  O  O60  1  0.92664000  0.44108500  0.09622100  1
  O  O61  1  0.61908800  0.41473700  0.13164500  1
  O  O62  1  0.71771800  0.09181200  0.46195200  1
  O  O63  1  0.44524000  0.26389100  0.32531800  1
  O  O64  1  0.73247700  0.78620000  0.78031300  1
  O  O65  1  0.13221400  0.25417300  0.33906000  1
  O  O66  1  0.28430600  0.57716800  0.00941600  1
  O  O67  1  0.21398000  0.93038400  0.67238400  1
  O  O68  1  0.06648000  0.13099700  0.53098800  1
  O  O69  1  0.27378700  0.50978200  0.20468000  1
  O  O70  1  0.22764600  0.84138700  0.86430700  1
  O  O71  1  0.37389300  0.17582700  0.54666000  1
  O  O72  1  0.87389300  0.82417300  0.95334000  1
  O  O73  1  0.72764600  0.15861300  0.63569300  1
  O  O74  1  0.77378700  0.49021800  0.29532000  1
  O  O75  1  0.56648000  0.86900300  0.96901200  1
  O  O76  1  0.71398000  0.06961600  0.82761600  1
  O  O77  1  0.78430600  0.42283200  0.49058400  1
  O  O78  1  0.23247700  0.21380000  0.71968700  1
  O  O79  1  0.63221400  0.74582700  0.16094000  1
  O  O80  1  0.94524000  0.73610900  0.17468200  1
  O  O81  1  0.21771800  0.90818800  0.03804800  1
  O  O82  1  0.11908800  0.58526300  0.36835500  1
  O  O83  1  0.42664000  0.55891500  0.40377900  1
