# generated using pymatgen
data_Li3VF6
_symmetry_space_group_name_H-M   'P 1'
_cell_length_a   9.14842877
_cell_length_b   9.14842877
_cell_length_c   9.43202723
_cell_angle_alpha   88.17808604
_cell_angle_beta   88.17808604
_cell_angle_gamma   33.90239594
_symmetry_Int_Tables_number   1
_chemical_formula_structural   Li3VF6
_chemical_formula_sum   'Li12 V4 F24'
_cell_volume   440.06907273
_cell_formula_units_Z   4
loop_
 _symmetry_equiv_pos_site_id
 _symmetry_equiv_pos_as_xyz
  1  'x, y, z'
loop_
 _atom_site_type_symbol
 _atom_site_label
 _atom_site_symmetry_multiplicity
 _atom_site_fract_x
 _atom_site_fract_y
 _atom_site_fract_z
 _atom_site_occupancy
  Li  Li0  1  0.13853500  0.70133800  0.95011500  1
  Li  Li1  1  0.70133800  0.13853500  0.45011500  1
  Li  Li2  1  0.60781200  0.03913600  0.81986700  1
  Li  Li3  1  0.17876300  0.60377300  0.60070800  1
  Li  Li4  1  0.03913600  0.60781200  0.31986700  1
  Li  Li5  1  0.60377300  0.17876300  0.10070800  1
  Li  Li6  1  0.39622700  0.82123700  0.89929200  1
  Li  Li7  1  0.96086400  0.39218800  0.68013300  1
  Li  Li8  1  0.82123700  0.39622700  0.39929200  1
  Li  Li9  1  0.39218800  0.96086400  0.18013300  1
  Li  Li10  1  0.29866200  0.86146500  0.54988500  1
  Li  Li11  1  0.86146500  0.29866200  0.04988500  1
  V  V12  1  0.50000000  0.00000000  0.50000000  1
  V  V13  1  0.00000000  0.50000000  0.00000000  1
  V  V14  1  0.79633800  0.20366200  0.75000000  1
  V  V15  1  0.20366200  0.79633800  0.25000000  1
  F  F16  1  0.74854500  0.21570300  0.96187000  1
  F  F17  1  0.99849400  0.84928200  0.76046200  1
  F  F18  1  0.50124900  0.32319000  0.71423000  1
  F  F19  1  0.21570300  0.74854500  0.46187000  1
  F  F20  1  0.84928200  0.99849400  0.26046200  1
  F  F21  1  0.32319000  0.50124900  0.21423000  1
  F  F22  1  0.32250800  0.34865400  0.96014800  1
  F  F23  1  0.34865400  0.32250800  0.46014800  1
  F  F24  1  0.84583500  0.82437900  0.51513200  1
  F  F25  1  0.82437900  0.84583500  0.01513200  1
  F  F26  1  0.89234200  0.60992500  0.80464300  1
  F  F27  1  0.39007500  0.10765800  0.69535800  1
  F  F28  1  0.60992500  0.89234200  0.30464200  1
  F  F29  1  0.10765800  0.39007500  0.19535700  1
  F  F30  1  0.17562100  0.15416500  0.98486800  1
  F  F31  1  0.15416500  0.17562100  0.48486800  1
  F  F32  1  0.65134600  0.67749200  0.53985200  1
  F  F33  1  0.67749200  0.65134600  0.03985200  1
  F  F34  1  0.67681000  0.49875100  0.78577000  1
  F  F35  1  0.15071800  0.00150600  0.73953800  1
  F  F36  1  0.78429700  0.25145500  0.53813000  1
  F  F37  1  0.49875100  0.67681000  0.28577000  1
  F  F38  1  0.00150600  0.15071800  0.23953800  1
  F  F39  1  0.25145500  0.78429700  0.03813000  1
