# generated using pymatgen
data_Li6Mn15O32
_symmetry_space_group_name_H-M   'P 1'
_cell_length_a   5.98047071
_cell_length_b   5.89186002
_cell_length_c   19.40674593
_cell_angle_alpha   97.90610871
_cell_angle_beta   97.94381110
_cell_angle_gamma   59.19681114
_symmetry_Int_Tables_number   1
_chemical_formula_structural   Li6Mn15O32
_chemical_formula_sum   'Li6 Mn15 O32'
_cell_volume   579.92146612
_cell_formula_units_Z   1
loop_
 _symmetry_equiv_pos_site_id
 _symmetry_equiv_pos_as_xyz
  1  'x, y, z'
loop_
 _atom_site_type_symbol
 _atom_site_label
 _atom_site_symmetry_multiplicity
 _atom_site_fract_x
 _atom_site_fract_y
 _atom_site_fract_z
 _atom_site_occupancy
  Li  Li0  1  0.84864900  0.82934900  0.03265900  1
  Li  Li1  1  0.90248800  0.91733100  0.21742400  1
  Li  Li2  1  0.58807200  0.59101700  0.27588500  1
  Li  Li3  1  0.65966900  0.65163300  0.46902100  1
  Li  Li4  1  0.09030500  0.09778600  0.78059400  1
  Li  Li5  1  0.16214100  0.15626900  0.97453600  1
  Mn  Mn6  1  0.50167900  0.50609300  0.00431200  1
  Mn  Mn7  1  0.87425200  0.37377000  0.12497100  1
  Mn  Mn8  1  0.37547800  0.37287400  0.12521600  1
  Mn  Mn9  1  0.12640200  0.62080100  0.37531400  1
  Mn  Mn10  1  0.24804200  0.24201200  0.24575200  1
  Mn  Mn11  1  0.37475500  0.87297800  0.62478600  1
  Mn  Mn12  1  0.87376300  0.87357500  0.62468000  1
  Mn  Mn13  1  0.12559600  0.12501000  0.37441400  1
  Mn  Mn14  1  0.62279200  0.12604200  0.37551200  1
  Mn  Mn15  1  0.74495600  0.74687000  0.74853400  1
  Mn  Mn16  1  0.00420700  0.00072700  0.50129700  1
  Mn  Mn17  1  0.87425000  0.37339900  0.62486300  1
  Mn  Mn18  1  0.62410000  0.62379500  0.87557400  1
  Mn  Mn19  1  0.12692600  0.62302600  0.87469200  1
  Mn  Mn20  1  0.62403600  0.12705300  0.87453000  1
  O  O21  1  0.69654500  0.63230400  0.05774300  1
  O  O22  1  0.22689100  0.63491400  0.05758700  1
  O  O23  1  0.40737000  0.97134000  0.31379400  1
  O  O24  1  0.67616800  0.21637700  0.06668300  1
  O  O25  1  0.57156700  0.52512800  0.17551000  1
  O  O26  1  0.95998800  0.93305000  0.32240400  1
  O  O27  1  0.17793600  0.22264000  0.07473200  1
  O  O28  1  0.07361900  0.53089400  0.18355600  1
  O  O29  1  0.52301800  0.11127900  0.19255300  1
  O  O30  1  0.83303400  0.83366600  0.43538500  1
  O  O31  1  0.05442300  0.11423000  0.19237800  1
  O  O32  1  0.27578400  0.82432200  0.43373100  1
  O  O33  1  0.97177600  0.42925600  0.31813200  1
  O  O34  1  0.41647800  0.42115000  0.31833700  1
  O  O35  1  0.28769300  0.31213100  0.42691000  1
  O  O36  1  0.17244900  0.73141800  0.56682300  1
  O  O37  1  0.67352500  0.67516400  0.56987400  1
  O  O38  1  0.84334200  0.27570400  0.43542000  1
  O  O39  1  0.58401400  0.57959600  0.68460300  1
  O  O40  1  0.01203900  0.57653300  0.68333600  1
  O  O41  1  0.73641900  0.17098900  0.56594200  1
  O  O42  1  0.91479300  0.91664300  0.81383400  1
  O  O43  1  0.16484200  0.16740900  0.56492500  1
  O  O44  1  0.47375800  0.92389700  0.81637700  1
  O  O45  1  0.89817400  0.47194100  0.81279700  1
  O  O46  1  0.07569300  0.07075800  0.67952000  1
  O  O47  1  0.79814600  0.81058000  0.92664700  1
  O  O48  1  0.45269500  0.44207000  0.82420300  1
  O  O49  1  0.57603000  0.01578800  0.68232100  1
  O  O50  1  0.34994200  0.77893700  0.93797200  1
  O  O51  1  0.33496300  0.32545600  0.93244400  1
  O  O52  1  0.77673000  0.31960800  0.93133300  1
