# generated using pymatgen
data_Li5V3F14
_symmetry_space_group_name_H-M   'P 1'
_cell_length_a   7.28849600
_cell_length_b   11.62895400
_cell_length_c   12.53588300
_cell_angle_alpha   90.00000000
_cell_angle_beta   90.00000000
_cell_angle_gamma   90.00000000
_symmetry_Int_Tables_number   1
_chemical_formula_structural   Li5V3F14
_chemical_formula_sum   'Li20 V12 F56'
_cell_volume   1062.51116533
_cell_formula_units_Z   4
loop_
 _symmetry_equiv_pos_site_id
 _symmetry_equiv_pos_as_xyz
  1  'x, y, z'
loop_
 _atom_site_type_symbol
 _atom_site_label
 _atom_site_symmetry_multiplicity
 _atom_site_fract_x
 _atom_site_fract_y
 _atom_site_fract_z
 _atom_site_occupancy
  Li  Li0  1  0.00272600  0.00995600  0.00995800  1
  Li  Li1  1  0.80758400  0.09125900  0.26764300  1
  Li  Li2  1  0.31222900  0.09052500  0.26468500  1
  Li  Li3  1  0.80138700  0.22150800  0.01235000  1
  Li  Li4  1  0.81811600  0.21713700  0.49410300  1
  Li  Li5  1  0.31811600  0.28286300  0.99410300  1
  Li  Li6  1  0.30138700  0.27849200  0.51235000  1
  Li  Li7  1  0.81222900  0.40947500  0.76468500  1
  Li  Li8  1  0.30758400  0.40874100  0.76764300  1
  Li  Li9  1  0.50272600  0.49004400  0.50995800  1
  Li  Li10  1  0.49727400  0.50995600  0.00995800  1
  Li  Li11  1  0.69241600  0.59125900  0.26764300  1
  Li  Li12  1  0.18777100  0.59052500  0.26468500  1
  Li  Li13  1  0.69861300  0.72150800  0.01235000  1
  Li  Li14  1  0.68188400  0.71713700  0.49410300  1
  Li  Li15  1  0.18188400  0.78286300  0.99410300  1
  Li  Li16  1  0.19861300  0.77849200  0.51235000  1
  Li  Li17  1  0.68777100  0.90947500  0.76468500  1
  Li  Li18  1  0.19241600  0.90874100  0.76764300  1
  Li  Li19  1  0.99727400  0.99004400  0.50995800  1
  V  V20  1  0.50148800  0.00123200  0.49597500  1
  V  V21  1  0.00076400  0.15633700  0.75075900  1
  V  V22  1  0.50016000  0.17149300  0.74739100  1
  V  V23  1  0.00016000  0.32850700  0.24739100  1
  V  V24  1  0.50076400  0.34366300  0.25075900  1
  V  V25  1  0.00148800  0.49876800  0.99597500  1
  V  V26  1  0.99851200  0.50123200  0.49597500  1
  V  V27  1  0.49923600  0.65633700  0.75075900  1
  V  V28  1  0.99984000  0.67149300  0.74739100  1
  V  V29  1  0.49984000  0.82850700  0.24739100  1
  V  V30  1  0.99923600  0.84366300  0.25075900  1
  V  V31  1  0.49851200  0.99876800  0.99597500  1
  F  F32  1  0.93058900  0.99135200  0.75018600  1
  F  F33  1  0.73275500  0.06642800  0.44035800  1
  F  F34  1  0.72732200  0.06587400  0.04831300  1
  F  F35  1  0.57994800  0.05156400  0.84838600  1
  F  F36  1  0.58258200  0.06225100  0.63945100  1
  F  F37  1  0.35576200  0.13397200  0.45442600  1
  F  F38  1  0.35323700  0.13068300  0.03746200  1
  F  F39  1  0.25681800  0.08993600  0.74808700  1
  F  F40  1  0.99430300  0.14347400  0.90749700  1
  F  F41  1  0.99430500  0.14271800  0.59250200  1
  F  F42  1  0.57702100  0.18292800  0.25019100  1
  F  F43  1  0.93632800  0.22264300  0.35838900  1
  F  F44  1  0.93304400  0.21630800  0.14274000  1
  F  F45  1  0.75326900  0.23788600  0.75042200  1
  F  F46  1  0.25326900  0.26211400  0.25042200  1
  F  F47  1  0.43304400  0.28369200  0.64274000  1
  F  F48  1  0.43632800  0.27735700  0.85838900  1
  F  F49  1  0.07702100  0.31707200  0.75019100  1
  F  F50  1  0.49430500  0.35728200  0.09250200  1
  F  F51  1  0.49430300  0.35652600  0.40749700  1
  F  F52  1  0.85323700  0.36931700  0.53746200  1
  F  F53  1  0.75681800  0.41006400  0.24808700  1
  F  F54  1  0.85576200  0.36602800  0.95442600  1
  F  F55  1  0.08258200  0.43774900  0.13945100  1
  F  F56  1  0.07994800  0.44843600  0.34838600  1
  F  F57  1  0.22732200  0.43412600  0.54831300  1
  F  F58  1  0.23275500  0.43357200  0.94035800  1
  F  F59  1  0.43058900  0.50864800  0.25018600  1
  F  F60  1  0.56941100  0.49135200  0.75018600  1
  F  F61  1  0.76724500  0.56642800  0.44035800  1
  F  F62  1  0.77267800  0.56587400  0.04831300  1
  F  F63  1  0.92005200  0.55156400  0.84838600  1
  F  F64  1  0.91741800  0.56225100  0.63945100  1
  F  F65  1  0.14423800  0.63397200  0.45442600  1
  F  F66  1  0.14676300  0.63068300  0.03746200  1
  F  F67  1  0.24318200  0.58993600  0.74808700  1
  F  F68  1  0.50569700  0.64347400  0.90749700  1
  F  F69  1  0.50569500  0.64271800  0.59250200  1
  F  F70  1  0.92297900  0.68292800  0.25019100  1
  F  F71  1  0.56367200  0.72264300  0.35838900  1
  F  F72  1  0.56695600  0.71630800  0.14274000  1
  F  F73  1  0.74673100  0.73788600  0.75042200  1
  F  F74  1  0.24673100  0.76211400  0.25042200  1
  F  F75  1  0.06695600  0.78369200  0.64274000  1
  F  F76  1  0.06367200  0.77735700  0.85838900  1
  F  F77  1  0.42297900  0.81707200  0.75019100  1
  F  F78  1  0.00569500  0.85728200  0.09250200  1
  F  F79  1  0.00569700  0.85652600  0.40749700  1
  F  F80  1  0.64676300  0.86931700  0.53746200  1
  F  F81  1  0.74318200  0.91006400  0.24808700  1
  F  F82  1  0.64423800  0.86602800  0.95442600  1
  F  F83  1  0.41741800  0.93774900  0.13945100  1
  F  F84  1  0.42005200  0.94843600  0.34838600  1
  F  F85  1  0.27267800  0.93412600  0.54831300  1
  F  F86  1  0.26724500  0.93357200  0.94035800  1
  F  F87  1  0.06941100  0.00864800  0.25018600  1
