# generated using pymatgen
data_Li6V3P8O29
_symmetry_space_group_name_H-M   'P 1'
_cell_length_a   9.81010000
_cell_length_b   9.81972598
_cell_length_c   13.92662847
_cell_angle_alpha   90.12707154
_cell_angle_beta   89.94533983
_cell_angle_gamma   119.93587395
_symmetry_Int_Tables_number   1
_chemical_formula_structural   Li6V3P8O29
_chemical_formula_sum   'Li12 V6 P16 O58'
_cell_volume   1162.59544825
_cell_formula_units_Z   2
loop_
 _symmetry_equiv_pos_site_id
 _symmetry_equiv_pos_as_xyz
  1  'x, y, z'
loop_
 _atom_site_type_symbol
 _atom_site_label
 _atom_site_symmetry_multiplicity
 _atom_site_fract_x
 _atom_site_fract_y
 _atom_site_fract_z
 _atom_site_occupancy
  Li  Li0  1  0.23351700  0.91008800  0.06024900  1
  Li  Li1  1  0.68041200  0.90618600  0.56167900  1
  Li  Li2  1  0.33289600  0.66386000  0.88442500  1
  Li  Li3  1  0.67382400  0.77141300  0.06029000  1
  Li  Li4  1  0.09322300  0.32816300  0.06127300  1
  Li  Li5  1  0.77687800  0.68978300  0.44169200  1
  Li  Li6  1  0.22776000  0.31729800  0.56277500  1
  Li  Li7  1  0.90126000  0.66692100  0.93777600  1
  Li  Li8  1  0.66483200  0.33490000  0.61421200  1
  Li  Li9  1  0.30318500  0.07920600  0.44004200  1
  Li  Li10  1  0.91158000  0.22400900  0.43951700  1
  Li  Li11  1  0.01402000  0.04146200  0.99236500  1
  V  V12  1  0.56596500  0.56653600  0.24860000  1
  V  V13  1  0.43555900  0.43062900  0.75410800  1
  V  V14  1  0.00214600  0.56785700  0.74524000  1
  V  V15  1  0.00036300  0.43341000  0.25035800  1
  V  V16  1  0.43284600  0.99902500  0.24848800  1
  V  V17  1  0.56700700  0.00415300  0.75471800  1
  P  P18  1  0.22398700  0.91048300  0.84291200  1
  P  P19  1  0.08571000  0.76919000  0.34044100  1
  P  P20  1  0.67876400  0.91265700  0.34350200  1
  P  P21  1  0.33310500  0.66659900  0.12520500  1
  P  P22  1  0.33857000  0.66643700  0.62850800  1
  P  P23  1  0.68305400  0.77366300  0.84217700  1
  P  P24  1  0.76894400  0.67731100  0.65662300  1
  P  P25  1  0.08995000  0.31678000  0.84469700  1
  P  P26  1  0.91318100  0.68319600  0.15574400  1
  P  P27  1  0.23451400  0.32092900  0.34382800  1
  P  P28  1  0.30932500  0.22470000  0.15829000  1
  P  P29  1  0.66551400  0.33240400  0.37148700  1
  P  P30  1  0.67143900  0.33773100  0.87326500  1
  P  P31  1  0.31927600  0.08892900  0.65641200  1
  P  P32  1  0.90870000  0.22926900  0.65893600  1
  P  P33  1  0.77543600  0.08507000  0.15854900  1
  O  O34  1  0.24466600  0.00109900  0.56678200  1
  O  O35  1  0.25283900  0.91421200  0.34074100  1
  O  O36  1  0.99446600  0.76876700  0.06469200  1
  O  O37  1  0.07714500  0.74454300  0.83862500  1
  O  O38  1  0.37276600  0.89236300  0.83154500  1
  O  O39  1  0.31974900  0.80987900  0.16368200  1
  O  O40  1  0.51842100  0.90027100  0.32171100  1
  O  O41  1  0.79366500  0.99602400  0.07663400  1
  O  O42  1  0.66315700  0.91792100  0.84029100  1
  O  O43  1  0.18533800  0.65520100  0.67478600  1
  O  O44  1  0.09531100  0.61758400  0.32136700  1
  O  O45  1  0.48198300  0.81998300  0.67147500  1
  O  O46  1  0.33398500  0.66717500  0.01671600  1
  O  O47  1  0.33880700  0.66310500  0.52187400  1
  O  O48  1  0.48974900  0.67994100  0.16384200  1
  O  O49  1  0.10047100  0.47906600  0.83437400  1
  O  O50  1  0.18936300  0.51074300  0.16329300  1
  O  O51  1  0.66279200  0.74808600  0.34200100  1
  O  O52  1  0.78463800  0.78443500  0.74884700  1
  O  O53  1  0.75202700  0.75665000  0.56895600  1
  O  O54  1  0.77121800  0.76963100  0.93028900  1
  O  O55  1  0.51802800  0.62467400  0.83239600  1
  O  O56  1  0.34407400  0.52087300  0.67148200  1
  O  O57  1  0.74490500  0.66245100  0.16127200  1
  O  O58  1  0.38163200  0.48159200  0.32130500  1
  O  O59  1  0.08529000  0.33606500  0.34236900  1
  O  O60  1  0.00733700  0.79550700  0.24444700  1
  O  O61  1  0.98984400  0.75808900  0.42569800  1
  O  O62  1  0.00440500  0.24779400  0.57005100  1
  O  O63  1  0.91549400  0.66052000  0.65755800  1
  O  O64  1  0.62415500  0.51124200  0.67106000  1
  O  O65  1  0.25570200  0.34014000  0.83747900  1
  O  O66  1  0.67105200  0.48527800  0.33217800  1
  O  O67  1  0.46446000  0.37968500  0.16694900  1
  O  O68  1  0.20095800  0.20744100  0.07740400  1
  O  O69  1  0.25072300  0.24988500  0.43557400  1
  O  O70  1  0.21375300  0.20379000  0.25785400  1
  O  O71  1  0.33203700  0.25269600  0.65969500  1
  O  O72  1  0.82089500  0.48498300  0.83000600  1
  O  O73  1  0.90562300  0.52580000  0.17044800  1
  O  O74  1  0.52562700  0.34076100  0.82743100  1
  O  O75  1  0.67356900  0.34545200  0.97960300  1
  O  O76  1  0.66404300  0.33272900  0.47976700  1
  O  O77  1  0.51281300  0.18504400  0.33215700  1
  O  O78  1  0.88138200  0.37077200  0.67332600  1
  O  O79  1  0.81410600  0.32621100  0.33459400  1
  O  O80  1  0.33849500  0.08250100  0.16029800  1
  O  O81  1  0.21385800  0.99980100  0.74946900  1
  O  O82  1  0.22026800  0.99245600  0.93299400  1
  O  O83  1  0.48727700  0.11377700  0.67416000  1
  O  O84  1  0.66408900  0.18579900  0.82902800  1
  O  O85  1  0.62015300  0.08505200  0.16725600  1
  O  O86  1  0.91766000  0.25633000  0.16207200  1
  O  O87  1  0.00872800  0.22758700  0.93385600  1
  O  O88  1  0.99643500  0.21335500  0.75137400  1
  O  O89  1  0.74692100  0.07824000  0.65706700  1
  O  O90  1  0.75072500  0.00021700  0.43558200  1
  O  O91  1  0.79590000  0.00911800  0.25772600  1
