# generated using pymatgen
data_Li2MnF5
_symmetry_space_group_name_H-M   'P 1'
_cell_length_a   11.44669600
_cell_length_b   5.72811700
_cell_length_c   6.13986224
_cell_angle_alpha   84.12900687
_cell_angle_beta   90.00000000
_cell_angle_gamma   90.00000000
_symmetry_Int_Tables_number   1
_chemical_formula_structural   Li2MnF5
_chemical_formula_sum   'Li8 Mn4 F20'
_cell_volume   400.46693939
_cell_formula_units_Z   4
loop_
 _symmetry_equiv_pos_site_id
 _symmetry_equiv_pos_as_xyz
  1  'x, y, z'
loop_
 _atom_site_type_symbol
 _atom_site_label
 _atom_site_symmetry_multiplicity
 _atom_site_fract_x
 _atom_site_fract_y
 _atom_site_fract_z
 _atom_site_occupancy
  Li  Li0  1  0.32627200  0.13275100  0.00592900  1
  Li  Li1  1  0.85521000  0.33820800  0.18245600  1
  Li  Li2  1  0.63447200  0.50493000  0.33415600  1
  Li  Li3  1  0.58727100  0.97050200  0.32720600  1
  Li  Li4  1  0.08727100  0.02949800  0.67279400  1
  Li  Li5  1  0.13447200  0.49507000  0.66584400  1
  Li  Li6  1  0.35521000  0.66179200  0.81754400  1
  Li  Li7  1  0.82627200  0.86724900  0.99407100  1
  Mn  Mn8  1  0.12592300  0.44864700  0.14021300  1
  Mn  Mn9  1  0.86807100  0.84736200  0.50375400  1
  Mn  Mn10  1  0.36807100  0.15263800  0.49624600  1
  Mn  Mn11  1  0.62592300  0.55135300  0.85978700  1
  F  F12  1  0.18781600  0.68097900  0.92404900  1
  F  F13  1  0.64137100  0.78239900  0.09593300  1
  F  F14  1  0.97714200  0.53362900  0.04940800  1
  F  F15  1  0.28178000  0.36774500  0.21238200  1
  F  F16  1  0.41463000  0.97191300  0.26606200  1
  F  F17  1  0.90216700  0.02489700  0.20314000  1
  F  F18  1  0.80721100  0.58471200  0.35903800  1
  F  F19  1  0.23068000  0.97944700  0.51554400  1
  F  F20  1  0.57468900  0.68342700  0.58268900  1
  F  F21  1  0.02226300  0.73199700  0.53210200  1
  F  F22  1  0.52226300  0.26800300  0.46789800  1
  F  F23  1  0.07468900  0.31657300  0.41731100  1
  F  F24  1  0.73068000  0.02055300  0.48445600  1
  F  F25  1  0.30721100  0.41528800  0.64096200  1
  F  F26  1  0.40216700  0.97510300  0.79686000  1
  F  F27  1  0.91463000  0.02808700  0.73393800  1
  F  F28  1  0.78178000  0.63225500  0.78761800  1
  F  F29  1  0.47714200  0.46637100  0.95059200  1
  F  F30  1  0.14137100  0.21760100  0.90406700  1
  F  F31  1  0.68781600  0.31902100  0.07595100  1
