# generated using pymatgen
data_LiFe(PO3)3
_symmetry_space_group_name_H-M   'P 1'
_cell_length_a   9.46942400
_cell_length_b   9.52500989
_cell_length_c   9.76822727
_cell_angle_alpha   108.70336908
_cell_angle_beta   104.47968808
_cell_angle_gamma   110.54011848
_symmetry_Int_Tables_number   1
_chemical_formula_structural   LiFe(PO3)3
_chemical_formula_sum   'Li4 Fe4 P12 O36'
_cell_volume   713.21377627
_cell_formula_units_Z   4
loop_
 _symmetry_equiv_pos_site_id
 _symmetry_equiv_pos_as_xyz
  1  'x, y, z'
loop_
 _atom_site_type_symbol
 _atom_site_label
 _atom_site_symmetry_multiplicity
 _atom_site_fract_x
 _atom_site_fract_y
 _atom_site_fract_z
 _atom_site_occupancy
  Li  Li0  1  0.23286900  0.77450700  0.74157800  1
  Li  Li1  1  0.92606000  0.69151100  0.78624200  1
  Li  Li2  1  0.07394000  0.30848900  0.21375800  1
  Li  Li3  1  0.76713100  0.22549300  0.25842200  1
  Fe  Fe4  1  0.66804400  0.06601000  0.49239800  1
  Fe  Fe5  1  0.62443800  0.82651900  0.70045400  1
  Fe  Fe6  1  0.37556200  0.17348100  0.29954600  1
  Fe  Fe7  1  0.33195600  0.93399000  0.50760200  1
  P  P8  1  0.19293000  0.08168000  0.91568800  1
  P  P9  1  0.51941100  0.14697500  0.89512100  1
  P  P10  1  0.00983400  0.39607300  0.64670500  1
  P  P11  1  0.95416500  0.21422900  0.84444800  1
  P  P12  1  0.58057700  0.34041700  0.70997700  1
  P  P13  1  0.32467000  0.43202300  0.59332400  1
  P  P14  1  0.67533000  0.56797700  0.40667600  1
  P  P15  1  0.41942300  0.65958300  0.29002300  1
  P  P16  1  0.04583500  0.78577100  0.15555200  1
  P  P17  1  0.99016600  0.60392700  0.35329500  1
  P  P18  1  0.48058900  0.85302500  0.10487900  1
  P  P19  1  0.80707000  0.91832000  0.08431200  1
  O  O20  1  0.04932400  0.73042500  0.99846300  1
  O  O21  1  0.36706900  0.18002800  0.90768800  1
  O  O22  1  0.10252500  0.17117700  0.84038400  1
  O  O23  1  0.00699100  0.36806800  0.79978200  1
  O  O24  1  0.61210700  0.30042200  0.85782300  1
  O  O25  1  0.37118800  0.82740600  0.95299200  1
  O  O26  1  0.10948800  0.90049300  0.80263100  1
  O  O27  1  0.03789500  0.56846400  0.67796600  1
  O  O28  1  0.16576100  0.37152700  0.63120200  1
  O  O29  1  0.43341700  0.38626600  0.71265200  1
  O  O30  1  0.79211700  0.06508400  0.70367100  1
  O  O31  1  0.78132800  0.86372800  0.91252200  1
  O  O32  1  0.73054100  0.47814400  0.73144200  1
  O  O33  1  0.50653200  0.17213900  0.55491900  1
  O  O34  1  0.40622100  0.61957600  0.64838500  1
  O  O35  1  0.45583800  0.98240800  0.74568300  1
  O  O36  1  0.28253000  0.31616300  0.42575800  1
  O  O37  1  0.14288800  0.74976400  0.49656900  1
  O  O38  1  0.85711200  0.25023600  0.50343100  1
  O  O39  1  0.71747000  0.68383700  0.57424200  1
  O  O40  1  0.54416200  0.01759200  0.25431700  1
  O  O41  1  0.59377900  0.38042400  0.35161500  1
  O  O42  1  0.49346800  0.82786100  0.44508100  1
  O  O43  1  0.26945900  0.52185600  0.26855800  1
  O  O44  1  0.21867200  0.13627200  0.08747800  1
  O  O45  1  0.20788300  0.93491600  0.29632900  1
  O  O46  1  0.56658300  0.61373400  0.28734800  1
  O  O47  1  0.83423900  0.62847300  0.36879800  1
  O  O48  1  0.96210500  0.43153600  0.32203400  1
  O  O49  1  0.89051200  0.09950700  0.19736900  1
  O  O50  1  0.62881200  0.17259400  0.04700800  1
  O  O51  1  0.38789300  0.69957800  0.14217700  1
  O  O52  1  0.99300900  0.63193200  0.20021800  1
  O  O53  1  0.89747500  0.82882300  0.15961600  1
  O  O54  1  0.63293100  0.81997200  0.09231200  1
  O  O55  1  0.95067600  0.26957500  0.00153700  1
