# generated using pymatgen
data_LiSn(PO3)4
_symmetry_space_group_name_H-M   'P 1'
_cell_length_a   13.31484600
_cell_length_b   7.43821000
_cell_length_c   11.93570808
_cell_angle_alpha   55.55895812
_cell_angle_beta   90.00000000
_cell_angle_gamma   90.00000000
_symmetry_Int_Tables_number   1
_chemical_formula_structural   LiSn(PO3)4
_chemical_formula_sum   'Li4 Sn4 P16 O48'
_cell_volume   974.88478079
_cell_formula_units_Z   4
loop_
 _symmetry_equiv_pos_site_id
 _symmetry_equiv_pos_as_xyz
  1  'x, y, z'
loop_
 _atom_site_type_symbol
 _atom_site_label
 _atom_site_symmetry_multiplicity
 _atom_site_fract_x
 _atom_site_fract_y
 _atom_site_fract_z
 _atom_site_occupancy
  Li  Li0  1  0.20505500  0.87526300  0.03501600  1
  Li  Li1  1  0.70505500  0.12473700  0.46498400  1
  Li  Li2  1  0.29494500  0.87526300  0.53501600  1
  Li  Li3  1  0.79494500  0.12473700  0.96498400  1
  Sn  Sn4  1  0.79241600  0.47421300  0.06659100  1
  Sn  Sn5  1  0.29241600  0.52578700  0.43340900  1
  Sn  Sn6  1  0.70758400  0.47421300  0.56659100  1
  Sn  Sn7  1  0.20758400  0.52578700  0.93340900  1
  P  P8  1  0.37196500  0.41725800  0.19938300  1
  P  P9  1  0.58808800  0.49023500  0.20390600  1
  P  P10  1  0.12166600  0.15671400  0.24788100  1
  P  P11  1  0.90714300  0.04905900  0.22840700  1
  P  P12  1  0.40714300  0.95094100  0.27159300  1
  P  P13  1  0.62166600  0.84328600  0.25211900  1
  P  P14  1  0.08808800  0.50976500  0.29609400  1
  P  P15  1  0.87196500  0.58274200  0.30061700  1
  P  P16  1  0.12803500  0.41725800  0.69938300  1
  P  P17  1  0.91191200  0.49023500  0.70390600  1
  P  P18  1  0.37833400  0.15671400  0.74788100  1
  P  P19  1  0.59285700  0.04905900  0.72840700  1
  P  P20  1  0.09285700  0.95094100  0.77159300  1
  P  P21  1  0.87833400  0.84328600  0.75211900  1
  P  P22  1  0.41191200  0.50976500  0.79609400  1
  P  P23  1  0.62803500  0.58274200  0.80061700  1
  O  O24  1  0.65698200  0.61410800  0.07965200  1
  O  O25  1  0.89864600  0.18137100  0.07461800  1
  O  O26  1  0.15295900  0.22954700  0.10439100  1
  O  O27  1  0.29120500  0.55678200  0.09704200  1
  O  O28  1  0.47820300  0.53144300  0.13563300  1
  O  O29  1  0.69360300  0.96427600  0.13870300  1
  O  O30  1  0.86159800  0.63418100  0.15913400  1
  O  O31  1  0.37971700  0.20040400  0.20406800  1
  O  O32  1  0.34384800  0.85963700  0.20929700  1
  O  O33  1  0.52101800  0.98439300  0.21808500  1
  O  O34  1  0.07963000  0.37781300  0.22702700  1
  O  O35  1  0.11153500  0.74137000  0.19207400  1
  O  O36  1  0.61153500  0.25863000  0.30792600  1
  O  O37  1  0.57963000  0.62218700  0.27297300  1
  O  O38  1  0.02101800  0.01560700  0.28191500  1
  O  O39  1  0.84384800  0.14036300  0.29070300  1
  O  O40  1  0.87971700  0.79959600  0.29593200  1
  O  O41  1  0.36159800  0.36581900  0.34086600  1
  O  O42  1  0.19360300  0.03572400  0.36129700  1
  O  O43  1  0.97820300  0.46855700  0.36436700  1
  O  O44  1  0.79120500  0.44321800  0.40295800  1
  O  O45  1  0.65295900  0.77045300  0.39560900  1
  O  O46  1  0.39864600  0.81862900  0.42538200  1
  O  O47  1  0.15698200  0.38589200  0.42034800  1
  O  O48  1  0.84301800  0.61410800  0.57965200  1
  O  O49  1  0.60135400  0.18137100  0.57461800  1
  O  O50  1  0.34704100  0.22954700  0.60439100  1
  O  O51  1  0.20879500  0.55678200  0.59704200  1
  O  O52  1  0.02179700  0.53144300  0.63563300  1
  O  O53  1  0.80639700  0.96427600  0.63870300  1
  O  O54  1  0.63840200  0.63418100  0.65913400  1
  O  O55  1  0.12028300  0.20040400  0.70406800  1
  O  O56  1  0.15615200  0.85963700  0.70929700  1
  O  O57  1  0.97898200  0.98439300  0.71808500  1
  O  O58  1  0.42037000  0.37781300  0.72702700  1
  O  O59  1  0.38846500  0.74137000  0.69207400  1
  O  O60  1  0.88846500  0.25863000  0.80792600  1
  O  O61  1  0.92037000  0.62218700  0.77297300  1
  O  O62  1  0.47898200  0.01560700  0.78191500  1
  O  O63  1  0.65615200  0.14036300  0.79070300  1
  O  O64  1  0.62028300  0.79959600  0.79593200  1
  O  O65  1  0.13840200  0.36581900  0.84086600  1
  O  O66  1  0.30639700  0.03572400  0.86129700  1
  O  O67  1  0.52179700  0.46855700  0.86436700  1
  O  O68  1  0.70879500  0.44321800  0.90295800  1
  O  O69  1  0.84704100  0.77045300  0.89560900  1
  O  O70  1  0.10135400  0.81862900  0.92538200  1
  O  O71  1  0.34301800  0.38589200  0.92034800  1
