# generated using pymatgen
data_LiCoPO4
_symmetry_space_group_name_H-M   'P 1'
_cell_length_a   9.99400680
_cell_length_b   9.99400680
_cell_length_c   22.71320600
_cell_angle_alpha   90.00000000
_cell_angle_beta   90.00000000
_cell_angle_gamma   120.00000527
_symmetry_Int_Tables_number   1
_chemical_formula_structural   LiCoPO4
_chemical_formula_sum   'Li24 Co24 P24 O96'
_cell_volume   1964.66418975
_cell_formula_units_Z   24
loop_
 _symmetry_equiv_pos_site_id
 _symmetry_equiv_pos_as_xyz
  1  'x, y, z'
loop_
 _atom_site_type_symbol
 _atom_site_label
 _atom_site_symmetry_multiplicity
 _atom_site_fract_x
 _atom_site_fract_y
 _atom_site_fract_z
 _atom_site_occupancy
  Li  Li0  1  0.00774200  0.94772200  0.41873000  1
  Li  Li1  1  0.06213100  0.56170100  0.91698400  1
  Li  Li2  1  0.06125200  0.51547500  0.25637700  1
  Li  Li3  1  0.02442700  0.48080600  0.58719000  1
  Li  Li4  1  0.45637900  0.97557300  0.92052400  1
  Li  Li5  1  0.45422400  0.93874800  0.58971100  1
  Li  Li6  1  0.05227800  0.06001900  0.08539600  1
  Li  Li7  1  0.49957000  0.93786900  0.25031700  1
  Li  Li8  1  0.06001900  0.00774200  0.25206300  1
  Li  Li9  1  0.43829900  0.50043000  0.58365000  1
  Li  Li10  1  0.48452500  0.54577600  0.92304400  1
  Li  Li11  1  0.51919400  0.54362100  0.25385700  1
  Li  Li12  1  0.48080600  0.45637900  0.75385700  1
  Li  Li13  1  0.51547500  0.45422400  0.42304400  1
  Li  Li14  1  0.56170100  0.49957000  0.08365000  1
  Li  Li15  1  0.93998100  0.99225800  0.75206300  1
  Li  Li16  1  0.50043000  0.06213100  0.75031700  1
  Li  Li17  1  0.94772200  0.93998100  0.58539600  1
  Li  Li18  1  0.54577600  0.06125200  0.08971100  1
  Li  Li19  1  0.54362100  0.02442700  0.42052400  1
  Li  Li20  1  0.97557300  0.51919400  0.08719000  1
  Li  Li21  1  0.93874800  0.48452500  0.75637700  1
  Li  Li22  1  0.93786900  0.43829900  0.41698400  1
  Li  Li23  1  0.99225800  0.05227800  0.91873000  1
  Co  Co24  1  0.14693700  0.83432400  0.67948300  1
  Co  Co25  1  0.18938500  0.88496800  0.01069200  1
  Co  Co26  1  0.17672300  0.78933100  0.37595200  1
  Co  Co27  1  0.11503200  0.30441700  0.67735800  1
  Co  Co28  1  0.32973400  0.67330500  0.82001300  1
  Co  Co29  1  0.32669500  0.65642900  0.48668000  1
  Co  Co30  1  0.34357100  0.67026600  0.15334700  1
  Co  Co31  1  0.16567600  0.31261300  0.34615000  1
  Co  Co32  1  0.21066900  0.38739200  0.04261800  1
  Co  Co33  1  0.61260800  0.82327700  0.70928500  1
  Co  Co34  1  0.30441700  0.18938500  0.84402500  1
  Co  Co35  1  0.31261300  0.14693700  0.51281600  1
  Co  Co36  1  0.68738700  0.85306300  0.01281600  1
  Co  Co37  1  0.69558300  0.81061500  0.34402500  1
  Co  Co38  1  0.38739200  0.17672300  0.20928500  1
  Co  Co39  1  0.78933100  0.61260800  0.54261800  1
  Co  Co40  1  0.83432400  0.68738700  0.84615000  1
  Co  Co41  1  0.65642900  0.32973400  0.65334700  1
  Co  Co42  1  0.67330500  0.34357100  0.98668000  1
  Co  Co43  1  0.67026600  0.32669500  0.32001300  1
  Co  Co44  1  0.88496800  0.69558300  0.17735800  1
  Co  Co45  1  0.82327700  0.21066900  0.87595200  1
  Co  Co46  1  0.81061500  0.11503200  0.51069200  1
  Co  Co47  1  0.85306300  0.16567600  0.17948300  1
  P  P48  1  0.17193100  0.85627400  0.81304700  1
  P  P49  1  0.13195600  0.77892200  0.50903200  1
  P  P50  1  0.21797700  0.88135700  0.14633500  1
  P  P51  1  0.11864300  0.33662000  0.81300200  1
  P  P52  1  0.32820800  0.68739700  0.00959300  1
  P  P53  1  0.14372600  0.31565700  0.47971400  1
  P  P54  1  0.31260300  0.64081100  0.67626000  1
  P  P55  1  0.35918900  0.67179200  0.34292700  1
  P  P56  1  0.22107800  0.35303400  0.17569900  1
  P  P57  1  0.64696600  0.86804400  0.84236600  1
  P  P58  1  0.33662000  0.21797700  0.97966900  1
  P  P59  1  0.31565700  0.17193100  0.64638000  1
  P  P60  1  0.68434300  0.82806900  0.14638000  1
  P  P61  1  0.66338000  0.78202300  0.47966900  1
  P  P62  1  0.35303400  0.13195600  0.34236600  1
  P  P63  1  0.77892200  0.64696600  0.67569900  1
  P  P64  1  0.64081100  0.32820800  0.84292700  1
  P  P65  1  0.68739700  0.35918900  0.17626000  1
  P  P66  1  0.85627400  0.68434300  0.97971400  1
  P  P67  1  0.67179200  0.31260300  0.50959300  1
  P  P68  1  0.88135700  0.66338000  0.31300200  1
  P  P69  1  0.78202300  0.11864300  0.64633500  1
  P  P70  1  0.86804400  0.22107800  0.00903200  1
  P  P71  1  0.82806900  0.14372600  0.31304700  1
  O  O72  1  0.01552400  0.70731100  0.79851400  1
  O  O73  1  0.13437200  0.97397500  0.84276900  1
  O  O74  1  0.01239200  0.67872600  0.55697500  1
  O  O75  1  0.13299600  0.93379400  0.49835200  1
  O  O76  1  0.18052800  0.99030000  0.18303700  1
  O  O77  1  0.06620800  0.72805200  0.13193900  1
  O  O78  1  0.08425800  0.68007500  0.45158400  1
  O  O79  1  0.26056500  0.92333700  0.75413800  1
  O  O80  1  0.29350400  0.96107700  0.08711100  1
  O  O81  1  0.15736400  0.64028100  0.67431300  1
  O  O82  1  0.20617500  0.70967500  0.97562900  1
  O  O83  1  0.27704500  0.82387400  0.85412500  1
  O  O84  1  0.20874800  0.65657200  0.31665800  1
  O  O85  1  0.29519900  0.81281400  0.52836100  1
  O  O86  1  0.03892300  0.33242700  0.75377700  1
  O  O87  1  0.33475900  0.85286500  0.18166300  1
  O  O88  1  0.14713500  0.48189400  0.84833000  1
  O  O89  1  0.00970000  0.19022800  0.84970400  1
  O  O90  1  0.07666300  0.33722900  0.42080500  1
  O  O91  1  0.02602500  0.16039700  0.50943500  1
  O  O92  1  0.26192900  0.63066300  0.07264400  1
  O  O93  1  0.06620600  0.19920200  0.16501800  1
  O  O94  1  0.17612600  0.45317100  0.52079200  1
  O  O95  1  0.18718600  0.48238500  0.19502800  1
  O  O96  1  0.36873400  0.73807100  0.40597800  1
  O  O97  1  0.29032500  0.49650100  0.64229500  1
  O  O98  1  0.36933700  0.63126600  0.73931100  1
  O  O99  1  0.34342800  0.55217600  0.98332400  1
  O  O100  1  0.44782400  0.79125200  0.64999100  1
  O  O101  1  0.48291600  0.84263600  0.00764600  1
  O  O102  1  0.35971900  0.51708400  0.34098000  1
  O  O103  1  0.16039700  0.13437200  0.67610200  1
  O  O104  1  0.19022800  0.18052800  0.01637100  1
  O  O105  1  0.27194800  0.33815600  0.79860600  1
  O  O106  1  0.31992500  0.40418300  0.11825100  1
  O  O107  1  0.50349900  0.79382500  0.30896200  1
  O  O108  1  0.19920200  0.13299600  0.33168500  1
  O  O109  1  0.29268900  0.30821300  0.46518100  1
  O  O110  1  0.32127400  0.33366600  0.22364200  1
  O  O111  1  0.51761500  0.70480100  0.86169400  1
  O  O112  1  0.59581700  0.91574200  0.78491700  1
  O  O113  1  0.54682900  0.72295500  0.18745900  1
  O  O114  1  0.33242700  0.29350400  0.92044400  1
  O  O115  1  0.66633400  0.98760800  0.89030800  1
  O  O116  1  0.51810600  0.66524100  0.51499700  1
  O  O117  1  0.33722900  0.26056500  0.58747100  1
  O  O118  1  0.66184400  0.93379200  0.46527200  1
  O  O119  1  0.69178700  0.98447600  0.13184700  1
  O  O120  1  0.30821300  0.01552400  0.63184700  1
  O  O121  1  0.33815600  0.06620800  0.96527200  1
  O  O122  1  0.66277100  0.73943500  0.08747100  1
  O  O123  1  0.48189400  0.33475900  0.01499700  1
  O  O124  1  0.33366600  0.01239200  0.39030800  1
  O  O125  1  0.66757300  0.70649600  0.42044400  1
  O  O126  1  0.45317100  0.27704500  0.68745900  1
  O  O127  1  0.40418300  0.08425800  0.28491700  1
  O  O128  1  0.48238500  0.29519900  0.36169400  1
  O  O129  1  0.67872600  0.66633400  0.72364200  1
  O  O130  1  0.70731100  0.69178700  0.96518100  1
  O  O131  1  0.80079800  0.86700400  0.83168500  1
  O  O132  1  0.49650100  0.20617500  0.80896200  1
  O  O133  1  0.68007500  0.59581700  0.61825100  1
  O  O134  1  0.72805200  0.66184400  0.29860600  1
  O  O135  1  0.80977200  0.81947200  0.51637100  1
  O  O136  1  0.83960300  0.86562800  0.17610200  1
  O  O137  1  0.64028100  0.48291600  0.84098000  1
  O  O138  1  0.51708400  0.15736400  0.50764600  1
  O  O139  1  0.55217600  0.20874800  0.14999100  1
  O  O140  1  0.65657200  0.44782400  0.48332400  1
  O  O141  1  0.63066300  0.36873400  0.23931100  1
  O  O142  1  0.70967500  0.50349900  0.14229500  1
  O  O143  1  0.63126600  0.26192900  0.90597800  1
  O  O144  1  0.81281400  0.51761500  0.69502800  1
  O  O145  1  0.82387400  0.54682900  0.02079200  1
  O  O146  1  0.93379400  0.80079800  0.66501800  1
  O  O147  1  0.73807100  0.36933700  0.57264400  1
  O  O148  1  0.97397500  0.83960300  0.00943500  1
  O  O149  1  0.92333700  0.66277100  0.92080500  1
  O  O150  1  0.99030000  0.80977200  0.34970400  1
  O  O151  1  0.85286500  0.51810600  0.34833000  1
  O  O152  1  0.66524100  0.14713500  0.68166300  1
  O  O153  1  0.96107700  0.66757300  0.25377700  1
  O  O154  1  0.70480100  0.18718600  0.02836100  1
  O  O155  1  0.79125200  0.34342800  0.81665800  1
  O  O156  1  0.72295500  0.17612600  0.35412500  1
  O  O157  1  0.79382500  0.29032500  0.47562900  1
  O  O158  1  0.84263600  0.35971900  0.17431300  1
  O  O159  1  0.70649600  0.03892300  0.58711100  1
  O  O160  1  0.73943500  0.07666300  0.25413800  1
  O  O161  1  0.91574200  0.31992500  0.95158400  1
  O  O162  1  0.93379200  0.27194800  0.63193900  1
  O  O163  1  0.81947200  0.00970000  0.68303700  1
  O  O164  1  0.86700400  0.06620600  0.99835200  1
  O  O165  1  0.98760800  0.32127400  0.05697500  1
  O  O166  1  0.86562800  0.02602500  0.34276900  1
  O  O167  1  0.98447600  0.29268900  0.29851400  1
