# generated using pymatgen
data_Li4Mn2P4H3O16
_symmetry_space_group_name_H-M   'P 1'
_cell_length_a   5.00215400
_cell_length_b   7.67719259
_cell_length_c   8.24532310
_cell_angle_alpha   91.26490366
_cell_angle_beta   92.33917101
_cell_angle_gamma   100.28625533
_symmetry_Int_Tables_number   1
_chemical_formula_structural   Li4Mn2P4H3O16
_chemical_formula_sum   'Li4 Mn2 P4 H3 O16'
_cell_volume   311.15344439
_cell_formula_units_Z   1
loop_
 _symmetry_equiv_pos_site_id
 _symmetry_equiv_pos_as_xyz
  1  'x, y, z'
loop_
 _atom_site_type_symbol
 _atom_site_label
 _atom_site_symmetry_multiplicity
 _atom_site_fract_x
 _atom_site_fract_y
 _atom_site_fract_z
 _atom_site_occupancy
  Li  Li0  1  0.13634300  0.68887700  0.65110300  1
  Li  Li1  1  0.37814600  0.84268300  0.12737100  1
  Li  Li2  1  0.60616100  0.16118100  0.87546800  1
  Li  Li3  1  0.86268600  0.31134400  0.34544300  1
  Mn  Mn4  1  0.99733700  0.49624000  0.00233300  1
  Mn  Mn5  1  0.49852700  0.00238800  0.49802600  1
  P  P6  1  0.10657200  0.25471300  0.67147300  1
  P  P7  1  0.36354200  0.23512000  0.15065200  1
  P  P8  1  0.63601900  0.75785900  0.84740100  1
  P  P9  1  0.89004400  0.74556400  0.32852600  1
  H  H10  1  0.43040800  0.43996000  0.57804700  1
  H  H11  1  0.56362400  0.55375600  0.41147800  1
  H  H12  1  0.95805000  0.97965600  0.98588400  1
  O  O13  1  0.11361300  0.82768600  0.45188800  1
  O  O14  1  0.98357300  0.30507300  0.83039700  1
  O  O15  1  0.13982800  0.35659200  0.17122900  1
  O  O16  1  0.24071800  0.44550900  0.59489600  1
  O  O17  1  0.41019400  0.67049500  0.95325600  1
  O  O18  1  0.53010600  0.79734100  0.67760000  1
  O  O19  1  0.24052700  0.05584500  0.06582500  1
  O  O20  1  0.33945800  0.15295700  0.69430000  1
  O  O21  1  0.65728800  0.84727700  0.30495700  1
  O  O22  1  0.76390700  0.94619100  0.93151000  1
  O  O23  1  0.46842800  0.20704000  0.32571900  1
  O  O24  1  0.59479600  0.33319700  0.05094200  1
  O  O25  1  0.75853700  0.55630700  0.40894000  1
  O  O26  1  0.86519600  0.64469400  0.83026600  1
  O  O27  1  0.00944900  0.69368000  0.16872000  1
  O  O28  1  0.88580000  0.17267400  0.54645300  1
