# generated using pymatgen
data_Li8CoO5F
_symmetry_space_group_name_H-M   'P 1'
_cell_length_a   10.93619600
_cell_length_b   5.54506100
_cell_length_c   5.56834677
_cell_angle_alpha   60.47175440
_cell_angle_beta   90.00000000
_cell_angle_gamma   90.00000000
_symmetry_Int_Tables_number   1
_chemical_formula_structural   Li8CoO5F
_chemical_formula_sum   'Li16 Co2 O10 F2'
_cell_volume   293.81533695
_cell_formula_units_Z   2
loop_
 _symmetry_equiv_pos_site_id
 _symmetry_equiv_pos_as_xyz
  1  'x, y, z'
loop_
 _atom_site_type_symbol
 _atom_site_label
 _atom_site_symmetry_multiplicity
 _atom_site_fract_x
 _atom_site_fract_y
 _atom_site_fract_z
 _atom_site_occupancy
  Li  Li0  1  0.22740600  0.81357500  0.97237100  1
  Li  Li1  1  0.87944100  0.85877400  0.01734000  1
  Li  Li2  1  0.37944100  0.14122600  0.98266000  1
  Li  Li3  1  0.72740600  0.18642500  0.02762900  1
  Li  Li4  1  0.58635300  0.83480900  0.32554300  1
  Li  Li5  1  0.07512700  0.82959500  0.32849900  1
  Li  Li6  1  0.22752700  0.20942200  0.30743400  1
  Li  Li7  1  0.87769700  0.11411700  0.36286100  1
  Li  Li8  1  0.37769700  0.88588300  0.63713900  1
  Li  Li9  1  0.72810200  0.51960300  0.28789500  1
  Li  Li10  1  0.72752700  0.79057800  0.69256600  1
  Li  Li11  1  0.37797400  0.48023300  0.38036900  1
  Li  Li12  1  0.08635300  0.16519100  0.67445700  1
  Li  Li13  1  0.57512700  0.17040500  0.67150100  1
  Li  Li14  1  0.87797400  0.51976700  0.61963100  1
  Li  Li15  1  0.22810200  0.48039700  0.71210500  1
  Co  Co16  1  0.01219300  0.49355600  0.00257600  1
  Co  Co17  1  0.51219300  0.50644400  0.99742400  1
  O  O18  1  0.05252600  0.82398600  0.99204800  1
  O  O19  1  0.55252600  0.17601400  0.00795200  1
  O  O20  1  0.78678000  0.83041400  0.33155900  1
  O  O21  1  0.32854200  0.50007300  0.99852100  1
  O  O22  1  0.82854200  0.49992700  0.00147900  1
  O  O23  1  0.05111300  0.17659500  0.31688900  1
  O  O24  1  0.55201800  0.49136100  0.32237300  1
  O  O25  1  0.55111300  0.82340500  0.68311100  1
  O  O26  1  0.28678000  0.16958600  0.66844100  1
  O  O27  1  0.05201800  0.50863900  0.67762700  1
  F  F28  1  0.28998100  0.83370100  0.33006400  1
  F  F29  1  0.78998100  0.16629900  0.66993600  1
