# generated using pymatgen
data_Li4V3CrO8
_symmetry_space_group_name_H-M   'P 1'
_cell_length_a   5.17035800
_cell_length_b   7.91002197
_cell_length_c   7.91484516
_cell_angle_alpha   81.97444303
_cell_angle_beta   83.75237736
_cell_angle_gamma   70.96499601
_symmetry_Int_Tables_number   1
_chemical_formula_structural   Li4V3CrO8
_chemical_formula_sum   'Li8 V6 Cr2 O16'
_cell_volume   302.30814659
_cell_formula_units_Z   2
loop_
 _symmetry_equiv_pos_site_id
 _symmetry_equiv_pos_as_xyz
  1  'x, y, z'
loop_
 _atom_site_type_symbol
 _atom_site_label
 _atom_site_symmetry_multiplicity
 _atom_site_fract_x
 _atom_site_fract_y
 _atom_site_fract_z
 _atom_site_occupancy
  Li  Li0  1  0.99963400  0.68662600  0.93786800  1
  Li  Li1  1  0.00232100  0.43557200  0.68748100  1
  Li  Li2  1  0.99767900  0.56442800  0.31251900  1
  Li  Li3  1  0.99970900  0.06311000  0.80994700  1
  Li  Li4  1  0.00204800  0.18531500  0.43900400  1
  Li  Li5  1  0.00036600  0.31337400  0.06213200  1
  Li  Li6  1  0.99795200  0.81468500  0.56099600  1
  Li  Li7  1  0.00029100  0.93689000  0.19005300  1
  V  V8  1  0.50008300  0.37499300  0.87471100  1
  V  V9  1  0.50000000  0.50000000  0.50000000  1
  V  V10  1  0.49991700  0.62500700  0.12528900  1
  V  V11  1  0.49881300  0.25079400  0.24983400  1
  V  V12  1  0.50118700  0.74920600  0.75016600  1
  V  V13  1  0.50000000  0.00000000  0.00000000  1
  Cr  Cr14  1  0.50033000  0.12401000  0.62398800  1
  Cr  Cr15  1  0.49967000  0.87599000  0.37601200  1
  O  O16  1  0.73313500  0.53314200  0.90814300  1
  O  O17  1  0.27038700  0.58905600  0.71788700  1
  O  O18  1  0.72695400  0.66322500  0.53211100  1
  O  O19  1  0.27415500  0.21233200  0.84100200  1
  O  O20  1  0.72668800  0.28469800  0.65575500  1
  O  O21  1  0.72961300  0.41094400  0.28211300  1
  O  O22  1  0.27304600  0.33677500  0.46788900  1
  O  O23  1  0.72681800  0.91105100  0.78021200  1
  O  O24  1  0.72566300  0.03514600  0.40850200  1
  O  O25  1  0.26686500  0.46685800  0.09185700  1
  O  O26  1  0.27433700  0.96485400  0.59149800  1
  O  O27  1  0.72953200  0.16105000  0.03201100  1
  O  O28  1  0.27318200  0.08894900  0.21978800  1
  O  O29  1  0.72584500  0.78766800  0.15899800  1
  O  O30  1  0.27331200  0.71530200  0.34424500  1
  O  O31  1  0.27046800  0.83895000  0.96798900  1
