# generated using pymatgen
data_K2Li2NiO4
_symmetry_space_group_name_H-M   'P 1'
_cell_length_a   5.57038400
_cell_length_b   8.93794141
_cell_length_c   10.38329613
_cell_angle_alpha   86.78386322
_cell_angle_beta   81.73858281
_cell_angle_gamma   89.33037360
_symmetry_Int_Tables_number   1
_chemical_formula_structural   K2Li2NiO4
_chemical_formula_sum   'K8 Li8 Ni4 O16'
_cell_volume   510.78729240
_cell_formula_units_Z   4
loop_
 _symmetry_equiv_pos_site_id
 _symmetry_equiv_pos_as_xyz
  1  'x, y, z'
loop_
 _atom_site_type_symbol
 _atom_site_label
 _atom_site_symmetry_multiplicity
 _atom_site_fract_x
 _atom_site_fract_y
 _atom_site_fract_z
 _atom_site_occupancy
  K  K0  1  0.37980700  0.78115000  0.87641000  1
  K  K1  1  0.65047000  0.46320000  0.68273000  1
  K  K2  1  0.87237700  0.70249800  0.38254200  1
  K  K3  1  0.79591400  0.03902700  0.85305900  1
  K  K4  1  0.14464300  0.99699000  0.13760900  1
  K  K5  1  0.16119200  0.22163800  0.62585400  1
  K  K6  1  0.35274400  0.49172400  0.37475200  1
  K  K7  1  0.67383300  0.29927000  0.09706500  1
  Li  Li8  1  0.77372200  0.97294900  0.55951000  1
  Li  Li9  1  0.91538000  0.75675800  0.69544700  1
  Li  Li10  1  0.09166900  0.24265900  0.29611700  1
  Li  Li11  1  0.18999500  0.99946000  0.42651300  1
  Li  Li12  1  0.27584400  0.51690800  0.07885700  1
  Li  Li13  1  0.06373600  0.53371300  0.81388300  1
  Li  Li14  1  0.41516100  0.75333300  0.19823500  1
  Li  Li15  1  0.60214900  0.97711500  0.29285600  1
  Ni  Ni16  1  0.19987600  0.29058500  0.93748700  1
  Ni  Ni17  1  0.67603900  0.20841900  0.43070600  1
  Ni  Ni18  1  0.33130200  0.77809000  0.56053900  1
  Ni  Ni19  1  0.82595900  0.71503300  0.06115800  1
  O  O20  1  0.28534600  0.10685300  0.90273300  1
  O  O21  1  0.34142800  0.47109900  0.89725300  1
  O  O22  1  0.64864400  0.17789000  0.60143200  1
  O  O23  1  0.61802900  0.78265800  0.62137500  1
  O  O24  1  0.84422100  0.37837900  0.39851200  1
  O  O25  1  0.88085900  0.05105100  0.36608000  1
  O  O26  1  0.95011000  0.32533500  0.84750300  1
  O  O27  1  0.89213800  0.71851900  0.88474700  1
  O  O28  1  0.17595300  0.30126400  0.11404300  1
  O  O29  1  0.11087700  0.70075800  0.13016600  1
  O  O30  1  0.10022600  0.92604100  0.60937400  1
  O  O31  1  0.16316700  0.60451400  0.62102700  1
  O  O32  1  0.40038700  0.17466600  0.35916900  1
  O  O33  1  0.37497800  0.81230200  0.37725400  1
  O  O34  1  0.60072000  0.58223800  0.13767800  1
  O  O35  1  0.67234700  0.89443800  0.11166900  1
