# generated using pymatgen
data_Li3MgV8O16
_symmetry_space_group_name_H-M   'P 1'
_cell_length_a   5.99800606
_cell_length_b   5.99800606
_cell_length_c   10.32123589
_cell_angle_alpha   74.18392686
_cell_angle_beta   74.18392686
_cell_angle_gamma   60.40453850
_symmetry_Int_Tables_number   1
_chemical_formula_structural   Li3MgV8O16
_chemical_formula_sum   'Li3 Mg1 V8 O16'
_cell_volume   306.39788943
_cell_formula_units_Z   1
loop_
 _symmetry_equiv_pos_site_id
 _symmetry_equiv_pos_as_xyz
  1  'x, y, z'
loop_
 _atom_site_type_symbol
 _atom_site_label
 _atom_site_symmetry_multiplicity
 _atom_site_fract_x
 _atom_site_fract_y
 _atom_site_fract_z
 _atom_site_occupancy
  Li  Li0  1  0.99941700  0.99941700  0.00129300  1
  Li  Li1  1  0.62829800  0.62829800  0.12236400  1
  Li  Li2  1  0.12467000  0.12467000  0.62901800  1
  Mg  Mg3  1  0.81428400  0.81428400  0.56349400  1
  V  V4  1  0.56128200  0.06135100  0.30734700  1
  V  V5  1  0.31132700  0.31132700  0.06644800  1
  V  V6  1  0.50074500  0.50074500  0.49670000  1
  V  V7  1  0.06253000  0.06253000  0.31070200  1
  V  V8  1  0.06135100  0.56128200  0.30734700  1
  V  V9  1  0.05338000  0.56745400  0.81449100  1
  V  V10  1  0.56745400  0.05338000  0.81449100  1
  V  V11  1  0.56337000  0.56337000  0.81491000  1
  O  O12  1  0.41556600  0.97094700  0.18514000  1
  O  O13  1  0.42313300  0.42313300  0.17817500  1
  O  O14  1  0.19625600  0.19625600  0.41736600  1
  O  O15  1  0.97094700  0.41556600  0.18514000  1
  O  O16  1  0.92850600  0.92850600  0.20459100  1
  O  O17  1  0.16904800  0.69694600  0.43322700  1
  O  O18  1  0.69694600  0.16904800  0.43322700  1
  O  O19  1  0.69770400  0.69770400  0.43338800  1
  O  O20  1  0.91910400  0.91910400  0.70766400  1
  O  O21  1  0.92822300  0.46087000  0.70654400  1
  O  O22  1  0.70195400  0.70195400  0.92262200  1
  O  O23  1  0.46087000  0.92822300  0.70654400  1
  O  O24  1  0.65325000  0.20277200  0.92785500  1
  O  O25  1  0.42716100  0.42716100  0.69894700  1
  O  O26  1  0.20277200  0.65325000  0.92785500  1
  O  O27  1  0.21044600  0.21044600  0.93311500  1
