# generated using pymatgen
data_Li6V3P8O29
_symmetry_space_group_name_H-M   'P 1'
_cell_length_a   9.83129805
_cell_length_b   9.80819493
_cell_length_c   13.88228040
_cell_angle_alpha   89.98696178
_cell_angle_beta   89.70691390
_cell_angle_gamma   60.07079617
_symmetry_Int_Tables_number   1
_chemical_formula_structural   Li6V3P8O29
_chemical_formula_sum   'Li12 V6 P16 O58'
_cell_volume   1160.09493245
_cell_formula_units_Z   2
loop_
 _symmetry_equiv_pos_site_id
 _symmetry_equiv_pos_as_xyz
  1  'x, y, z'
loop_
 _atom_site_type_symbol
 _atom_site_label
 _atom_site_symmetry_multiplicity
 _atom_site_fract_x
 _atom_site_fract_y
 _atom_site_fract_z
 _atom_site_occupancy
  Li  Li0  1  0.91095500  0.77708600  0.05715200  1
  Li  Li1  1  0.77069500  0.90442800  0.56374500  1
  Li  Li2  1  0.90456800  0.32338000  0.56276500  1
  Li  Li3  1  0.66413900  0.67088800  0.88097700  1
  Li  Li4  1  0.77385200  0.31391900  0.05882200  1
  Li  Li5  1  0.31417800  0.90847200  0.05627900  1
  Li  Li6  1  0.67779700  0.22766000  0.44236100  1
  Li  Li7  1  0.32493900  0.77015400  0.56351900  1
  Li  Li8  1  0.33593000  0.33370700  0.11380600  1
  Li  Li9  1  0.09379800  0.67812500  0.44170200  1
  Li  Li10  1  0.22833200  0.09227500  0.44200400  1
  Li  Li11  1  0.09213100  0.22611400  0.93622100  1
  V  V12  1  0.56780600  0.43213300  0.25096100  1
  V  V13  1  0.43049800  0.56511900  0.75455500  1
  V  V14  1  0.56838700  0.00260900  0.75338000  1
  V  V15  1  0.43581000  0.99813000  0.24880900  1
  V  V16  1  0.00009400  0.57050000  0.25075100  1
  V  V17  1  0.99889100  0.43418900  0.74811000  1
  P  P18  1  0.90950500  0.77121200  0.84424100  1
  P  P19  1  0.76651900  0.91448300  0.34365400  1
  P  P20  1  0.91335600  0.31904100  0.34136700  1
  P  P21  1  0.66897200  0.66655100  0.12554300  1
  P  P22  1  0.66468100  0.66759700  0.62648700  1
  P  P23  1  0.76986000  0.31974700  0.84262700  1
  P  P24  1  0.68109700  0.23259400  0.65799300  1
  P  P25  1  0.31890600  0.90981000  0.84203100  1
  P  P26  1  0.68401900  0.08727000  0.15785700  1
  P  P27  1  0.31702200  0.76831000  0.34358800  1
  P  P28  1  0.23103000  0.68174200  0.15736400  1
  P  P29  1  0.33305700  0.33244400  0.37360200  1
  P  P30  1  0.33181600  0.33162500  0.87330000  1
  P  P31  1  0.08718800  0.68269900  0.65913400  1
  P  P32  1  0.23420700  0.08681500  0.65787400  1
  P  P33  1  0.09046100  0.22993000  0.15607500  1
  O  O34  1  0.99702200  0.75770200  0.56855200  1
  O  O35  1  0.91749300  0.75028100  0.34147800  1
  O  O36  1  0.76877300  0.99359400  0.07216900  1
  O  O37  1  0.74317700  0.91621700  0.83798100  1
  O  O38  1  0.88868900  0.62536700  0.82511800  1
  O  O39  1  0.81392700  0.67388200  0.16440500  1
  O  O40  1  0.90485200  0.47850400  0.32122100  1
  O  O41  1  0.99772100  0.24505200  0.06708000  1
  O  O42  1  0.92000900  0.33654100  0.83848400  1
  O  O43  1  0.67009900  0.81488400  0.66760800  1
  O  O44  1  0.62001000  0.90048200  0.32530500  1
  O  O45  1  0.81390400  0.51294000  0.66637900  1
  O  O46  1  0.66367200  0.67112300  0.01729200  1
  O  O47  1  0.66703800  0.66571400  0.51889100  1
  O  O48  1  0.67180300  0.51601000  0.16475900  1
  O  O49  1  0.48514300  0.88915300  0.82594700  1
  O  O50  1  0.51549000  0.81784800  0.16681300  1
  O  O51  1  0.74859400  0.33599000  0.34181500  1
  O  O52  1  0.79002400  0.21195500  0.75029800  1
  O  O53  1  0.76148000  0.24219800  0.56755200  1
  O  O54  1  0.76061700  0.24651500  0.93389000  1
  O  O55  1  0.62644100  0.48733900  0.82552000  1
  O  O56  1  0.51324900  0.67036400  0.66849000  1
  O  O57  1  0.66422000  0.25590100  0.15980300  1
  O  O58  1  0.47650700  0.61728600  0.32164400  1
  O  O59  1  0.33467500  0.91508600  0.34239300  1
  O  O60  1  0.78616100  0.00770400  0.25413700  1
  O  O61  1  0.75541000  0.00145100  0.43519600  1
  O  O62  1  0.24311000  0.99674700  0.56781700  1
  O  O63  1  0.66686900  0.08300900  0.65851500  1
  O  O64  1  0.52294300  0.38208300  0.67416800  1
  O  O65  1  0.33644300  0.74644600  0.84102100  1
  O  O66  1  0.48758700  0.32570700  0.33385900  1
  O  O67  1  0.37367200  0.51462500  0.17331300  1
  O  O68  1  0.23899000  0.76855800  0.07252200  1
  O  O69  1  0.24441900  0.75286600  0.43540100  1
  O  O70  1  0.20681900  0.78548900  0.25422500  1
  O  O71  1  0.25163700  0.66390100  0.65797600  1
  O  O72  1  0.47965700  0.18563400  0.83010200  1
  O  O73  1  0.51598300  0.11118700  0.17313600  1
  O  O74  1  0.33484100  0.47917000  0.83019600  1
  O  O75  1  0.33197000  0.33088600  0.98101400  1
  O  O76  1  0.33073500  0.32988400  0.48091600  1
  O  O77  1  0.18645000  0.48640300  0.33341000  1
  O  O78  1  0.38392000  0.09458000  0.67487200  1
  O  O79  1  0.33013100  0.18305400  0.32995800  1
  O  O80  1  0.08213100  0.66240200  0.15938700  1
  O  O81  1  0.99978600  0.78998000  0.75121700  1
  O  O82  1  0.99562600  0.75890600  0.93376000  1
  O  O83  1  0.09544900  0.52251600  0.67683400  1
  O  O84  1  0.18256300  0.33038800  0.83546100  1
  O  O85  1  0.11357300  0.37281600  0.17405900  1
  O  O86  1  0.25281500  0.07968200  0.15563700  1
  O  O87  1  0.24191400  0.00452800  0.93118000  1
  O  O88  1  0.21061200  0.00075000  0.75039500  1
  O  O89  1  0.08464100  0.25109400  0.65764900  1
  O  O90  1  0.00217300  0.24350900  0.43189800  1
  O  O91  1  0.00069100  0.21003100  0.24901900  1
