# generated using pymatgen
data_K4Li5Mn2O8
_symmetry_space_group_name_H-M   'P 1'
_cell_length_a   5.55544200
_cell_length_b   8.92256475
_cell_length_c   10.95176928
_cell_angle_alpha   90.90499857
_cell_angle_beta   100.01470079
_cell_angle_gamma   90.05913512
_symmetry_Int_Tables_number   1
_chemical_formula_structural   K4Li5Mn2O8
_chemical_formula_sum   'K8 Li10 Mn4 O16'
_cell_volume   534.52378138
_cell_formula_units_Z   2
loop_
 _symmetry_equiv_pos_site_id
 _symmetry_equiv_pos_as_xyz
  1  'x, y, z'
loop_
 _atom_site_type_symbol
 _atom_site_label
 _atom_site_symmetry_multiplicity
 _atom_site_fract_x
 _atom_site_fract_y
 _atom_site_fract_z
 _atom_site_occupancy
  K  K0  1  0.92521900  0.00965900  0.15117900  1
  K  K1  1  0.83390600  0.76146000  0.63575100  1
  K  K2  1  0.66944200  0.49251700  0.37012000  1
  K  K3  1  0.59684800  0.23800100  0.85331500  1
  K  K4  1  0.37516700  0.75971000  0.15727000  1
  K  K5  1  0.28956700  0.46883000  0.64797600  1
  K  K6  1  0.16573600  0.23230400  0.37179800  1
  K  K7  1  0.06597200  0.03634400  0.81589100  1
  Li  Li8  1  0.90131200  0.74649600  0.30532700  1
  Li  Li9  1  0.89969300  0.47194700  0.80094900  1
  Li  Li10  1  0.68969600  0.48602600  0.07422600  1
  Li  Li11  1  0.77076600  0.98316300  0.42318200  1
  Li  Li12  1  0.58929000  0.24227000  0.19750400  1
  Li  Li13  1  0.40755100  0.76228600  0.79888800  1
  Li  Li14  1  0.46909800  0.97658900  0.99444200  1
  Li  Li15  1  0.31390100  0.52720500  0.93373700  1
  Li  Li16  1  0.22093200  0.01472000  0.56477800  1
  Li  Li17  1  0.08941000  0.51812600  0.20147300  1
  Mn  Mn18  1  0.84563600  0.71237900  0.95317100  1
  Mn  Mn19  1  0.15941600  0.30054700  0.05023700  1
  Mn  Mn20  1  0.31828500  0.77272300  0.44696500  1
  Mn  Mn21  1  0.70066100  0.21936700  0.55497100  1
  O  O22  1  0.90332300  0.32055800  0.15052700  1
  O  O23  1  0.84931600  0.69266100  0.12877900  1
  O  O24  1  0.89193200  0.05966300  0.58917800  1
  O  O25  1  0.78329800  0.40557800  0.62377800  1
  O  O26  1  0.66640400  0.19473200  0.38191100  1
  O  O27  1  0.67666200  0.90298400  0.90365600  1
  O  O28  1  0.60566800  0.78300800  0.38826900  1
  O  O29  1  0.64515700  0.54285900  0.89191800  1
  O  O30  1  0.36646500  0.46405300  0.11930100  1
  O  O31  1  0.41552500  0.19441900  0.60664000  1
  O  O32  1  0.33143400  0.10551600  0.08507300  1
  O  O33  1  0.32463700  0.80301300  0.61228100  1
  O  O34  1  0.18039400  0.60126400  0.37030900  1
  O  O35  1  0.10258700  0.91803800  0.38584400  1
  O  O36  1  0.15206000  0.33085000  0.88200100  1
  O  O37  1  0.10651900  0.69523800  0.85938800  1
