# generated using pymatgen
data_LiCoSiO4
_symmetry_space_group_name_H-M   'P 1'
_cell_length_a   5.27866600
_cell_length_b   8.19829600
_cell_length_c   8.46434239
_cell_angle_alpha   75.31709669
_cell_angle_beta   90.00000000
_cell_angle_gamma   90.00000000
_symmetry_Int_Tables_number   1
_chemical_formula_structural   LiCoSiO4
_chemical_formula_sum   'Li4 Co4 Si4 O16'
_cell_volume   354.34122887
_cell_formula_units_Z   4
loop_
 _symmetry_equiv_pos_site_id
 _symmetry_equiv_pos_as_xyz
  1  'x, y, z'
loop_
 _atom_site_type_symbol
 _atom_site_label
 _atom_site_symmetry_multiplicity
 _atom_site_fract_x
 _atom_site_fract_y
 _atom_site_fract_z
 _atom_site_occupancy
  Li  Li0  1  0.84403200  0.03253400  0.07704600  1
  Li  Li1  1  0.32889000  0.49378100  0.28011100  1
  Li  Li2  1  0.15596800  0.03253400  0.57704600  1
  Li  Li3  1  0.67111000  0.49378100  0.78011100  1
  Co  Co4  1  0.33024200  0.12964700  0.21388200  1
  Co  Co5  1  0.82058300  0.63649900  0.37712600  1
  Co  Co6  1  0.66975800  0.12964700  0.71388200  1
  Co  Co7  1  0.17941700  0.63649900  0.87712600  1
  Si  Si8  1  0.67567200  0.75251600  0.00391000  1
  Si  Si9  1  0.82714100  0.26045600  0.33479400  1
  Si  Si10  1  0.32432800  0.75251600  0.50391000  1
  Si  Si11  1  0.17285900  0.26045600  0.83479400  1
  O  O12  1  0.18337000  0.12684800  0.01747200  1
  O  O13  1  0.38530500  0.67794300  0.03888400  1
  O  O14  1  0.67897600  0.17399900  0.20467300  1
  O  O15  1  0.12743700  0.29236000  0.28202700  1
  O  O16  1  0.79305800  0.78495600  0.17341500  1
  O  O17  1  0.68621700  0.43741800  0.33795700  1
  O  O18  1  0.81663000  0.12684800  0.51747200  1
  O  O19  1  0.16480900  0.61842900  0.42661800  1
  O  O20  1  0.29880200  0.94381600  0.38588200  1
  O  O21  1  0.61469500  0.67794300  0.53888400  1
  O  O22  1  0.32102400  0.17399900  0.70467300  1
  O  O23  1  0.87256300  0.29236000  0.78202700  1
  O  O24  1  0.20694200  0.78495600  0.67341500  1
  O  O25  1  0.31378300  0.43741800  0.83795700  1
  O  O26  1  0.83519100  0.61842900  0.92661800  1
  O  O27  1  0.70119800  0.94381600  0.88588200  1
