# generated using pymatgen
data_Li3Mn5(CoO6)2
_symmetry_space_group_name_H-M   'P 1'
_cell_length_a   5.17537297
_cell_length_b   5.17537297
_cell_length_c   29.15132647
_cell_angle_alpha   89.66747584
_cell_angle_beta   89.66747584
_cell_angle_gamma   119.48229329
_symmetry_Int_Tables_number   1
_chemical_formula_structural   Li3Mn5(CoO6)2
_chemical_formula_sum   'Li9 Mn15 Co6 O36'
_cell_volume   679.65028745
_cell_formula_units_Z   3
loop_
 _symmetry_equiv_pos_site_id
 _symmetry_equiv_pos_as_xyz
  1  'x, y, z'
loop_
 _atom_site_type_symbol
 _atom_site_label
 _atom_site_symmetry_multiplicity
 _atom_site_fract_x
 _atom_site_fract_y
 _atom_site_fract_z
 _atom_site_occupancy
  Li  Li0  1  0.84224600  0.15920600  0.75130300  1
  Li  Li1  1  0.84079400  0.15775400  0.24869700  1
  Li  Li2  1  0.51069200  0.82892300  0.41758100  1
  Li  Li3  1  0.83118400  0.50355700  0.91439800  1
  Li  Li4  1  0.17107700  0.48930800  0.58241900  1
  Li  Li5  1  0.49644300  0.16881600  0.08560200  1
  Li  Li6  1  0.48602300  0.83538200  0.16662100  1
  Li  Li7  1  0.16461800  0.51397700  0.83337900  1
  Li  Li8  1  0.81991700  0.18008300  0.50000000  1
  Mn  Mn9  1  0.17475000  0.82525000  0.00000000  1
  Mn  Mn10  1  0.84445600  0.48675600  0.66670900  1
  Mn  Mn11  1  0.51324400  0.15554400  0.33329100  1
  Mn  Mn12  1  0.83564500  0.16435500  0.00000000  1
  Mn  Mn13  1  0.49994400  0.83116400  0.66675000  1
  Mn  Mn14  1  0.83518800  0.50860500  0.16644900  1
  Mn  Mn15  1  0.16883600  0.50005600  0.33325000  1
  Mn  Mn16  1  0.49139500  0.16481200  0.83355100  1
  Mn  Mn17  1  0.83732500  0.84203200  0.08492400  1
  Mn  Mn18  1  0.16097300  0.83902700  0.50000000  1
  Mn  Mn19  1  0.50331000  0.51752000  0.24798400  1
  Mn  Mn20  1  0.48248000  0.49669000  0.75201600  1
  Mn  Mn21  1  0.15796800  0.16267500  0.91507600  1
  Mn  Mn22  1  0.15378100  0.16818200  0.41855600  1
  Mn  Mn23  1  0.83181800  0.84621900  0.58144400  1
  Co  Co24  1  0.15594300  0.17885200  0.16641300  1
  Co  Co25  1  0.82114800  0.84405700  0.83358700  1
  Co  Co26  1  0.49251300  0.50748700  0.50000000  1
  Co  Co27  1  0.50155300  0.49844700  0.00000000  1
  Co  Co28  1  0.17449400  0.15599600  0.66666800  1
  Co  Co29  1  0.84400400  0.82550600  0.33333200  1
  O  O30  1  0.15092400  0.12927500  0.04229300  1
  O  O31  1  0.14233000  0.45959500  0.96043000  1
  O  O32  1  0.87072500  0.84907600  0.95770700  1
  O  O33  1  0.14051500  0.47227300  0.20199600  1
  O  O34  1  0.78316400  0.79620900  0.70745200  1
  O  O35  1  0.86855200  0.16369000  0.62452500  1
  O  O36  1  0.53543700  0.54732700  0.62603800  1
  O  O37  1  0.81814100  0.15672000  0.86804500  1
  O  O38  1  0.84328000  0.18185900  0.13195500  1
  O  O39  1  0.45267300  0.46456300  0.37396200  1
  O  O40  1  0.13786500  0.85919600  0.13023900  1
  O  O41  1  0.53796500  0.83385600  0.29130200  1
  O  O42  1  0.20379100  0.21683600  0.29254800  1
  O  O43  1  0.54040500  0.85767000  0.03957000  1
  O  O44  1  0.85040100  0.51880500  0.03602300  1
  O  O45  1  0.46831200  0.79837500  0.53582800  1
  O  O46  1  0.52772700  0.85948500  0.79800400  1
  O  O47  1  0.77942700  0.50035800  0.79655600  1
  O  O48  1  0.16614400  0.46203500  0.70869800  1
  O  O49  1  0.48119500  0.14959900  0.96397700  1
  O  O50  1  0.80590200  0.80187000  0.20658000  1
  O  O51  1  0.52894000  0.17344500  0.70177000  1
  O  O52  1  0.49964200  0.22057300  0.20344400  1
  O  O53  1  0.20162500  0.53168800  0.46417200  1
  O  O54  1  0.45446700  0.17047500  0.46326900  1
  O  O55  1  0.55052300  0.51850000  0.12490800  1
  O  O56  1  0.83631000  0.13144800  0.37547500  1
  O  O57  1  0.15724900  0.80161100  0.63150900  1
  O  O58  1  0.48150000  0.44947700  0.87509200  1
  O  O59  1  0.19838900  0.84275100  0.36849100  1
  O  O60  1  0.14080400  0.86213500  0.86976100  1
  O  O61  1  0.19813000  0.19409800  0.79342000  1
  O  O62  1  0.82655500  0.47106000  0.29823000  1
  O  O63  1  0.13466600  0.13049800  0.54020800  1
  O  O64  1  0.82952500  0.54553300  0.53673100  1
  O  O65  1  0.86950200  0.86533400  0.45979200  1
