# generated using pymatgen
data_LiNiPO4
_symmetry_space_group_name_H-M   'P 1'
_cell_length_a   4.92657600
_cell_length_b   9.85186800
_cell_length_c   14.04872400
_cell_angle_alpha   90.00000000
_cell_angle_beta   90.00000000
_cell_angle_gamma   90.00000000
_symmetry_Int_Tables_number   1
_chemical_formula_structural   LiNiPO4
_chemical_formula_sum   'Li8 Ni8 P8 O32'
_cell_volume   681.86853713
_cell_formula_units_Z   8
loop_
 _symmetry_equiv_pos_site_id
 _symmetry_equiv_pos_as_xyz
  1  'x, y, z'
loop_
 _atom_site_type_symbol
 _atom_site_label
 _atom_site_symmetry_multiplicity
 _atom_site_fract_x
 _atom_site_fract_y
 _atom_site_fract_z
 _atom_site_occupancy
  Li  Li0  1  0.93225600  0.02888500  0.49888300  1
  Li  Li1  1  0.55045200  0.22269600  0.24858400  1
  Li  Li2  1  0.55045200  0.27730400  0.74858400  1
  Li  Li3  1  0.93225600  0.47111500  0.99888300  1
  Li  Li4  1  0.06774400  0.52888500  0.49888300  1
  Li  Li5  1  0.44954800  0.72269600  0.24858400  1
  Li  Li6  1  0.44954800  0.77730400  0.74858400  1
  Li  Li7  1  0.06774400  0.97111500  0.99888300  1
  Ni  Ni8  1  0.04976100  0.03049600  0.24800400  1
  Ni  Ni9  1  0.54367700  0.22440900  0.99875100  1
  Ni  Ni10  1  0.54367700  0.27559100  0.49875100  1
  Ni  Ni11  1  0.04976100  0.46950400  0.74800400  1
  Ni  Ni12  1  0.95023900  0.53049600  0.24800400  1
  Ni  Ni13  1  0.45632300  0.72440900  0.99875100  1
  Ni  Ni14  1  0.45632300  0.77559100  0.49875100  1
  Ni  Ni15  1  0.95023900  0.96950400  0.74800400  1
  P  P16  1  0.43562600  0.02877200  0.62352800  1
  P  P17  1  0.05359200  0.21373300  0.87264000  1
  P  P18  1  0.05359200  0.28626700  0.37264000  1
  P  P19  1  0.43562600  0.47122800  0.12352800  1
  P  P20  1  0.56437400  0.52877200  0.62352800  1
  P  P21  1  0.94640800  0.71373300  0.87264000  1
  P  P22  1  0.94640800  0.78626700  0.37264000  1
  P  P23  1  0.56437400  0.97122800  0.12352800  1
  O  O24  1  0.87435900  0.00019900  0.12301100  1
  O  O25  1  0.55687800  0.96598700  0.53128700  1
  O  O26  1  0.44167400  0.03528100  0.21489800  1
  O  O27  1  0.99015600  0.05935000  0.87293500  1
  O  O28  1  0.49721700  0.18306400  0.62380400  1
  O  O29  1  0.92353900  0.22543300  0.46420700  1
  O  O30  1  0.93917800  0.27968600  0.78065900  1
  O  O31  1  0.36428600  0.23962900  0.87320900  1
  O  O32  1  0.36428600  0.26037100  0.37320900  1
  O  O33  1  0.93917800  0.22031400  0.28065900  1
  O  O34  1  0.92353900  0.27456700  0.96420700  1
  O  O35  1  0.49721700  0.31693600  0.12380400  1
  O  O36  1  0.99015600  0.44065000  0.37293500  1
  O  O37  1  0.44167400  0.46471900  0.71489800  1
  O  O38  1  0.55687800  0.53401300  0.03128700  1
  O  O39  1  0.87435900  0.49980100  0.62301100  1
  O  O40  1  0.12564100  0.50019900  0.12301100  1
  O  O41  1  0.44312200  0.46598700  0.53128700  1
  O  O42  1  0.55832600  0.53528100  0.21489800  1
  O  O43  1  0.00984400  0.55935000  0.87293500  1
  O  O44  1  0.50278300  0.68306400  0.62380400  1
  O  O45  1  0.07646100  0.72543300  0.46420700  1
  O  O46  1  0.06082200  0.77968600  0.78065900  1
  O  O47  1  0.63571400  0.73962900  0.87320900  1
  O  O48  1  0.63571400  0.76037100  0.37320900  1
  O  O49  1  0.06082200  0.72031400  0.28065900  1
  O  O50  1  0.07646100  0.77456700  0.96420700  1
  O  O51  1  0.50278300  0.81693600  0.12380400  1
  O  O52  1  0.00984400  0.94065000  0.37293500  1
  O  O53  1  0.55832600  0.96471900  0.71489800  1
  O  O54  1  0.44312200  0.03401300  0.03128700  1
  O  O55  1  0.12564100  0.99980100  0.62301100  1
