# generated using pymatgen
data_Li3V2P4(HO8)2
_symmetry_space_group_name_H-M   'P 1'
_cell_length_a   7.88549200
_cell_length_b   8.07677043
_cell_length_c   9.76563146
_cell_angle_alpha   90.05255462
_cell_angle_beta   111.99475473
_cell_angle_gamma   90.04445036
_symmetry_Int_Tables_number   1
_chemical_formula_structural   Li3V2P4(HO8)2
_chemical_formula_sum   'Li6 V4 P8 H4 O32'
_cell_volume   576.69779054
_cell_formula_units_Z   2
loop_
 _symmetry_equiv_pos_site_id
 _symmetry_equiv_pos_as_xyz
  1  'x, y, z'
loop_
 _atom_site_type_symbol
 _atom_site_label
 _atom_site_symmetry_multiplicity
 _atom_site_fract_x
 _atom_site_fract_y
 _atom_site_fract_z
 _atom_site_occupancy
  Li  Li0  1  0.34687900  0.63057400  0.72473100  1
  Li  Li1  1  0.65342900  0.36991800  0.77156000  1
  Li  Li2  1  0.85188800  0.86557100  0.72907000  1
  Li  Li3  1  0.15535300  0.13304300  0.27566500  1
  Li  Li4  1  0.35469700  0.63692400  0.22295800  1
  Li  Li5  1  0.84493000  0.86962300  0.22697000  1
  V  V6  1  0.00257100  0.49528800  0.75205200  1
  V  V7  1  0.48994700  0.00192600  0.74934300  1
  V  V8  1  0.99785600  0.49982200  0.25088300  1
  V  V9  1  0.50169700  0.00632900  0.25008000  1
  P  P10  1  0.23258200  0.85193200  0.93162600  1
  P  P11  1  0.73246200  0.65522600  0.93300300  1
  P  P12  1  0.26852500  0.34499900  0.56627000  1
  P  P13  1  0.23142200  0.84758100  0.43114900  1
  P  P14  1  0.76009500  0.14955400  0.56870200  1
  P  P15  1  0.73991700  0.65105600  0.43251600  1
  P  P16  1  0.26362600  0.35333800  0.06728900  1
  P  P17  1  0.76506300  0.15960700  0.06405600  1
  H  H18  1  0.48864300  0.50115800  0.00691900  1
  H  H19  1  0.51679500  0.50521200  0.48835800  1
  H  H20  1  0.98244400  0.00778600  0.51453700  1
  H  H21  1  0.99500700  0.00892300  0.00367000  1
  O  O22  1  0.05334300  0.94202500  0.90908100  1
  O  O23  1  0.14001900  0.33104000  0.90506100  1
  O  O24  1  0.19114500  0.68503400  0.85020400  1
  O  O25  1  0.35180800  0.95291000  0.86005000  1
  O  O26  1  0.55373700  0.55909100  0.90561800  1
  O  O27  1  0.64415000  0.17714100  0.89773900  1
  O  O28  1  0.68614800  0.82612800  0.85523600  1
  O  O29  1  0.84024200  0.55099300  0.85985000  1
  O  O30  1  0.16218400  0.44596600  0.64252200  1
  O  O31  1  0.31794100  0.16987700  0.63298400  1
  O  O32  1  0.35085300  0.82634000  0.59929300  1
  O  O33  1  0.44543000  0.44404700  0.59334600  1
  O  O34  1  0.65410800  0.04340000  0.64712100  1
  O  O35  1  0.80790100  0.31650300  0.64715800  1
  O  O36  1  0.05275000  0.94233000  0.40279000  1
  O  O37  1  0.14481900  0.32708600  0.39874400  1
  O  O38  1  0.85187600  0.67147900  0.59887400  1
  O  O39  1  0.93746600  0.04440600  0.59753400  1
  O  O40  1  0.18998200  0.67504700  0.35521000  1
  O  O41  1  0.34104800  0.95134600  0.35926200  1
  O  O42  1  0.55635300  0.55723200  0.40466700  1
  O  O43  1  0.64338800  0.16847500  0.40494200  1
  O  O44  1  0.68959800  0.81545700  0.34975200  1
  O  O45  1  0.85664000  0.55012900  0.36259600  1
  O  O46  1  0.15738300  0.45993400  0.14689600  1
  O  O47  1  0.31087200  0.18753500  0.14769100  1
  O  O48  1  0.35444000  0.83136000  0.09710400  1
  O  O49  1  0.43781400  0.45915400  0.09122300  1
  O  O50  1  0.66510500  0.05446600  0.14160800  1
  O  O51  1  0.82157900  0.33060900  0.13528100  1
  O  O52  1  0.85224500  0.67630600  0.10060800  1
  O  O53  1  0.94566500  0.05941200  0.09038400  1
