# generated using pymatgen
data_Li5Mn6(BO3)6
_symmetry_space_group_name_H-M   'P 1'
_cell_length_a   6.22687500
_cell_length_b   7.86907814
_cell_length_c   9.07476732
_cell_angle_alpha   109.22003392
_cell_angle_beta   106.86466209
_cell_angle_gamma   101.29718947
_symmetry_Int_Tables_number   1
_chemical_formula_structural   Li5Mn6(BO3)6
_chemical_formula_sum   'Li5 Mn6 B6 O18'
_cell_volume   380.35333717
_cell_formula_units_Z   1
loop_
 _symmetry_equiv_pos_site_id
 _symmetry_equiv_pos_as_xyz
  1  'x, y, z'
loop_
 _atom_site_type_symbol
 _atom_site_label
 _atom_site_symmetry_multiplicity
 _atom_site_fract_x
 _atom_site_fract_y
 _atom_site_fract_z
 _atom_site_occupancy
  Li  Li0  1  0.01648100  0.33512600  0.28662700  1
  Li  Li1  1  0.31711400  0.00166800  0.38504600  1
  Li  Li2  1  0.65667500  0.33271700  0.04560500  1
  Li  Li3  1  0.68230700  0.00106100  0.62018000  1
  Li  Li4  1  0.00122800  0.65434800  0.72017700  1
  Mn  Mn5  1  0.39843800  0.62834700  0.62756500  1
  Mn  Mn6  1  0.27529900  0.03456100  0.71824700  1
  Mn  Mn7  1  0.06373400  0.30992200  0.94394800  1
  Mn  Mn8  1  0.96567800  0.71614500  0.05847300  1
  Mn  Mn9  1  0.70285900  0.94913200  0.26660000  1
  Mn  Mn10  1  0.60900000  0.36556300  0.38392700  1
  B  B11  1  0.73419400  0.97443100  0.94976500  1
  B  B12  1  0.62795500  0.36563700  0.71914100  1
  B  B13  1  0.95540200  0.68943000  0.38248200  1
  B  B14  1  0.03550100  0.29277500  0.60634500  1
  B  B15  1  0.35971200  0.64479300  0.29241800  1
  B  B16  1  0.28165900  0.03234500  0.04797800  1
  O  O17  1  0.59243200  0.91369200  0.78100300  1
  O  O18  1  0.33810200  0.51151400  0.36108000  1
  O  O19  1  0.86784000  0.16231400  0.04791600  1
  O  O20  1  0.33104900  0.16377300  0.97914100  1
  O  O21  1  0.75280000  0.43011700  0.89225200  1
  O  O22  1  0.07951900  0.75155200  0.55458400  1
  O  O23  1  0.47903900  0.18026900  0.62140200  1
  O  O24  1  0.80489800  0.50668000  0.28322200  1
  O  O25  1  0.99237800  0.81682000  0.30597600  1
  O  O26  1  0.99826400  0.16730500  0.68411900  1
  O  O27  1  0.18338200  0.47485900  0.70394500  1
  O  O28  1  0.51886600  0.82494700  0.38488000  1
  O  O29  1  0.91058100  0.22963500  0.43287400  1
  O  O30  1  0.20672200  0.59164400  0.12433200  1
  O  O31  1  0.72419500  0.84352800  0.02604800  1
  O  O32  1  0.11850300  0.85416100  0.94521100  1
  O  O33  1  0.66779900  0.49021600  0.64285600  1
  O  O34  1  0.40380200  0.08089800  0.21870400  1
