# generated using pymatgen
data_Li2Si4NiO10
_symmetry_space_group_name_H-M   'P 1'
_cell_length_a   9.96408900
_cell_length_b   6.67399200
_cell_length_c   15.43958866
_cell_angle_alpha   66.15362240
_cell_angle_beta   90.00000000
_cell_angle_gamma   90.00000000
_symmetry_Int_Tables_number   1
_chemical_formula_structural   Li2Si4NiO10
_chemical_formula_sum   'Li8 Si16 Ni4 O40'
_cell_volume   939.08680875
_cell_formula_units_Z   4
loop_
 _symmetry_equiv_pos_site_id
 _symmetry_equiv_pos_as_xyz
  1  'x, y, z'
loop_
 _atom_site_type_symbol
 _atom_site_label
 _atom_site_symmetry_multiplicity
 _atom_site_fract_x
 _atom_site_fract_y
 _atom_site_fract_z
 _atom_site_occupancy
  Li  Li0  1  0.87654200  0.97425200  0.43074400  1
  Li  Li1  1  0.08488900  0.52678600  0.76321200  1
  Li  Li2  1  0.58488900  0.47321400  0.73678800  1
  Li  Li3  1  0.37654200  0.02574800  0.06925600  1
  Li  Li4  1  0.62345800  0.97425200  0.93074400  1
  Li  Li5  1  0.41511100  0.52678600  0.26321200  1
  Li  Li6  1  0.91511100  0.47321400  0.23678800  1
  Li  Li7  1  0.12345800  0.02574800  0.56925600  1
  Si  Si8  1  0.72775700  0.64783100  0.86845600  1
  Si  Si9  1  0.44819400  0.65677000  0.84169500  1
  Si  Si10  1  0.02845600  0.08450700  0.16663400  1
  Si  Si11  1  0.26411900  0.79246000  0.45465100  1
  Si  Si12  1  0.76411900  0.20754000  0.04534900  1
  Si  Si13  1  0.52845600  0.91549300  0.33336600  1
  Si  Si14  1  0.77224300  0.64783100  0.36845600  1
  Si  Si15  1  0.05180600  0.65677000  0.34169500  1
  Si  Si16  1  0.94819400  0.34323000  0.65830500  1
  Si  Si17  1  0.22775700  0.35216900  0.63154400  1
  Si  Si18  1  0.47154400  0.08450700  0.66663400  1
  Si  Si19  1  0.23588100  0.79246000  0.95465100  1
  Si  Si20  1  0.73588100  0.20754000  0.54534900  1
  Si  Si21  1  0.97154400  0.91549300  0.83336600  1
  Si  Si22  1  0.55180600  0.34323000  0.15830500  1
  Si  Si23  1  0.27224300  0.35216900  0.13154400  1
  Ni  Ni24  1  0.86319000  0.78749900  0.67215000  1
  Ni  Ni25  1  0.36319000  0.21250100  0.82785000  1
  Ni  Ni26  1  0.63681000  0.78749900  0.17215000  1
  Ni  Ni27  1  0.13681000  0.21250100  0.32785000  1
  O  O28  1  0.54964500  0.18126800  0.27232000  1
  O  O29  1  0.69574100  0.30942100  0.11606200  1
  O  O30  1  0.17208000  0.99113100  0.45670200  1
  O  O31  1  0.99523100  0.20936300  0.23448800  1
  O  O32  1  0.42273800  0.27537200  0.10532000  1
  O  O33  1  0.72208800  0.65896900  0.76220800  1
  O  O34  1  0.17650400  0.16944500  0.11431900  1
  O  O35  1  0.41612300  0.87317300  0.41604400  1
  O  O36  1  0.77455700  0.40254200  0.93969400  1
  O  O37  1  0.91612300  0.12682700  0.08395600  1
  O  O38  1  0.67650400  0.83055500  0.38568100  1
  O  O39  1  0.97842300  0.58949100  0.64436500  1
  O  O40  1  0.47842300  0.41050900  0.85563500  1
  O  O41  1  0.27455700  0.59745800  0.56030600  1
  O  O42  1  0.92273800  0.72462800  0.39468000  1
  O  O43  1  0.49523100  0.79063700  0.26551200  1
  O  O44  1  0.67208000  0.00886900  0.04329800  1
  O  O45  1  0.19574100  0.69057900  0.38393800  1
  O  O46  1  0.04964500  0.81873200  0.22768000  1
  O  O47  1  0.22208800  0.34103100  0.73779200  1
  O  O48  1  0.77791200  0.65896900  0.26220800  1
  O  O49  1  0.95035500  0.18126800  0.77232000  1
  O  O50  1  0.80425900  0.30942100  0.61606200  1
  O  O51  1  0.32792000  0.99113100  0.95670200  1
  O  O52  1  0.50476900  0.20936300  0.73448800  1
  O  O53  1  0.07726200  0.27537200  0.60532000  1
  O  O54  1  0.72544300  0.40254200  0.43969400  1
  O  O55  1  0.52157700  0.58949100  0.14436500  1
  O  O56  1  0.02157700  0.41050900  0.35563500  1
  O  O57  1  0.32349600  0.16944500  0.61431900  1
  O  O58  1  0.08387700  0.87317300  0.91604400  1
  O  O59  1  0.22544300  0.59745800  0.06030600  1
  O  O60  1  0.58387700  0.12682700  0.58395600  1
  O  O61  1  0.82349600  0.83055500  0.88568100  1
  O  O62  1  0.27791200  0.34103100  0.23779200  1
  O  O63  1  0.57726200  0.72462800  0.89468000  1
  O  O64  1  0.00476900  0.79063700  0.76551200  1
  O  O65  1  0.82792000  0.00886900  0.54329800  1
  O  O66  1  0.30425900  0.69057900  0.88393800  1
  O  O67  1  0.45035500  0.81873200  0.72768000  1
