# generated using pymatgen
data_Li5V3P8O29
_symmetry_space_group_name_H-M   'P 1'
_cell_length_a   9.75761200
_cell_length_b   9.79179187
_cell_length_c   14.05964704
_cell_angle_alpha   90.54505483
_cell_angle_beta   89.76228107
_cell_angle_gamma   119.63780794
_symmetry_Int_Tables_number   1
_chemical_formula_structural   Li5V3P8O29
_chemical_formula_sum   'Li10 V6 P16 O58'
_cell_volume   1167.52052868
_cell_formula_units_Z   2
loop_
 _symmetry_equiv_pos_site_id
 _symmetry_equiv_pos_as_xyz
  1  'x, y, z'
loop_
 _atom_site_type_symbol
 _atom_site_label
 _atom_site_symmetry_multiplicity
 _atom_site_fract_x
 _atom_site_fract_y
 _atom_site_fract_z
 _atom_site_occupancy
  Li  Li0  1  0.09456200  0.77319500  0.56149400  1
  Li  Li1  1  0.68323300  0.91423600  0.56437300  1
  Li  Li2  1  0.66888200  0.77104300  0.05573100  1
  Li  Li3  1  0.10516800  0.33767500  0.05674900  1
  Li  Li4  1  0.76880500  0.68202700  0.43974300  1
  Li  Li5  1  0.22915400  0.32521800  0.56180400  1
  Li  Li6  1  0.91240400  0.67835200  0.93609300  1
  Li  Li7  1  0.65333600  0.31794600  0.10856800  1
  Li  Li8  1  0.32223900  0.09375000  0.43982900  1
  Li  Li9  1  0.05879600  0.04295000  0.99432500  1
  V  V10  1  0.56558000  0.57067900  0.24940100  1
  V  V11  1  0.43304200  0.42904300  0.75399100  1
  V  V12  1  0.00219600  0.56648400  0.74827300  1
  V  V13  1  0.00063300  0.42785300  0.25259200  1
  V  V14  1  0.42795200  0.99432300  0.24666000  1
  V  V15  1  0.56801000  0.00320200  0.75570400  1
  P  P16  1  0.22084700  0.91610100  0.84154400  1
  P  P17  1  0.08410700  0.76816900  0.33888500  1
  P  P18  1  0.68193100  0.91731000  0.34580100  1
  P  P19  1  0.32771900  0.66246100  0.12819300  1
  P  P20  1  0.33882600  0.66654000  0.63003900  1
  P  P21  1  0.68291100  0.77082200  0.83970500  1
  P  P22  1  0.76678100  0.67767200  0.65683000  1
  P  P23  1  0.08597600  0.31361300  0.84451400  1
  P  P24  1  0.90862700  0.67973600  0.15489600  1
  P  P25  1  0.23347200  0.31975500  0.34377900  1
  P  P26  1  0.31220200  0.22228900  0.16057500  1
  P  P27  1  0.66616400  0.33676500  0.37014600  1
  P  P28  1  0.67080100  0.33951800  0.87236700  1
  P  P29  1  0.31868600  0.08602600  0.65786300  1
  P  P30  1  0.91304100  0.22776900  0.66188400  1
  P  P31  1  0.77820700  0.08558600  0.16110100  1
  O  O32  1  0.24436900  0.00129700  0.56602300  1
  O  O33  1  0.24900200  0.91611800  0.33984100  1
  O  O34  1  0.98712000  0.76255700  0.06548500  1
  O  O35  1  0.08152700  0.74291900  0.83286100  1
  O  O36  1  0.37887100  0.91912300  0.83392300  1
  O  O37  1  0.32009800  0.80402400  0.17203400  1
  O  O38  1  0.52278500  0.90733000  0.31927100  1
  O  O39  1  0.78923600  0.99064000  0.08087700  1
  O  O40  1  0.65461800  0.91189500  0.83720000  1
  O  O41  1  0.18848800  0.67151300  0.66766400  1
  O  O42  1  0.09614400  0.61837900  0.31824500  1
  O  O43  1  0.48878300  0.81516500  0.66972900  1
  O  O44  1  0.31776500  0.64375000  0.02288900  1
  O  O45  1  0.33745900  0.65504600  0.52395600  1
  O  O46  1  0.48332300  0.67189800  0.16738900  1
  O  O47  1  0.08835500  0.46938000  0.83227800  1
  O  O48  1  0.18075700  0.50830400  0.17253800  1
  O  O49  1  0.66566000  0.75129900  0.33674600  1
  O  O50  1  0.78994700  0.79001400  0.74800500  1
  O  O51  1  0.75264000  0.75540400  0.56837400  1
  O  O52  1  0.76780000  0.76957000  0.92855900  1
  O  O53  1  0.52473900  0.61624000  0.82621600  1
  O  O54  1  0.33525400  0.51555600  0.67424700  1
  O  O55  1  0.73793800  0.65609600  0.15966000  1
  O  O56  1  0.38161900  0.47877500  0.32321700  1
  O  O57  1  0.08552100  0.33955300  0.33548900  1
  O  O58  1  0.99434400  0.78703800  0.24835500  1
  O  O59  1  0.99582800  0.75331700  0.42956700  1
  O  O60  1  0.01079900  0.23857100  0.57860600  1
  O  O61  1  0.91737100  0.66326100  0.65574100  1
  O  O62  1  0.61909300  0.51906800  0.67704100  1
  O  O63  1  0.25654900  0.33945400  0.82875300  1
  O  O64  1  0.67135300  0.48955100  0.33032700  1
  O  O65  1  0.47445900  0.37316600  0.16826800  1
  O  O66  1  0.20747700  0.21296600  0.08080900  1
  O  O67  1  0.24340600  0.24772000  0.43514100  1
  O  O68  1  0.21651100  0.20278400  0.25886000  1
  O  O69  1  0.34040200  0.25417600  0.65923800  1
  O  O70  1  0.81466600  0.49388100  0.83619400  1
  O  O71  1  0.89739200  0.51756000  0.16929400  1
  O  O72  1  0.51843100  0.33573700  0.82682600  1
  O  O73  1  0.66111200  0.34385100  0.97860500  1
  O  O74  1  0.67992800  0.34411500  0.47543300  1
  O  O75  1  0.51630800  0.18826300  0.33108400  1
  O  O76  1  0.90351300  0.38038500  0.67966600  1
  O  O77  1  0.81617400  0.33842400  0.32015700  1
  O  O78  1  0.34221600  0.08127100  0.16227000  1
  O  O79  1  0.20249900  0.99533300  0.74374600  1
  O  O80  1  0.19305100  0.99389300  0.92377400  1
  O  O81  1  0.47750100  0.09378400  0.67784500  1
  O  O82  1  0.67495000  0.19553200  0.83046400  1
  O  O83  1  0.62781500  0.10087700  0.16715600  1
  O  O84  1  0.92306200  0.25699000  0.16002000  1
  O  O85  1  0.02363700  0.22999600  0.93664800  1
  O  O86  1  0.98762200  0.20024900  0.75824600  1
  O  O87  1  0.74505900  0.08381000  0.66166300  1
  O  O88  1  0.74584200  0.99183400  0.43924900  1
  O  O89  1  0.79954300  0.01693600  0.26073600  1
