# generated using pymatgen
data_LiVSiO4
_symmetry_space_group_name_H-M   'P 1'
_cell_length_a   5.21519808
_cell_length_b   9.02649832
_cell_length_c   9.60642513
_cell_angle_alpha   89.97637682
_cell_angle_beta   89.99251858
_cell_angle_gamma   90.01268956
_symmetry_Int_Tables_number   1
_chemical_formula_structural   LiVSiO4
_chemical_formula_sum   'Li4 V4 Si4 O16'
_cell_volume   452.22218584
_cell_formula_units_Z   4
loop_
 _symmetry_equiv_pos_site_id
 _symmetry_equiv_pos_as_xyz
  1  'x, y, z'
loop_
 _atom_site_type_symbol
 _atom_site_label
 _atom_site_symmetry_multiplicity
 _atom_site_fract_x
 _atom_site_fract_y
 _atom_site_fract_z
 _atom_site_occupancy
  Li  Li0  1  0.50000300  0.50003400  0.23119800  1
  Li  Li1  1  0.99998800  0.00006800  0.23113900  1
  Li  Li2  1  0.49959600  0.49991700  0.73115900  1
  Li  Li3  1  0.99957700  0.99994000  0.73120800  1
  V  V4  1  0.50027000  0.83326200  0.12265000  1
  V  V5  1  0.99993500  0.66655700  0.62257400  1
  V  V6  1  0.00005000  0.33345600  0.12254000  1
  V  V7  1  0.49990000  0.16654300  0.62263700  1
  Si  Si8  1  0.99988400  0.33340600  0.75978800  1
  Si  Si9  1  0.49987600  0.83341600  0.75980100  1
  Si  Si10  1  0.50001600  0.16659400  0.25973300  1
  Si  Si11  1  0.00006200  0.66660700  0.25976100  1
  O  O12  1  0.00116200  0.33376800  0.92888700  1
  O  O13  1  0.50118800  0.83376000  0.92894300  1
  O  O14  1  0.50074800  0.16636500  0.42893200  1
  O  O15  1  0.00069400  0.66637100  0.42892800  1
  O  O16  1  0.84245400  0.18682000  0.70281100  1
  O  O17  1  0.34244700  0.68680400  0.70280300  1
  O  O18  1  0.85807400  0.48520300  0.70264400  1
  O  O19  1  0.35806900  0.98520100  0.70264200  1
  O  O20  1  0.20198300  0.17189200  0.20200500  1
  O  O21  1  0.70200700  0.67179000  0.20198200  1
  O  O22  1  0.29770500  0.32816400  0.70165500  1
  O  O23  1  0.79770600  0.82817900  0.70166300  1
  O  O24  1  0.64154300  0.01474200  0.20254500  1
  O  O25  1  0.14161400  0.51479600  0.20256900  1
  O  O26  1  0.65704300  0.31316800  0.20221700  1
  O  O27  1  0.15701200  0.81317700  0.20222900  1
