# generated using pymatgen
data_Li8CrO6
_symmetry_space_group_name_H-M   'P 1'
_cell_length_a   5.40626623
_cell_length_b   5.88013588
_cell_length_c   9.36307041
_cell_angle_alpha   105.40345557
_cell_angle_beta   90.03362319
_cell_angle_gamma   62.61977568
_symmetry_Int_Tables_number   1
_chemical_formula_structural   Li8CrO6
_chemical_formula_sum   'Li16 Cr2 O12'
_cell_volume   252.22758674
_cell_formula_units_Z   2
loop_
 _symmetry_equiv_pos_site_id
 _symmetry_equiv_pos_as_xyz
  1  'x, y, z'
loop_
 _atom_site_type_symbol
 _atom_site_label
 _atom_site_symmetry_multiplicity
 _atom_site_fract_x
 _atom_site_fract_y
 _atom_site_fract_z
 _atom_site_occupancy
  Li  Li0  1  0.48795300  0.02380600  0.17045600  1
  Li  Li1  1  0.98783500  0.02416900  0.67068400  1
  Li  Li2  1  0.01212700  0.97584700  0.32930600  1
  Li  Li3  1  0.51208900  0.97617300  0.82953600  1
  Li  Li4  1  0.99198400  0.35214200  0.24460800  1
  Li  Li5  1  0.49249400  0.35187300  0.74487300  1
  Li  Li6  1  0.98140400  0.64709300  0.11829000  1
  Li  Li7  1  0.48070100  0.64803400  0.61863600  1
  Li  Li8  1  0.03937900  0.64832000  0.45016600  1
  Li  Li9  1  0.53908000  0.64784500  0.95033500  1
  Li  Li10  1  0.46096100  0.35213200  0.04962800  1
  Li  Li11  1  0.96058900  0.35168700  0.54980100  1
  Li  Li12  1  0.51931900  0.35189900  0.38135900  1
  Li  Li13  1  0.01856100  0.35292900  0.88169100  1
  Li  Li14  1  0.50754100  0.64814500  0.25510700  1
  Li  Li15  1  0.00800600  0.64790600  0.75540300  1
  Cr  Cr16  1  0.49994600  0.99994600  0.50005500  1
  Cr  Cr17  1  0.00005100  0.00003600  0.00004900  1
  O  O18  1  0.77580700  0.76717200  0.31304700  1
  O  O19  1  0.27461400  0.76872700  0.81352800  1
  O  O20  1  0.18487000  0.23213200  0.04422400  1
  O  O21  1  0.68509900  0.23274300  0.54431700  1
  O  O22  1  0.24215000  0.23200100  0.38562100  1
  O  O23  1  0.74173800  0.23255500  0.88482200  1
  O  O24  1  0.25828900  0.76745000  0.11518300  1
  O  O25  1  0.75780500  0.76799000  0.61438600  1
  O  O26  1  0.31487200  0.76724700  0.45569200  1
  O  O27  1  0.81517500  0.76788900  0.95577400  1
  O  O28  1  0.72541300  0.23129400  0.18646200  1
  O  O29  1  0.22415000  0.23282500  0.68696000  1
