# generated using pymatgen
data_Li3B2SbO6
_symmetry_space_group_name_H-M   'P 1'
_cell_length_a   6.49195500
_cell_length_b   8.88321200
_cell_length_c   10.20636468
_cell_angle_alpha   62.86979278
_cell_angle_beta   90.00000000
_cell_angle_gamma   90.00000000
_symmetry_Int_Tables_number   1
_chemical_formula_structural   Li3B2SbO6
_chemical_formula_sum   'Li12 B8 Sb4 O24'
_cell_volume   523.83341933
_cell_formula_units_Z   4
loop_
 _symmetry_equiv_pos_site_id
 _symmetry_equiv_pos_as_xyz
  1  'x, y, z'
loop_
 _atom_site_type_symbol
 _atom_site_label
 _atom_site_symmetry_multiplicity
 _atom_site_fract_x
 _atom_site_fract_y
 _atom_site_fract_z
 _atom_site_occupancy
  Li  Li0  1  0.24413900  0.39222200  0.97942900  1
  Li  Li1  1  0.93756500  0.28950200  0.16980200  1
  Li  Li2  1  0.74413900  0.60777800  0.52057100  1
  Li  Li3  1  0.71976800  0.15642000  0.04654600  1
  Li  Li4  1  0.56243500  0.28950200  0.66980200  1
  Li  Li5  1  0.21976800  0.84358000  0.45345400  1
  Li  Li6  1  0.78023200  0.15642000  0.54654600  1
  Li  Li7  1  0.43756500  0.71049800  0.33019800  1
  Li  Li8  1  0.28023200  0.84358000  0.95345400  1
  Li  Li9  1  0.25586100  0.39222200  0.47942900  1
  Li  Li10  1  0.06243500  0.71049800  0.83019800  1
  Li  Li11  1  0.75586100  0.60777800  0.02057100  1
  B  B12  1  0.33633300  0.53944800  0.67715800  1
  B  B13  1  0.83633300  0.46055200  0.82284200  1
  B  B14  1  0.83065800  0.94943400  0.38944400  1
  B  B15  1  0.33065800  0.05056600  0.11055600  1
  B  B16  1  0.66934200  0.94943400  0.88944400  1
  B  B17  1  0.16934200  0.05056600  0.61055600  1
  B  B18  1  0.16366700  0.53944800  0.17715800  1
  B  B19  1  0.66366700  0.46055200  0.32284200  1
  Sb  Sb20  1  0.46941300  0.19272700  0.29811700  1
  Sb  Sb21  1  0.03058700  0.19272700  0.79811700  1
  Sb  Sb22  1  0.96941300  0.80727300  0.20188300  1
  Sb  Sb23  1  0.53058700  0.80727300  0.70188300  1
  O  O24  1  0.78717400  0.61714300  0.81497200  1
  O  O25  1  0.29445700  0.58433500  0.78879400  1
  O  O26  1  0.43986600  0.65909900  0.55340700  1
  O  O27  1  0.93986600  0.34090100  0.94659300  1
  O  O28  1  0.79445700  0.41566500  0.71120600  1
  O  O29  1  0.72417600  0.99016900  0.48574700  1
  O  O30  1  0.43222000  0.20512700  0.06337900  1
  O  O31  1  0.28717400  0.38285700  0.68502800  1
  O  O32  1  0.83008500  0.06185400  0.24099000  1
  O  O33  1  0.33008500  0.93814600  0.25901000  1
  O  O34  1  0.93222000  0.79487300  0.43662100  1
  O  O35  1  0.22417600  0.00983100  0.01425300  1
  O  O36  1  0.77582400  0.99016900  0.98574700  1
  O  O37  1  0.06778000  0.20512700  0.56337900  1
  O  O38  1  0.66991500  0.06185400  0.74099000  1
  O  O39  1  0.16991500  0.93814600  0.75901000  1
  O  O40  1  0.71282600  0.61714300  0.31497200  1
  O  O41  1  0.56778000  0.79487300  0.93662100  1
  O  O42  1  0.27582400  0.00983100  0.51425300  1
  O  O43  1  0.20554300  0.58433500  0.28879400  1
  O  O44  1  0.06013400  0.65909900  0.05340700  1
  O  O45  1  0.56013400  0.34090100  0.44659300  1
  O  O46  1  0.70554300  0.41566500  0.21120600  1
  O  O47  1  0.21282600  0.38285700  0.18502800  1
