# generated using pymatgen
data_Li4V3P8O29
_symmetry_space_group_name_H-M   'P 1'
_cell_length_a   9.75752600
_cell_length_b   9.76247055
_cell_length_c   14.10735485
_cell_angle_alpha   90.28309779
_cell_angle_beta   89.90743226
_cell_angle_gamma   119.83000216
_symmetry_Int_Tables_number   1
_chemical_formula_structural   Li4V3P8O29
_chemical_formula_sum   'Li8 V6 P16 O58'
_cell_volume   1165.76651236
_cell_formula_units_Z   2
loop_
 _symmetry_equiv_pos_site_id
 _symmetry_equiv_pos_as_xyz
  1  'x, y, z'
loop_
 _atom_site_type_symbol
 _atom_site_label
 _atom_site_symmetry_multiplicity
 _atom_site_fract_x
 _atom_site_fract_y
 _atom_site_fract_z
 _atom_site_occupancy
  Li  Li0  1  0.33114100  0.09676300  0.55570500  1
  Li  Li1  1  0.90805200  0.67609800  0.06152700  1
  Li  Li2  1  0.77717500  0.09380200  0.05717200  1
  Li  Li3  1  0.90732100  0.23559000  0.55936600  1
  Li  Li4  1  0.22493800  0.91938400  0.94207300  1
  Li  Li5  1  0.66876000  0.89950200  0.44025200  1
  Li  Li6  1  0.68142500  0.77288700  0.93915200  1
  Li  Li7  1  0.00703400  0.95277200  0.49037200  1
  V  V8  1  0.00394900  0.56646800  0.25806200  1
  V  V9  1  0.00336900  0.43684800  0.75032000  1
  V  V10  1  0.43100300  0.00210500  0.75140500  1
  V  V11  1  0.56605100  0.00030800  0.24701000  1
  V  V12  1  0.42911900  0.43281500  0.24935900  1
  V  V13  1  0.56390500  0.55732200  0.74413000  1
  P  P14  1  0.31206300  0.23284300  0.84882000  1
  P  P15  1  0.31256100  0.08908400  0.34076200  1
  P  P16  1  0.77593000  0.69376700  0.33824500  1
  P  P17  1  0.67261300  0.34072100  0.13192200  1
  P  P18  1  0.66765800  0.32969600  0.62869900  1
  P  P19  1  0.91133200  0.68239900  0.84184800  1
  P  P20  1  0.08296100  0.77718300  0.65758900  1
  P  P21  1  0.77118800  0.09157700  0.83888700  1
  P  P22  1  0.22640900  0.90748900  0.16017600  1
  P  P23  1  0.91233300  0.22480100  0.34453900  1
  P  P24  1  0.08620100  0.31329400  0.16142800  1
  P  P25  1  0.33762800  0.66632300  0.37101200  1
  P  P26  1  0.33657900  0.66983400  0.86884700  1
  P  P27  1  0.22152800  0.30279100  0.66043700  1
  P  P28  1  0.68264100  0.90934400  0.65936300  1
  P  P29  1  0.68100100  0.76676200  0.15394000  1
  O  O30  1  0.21295800  0.20395900  0.57771500  1
  O  O31  1  0.34257300  0.26018500  0.32931600  1
  O  O32  1  0.23434100  0.98589400  0.06931400  1
  O  O33  1  0.33576000  0.08634400  0.84146300  1
  O  O34  1  0.47367200  0.38262800  0.82022900  1
  O  O35  1  0.52879800  0.34418100  0.18076600  1
  O  O36  1  0.61516500  0.54173900  0.33208800  1
  O  O37  1  0.75498700  0.75206600  0.06368600  1
  O  O38  1  0.74359000  0.66083900  0.83978900  1
  O  O39  1  0.51163200  0.18757600  0.66671300  1
  O  O40  1  0.46782200  0.08731100  0.32995900  1
  O  O41  1  0.67378800  0.48216000  0.67623600  1
  O  O42  1  0.67457000  0.35219600  0.02689800  1
  O  O43  1  0.67241800  0.33522800  0.52355000  1
  O  O44  1  0.82228000  0.48862300  0.17567600  1
  O  O45  1  0.61930600  0.10062000  0.82147100  1
  O  O46  1  0.67148500  0.18716300  0.16707600  1
  O  O47  1  0.91312000  0.65599300  0.33582500  1
  O  O48  1  0.00558500  0.79676100  0.75573800  1
  O  O49  1  0.00100200  0.79460300  0.57491400  1
  O  O50  1  0.99751700  0.75366200  0.93278500  1
  O  O51  1  0.90227400  0.52126500  0.82070700  1
  O  O52  1  0.81489200  0.32279000  0.67005400  1
  O  O53  1  0.07989100  0.73889100  0.16533300  1
  O  O54  1  0.90839600  0.38109200  0.32904800  1
  O  O55  1  0.74180500  0.08221500  0.33396700  1
  O  O56  1  0.20357600  0.99656400  0.25006100  1
  O  O57  1  0.22395500  0.01924800  0.43030100  1
  O  O58  1  0.77106700  0.99017900  0.57075100  1
  O  O59  1  0.25741900  0.91548800  0.66307500  1
  O  O60  1  0.07812500  0.61617500  0.66977100  1
  O  O61  1  0.91624600  0.25947900  0.83295300  1
  O  O62  1  0.18865300  0.67003700  0.32611500  1
  O  O63  1  0.09069600  0.47266000  0.18092600  1
  O  O64  1  0.99188800  0.22722800  0.07773800  1
  O  O65  1  0.98182500  0.21836300  0.43669100  1
  O  O66  1  0.00850100  0.20968600  0.25721800  1
  O  O67  1  0.08342200  0.33996300  0.66017500  1
  O  O68  1  0.32902600  0.81738600  0.83160400  1
  O  O69  1  0.37857000  0.89796100  0.18046800  1
  O  O70  1  0.18550300  0.52464300  0.81864800  1
  O  O71  1  0.33179400  0.66334600  0.97378700  1
  O  O72  1  0.32907400  0.65608900  0.47561600  1
  O  O73  1  0.32977800  0.51718300  0.32178100  1
  O  O74  1  0.52745900  0.90927500  0.67220600  1
  O  O75  1  0.49062700  0.81319200  0.33385100  1
  O  O76  1  0.25754000  0.34314000  0.16387500  1
  O  O77  1  0.20103700  0.20916000  0.75660000  1
  O  O78  1  0.24138900  0.24948100  0.93639900  1
  O  O79  1  0.38141800  0.46281200  0.67023700  1
  O  O80  1  0.48422100  0.66842300  0.82574000  1
  O  O81  1  0.52130400  0.61944800  0.17517300  1
  O  O82  1  0.66422800  0.91647600  0.15486800  1
  O  O83  1  0.76023500  0.00460100  0.92846000  1
  O  O84  1  0.79347600  0.99944800  0.75047400  1
  O  O85  1  0.65543500  0.73914400  0.66766400  1
  O  O86  1  0.79884700  0.80478500  0.41808400  1
  O  O87  1  0.79828900  0.78856300  0.23985100  1
