# generated using pymatgen
data_LiMnBO3
_symmetry_space_group_name_H-M   'P 1'
_cell_length_a   5.83329900
_cell_length_b   6.02167400
_cell_length_c   13.02833100
_cell_angle_alpha   90.00000000
_cell_angle_beta   90.00000000
_cell_angle_gamma   90.00000000
_symmetry_Int_Tables_number   1
_chemical_formula_structural   LiMnBO3
_chemical_formula_sum   'Li8 Mn8 B8 O24'
_cell_volume   457.63608507
_cell_formula_units_Z   8
loop_
 _symmetry_equiv_pos_site_id
 _symmetry_equiv_pos_as_xyz
  1  'x, y, z'
loop_
 _atom_site_type_symbol
 _atom_site_label
 _atom_site_symmetry_multiplicity
 _atom_site_fract_x
 _atom_site_fract_y
 _atom_site_fract_z
 _atom_site_occupancy
  Li  Li0  1  0.48811300  0.78219600  0.24749000  1
  Li  Li1  1  0.98811300  0.71780400  0.24749000  1
  Li  Li2  1  0.48811300  0.28219600  0.25251000  1
  Li  Li3  1  0.98811300  0.21780400  0.25251000  1
  Li  Li4  1  0.01188700  0.78219600  0.74749000  1
  Li  Li5  1  0.51188700  0.71780400  0.74749000  1
  Li  Li6  1  0.01188700  0.28219600  0.75251000  1
  Li  Li7  1  0.51188700  0.21780400  0.75251000  1
  Mn  Mn8  1  0.74895000  0.99072800  0.06735900  1
  Mn  Mn9  1  0.24895000  0.50927200  0.06735900  1
  Mn  Mn10  1  0.24895000  0.00927200  0.43264100  1
  Mn  Mn11  1  0.74895000  0.49072800  0.43264100  1
  Mn  Mn12  1  0.75105000  0.99072800  0.56735900  1
  Mn  Mn13  1  0.25105000  0.50927200  0.56735900  1
  Mn  Mn14  1  0.75105000  0.49072800  0.93264100  1
  Mn  Mn15  1  0.25105000  0.00927200  0.93264100  1
  B  B16  1  0.74848800  0.48461900  0.14617200  1
  B  B17  1  0.24848800  0.01538100  0.14617200  1
  B  B18  1  0.74848800  0.98461900  0.35382800  1
  B  B19  1  0.24848800  0.51538100  0.35382800  1
  B  B20  1  0.75151200  0.48461900  0.64617200  1
  B  B21  1  0.25151200  0.01538100  0.64617200  1
  B  B22  1  0.75151200  0.98461900  0.85382800  1
  B  B23  1  0.25151200  0.51538100  0.85382800  1
  O  O24  1  0.58961100  0.35691100  0.09195700  1
  O  O25  1  0.08961100  0.14308900  0.09195700  1
  O  O26  1  0.39171200  0.87224000  0.09061900  1
  O  O27  1  0.89171200  0.62776000  0.09061900  1
  O  O28  1  0.76309800  0.97138300  0.24883000  1
  O  O29  1  0.26309800  0.52861700  0.24883000  1
  O  O30  1  0.76309800  0.47138300  0.25117000  1
  O  O31  1  0.26309800  0.02861700  0.25117000  1
  O  O32  1  0.39171200  0.37224000  0.40938100  1
  O  O33  1  0.89171200  0.12776000  0.40938100  1
  O  O34  1  0.58961100  0.85691100  0.40804300  1
  O  O35  1  0.08961100  0.64308900  0.40804300  1
  O  O36  1  0.91038900  0.35691100  0.59195700  1
  O  O37  1  0.41038900  0.14308900  0.59195700  1
  O  O38  1  0.10828800  0.87224000  0.59061900  1
  O  O39  1  0.60828800  0.62776000  0.59061900  1
  O  O40  1  0.73690200  0.97138300  0.74883000  1
  O  O41  1  0.23690200  0.52861700  0.74883000  1
  O  O42  1  0.73690200  0.47138300  0.75117000  1
  O  O43  1  0.23690200  0.02861700  0.75117000  1
  O  O44  1  0.10828800  0.37224000  0.90938100  1
  O  O45  1  0.60828800  0.12776000  0.90938100  1
  O  O46  1  0.91038900  0.85691100  0.90804300  1
  O  O47  1  0.41038900  0.64308900  0.90804300  1
