# generated using pymatgen
data_Li9(NiO4)2
_symmetry_space_group_name_H-M   'P 1'
_cell_length_a   9.13822400
_cell_length_b   9.13947200
_cell_length_c   9.40897400
_cell_angle_alpha   90.00000000
_cell_angle_beta   90.00000000
_cell_angle_gamma   90.00000000
_symmetry_Int_Tables_number   1
_chemical_formula_structural   Li9(NiO4)2
_chemical_formula_sum   'Li36 Ni8 O32'
_cell_volume   785.82379375
_cell_formula_units_Z   4
loop_
 _symmetry_equiv_pos_site_id
 _symmetry_equiv_pos_as_xyz
  1  'x, y, z'
loop_
 _atom_site_type_symbol
 _atom_site_label
 _atom_site_symmetry_multiplicity
 _atom_site_fract_x
 _atom_site_fract_y
 _atom_site_fract_z
 _atom_site_occupancy
  Li  Li0  1  0.86399400  0.36675700  0.64456000  1
  Li  Li1  1  0.36399400  0.13324300  0.64456000  1
  Li  Li2  1  0.16436400  0.88840900  0.63347700  1
  Li  Li3  1  0.66436400  0.61159100  0.63347700  1
  Li  Li4  1  0.64233300  0.15390400  0.63344600  1
  Li  Li5  1  0.14233300  0.34609600  0.63344600  1
  Li  Li6  1  0.58117100  0.87865900  0.58848800  1
  Li  Li7  1  0.08117100  0.62134100  0.58848800  1
  Li  Li8  1  0.08117100  0.12134100  0.41151200  1
  Li  Li9  1  0.58117100  0.37865900  0.41151200  1
  Li  Li10  1  0.14233300  0.84609600  0.36655400  1
  Li  Li11  1  0.64233300  0.65390400  0.36655400  1
  Li  Li12  1  0.16436400  0.38840900  0.36652300  1
  Li  Li13  1  0.66436400  0.11159100  0.36652300  1
  Li  Li14  1  0.86399400  0.86675700  0.35544000  1
  Li  Li15  1  0.36399400  0.63324300  0.35544000  1
  Li  Li16  1  0.64015200  0.38309400  0.13802900  1
  Li  Li17  1  0.14015200  0.11690600  0.13802900  1
  Li  Li18  1  0.34767400  0.88876000  0.14208500  1
  Li  Li19  1  0.84767400  0.61124000  0.14208500  1
  Li  Li20  1  0.37168400  0.34754200  0.13048700  1
  Li  Li21  1  0.87168400  0.15245800  0.13048700  1
  Li  Li22  1  0.10270900  0.38083500  0.10206400  1
  Li  Li23  1  0.60270900  0.11916500  0.10206400  1
  Li  Li24  1  0.89549100  0.88511500  0.08931800  1
  Li  Li25  1  0.39549100  0.61488500  0.08931800  1
  Li  Li26  1  0.89549100  0.38511500  0.91068200  1
  Li  Li27  1  0.39549100  0.11488500  0.91068200  1
  Li  Li28  1  0.60270900  0.61916500  0.89793600  1
  Li  Li29  1  0.10270900  0.88083500  0.89793600  1
  Li  Li30  1  0.37168400  0.84754200  0.86951300  1
  Li  Li31  1  0.87168400  0.65245800  0.86951300  1
  Li  Li32  1  0.34767400  0.38876000  0.85791500  1
  Li  Li33  1  0.84767400  0.11124000  0.85791500  1
  Li  Li34  1  0.64015200  0.88309400  0.86197100  1
  Li  Li35  1  0.14015200  0.61690600  0.86197100  1
  Ni  Ni36  1  0.87762900  0.87071800  0.62813500  1
  Ni  Ni37  1  0.37762900  0.62928200  0.62813500  1
  Ni  Ni38  1  0.87762900  0.37071800  0.37186500  1
  Ni  Ni39  1  0.37762900  0.12928200  0.37186500  1
  Ni  Ni40  1  0.62220200  0.85028800  0.13016900  1
  Ni  Ni41  1  0.12220200  0.64971200  0.13016900  1
  Ni  Ni42  1  0.62220200  0.35028800  0.86983100  1
  Ni  Ni43  1  0.12220200  0.14971200  0.86983100  1
  O  O44  1  0.50438100  0.73491300  0.74460500  1
  O  O45  1  0.00438100  0.76508700  0.74460500  1
  O  O46  1  0.74664300  0.98396300  0.72200900  1
  O  O47  1  0.24664300  0.51603700  0.72200900  1
  O  O48  1  0.00689100  0.94124400  0.49809200  1
  O  O49  1  0.50689100  0.55875600  0.49809200  1
  O  O50  1  0.75158700  0.77212200  0.51172400  1
  O  O51  1  0.25158700  0.72787800  0.51172400  1
  O  O52  1  0.75158700  0.27212200  0.48827600  1
  O  O53  1  0.25158700  0.22787800  0.48827600  1
  O  O54  1  0.00689100  0.44124400  0.50190800  1
  O  O55  1  0.50689100  0.05875600  0.50190800  1
  O  O56  1  0.74664300  0.48396300  0.27799100  1
  O  O57  1  0.24664300  0.01603700  0.27799100  1
  O  O58  1  0.50438100  0.23491300  0.25539500  1
  O  O59  1  0.00438100  0.26508700  0.25539500  1
  O  O60  1  0.99649800  0.75998200  0.22939900  1
  O  O61  1  0.49649800  0.74001800  0.22939900  1
  O  O62  1  0.74686200  0.98843800  0.21423800  1
  O  O63  1  0.24686200  0.51156200  0.21423800  1
  O  O64  1  0.50177800  0.96040500  0.00529600  1
  O  O65  1  0.00177800  0.53959500  0.00529600  1
  O  O66  1  0.74057200  0.74983500  0.00305100  1
  O  O67  1  0.24057200  0.75016500  0.00305100  1
  O  O68  1  0.74057200  0.24983500  0.99694900  1
  O  O69  1  0.24057200  0.25016500  0.99694900  1
  O  O70  1  0.50177800  0.46040500  0.99470400  1
  O  O71  1  0.00177800  0.03959500  0.99470400  1
  O  O72  1  0.24686200  0.01156200  0.78576200  1
  O  O73  1  0.74686200  0.48843800  0.78576200  1
  O  O74  1  0.99649800  0.25998200  0.77060100  1
  O  O75  1  0.49649800  0.24001800  0.77060100  1
