# generated using pymatgen
data_Li3Sb3P8O29
_symmetry_space_group_name_H-M   'P 1'
_cell_length_a   9.81431617
_cell_length_b   9.81431617
_cell_length_c   14.34933458
_cell_angle_alpha   89.75970408
_cell_angle_beta   89.75970408
_cell_angle_gamma   60.18746356
_symmetry_Int_Tables_number   1
_chemical_formula_structural   Li3Sb3P8O29
_chemical_formula_sum   'Li6 Sb6 P16 O58'
_cell_volume   1199.20842583
_cell_formula_units_Z   2
loop_
 _symmetry_equiv_pos_site_id
 _symmetry_equiv_pos_as_xyz
  1  'x, y, z'
loop_
 _atom_site_type_symbol
 _atom_site_label
 _atom_site_symmetry_multiplicity
 _atom_site_fract_x
 _atom_site_fract_y
 _atom_site_fract_z
 _atom_site_occupancy
  Li  Li0  1  0.05281600  0.96528800  0.49652400  1
  Li  Li1  1  0.96528800  0.05281600  0.99652400  1
  Li  Li2  1  0.32462300  0.90362700  0.05123300  1
  Li  Li3  1  0.90362700  0.32462300  0.55123300  1
  Li  Li4  1  0.77385900  0.89809600  0.55181100  1
  Li  Li5  1  0.89809600  0.77385900  0.05181100  1
  Sb  Sb6  1  0.43640500  0.56155700  0.74940300  1
  Sb  Sb7  1  0.56155700  0.43640500  0.24940300  1
  Sb  Sb8  1  0.43406100  0.00186000  0.25340200  1
  Sb  Sb9  1  0.56128400  0.00397200  0.74937000  1
  Sb  Sb10  1  0.00186000  0.43406100  0.75340200  1
  Sb  Sb11  1  0.00397200  0.56128400  0.24937000  1
  P  P12  1  0.30484000  0.77620300  0.34584400  1
  P  P13  1  0.30991100  0.91307100  0.84248000  1
  P  P14  1  0.77620300  0.30484000  0.84584400  1
  P  P15  1  0.66601200  0.66924500  0.12812400  1
  P  P16  1  0.66924500  0.66601200  0.62812400  1
  P  P17  1  0.91307100  0.30991100  0.34248000  1
  P  P18  1  0.08346600  0.21991600  0.15712800  1
  P  P19  1  0.77632400  0.91213600  0.34451300  1
  P  P20  1  0.21991600  0.08346600  0.65712800  1
  P  P21  1  0.91213600  0.77632400  0.84451300  1
  P  P22  1  0.08519400  0.69380000  0.66111200  1
  P  P23  1  0.33330800  0.33371100  0.87220000  1
  P  P24  1  0.33371100  0.33330800  0.37220000  1
  P  P25  1  0.22381800  0.69625600  0.15795700  1
  P  P26  1  0.69380000  0.08519400  0.16111200  1
  P  P27  1  0.69625600  0.22381800  0.65795700  1
  O  O28  1  0.20628200  0.78819500  0.25278600  1
  O  O29  1  0.21318100  0.79516200  0.07714900  1
  O  O30  1  0.33635100  0.74411700  0.83382300  1
  O  O31  1  0.20433400  0.01033000  0.75512700  1
  O  O32  1  0.19970900  0.00303900  0.57667400  1
  O  O33  1  0.33620100  0.91717300  0.33895100  1
  O  O34  1  0.46510100  0.61989000  0.33661800  1
  O  O35  1  0.51920100  0.67762800  0.67506100  1
  O  O36  1  0.61989000  0.46510100  0.83661800  1
  O  O37  1  0.79516200  0.21318100  0.57714900  1
  O  O38  1  0.78819500  0.20628200  0.75278600  1
  O  O39  1  0.74411700  0.33635100  0.33382300  1
  O  O40  1  0.51060800  0.81341500  0.16988100  1
  O  O41  1  0.47315900  0.90398200  0.83176200  1
  O  O42  1  0.67762800  0.51920100  0.17506100  1
  O  O43  1  0.66198000  0.67737400  0.02517100  1
  O  O44  1  0.67737400  0.66198000  0.52517100  1
  O  O45  1  0.81341500  0.51060800  0.66988100  1
  O  O46  1  0.62368200  0.90086700  0.33340800  1
  O  O47  1  0.68012100  0.81311400  0.66635900  1
  O  O48  1  0.91717300  0.33620100  0.83895100  1
  O  O49  1  0.01033000  0.20433400  0.25512700  1
  O  O50  1  0.00303900  0.19970900  0.07667400  1
  O  O51  1  0.98521700  0.22839900  0.43122600  1
  O  O52  1  0.90398200  0.47315900  0.33176200  1
  O  O53  1  0.81311400  0.68012100  0.16635900  1
  O  O54  1  0.07952200  0.25836500  0.66004800  1
  O  O55  1  0.90086700  0.62368200  0.83340800  1
  O  O56  1  0.74360400  0.91940500  0.83423500  1
  O  O57  1  0.22839900  0.98521700  0.93122600  1
  O  O58  1  0.79623900  0.99255100  0.08228600  1
  O  O59  1  0.78454000  0.01213200  0.25842400  1
  O  O60  1  0.25836500  0.07952200  0.16004800  1
  O  O61  1  0.08744000  0.37731800  0.16246100  1
  O  O62  1  0.91940500  0.74360400  0.33423500  1
  O  O63  1  0.19447400  0.31638800  0.82719400  1
  O  O64  1  0.08706500  0.53409200  0.66711000  1
  O  O65  1  0.99255100  0.79623900  0.58228600  1
  O  O66  1  0.98223100  0.78581100  0.93380900  1
  O  O67  1  0.01213200  0.78454000  0.75842400  1
  O  O68  1  0.08144900  0.66447900  0.15729200  1
  O  O69  1  0.31638800  0.19447400  0.32719400  1
  O  O70  1  0.37731800  0.08744000  0.66246100  1
  O  O71  1  0.19391200  0.48779800  0.32604600  1
  O  O72  1  0.33273800  0.33325500  0.97459100  1
  O  O73  1  0.33325500  0.33273800  0.47459100  1
  O  O74  1  0.31769900  0.48803400  0.82617500  1
  O  O75  1  0.53409200  0.08706500  0.16711000  1
  O  O76  1  0.48779800  0.19391200  0.82604600  1
  O  O77  1  0.25713500  0.66058700  0.66009200  1
  O  O78  1  0.20816800  0.79202400  0.42799900  1
  O  O79  1  0.37728500  0.53366700  0.16388500  1
  O  O80  1  0.48803400  0.31769900  0.32617500  1
  O  O81  1  0.53366700  0.37728500  0.66388500  1
  O  O82  1  0.66447900  0.08144900  0.65729200  1
  O  O83  1  0.78581100  0.98223100  0.43380900  1
  O  O84  1  0.66058700  0.25713500  0.16009200  1
  O  O85  1  0.79202400  0.20816800  0.92799900  1
