# generated using pymatgen
data_LiV(CO3)2
_symmetry_space_group_name_H-M   'P 1'
_cell_length_a   8.72301431
_cell_length_b   8.72301431
_cell_length_c   8.72301431
_cell_angle_alpha   107.25326991
_cell_angle_beta   107.25326991
_cell_angle_gamma   114.00446564
_symmetry_Int_Tables_number   1
_chemical_formula_structural   LiV(CO3)2
_chemical_formula_sum   'Li4 V4 C8 O24'
_cell_volume   508.53077263
_cell_formula_units_Z   4
loop_
 _symmetry_equiv_pos_site_id
 _symmetry_equiv_pos_as_xyz
  1  'x, y, z'
loop_
 _atom_site_type_symbol
 _atom_site_label
 _atom_site_symmetry_multiplicity
 _atom_site_fract_x
 _atom_site_fract_y
 _atom_site_fract_z
 _atom_site_occupancy
  Li  Li0  1  0.55988800  0.87500000  0.18488800  1
  Li  Li1  1  0.62500000  0.44011200  0.31511200  1
  Li  Li2  1  0.12500000  0.30988800  0.68488800  1
  Li  Li3  1  0.69011200  0.37500000  0.81511200  1
  V  V4  1  0.85425300  0.87500000  0.47925300  1
  V  V5  1  0.12500000  0.60425300  0.97925300  1
  V  V6  1  0.62500000  0.14574700  0.02074700  1
  V  V7  1  0.39574700  0.37500000  0.52074700  1
  C  C8  1  0.40304600  0.56959900  0.26403200  1
  C  C9  1  0.43040100  0.69443400  0.83344800  1
  C  C10  1  0.38901400  0.05556600  0.23596800  1
  C  C11  1  0.86098600  0.59695400  0.16655200  1
  C  C12  1  0.84695400  0.61098600  0.66655200  1
  C  C13  1  0.30556600  0.13901400  0.73596800  1
  C  C14  1  0.94443400  0.18040100  0.33344800  1
  C  C15  1  0.81959900  0.15304600  0.76403200  1
  O  O16  1  0.32770100  0.87443100  0.15792100  1
  O  O17  1  0.23908800  0.52965300  0.16372800  1
  O  O18  1  0.55983100  0.70351700  0.28334100  1
  O  O19  1  0.01091200  0.67463900  0.79056400  1
  O  O20  1  0.12556900  0.28349000  0.45327000  1
  O  O21  1  0.41978000  0.46651000  0.34207900  1
  O  O22  1  0.92229900  0.58022000  0.04673000  1
  O  O23  1  0.72351000  0.44016900  0.14368700  1
  O  O24  1  0.92463900  0.76091200  0.29056400  1
  O  O25  1  0.77965300  0.98908800  0.66372800  1
  O  O26  1  0.32536100  0.11592500  0.33627200  1
  O  O27  1  0.47034700  0.63407500  0.70943600  1
  O  O28  1  0.29648300  0.57982300  0.85631300  1
  O  O29  1  0.52649000  0.17017700  0.21665900  1
  O  O30  1  0.53349000  0.87556900  0.95327000  1
  O  O31  1  0.83022000  0.67229900  0.54673000  1
  O  O32  1  0.12443100  0.07770100  0.65792100  1
  O  O33  1  0.88407500  0.22034700  0.20943600  1
  O  O34  1  0.69016900  0.47351000  0.64368700  1
  O  O35  1  0.42017700  0.27649000  0.71665900  1
  O  O36  1  0.82982300  0.04648300  0.35631300  1
  O  O37  1  0.36592500  0.07536100  0.83627200  1
  O  O38  1  0.71651000  0.16978000  0.84207900  1
  O  O39  1  0.95351700  0.30983100  0.78334100  1
