# generated using pymatgen
data_Li3Fe8(BO3)8
_symmetry_space_group_name_H-M   'P 1'
_cell_length_a   5.29285700
_cell_length_b   9.01982613
_cell_length_c   11.41498301
_cell_angle_alpha   113.23402249
_cell_angle_beta   102.47741811
_cell_angle_gamma   89.92797869
_symmetry_Int_Tables_number   1
_chemical_formula_structural   Li3Fe8(BO3)8
_chemical_formula_sum   'Li3 Fe8 B8 O24'
_cell_volume   486.78953864
_cell_formula_units_Z   1
loop_
 _symmetry_equiv_pos_site_id
 _symmetry_equiv_pos_as_xyz
  1  'x, y, z'
loop_
 _atom_site_type_symbol
 _atom_site_label
 _atom_site_symmetry_multiplicity
 _atom_site_fract_x
 _atom_site_fract_y
 _atom_site_fract_z
 _atom_site_occupancy
  Li  Li0  1  0.83897400  0.18605000  0.35733200  1
  Li  Li1  1  0.39085500  0.04623000  0.09733200  1
  Li  Li2  1  0.56999600  0.90519700  0.83625300  1
  Fe  Fe3  1  0.59835000  0.59023500  0.86164200  1
  Fe  Fe4  1  0.91105400  0.88122400  0.11679800  1
  Fe  Fe5  1  0.15048000  0.47420900  0.62222800  1
  Fe  Fe6  1  0.34797300  0.01719000  0.37566500  1
  Fe  Fe7  1  0.66059900  0.98357100  0.62520500  1
  Fe  Fe8  1  0.85273200  0.52800200  0.37239400  1
  Fe  Fe9  1  0.08895900  0.10568600  0.87359900  1
  Fe  Fe10  1  0.39646600  0.40291300  0.12542700  1
  B  B11  1  0.35074200  0.34929200  0.36411000  1
  B  B12  1  0.11291700  0.77090600  0.87312200  1
  B  B13  1  0.85875000  0.85972700  0.37481900  1
  B  B14  1  0.59435400  0.26508400  0.87549300  1
  B  B15  1  0.13461300  0.13767600  0.61512100  1
  B  B16  1  0.40269000  0.72876500  0.11876200  1
  B  B17  1  0.65561300  0.64299700  0.62264300  1
  B  B18  1  0.89250600  0.23472000  0.13380500  1
  O  O19  1  0.86511500  0.77407800  0.90012100  1
  O  O20  1  0.54916300  0.54066500  0.66697700  1
  O  O21  1  0.77174400  0.10169500  0.13658100  1
  O  O22  1  0.46498200  0.20950400  0.36061700  1
  O  O23  1  0.11304100  0.37696400  0.39851500  1
  O  O24  1  0.22188700  0.62590200  0.82770400  1
  O  O25  1  0.70089600  0.39074900  0.86001300  1
  O  O26  1  0.96758800  0.96899700  0.33429900  1
  O  O27  1  0.30893500  0.88493600  0.17079900  1
  O  O28  1  0.36488500  0.09087600  0.57050600  1
  O  O29  1  0.01598300  0.26133000  0.59817000  1
  O  O30  1  0.60296100  0.71611200  0.05608600  1
  O  O31  1  0.39261300  0.27944600  0.93812300  1
  O  O32  1  0.63641800  0.90339600  0.42404500  1
  O  O33  1  0.68616900  0.11028300  0.82663500  1
  O  O34  1  0.03160400  0.04220800  0.66785800  1
  O  O35  1  0.29377000  0.60386000  0.13276500  1
  O  O36  1  0.78189000  0.38328100  0.17146000  1
  O  O37  1  0.85846600  0.59554900  0.56008400  1
  O  O38  1  0.56963000  0.79401700  0.64704500  1
  O  O39  1  0.96208500  0.72195900  0.36693100  1
  O  O40  1  0.24898500  0.91466700  0.89776400  1
  O  O41  1  0.46953400  0.45785200  0.32891000  1
  O  O42  1  0.12773700  0.22567300  0.09484000  1
