# generated using pymatgen
data_Li2Mn3O6
_symmetry_space_group_name_H-M   'P 1'
_cell_length_a   5.75243600
_cell_length_b   7.28573915
_cell_length_c   10.46817862
_cell_angle_alpha   95.60028467
_cell_angle_beta   92.99554333
_cell_angle_gamma   91.52133157
_symmetry_Int_Tables_number   1
_chemical_formula_structural   Li2Mn3O6
_chemical_formula_sum   'Li8 Mn12 O24'
_cell_volume   435.81735024
_cell_formula_units_Z   4
loop_
 _symmetry_equiv_pos_site_id
 _symmetry_equiv_pos_as_xyz
  1  'x, y, z'
loop_
 _atom_site_type_symbol
 _atom_site_label
 _atom_site_symmetry_multiplicity
 _atom_site_fract_x
 _atom_site_fract_y
 _atom_site_fract_z
 _atom_site_occupancy
  Li  Li0  1  0.87764100  0.64299200  0.21729500  1
  Li  Li1  1  0.88051300  0.64456700  0.71881500  1
  Li  Li2  1  0.88084300  0.35063300  0.02696400  1
  Li  Li3  1  0.12657100  0.30813600  0.30048500  1
  Li  Li4  1  0.87562300  0.35248300  0.53717400  1
  Li  Li5  1  0.12448000  0.01509400  0.12426800  1
  Li  Li6  1  0.11729100  0.02905700  0.61919500  1
  Li  Li7  1  0.35936500  0.02576500  0.85385500  1
  Mn  Mn8  1  0.61783500  0.99109000  0.11781700  1
  Mn  Mn9  1  0.61774300  0.99116600  0.61242200  1
  Mn  Mn10  1  0.38334200  0.67111800  0.22278300  1
  Mn  Mn11  1  0.11802300  0.66731200  0.46042100  1
  Mn  Mn12  1  0.38195600  0.66571300  0.72124600  1
  Mn  Mn13  1  0.11309100  0.66586300  0.96004800  1
  Mn  Mn14  1  0.36508800  0.33563200  0.03198900  1
  Mn  Mn15  1  0.63031600  0.33721000  0.29763100  1
  Mn  Mn16  1  0.36373900  0.32656900  0.53732300  1
  Mn  Mn17  1  0.63384000  0.34167400  0.79581400  1
  Mn  Mn18  1  0.87990500  0.99620700  0.37530500  1
  Mn  Mn19  1  0.87762600  0.00356900  0.87415000  1
  O  O20  1  0.85846500  0.86856100  0.02439400  1
  O  O21  1  0.35100500  0.81857100  0.07150400  1
  O  O22  1  0.64830700  0.83435600  0.26995300  1
  O  O23  1  0.86285200  0.86486600  0.52481300  1
  O  O24  1  0.13991400  0.80105700  0.30912500  1
  O  O25  1  0.35044900  0.81777000  0.57180600  1
  O  O26  1  0.63487600  0.84314800  0.77300800  1
  O  O27  1  0.14391400  0.80629100  0.81026100  1
  O  O28  1  0.14262400  0.51379500  0.10785100  1
  O  O29  1  0.60534300  0.48309100  0.14584600  1
  O  O30  1  0.38706400  0.49657400  0.36151100  1
  O  O31  1  0.89254000  0.48656900  0.36838700  1
  O  O32  1  0.14383000  0.51662400  0.60700400  1
  O  O33  1  0.60586900  0.48317800  0.64660500  1
  O  O34  1  0.39700000  0.50165500  0.86360600  1
  O  O35  1  0.88736300  0.49077200  0.87114800  1
  O  O36  1  0.40428800  0.17470800  0.19367000  1
  O  O37  1  0.85721800  0.14936800  0.22608400  1
  O  O38  1  0.10685500  0.17553500  0.46550300  1
  O  O39  1  0.61130400  0.19337500  0.45285900  1
  O  O40  1  0.40832100  0.16500400  0.69685100  1
  O  O41  1  0.85179800  0.14894900  0.72288200  1
  O  O42  1  0.12473900  0.15939100  0.96722000  1
  O  O43  1  0.61016600  0.19246900  0.94811400  1
