# generated using pymatgen
data_LiMn2OF3
_symmetry_space_group_name_H-M   'P 1'
_cell_length_a   6.25883401
_cell_length_b   8.20292106
_cell_length_c   8.19800803
_cell_angle_alpha   99.88233845
_cell_angle_beta   67.55618954
_cell_angle_gamma   112.43353198
_symmetry_Int_Tables_number   1
_chemical_formula_structural   LiMn2OF3
_chemical_formula_sum   'Li4 Mn8 O4 F12'
_cell_volume   359.40598382
_cell_formula_units_Z   4
loop_
 _symmetry_equiv_pos_site_id
 _symmetry_equiv_pos_as_xyz
  1  'x, y, z'
loop_
 _atom_site_type_symbol
 _atom_site_label
 _atom_site_symmetry_multiplicity
 _atom_site_fract_x
 _atom_site_fract_y
 _atom_site_fract_z
 _atom_site_occupancy
  Li  Li0  1  0.33324000  0.34429300  0.67770800  1
  Li  Li1  1  0.33285300  0.84424400  0.17786600  1
  Li  Li2  1  0.66656600  0.65579000  0.32212200  1
  Li  Li3  1  0.66669500  0.15563300  0.82228400  1
  Mn  Mn4  1  0.00178800  0.00113200  0.49998000  1
  Mn  Mn5  1  0.50087400  0.49913000  0.99977000  1
  Mn  Mn6  1  0.49893800  0.74981900  0.75014500  1
  Mn  Mn7  1  0.99939900  0.00010500  0.99995900  1
  Mn  Mn8  1  0.99945400  0.49991500  0.50009600  1
  Mn  Mn9  1  0.00178400  0.50121700  0.00028400  1
  Mn  Mn10  1  0.50047700  0.99871400  0.50010100  1
  Mn  Mn11  1  0.49888300  0.25001000  0.25000400  1
  O  O12  1  0.33429700  0.66696100  0.00036000  1
  O  O13  1  0.33448400  0.16680200  0.50033800  1
  O  O14  1  0.66798400  0.33325900  0.99962800  1
  O  O15  1  0.66771400  0.83302200  0.49973100  1
  F  F16  1  0.17319000  0.52062500  0.69306600  1
  F  F17  1  0.17232400  0.02040900  0.19355100  1
  F  F18  1  0.65362100  0.52215100  0.69499600  1
  F  F19  1  0.65260500  0.02174900  0.19504600  1
  F  F20  1  0.82640900  0.72034700  0.06613500  1
  F  F21  1  0.82727800  0.22031200  0.56645000  1
  F  F22  1  0.17316700  0.27971900  0.93343300  1
  F  F23  1  0.17207200  0.77966200  0.43383800  1
  F  F24  1  0.82597000  0.47813200  0.30497600  1
  F  F25  1  0.82642000  0.97778700  0.80487100  1
  F  F26  1  0.34580900  0.47971800  0.30630700  1
  F  F27  1  0.34570400  0.97934200  0.80695500  1
