# generated using pymatgen
data_Li4Cr5SbO12
_symmetry_space_group_name_H-M   'P 1'
_cell_length_a   5.23040363
_cell_length_b   20.96114319
_cell_length_c   5.24001910
_cell_angle_alpha   93.73358371
_cell_angle_beta   119.93994429
_cell_angle_gamma   82.50349581
_symmetry_Int_Tables_number   1
_chemical_formula_structural   Li4Cr5SbO12
_chemical_formula_sum   'Li8 Cr10 Sb2 O24'
_cell_volume   493.56939811
_cell_formula_units_Z   2
loop_
 _symmetry_equiv_pos_site_id
 _symmetry_equiv_pos_as_xyz
  1  'x, y, z'
loop_
 _atom_site_type_symbol
 _atom_site_label
 _atom_site_symmetry_multiplicity
 _atom_site_fract_x
 _atom_site_fract_y
 _atom_site_fract_z
 _atom_site_occupancy
  Li  Li0  1  0.11221800  0.35417400  0.66334200  1
  Li  Li1  1  0.11219100  0.85402900  0.66356900  1
  Li  Li2  1  0.55128700  0.14588900  0.66340800  1
  Li  Li3  1  0.55127500  0.64589500  0.66361500  1
  Li  Li4  1  0.44887100  0.35416400  0.33646400  1
  Li  Li5  1  0.44867300  0.85402800  0.33653900  1
  Li  Li6  1  0.88768200  0.14589900  0.33635900  1
  Li  Li7  1  0.88771700  0.64589600  0.33648300  1
  Cr  Cr8  1  0.50013600  0.24993900  0.00030400  1
  Cr  Cr9  1  0.16295400  0.74992800  0.32601000  1
  Cr  Cr10  1  0.83702300  0.74993500  0.67408000  1
  Cr  Cr11  1  0.33504100  0.50015500  0.66981600  1
  Cr  Cr12  1  0.66535400  0.50014900  0.33040300  1
  Cr  Cr13  1  0.49990200  0.75002000  0.00006200  1
  Cr  Cr14  1  0.16314000  0.25013800  0.32601900  1
  Cr  Cr15  1  0.83712100  0.25011600  0.67376900  1
  Cr  Cr16  1  0.33443300  0.99983700  0.66919600  1
  Cr  Cr17  1  0.66527600  0.99984800  0.33087500  1
  Sb  Sb18  1  0.99982600  0.99992300  0.00002700  1
  Sb  Sb19  1  0.00021600  0.50004800  0.00009600  1
  O  O20  1  0.15039100  0.30241600  0.99979200  1
  O  O21  1  0.15032300  0.80230600  0.00004600  1
  O  O22  1  0.84956800  0.19769900  0.99978300  1
  O  O23  1  0.84956500  0.69761900  0.00003200  1
  O  O24  1  0.30638200  0.04786200  0.00002900  1
  O  O25  1  0.30653200  0.54812100  0.00007000  1
  O  O26  1  0.69358100  0.45210000  0.00008300  1
  O  O27  1  0.69337800  0.95189400  0.00001400  1
  O  O28  1  0.97449700  0.04998800  0.33302400  1
  O  O29  1  0.97480300  0.55017900  0.33305000  1
  O  O30  1  0.35856500  0.45002200  0.33314100  1
  O  O31  1  0.35828800  0.94978300  0.33305700  1
  O  O32  1  0.64150600  0.04998300  0.66701300  1
  O  O33  1  0.64181700  0.55017700  0.66710600  1
  O  O34  1  0.02545800  0.45002500  0.66697400  1
  O  O35  1  0.02525600  0.94978300  0.66698300  1
  O  O36  1  0.19297600  0.19838200  0.65396600  1
  O  O37  1  0.19295600  0.69830100  0.65420400  1
  O  O38  1  0.46119600  0.30172600  0.65399500  1
  O  O39  1  0.46110000  0.80160600  0.65420900  1
  O  O40  1  0.53878700  0.19837800  0.34563600  1
  O  O41  1  0.53878900  0.69830000  0.34587100  1
  O  O42  1  0.80701400  0.30172800  0.34561300  1
  O  O43  1  0.80693800  0.80160700  0.34587300  1
