# generated using pymatgen
data_LiMn2(PO4)2
_symmetry_space_group_name_H-M   'P 1'
_cell_length_a   8.59087399
_cell_length_b   8.47626741
_cell_length_c   7.32672221
_cell_angle_alpha   87.41360274
_cell_angle_beta   84.68124295
_cell_angle_gamma   60.26588326
_symmetry_Int_Tables_number   1
_chemical_formula_structural   LiMn2(PO4)2
_chemical_formula_sum   'Li3 Mn6 P6 O24'
_cell_volume   461.28099107
_cell_formula_units_Z   3
loop_
 _symmetry_equiv_pos_site_id
 _symmetry_equiv_pos_as_xyz
  1  'x, y, z'
loop_
 _atom_site_type_symbol
 _atom_site_label
 _atom_site_symmetry_multiplicity
 _atom_site_fract_x
 _atom_site_fract_y
 _atom_site_fract_z
 _atom_site_occupancy
  Li  Li0  1  0.02240760  0.66519522  0.93492046  1
  Li  Li1  1  0.66366150  0.30609910  0.91235580  1
  Li  Li2  1  0.98174323  0.34717864  0.40680085  1
  Mn  Mn3  1  0.02655368  0.98111252  0.25605273  1
  Mn  Mn4  1  0.00971725  0.98572729  0.72096115  1
  Mn  Mn5  1  0.34970913  0.32623636  0.20477471  1
  Mn  Mn6  1  0.32838903  0.32679681  0.78062320  1
  Mn  Mn7  1  0.64557974  0.68722702  0.28728715  1
  Mn  Mn8  1  0.67053600  0.65640428  0.69616747  1
  P  P9  1  0.31985199  0.03601662  0.49830733  1
  P  P10  1  0.03957830  0.64516611  0.50179902  1
  P  P11  1  0.35645871  0.68018256  0.00184289  1
  P  P12  1  0.65272058  0.32617195  0.49045877  1
  P  P13  1  0.95180432  0.35737192  0.01055007  1
  P  P14  1  0.67646598  0.95877422  0.98185918  1
  O  O15  1  0.03079633  0.15397124  0.04606704  1
  O  O16  1  0.09986467  0.41124671  0.97844526  1
  O  O17  1  0.25952145  0.18012899  0.33794028  1
  O  O18  1  0.28841660  0.13284281  0.67878945  1
  O  O19  1  0.14312185  0.58877987  0.67452837  1
  O  O20  1  0.15702371  0.54774045  0.32467049  1
  O  O21  1  0.48166758  0.12269928  0.01259960  1
  O  O22  1  0.14963079  0.79627783  0.99478488  1
  O  O23  1  0.40535074  0.47224404  0.00846161  1
  O  O24  1  0.19615615  0.95298226  0.49876251  1
  O  O25  1  0.57324976  0.29398764  0.32804555  1
  O  O26  1  0.57370530  0.29679134  0.67639047  1
  O  O27  1  0.41870976  0.72967937  0.16690133  1
  O  O28  1  0.44427887  0.70859472  0.81790535  1
  O  O29  1  0.80637268  0.03549057  0.93903941  1
  O  O30  1  0.61169990  0.53400640  0.49333596  1
  O  O31  1  0.86079447  0.20523704  0.48064074  1
  O  O32  1  0.52078412  0.88514010  0.46649733  1
  O  O33  1  0.82509089  0.41418993  0.85260680  1
  O  O34  1  0.83669388  0.45919809  0.19013235  1
  O  O35  1  0.73693428  0.83465083  0.15306391  1
  O  O36  1  0.70586777  0.83537562  0.81783738  1
  O  O37  1  0.88605745  0.59107465  0.52183775  1
  O  O38  1  0.95568495  0.85122659  0.47713337  1
