# generated using pymatgen
data_Li9V3P8O29
_symmetry_space_group_name_H-M   'P 1'
_cell_length_a   9.90795500
_cell_length_b   9.91793332
_cell_length_c   13.70865280
_cell_angle_alpha   89.98171025
_cell_angle_beta   90.18422999
_cell_angle_gamma   119.83354114
_symmetry_Int_Tables_number   1
_chemical_formula_structural   Li9V3P8O29
_chemical_formula_sum   'Li18 V6 P16 O58'
_cell_volume   1168.56782077
_cell_formula_units_Z   2
loop_
 _symmetry_equiv_pos_site_id
 _symmetry_equiv_pos_as_xyz
  1  'x, y, z'
loop_
 _atom_site_type_symbol
 _atom_site_label
 _atom_site_symmetry_multiplicity
 _atom_site_fract_x
 _atom_site_fract_y
 _atom_site_fract_z
 _atom_site_occupancy
  Li  Li0  1  0.65868200  0.76466900  0.06487500  1
  Li  Li1  1  0.66882900  0.90187200  0.56254500  1
  Li  Li2  1  0.23237300  0.33074700  0.56151600  1
  Li  Li3  1  0.31678400  0.65492300  0.37672100  1
  Li  Li4  1  0.33383200  0.66686300  0.87958700  1
  Li  Li5  1  0.10196200  0.34196300  0.07188400  1
  Li  Li6  1  0.23329000  0.89266400  0.06516200  1
  Li  Li7  1  0.90159400  0.24152800  0.42625100  1
  Li  Li8  1  0.01471400  0.43663400  0.25595200  1
  Li  Li9  1  0.09742500  0.76657900  0.56155000  1
  Li  Li10  1  0.77079600  0.09415600  0.93510200  1
  Li  Li11  1  0.90638500  0.67595600  0.93510300  1
  Li  Li12  1  0.66612100  0.33312800  0.61875700  1
  Li  Li13  1  0.76817300  0.66580300  0.43404600  1
  Li  Li14  1  0.33334300  0.10052200  0.43428500  1
  Li  Li15  1  0.32472600  0.22987100  0.93498600  1
  Li  Li16  1  0.99964300  0.00044900  0.00009000  1
  Li  Li17  1  0.00244400  0.00067900  0.49390600  1
  V  V18  1  0.00170400  0.56583900  0.74906900  1
  V  V19  1  0.56505500  0.99858400  0.74924700  1
  V  V20  1  0.68503800  0.33187500  0.13146100  1
  V  V21  1  0.42857700  0.99426600  0.25302800  1
  V  V22  1  0.56343100  0.56678200  0.25248600  1
  V  V23  1  0.43368600  0.43508900  0.74926300  1
  P  P24  1  0.68358300  0.77321400  0.84478900  1
  P  P25  1  0.68379500  0.91226100  0.34555500  1
  P  P26  1  0.22736100  0.31672200  0.34637300  1
  P  P27  1  0.33588600  0.66626700  0.12228100  1
  P  P28  1  0.33375200  0.66682100  0.62240800  1
  P  P29  1  0.08972200  0.31564200  0.84517400  1
  P  P30  1  0.91035200  0.22613300  0.65492600  1
  P  P31  1  0.22681100  0.91018800  0.84463200  1
  P  P32  1  0.77596300  0.09098700  0.15323300  1
  P  P33  1  0.09028300  0.76982800  0.34717600  1
  P  P34  1  0.90728700  0.68610100  0.15499200  1
  P  P35  1  0.66172400  0.32889700  0.37530200  1
  P  P36  1  0.66716000  0.33328100  0.87852500  1
  P  P37  1  0.77275600  0.68327600  0.65554400  1
  P  P38  1  0.31567500  0.08955600  0.65558700  1
  P  P39  1  0.31825100  0.22349200  0.15443500  1
  O  O40  1  0.76737100  0.77129700  0.56623000  1
  O  O41  1  0.67494600  0.75395300  0.34527500  1
  O  O42  1  0.76248300  0.99097100  0.06562600  1
  O  O43  1  0.67240300  0.92208100  0.84389800  1
  O  O44  1  0.52067600  0.63007300  0.83416500  1
  O  O45  1  0.49041900  0.67787700  0.16371900  1
  O  O46  1  0.37271400  0.48069600  0.33549900  1
  O  O47  1  0.23026600  0.23285300  0.06578000  1
  O  O48  1  0.25052800  0.32823300  0.84412600  1
  O  O49  1  0.48633700  0.81061700  0.66238800  1
  O  O50  1  0.51978800  0.89189800  0.33628800  1
  O  O51  1  0.32450200  0.51379400  0.66193500  1
  O  O52  1  0.34940900  0.68260200  0.01204700  1
  O  O53  1  0.33552600  0.66772100  0.51263700  1
  O  O54  1  0.19558500  0.51713800  0.15732000  1
  O  O55  1  0.37031400  0.89055100  0.83389600  1
  O  O56  1  0.32896800  0.81230400  0.16324300  1
  O  O57  1  0.07941400  0.32338300  0.34578000  1
  O  O58  1  0.99945200  0.21345900  0.75046300  1
  O  O59  1  0.00345500  0.23006800  0.56609900  1
  O  O60  1  0.99833300  0.22415900  0.93430400  1
  O  O61  1  0.10915500  0.47892000  0.83507300  1
  O  O62  1  0.18913800  0.67525400  0.66152400  1
  O  O63  1  0.91149800  0.25428200  0.14661100  1
  O  O64  1  0.11261000  0.63090200  0.34067800  1
  O  O65  1  0.24516900  0.92517200  0.34380600  1
  O  O66  1  0.78337000  0.00400200  0.24923900  1
  O  O67  1  0.77661500  0.00678300  0.43367400  1
  O  O68  1  0.22688800  0.99604600  0.56645900  1
  O  O69  1  0.75017200  0.07824800  0.65513700  1
  O  O70  1  0.88915600  0.36956800  0.66738200  1
  O  O71  1  0.07841600  0.75001800  0.84380300  1
  O  O72  1  0.79786900  0.31687100  0.33360800  1
  O  O73  1  0.88123800  0.51825100  0.15903700  1
  O  O74  1  0.00201900  0.77610700  0.06633400  1
  O  O75  1  0.99572800  0.77565000  0.43378400  1
  O  O76  1  0.99629300  0.77740700  0.25031300  1
  O  O77  1  0.92158300  0.67184000  0.65528400  1
  O  O78  1  0.67432200  0.18813000  0.84442600  1
  O  O79  1  0.62683600  0.11183500  0.16416100  1
  O  O80  1  0.81199400  0.48542800  0.84467400  1
  O  O81  1  0.66544600  0.33268100  0.99250900  1
  O  O82  1  0.65490000  0.33236700  0.48555900  1
  O  O83  1  0.67058100  0.48349300  0.33499300  1
  O  O84  1  0.48004100  0.11031000  0.66819700  1
  O  O85  1  0.50469100  0.18749100  0.33504600  1
  O  O86  1  0.74711100  0.67427800  0.15494500  1
  O  O87  1  0.78642500  0.78576700  0.75048000  1
  O  O88  1  0.77462600  0.77199300  0.93431700  1
  O  O89  1  0.63001900  0.51940800  0.66824000  1
  O  O90  1  0.51471200  0.32610000  0.84391900  1
  O  O91  1  0.49068300  0.36331700  0.16193900  1
  O  O92  1  0.32813200  0.07445800  0.15227300  1
  O  O93  1  0.22795200  0.00162600  0.93438900  1
  O  O94  1  0.21370900  0.00085200  0.75057200  1
  O  O95  1  0.32702400  0.24939200  0.65556500  1
  O  O96  1  0.23694000  0.22714200  0.43431300  1
  O  O97  1  0.22478000  0.21877500  0.24921500  1
