# generated using pymatgen
data_Li3Mn4(BO3)4
_symmetry_space_group_name_H-M   'P 1'
_cell_length_a   9.08358300
_cell_length_b   9.12316103
_cell_length_c   11.53110411
_cell_angle_alpha   68.37885113
_cell_angle_beta   68.11349971
_cell_angle_gamma   60.16665574
_symmetry_Int_Tables_number   1
_chemical_formula_structural   Li3Mn4(BO3)4
_chemical_formula_sum   'Li9 Mn12 B12 O36'
_cell_volume   749.06032850
_cell_formula_units_Z   3
loop_
 _symmetry_equiv_pos_site_id
 _symmetry_equiv_pos_as_xyz
  1  'x, y, z'
loop_
 _atom_site_type_symbol
 _atom_site_label
 _atom_site_symmetry_multiplicity
 _atom_site_fract_x
 _atom_site_fract_y
 _atom_site_fract_z
 _atom_site_occupancy
  Li  Li0  1  0.32959700  0.36621700  0.82794500  1
  Li  Li1  1  0.18731300  0.18152600  0.59780400  1
  Li  Li2  1  0.18388900  0.13527100  0.34898800  1
  Li  Li3  1  0.00578000  0.00020300  0.83031000  1
  Li  Li4  1  0.84949600  0.86987900  0.58288300  1
  Li  Li5  1  0.85892800  0.82575700  0.32730600  1
  Li  Li6  1  0.63265800  0.68905100  0.84587800  1
  Li  Li7  1  0.67836900  0.68723200  0.09793900  1
  Li  Li8  1  0.50804000  0.49567000  0.32186100  1
  Mn  Mn9  1  0.82457700  0.16432300  0.36224600  1
  Mn  Mn10  1  0.68157500  0.31218100  0.86780700  1
  Mn  Mn11  1  0.69197900  0.01858200  0.12256200  1
  Mn  Mn12  1  0.50919000  0.21100800  0.61640300  1
  Mn  Mn13  1  0.15844800  0.46855900  0.36633700  1
  Mn  Mn14  1  0.96747000  0.66349500  0.87315800  1
  Mn  Mn15  1  0.03647100  0.33358600  0.11630600  1
  Mn  Mn16  1  0.82408100  0.53160900  0.61227600  1
  Mn  Mn17  1  0.51747000  0.80491800  0.37547200  1
  Mn  Mn18  1  0.30601600  0.01813900  0.87652400  1
  Mn  Mn19  1  0.30836200  0.69654100  0.11613300  1
  Mn  Mn20  1  0.20649300  0.80167200  0.62124400  1
  B  B21  1  0.48970500  0.14902500  0.38063200  1
  B  B22  1  0.32616400  0.65328100  0.86502400  1
  B  B23  1  0.36687800  0.98648600  0.13750100  1
  B  B24  1  0.15822800  0.52449100  0.62563500  1
  B  B25  1  0.15490300  0.80637000  0.37654800  1
  B  B26  1  0.98091600  0.33289600  0.86787300  1
  B  B27  1  0.01569800  0.66785900  0.12489900  1
  B  B28  1  0.85981900  0.16218700  0.63224600  1
  B  B29  1  0.82682400  0.48067100  0.36917100  1
  B  B30  1  0.64239100  0.99915800  0.87684500  1
  B  B31  1  0.68204200  0.36201200  0.11183000  1
  B  B32  1  0.49928300  0.87289300  0.63064700  1
  O  O33  1  0.74045000  0.05740800  0.90517300  1
  O  O34  1  0.77774300  0.11388600  0.58226300  1
  O  O35  1  0.48997700  0.11860100  0.83756600  1
  O  O36  1  0.55030400  0.24391000  0.40802900  1
  O  O37  1  0.43020600  0.48814700  0.85593900  1
  O  O38  1  0.64462300  0.27838300  0.05160800  1
  O  O39  1  0.39453000  0.02896700  0.66810500  1
  O  O40  1  0.32194800  0.45052900  0.64364500  1
  O  O41  1  0.31225900  0.20357300  0.40182600  1
  O  O42  1  0.17284800  0.74940600  0.81570700  1
  O  O43  1  0.25481300  0.66786100  0.31352300  1
  O  O44  1  0.07025500  0.39197100  0.90386300  1
  O  O45  1  0.05030900  0.16462700  0.86079700  1
  O  O46  1  0.25786100  0.14215600  0.16683400  1
  O  O47  1  0.09604600  0.45160600  0.57879300  1
  O  O48  1  0.04674000  0.69146700  0.65585400  1
  O  O49  1  0.18094700  0.55521600  0.15375600  1
  O  O50  1  0.03161700  0.06494000  0.63783100  1
  O  O51  1  0.97839800  0.89285600  0.39097300  1
  O  O52  1  0.81770500  0.45204000  0.83784900  1
  O  O53  1  0.94966500  0.32074100  0.34164100  1
  O  O54  1  0.88077100  0.57571500  0.40552800  1
  O  O55  1  0.70342700  0.82266600  0.89272900  1
  O  O56  1  0.93764500  0.83212700  0.14252400  1
  O  O57  1  0.94077300  0.60566500  0.07888400  1
  O  O58  1  0.76259400  0.31562100  0.68088100  1
  O  O59  1  0.82887900  0.26663900  0.16137100  1
  O  O60  1  0.66817700  0.77893500  0.64501700  1
  O  O61  1  0.65764300  0.54912100  0.36253100  1
  O  O62  1  0.61023500  0.99944500  0.33456300  1
  O  O63  1  0.36232000  0.74317600  0.91956300  1
  O  O64  1  0.57155000  0.52819800  0.12666600  1
  O  O65  1  0.43335900  0.80737600  0.57860000  1
  O  O66  1  0.52803200  0.88881500  0.17047300  1
  O  O67  1  0.24365900  0.84920700  0.42796400  1
  O  O68  1  0.31857500  0.91834200  0.07391000  1
