# generated using pymatgen
data_LiFePO4
_symmetry_space_group_name_H-M   'P 1'
_cell_length_a   5.11029300
_cell_length_b   10.18542300
_cell_length_c   13.73501600
_cell_angle_alpha   90.00000000
_cell_angle_beta   90.00000000
_cell_angle_gamma   90.00000000
_symmetry_Int_Tables_number   1
_chemical_formula_structural   LiFePO4
_chemical_formula_sum   'Li8 Fe8 P8 O32'
_cell_volume   714.91439343
_cell_formula_units_Z   8
loop_
 _symmetry_equiv_pos_site_id
 _symmetry_equiv_pos_as_xyz
  1  'x, y, z'
loop_
 _atom_site_type_symbol
 _atom_site_label
 _atom_site_symmetry_multiplicity
 _atom_site_fract_x
 _atom_site_fract_y
 _atom_site_fract_z
 _atom_site_occupancy
  Li  Li0  1  0.92866200  0.03064700  0.49770400  1
  Li  Li1  1  0.54908800  0.22044700  0.24981600  1
  Li  Li2  1  0.54908800  0.27955300  0.74981600  1
  Li  Li3  1  0.92866200  0.46935300  0.99770400  1
  Li  Li4  1  0.07133800  0.53064700  0.49770400  1
  Li  Li5  1  0.45091200  0.72044700  0.24981600  1
  Li  Li6  1  0.45091200  0.77955300  0.74981600  1
  Li  Li7  1  0.07133800  0.96935300  0.99770400  1
  Fe  Fe8  1  0.05935300  0.03404800  0.24738500  1
  Fe  Fe9  1  0.55592000  0.21503100  0.99927500  1
  Fe  Fe10  1  0.55592000  0.28496900  0.49927500  1
  Fe  Fe11  1  0.05935300  0.46595200  0.74738500  1
  Fe  Fe12  1  0.94064700  0.53404800  0.24738500  1
  Fe  Fe13  1  0.44408000  0.71503100  0.99927500  1
  Fe  Fe14  1  0.44408000  0.78496900  0.49927500  1
  Fe  Fe15  1  0.94064700  0.96595200  0.74738500  1
  P  P16  1  0.43409200  0.03205500  0.62367800  1
  P  P17  1  0.04952400  0.21615000  0.87232600  1
  P  P18  1  0.04952400  0.28385000  0.37232600  1
  P  P19  1  0.43409200  0.46794500  0.12367800  1
  P  P20  1  0.56590800  0.53205500  0.62367800  1
  P  P21  1  0.95047600  0.71615000  0.87232600  1
  P  P22  1  0.95047600  0.78385000  0.37232600  1
  P  P23  1  0.56590800  0.96794500  0.12367800  1
  O  O24  1  0.86468600  0.00040900  0.12042400  1
  O  O25  1  0.56337400  0.97238200  0.53099100  1
  O  O26  1  0.45087500  0.03266500  0.21702400  1
  O  O27  1  0.98914700  0.06641900  0.87360400  1
  O  O28  1  0.48737000  0.18203400  0.62496200  1
  O  O29  1  0.92468100  0.22180500  0.46511500  1
  O  O30  1  0.93142200  0.27837300  0.77906700  1
  O  O31  1  0.35021100  0.24196900  0.87302700  1
  O  O32  1  0.35021100  0.25803100  0.37302700  1
  O  O33  1  0.93142200  0.22162700  0.27906700  1
  O  O34  1  0.92468100  0.27819500  0.96511500  1
  O  O35  1  0.48737000  0.31796600  0.12496200  1
  O  O36  1  0.98914700  0.43358100  0.37360400  1
  O  O37  1  0.45087500  0.46733500  0.71702400  1
  O  O38  1  0.56337400  0.52761800  0.03099100  1
  O  O39  1  0.86468600  0.49959100  0.62042400  1
  O  O40  1  0.13531400  0.50040900  0.12042400  1
  O  O41  1  0.43662600  0.47238200  0.53099100  1
  O  O42  1  0.54912500  0.53266500  0.21702400  1
  O  O43  1  0.01085300  0.56641900  0.87360400  1
  O  O44  1  0.51263000  0.68203400  0.62496200  1
  O  O45  1  0.07531900  0.72180500  0.46511500  1
  O  O46  1  0.06857800  0.77837300  0.77906700  1
  O  O47  1  0.64978900  0.74196900  0.87302700  1
  O  O48  1  0.64978900  0.75803100  0.37302700  1
  O  O49  1  0.06857800  0.72162700  0.27906700  1
  O  O50  1  0.07531900  0.77819500  0.96511500  1
  O  O51  1  0.51263000  0.81796600  0.12496200  1
  O  O52  1  0.01085300  0.93358100  0.37360400  1
  O  O53  1  0.54912500  0.96733500  0.71702400  1
  O  O54  1  0.43662600  0.02761800  0.03099100  1
  O  O55  1  0.13531400  0.99959100  0.62042400  1
