# generated using pymatgen
data_Li7Fe8(BO3)8
_symmetry_space_group_name_H-M   'P 1'
_cell_length_a   5.22932700
_cell_length_b   9.06649655
_cell_length_c   11.47295476
_cell_angle_alpha   113.00665268
_cell_angle_beta   101.97874935
_cell_angle_gamma   89.64142257
_symmetry_Int_Tables_number   1
_chemical_formula_structural   Li7Fe8(BO3)8
_chemical_formula_sum   'Li7 Fe8 B8 O24'
_cell_volume   488.08752167
_cell_formula_units_Z   1
loop_
 _symmetry_equiv_pos_site_id
 _symmetry_equiv_pos_as_xyz
  1  'x, y, z'
loop_
 _atom_site_type_symbol
 _atom_site_label
 _atom_site_symmetry_multiplicity
 _atom_site_fract_x
 _atom_site_fract_y
 _atom_site_fract_z
 _atom_site_occupancy
  Li  Li0  1  0.16912700  0.84643500  0.66485400  1
  Li  Li1  1  0.35179400  0.71106100  0.40874500  1
  Li  Li2  1  0.61496100  0.95102500  0.91307100  1
  Li  Li3  1  0.91869200  0.57648200  0.16916200  1
  Li  Li4  1  0.11457700  0.44806400  0.90923300  1
  Li  Li5  1  0.67046300  0.33259000  0.66265600  1
  Li  Li6  1  0.42698700  0.07399300  0.17007100  1
  Fe  Fe7  1  0.40674900  0.72335900  0.13029000  1
  Fe  Fe8  1  0.10557800  0.77927900  0.88677700  1
  Fe  Fe9  1  0.84102000  0.87517400  0.37965900  1
  Fe  Fe10  1  0.65569000  0.64749800  0.62774700  1
  Fe  Fe11  1  0.34743000  0.34832900  0.37879200  1
  Fe  Fe12  1  0.14637700  0.15561600  0.62658600  1
  Fe  Fe13  1  0.90210600  0.22935800  0.13758900  1
  Fe  Fe14  1  0.59381600  0.27181800  0.88151800  1
  B  B15  1  0.65379000  0.97999200  0.63175400  1
  B  B16  1  0.89729900  0.89398100  0.12303900  1
  B  B17  1  0.14800200  0.48941400  0.63247000  1
  B  B18  1  0.39837700  0.39429500  0.12608800  1
  B  B19  1  0.85681100  0.52970600  0.38128200  1
  B  B20  1  0.59922800  0.60033600  0.86974100  1
  B  B21  1  0.34689600  0.01519500  0.37539500  1
  B  B22  1  0.09853600  0.10432500  0.87679900  1
  O  O23  1  0.14568100  0.88502700  0.09313600  1
  O  O24  1  0.44390300  0.86082800  0.34042200  1
  O  O25  1  0.23562600  0.96799200  0.86016200  1
  O  O26  1  0.50942600  0.84296700  0.62263900  1
  O  O27  1  0.89724600  0.96099200  0.60185300  1
  O  O28  1  0.80434500  0.78076500  0.16075000  1
  O  O29  1  0.24289400  0.51552400  0.11449500  1
  O  O30  1  0.04072900  0.63925200  0.65930700  1
  O  O31  1  0.69300000  0.71646800  0.82995900  1
  O  O32  1  0.62322400  0.55094000  0.43111400  1
  O  O33  1  0.97338500  0.65489400  0.36641700  1
  O  O34  1  0.36591000  0.62101600  0.91243200  1
  O  O35  1  0.64605200  0.38856000  0.09668800  1
  O  O36  1  0.39595600  0.47308200  0.60040200  1
  O  O37  1  0.30786300  0.28077800  0.16430400  1
  O  O38  1  0.96034200  0.38292200  0.34602600  1
  O  O39  1  0.73774000  0.46881400  0.86132900  1
  O  O40  1  0.20010200  0.22602000  0.84927500  1
  O  O41  1  0.12814900  0.03946500  0.42803900  1
  O  O42  1  0.46968900  0.13280100  0.35617000  1
  O  O43  1  0.01662700  0.36687000  0.64090500  1
  O  O44  1  0.74233800  0.01222900  0.10778300  1
  O  O45  1  0.54744700  0.12713500  0.66737000  1
  O  O46  1  0.86381900  0.11696100  0.91621800  1
