# generated using pymatgen
data_Li3V3P8O29
_symmetry_space_group_name_H-M   'P 1'
_cell_length_a   9.74721500
_cell_length_b   9.76171787
_cell_length_c   14.24304022
_cell_angle_alpha   90.51845720
_cell_angle_beta   89.92920009
_cell_angle_gamma   119.94489480
_symmetry_Int_Tables_number   1
_chemical_formula_structural   Li3V3P8O29
_chemical_formula_sum   'Li6 V6 P16 O58'
_cell_volume   1174.24879048
_cell_formula_units_Z   2
loop_
 _symmetry_equiv_pos_site_id
 _symmetry_equiv_pos_as_xyz
  1  'x, y, z'
loop_
 _atom_site_type_symbol
 _atom_site_label
 _atom_site_symmetry_multiplicity
 _atom_site_fract_x
 _atom_site_fract_y
 _atom_site_fract_z
 _atom_site_occupancy
  Li  Li0  1  0.65683900  0.32298700  0.60675400  1
  Li  Li1  1  0.92005300  0.69260000  0.44551600  1
  Li  Li2  1  0.23139800  0.32257600  0.05685100  1
  Li  Li3  1  0.09068000  0.77075500  0.04982000  1
  Li  Li4  1  0.94653900  0.97543200  0.99348000  1
  Li  Li5  1  0.01556900  0.05561200  0.51306900  1
  V  V6  1  0.00031300  0.42827700  0.75046700  1
  V  V7  1  0.00276100  0.56208800  0.25098300  1
  V  V8  1  0.44105000  0.43718200  0.25258000  1
  V  V9  1  0.56687900  0.56961000  0.75210900  1
  V  V10  1  0.43358100  0.99875300  0.75088600  1
  V  V11  1  0.56218300  0.99783100  0.25162700  1
  P  P12  1  0.30601400  0.08232600  0.16104900  1
  P  P13  1  0.30839400  0.21732700  0.66050600  1
  P  P14  1  0.78106100  0.08535700  0.65516500  1
  P  P15  1  0.66793000  0.33536900  0.86768900  1
  P  P16  1  0.67036000  0.33529700  0.36872000  1
  P  P17  1  0.91222000  0.21855400  0.16166200  1
  P  P18  1  0.08793800  0.30859600  0.34379900  1
  P  P19  1  0.77853800  0.69162700  0.15566000  1
  P  P20  1  0.22642200  0.30929100  0.84283700  1
  P  P21  1  0.90569200  0.68188200  0.65857600  1
  P  P22  1  0.08598400  0.77508700  0.83854600  1
  P  P23  1  0.33181200  0.66416200  0.63095300  1
  P  P24  1  0.33235300  0.66479500  0.13301300  1
  P  P25  1  0.22259900  0.91758000  0.34560400  1
  P  P26  1  0.69502300  0.77993100  0.33929400  1
  P  P27  1  0.69764700  0.92113700  0.83988100  1
  O  O28  1  0.20384800  0.99001300  0.43231900  1
  O  O29  1  0.34926300  0.08119500  0.66610600  1
  O  O30  1  0.21386100  0.23191800  0.93438700  1
  O  O31  1  0.34321200  0.25721300  0.16253000  1
  O  O32  1  0.46380900  0.08053400  0.17477400  1
  O  O33  1  0.52336600  0.18720500  0.82022700  1
  O  O34  1  0.62638000  0.09373300  0.66545400  1
  O  O35  1  0.79356800  0.99598100  0.92479300  1
  O  O36  1  0.73795400  0.08465600  0.16806900  1
  O  O37  1  0.52330100  0.33751200  0.32281600  1
  O  O38  1  0.47036900  0.37274500  0.66836700  1
  O  O39  1  0.66775700  0.18768000  0.32522400  1
  O  O40  1  0.66804200  0.33855100  0.97140100  1
  O  O41  1  0.66922500  0.34157400  0.47325000  1
  O  O42  1  0.81679500  0.33725900  0.82265200  1
  O  O43  1  0.61735600  0.53650700  0.17061700  1
  O  O44  1  0.66374800  0.47971100  0.82098400  1
  O  O45  1  0.91763800  0.26234100  0.66620600  1
  O  O46  1  0.99503200  0.19918500  0.25463400  1
  O  O47  1  0.01869200  0.22400300  0.43143700  1
  O  O48  1  0.00035100  0.21048800  0.07850100  1
  O  O49  1  0.91570000  0.37989700  0.17504100  1
  O  O50  1  0.81880900  0.48753400  0.32974200  1
  O  O51  1  0.08633500  0.34225600  0.82977500  1
  O  O52  1  0.89299000  0.51823900  0.67096400  1
  O  O53  1  0.73374600  0.65337300  0.66672900  1
  O  O54  1  0.21016800  0.19575000  0.75705900  1
  O  O55  1  0.20591300  0.19828700  0.57967500  1
  O  O56  1  0.78633900  0.78179000  0.42275000  1
  O  O57  1  0.26309900  0.35006700  0.32742200  1
  O  O58  1  0.08478300  0.46570100  0.32768200  1
  O  O59  1  0.91447000  0.65082000  0.16613800  1
  O  O60  1  0.17900300  0.52480500  0.67648200  1
  O  O61  1  0.08375400  0.61745400  0.82542300  1
  O  O62  1  0.01532700  0.79065900  0.92808400  1
  O  O63  1  0.98233300  0.76528600  0.57044900  1
  O  O64  1  0.99602000  0.79267400  0.74873000  1
  O  O65  1  0.08439900  0.74092900  0.33501500  1
  O  O66  1  0.32966400  0.51297300  0.16974500  1
  O  O67  1  0.38269000  0.46593400  0.82716500  1
  O  O68  1  0.18394200  0.66786000  0.17917900  1
  O  O69  1  0.31801800  0.66735300  0.02930100  1
  O  O70  1  0.32951800  0.66472400  0.52741100  1
  O  O71  1  0.34653600  0.81686000  0.67923000  1
  O  O72  1  0.53468300  0.61997200  0.32461200  1
  O  O73  1  0.47182700  0.65208700  0.67690200  1
  O  O74  1  0.25970200  0.91459300  0.82967300  1
  O  O75  1  0.20402700  0.00469300  0.25454700  1
  O  O76  1  0.20929500  0.99215100  0.07823100  1
  O  O77  1  0.38257600  0.91970900  0.32924800  1
  O  O78  1  0.47813200  0.81107000  0.17974500  1
  O  O79  1  0.54328600  0.92742400  0.82857800  1
  O  O80  1  0.65420400  0.74350700  0.83035800  1
  O  O81  1  0.79968400  0.78386400  0.06990300  1
  O  O82  1  0.79765500  0.79933400  0.24668100  1
  O  O83  1  0.65585700  0.91474100  0.33355000  1
  O  O84  1  0.80551900  0.01031600  0.57122600  1
  O  O85  1  0.80017200  0.00222200  0.74776400  1
