# generated using pymatgen
data_Li10Fe3Sb7O24
_symmetry_space_group_name_H-M   'P 1'
_cell_length_a   5.26019700
_cell_length_b   9.59382494
_cell_length_c   10.21601257
_cell_angle_alpha   90.55302627
_cell_angle_beta   90.45835934
_cell_angle_gamma   90.70095103
_symmetry_Int_Tables_number   1
_chemical_formula_structural   Li10Fe3Sb7O24
_chemical_formula_sum   'Li10 Fe3 Sb7 O24'
_cell_volume   515.47566997
_cell_formula_units_Z   1
loop_
 _symmetry_equiv_pos_site_id
 _symmetry_equiv_pos_as_xyz
  1  'x, y, z'
loop_
 _atom_site_type_symbol
 _atom_site_label
 _atom_site_symmetry_multiplicity
 _atom_site_fract_x
 _atom_site_fract_y
 _atom_site_fract_z
 _atom_site_occupancy
  Li  Li0  1  0.44133900  0.68801800  0.07288000  1
  Li  Li1  1  0.04754800  0.68930000  0.59938000  1
  Li  Li2  1  0.97196000  0.53211900  0.38632700  1
  Li  Li3  1  0.44974300  0.44839200  0.91220900  1
  Li  Li4  1  0.00466000  0.24784000  0.16070800  1
  Li  Li5  1  0.50444600  0.25160700  0.68001100  1
  Li  Li6  1  0.55846000  0.23523600  0.04110300  1
  Li  Li7  1  0.96474200  0.23674200  0.55743700  1
  Li  Li8  1  0.92440800  0.91106300  0.43890700  1
  Li  Li9  1  0.57536000  0.93332500  0.93295100  1
  Fe  Fe10  1  0.45916800  0.74201600  0.34731700  1
  Fe  Fe11  1  0.02477100  0.75031400  0.85513300  1
  Fe  Fe12  1  0.00558400  0.41776700  0.83966000  1
  Sb  Sb13  1  0.52924900  0.91990800  0.63561900  1
  Sb  Sb14  1  0.98731900  0.92763100  0.13099600  1
  Sb  Sb15  1  0.54632900  0.57847200  0.62688100  1
  Sb  Sb16  1  0.94026700  0.57394000  0.11191300  1
  Sb  Sb17  1  0.47670600  0.39382600  0.34528100  1
  Sb  Sb18  1  0.04636600  0.09979800  0.85367700  1
  Sb  Sb19  1  0.46617500  0.07505100  0.36540800  1
  O  O20  1  0.65186900  0.91092200  0.29495800  1
  O  O21  1  0.80178900  0.92692800  0.77404700  1
  O  O22  1  0.28485200  0.91598200  0.47171400  1
  O  O23  1  0.20750500  0.93062900  0.94922900  1
  O  O24  1  0.19226200  0.73347500  0.20893800  1
  O  O25  1  0.34482500  0.75268900  0.71082400  1
  O  O26  1  0.71487900  0.76009800  0.53313500  1
  O  O27  1  0.77472200  0.74050000  0.01735200  1
  O  O28  1  0.19788800  0.58537600  0.96888800  1
  O  O29  1  0.29300600  0.60449200  0.47471100  1
  O  O30  1  0.68918000  0.61345200  0.25934000  1
  O  O31  1  0.85049300  0.59453800  0.73992400  1
  O  O32  1  0.08590600  0.43514700  0.22849600  1
  O  O33  1  0.35876100  0.43944500  0.72421200  1
  O  O34  1  0.72848800  0.44218800  0.50838300  1
  O  O35  1  0.75206500  0.42790900  0.00869400  1
  O  O36  1  0.30407800  0.23610600  0.46107800  1
  O  O37  1  0.24087200  0.25147400  0.94077500  1
  O  O38  1  0.68185900  0.21838700  0.27859300  1
  O  O39  1  0.86861100  0.23596500  0.74433600  1
  O  O40  1  0.71543700  0.05876000  0.52301000  1
  O  O41  1  0.79869000  0.08574000  0.00354200  1
  O  O42  1  0.21406000  0.08301300  0.22301300  1
  O  O43  1  0.32330500  0.06842000  0.71700900  1
