# generated using pymatgen
data_LiMn3Al2(HO2)6
_symmetry_space_group_name_H-M   'P 1'
_cell_length_a   5.95405600
_cell_length_b   7.90475784
_cell_length_c   10.50236651
_cell_angle_alpha   105.29125516
_cell_angle_beta   105.77637026
_cell_angle_gamma   101.92288149
_symmetry_Int_Tables_number   1
_chemical_formula_structural   LiMn3Al2(HO2)6
_chemical_formula_sum   'Li2 Mn6 Al4 H12 O24'
_cell_volume   437.73125948
_cell_formula_units_Z   2
loop_
 _symmetry_equiv_pos_site_id
 _symmetry_equiv_pos_as_xyz
  1  'x, y, z'
loop_
 _atom_site_type_symbol
 _atom_site_label
 _atom_site_symmetry_multiplicity
 _atom_site_fract_x
 _atom_site_fract_y
 _atom_site_fract_z
 _atom_site_occupancy
  Li  Li0  1  0.75813400  0.01097800  0.49917000  1
  Li  Li1  1  0.07530000  0.32248900  0.50085800  1
  Mn  Mn2  1  0.99544000  0.99775800  0.99613100  1
  Mn  Mn3  1  0.49589300  0.99882500  0.99754300  1
  Mn  Mn4  1  0.33436200  0.33575300  0.00265100  1
  Mn  Mn5  1  0.16755900  0.66703400  0.00082000  1
  Mn  Mn6  1  0.83820600  0.33619500  0.00482100  1
  Mn  Mn7  1  0.66563200  0.66415900  0.99671800  1
  Al  Al8  1  0.24677800  0.00472300  0.49726900  1
  Al  Al9  1  0.58632200  0.32836600  0.50234200  1
  Al  Al10  1  0.91724000  0.66664200  0.50006600  1
  Al  Al11  1  0.41638500  0.66679700  0.50029300  1
  H  H12  1  0.38888300  0.02537800  0.28991300  1
  H  H13  1  0.91094600  0.32492500  0.70986000  1
  H  H14  1  0.92114400  0.00890600  0.28979000  1
  H  H15  1  0.77147600  0.65012700  0.71316800  1
  H  H16  1  0.44694400  0.30535900  0.71017700  1
  H  H17  1  0.72076600  0.36267600  0.29549400  1
  H  H18  1  0.26123600  0.66030000  0.70475700  1
  H  H19  1  0.56844600  0.67518400  0.29576200  1
  H  H20  1  0.25614700  0.36122200  0.30056100  1
  H  H21  1  0.11372900  0.97074000  0.70471800  1
  H  H22  1  0.06717700  0.67824600  0.28661100  1
  H  H23  1  0.57617600  0.97543900  0.69966100  1
  O  O24  1  0.21712100  0.06883400  0.89951200  1
  O  O25  1  0.44820900  0.07496200  0.39391100  1
  O  O26  1  0.85326100  0.28588900  0.60718100  1
  O  O27  1  0.05144300  0.39893600  0.90064800  1
  O  O28  1  0.70211400  0.07470900  0.89462900  1
  O  O29  1  0.97966400  0.04717700  0.39242300  1
  O  O30  1  0.12261200  0.28083100  0.10626000  1
  O  O31  1  0.70334300  0.60989400  0.60786100  1
  O  O32  1  0.55238600  0.39392000  0.90038900  1
  O  O33  1  0.38474100  0.25888600  0.60629900  1
  O  O34  1  0.61721600  0.26925200  0.10496700  1
  O  O35  1  0.78400300  0.41005900  0.39944200  1
  O  O36  1  0.20291100  0.61710900  0.60039800  1
  O  O37  1  0.35821600  0.74072000  0.89018200  1
  O  O38  1  0.44980200  0.60175800  0.10149300  1
  O  O39  1  0.32333100  0.40994100  0.40454700  1
  O  O40  1  0.63055100  0.71583200  0.39964100  1
  O  O41  1  0.04948500  0.92351900  0.60086400  1
  O  O42  1  0.88261800  0.71285000  0.89269500  1
  O  O43  1  0.29427900  0.92725800  0.10427800  1
  O  O44  1  0.97412400  0.59618500  0.11114400  1
  O  O45  1  0.13026800  0.72428700  0.39256800  1
  O  O46  1  0.51045700  0.92349900  0.59571000  1
  O  O47  1  0.77772200  0.93567200  0.09440600  1
