# generated using pymatgen
data_Li4Bi2O5
_symmetry_space_group_name_H-M   'P 1'
_cell_length_a   5.37481400
_cell_length_b   8.84370000
_cell_length_c   13.91147300
_cell_angle_alpha   90.00000000
_cell_angle_beta   90.00000000
_cell_angle_gamma   90.00000000
_symmetry_Int_Tables_number   1
_chemical_formula_structural   Li4Bi2O5
_chemical_formula_sum   'Li16 Bi8 O20'
_cell_volume   661.25742064
_cell_formula_units_Z   4
loop_
 _symmetry_equiv_pos_site_id
 _symmetry_equiv_pos_as_xyz
  1  'x, y, z'
loop_
 _atom_site_type_symbol
 _atom_site_label
 _atom_site_symmetry_multiplicity
 _atom_site_fract_x
 _atom_site_fract_y
 _atom_site_fract_z
 _atom_site_occupancy
  Li  Li0  1  0.44026300  0.86134600  0.03514200  1
  Li  Li1  1  0.05973700  0.63865400  0.03514200  1
  Li  Li2  1  0.25000000  0.75000000  0.25231000  1
  Li  Li3  1  0.50000000  0.03682900  0.25000000  1
  Li  Li4  1  0.00000000  0.46317100  0.25000000  1
  Li  Li5  1  0.75000000  0.75000000  0.24769000  1
  Li  Li6  1  0.94026300  0.63865400  0.46485800  1
  Li  Li7  1  0.55973700  0.86134600  0.46485800  1
  Li  Li8  1  0.44026300  0.13865400  0.53514200  1
  Li  Li9  1  0.05973700  0.36134600  0.53514200  1
  Li  Li10  1  0.25000000  0.25000000  0.75231000  1
  Li  Li11  1  0.00000000  0.53682900  0.75000000  1
  Li  Li12  1  0.50000000  0.96317100  0.75000000  1
  Li  Li13  1  0.75000000  0.25000000  0.74769000  1
  Li  Li14  1  0.94026300  0.36134600  0.96485800  1
  Li  Li15  1  0.55973700  0.13865400  0.96485800  1
  Bi  Bi16  1  0.53055100  0.44711300  0.11817500  1
  Bi  Bi17  1  0.96944900  0.05288700  0.11817500  1
  Bi  Bi18  1  0.03055100  0.05288700  0.38182500  1
  Bi  Bi19  1  0.46944900  0.44711300  0.38182500  1
  Bi  Bi20  1  0.53055100  0.55288700  0.61817500  1
  Bi  Bi21  1  0.96944900  0.94711300  0.61817500  1
  Bi  Bi22  1  0.03055100  0.94711300  0.88182500  1
  Bi  Bi23  1  0.46944900  0.55288700  0.88182500  1
  O  O24  1  0.05878600  0.85862000  0.03759500  1
  O  O25  1  0.44121400  0.64138000  0.03759500  1
  O  O26  1  0.92657500  0.47283400  0.11822600  1
  O  O27  1  0.57342500  0.02716600  0.11822600  1
  O  O28  1  0.00000000  0.89139100  0.25000000  1
  O  O29  1  0.50000000  0.60860900  0.25000000  1
  O  O30  1  0.07342500  0.47283400  0.38177400  1
  O  O31  1  0.42657500  0.02716600  0.38177400  1
  O  O32  1  0.55878600  0.64138000  0.46240500  1
  O  O33  1  0.94121400  0.85862000  0.46240500  1
  O  O34  1  0.05878600  0.14138000  0.53759500  1
  O  O35  1  0.44121400  0.35862000  0.53759500  1
  O  O36  1  0.57342500  0.97283400  0.61822600  1
  O  O37  1  0.92657500  0.52716600  0.61822600  1
  O  O38  1  0.00000000  0.10860900  0.75000000  1
  O  O39  1  0.50000000  0.39139100  0.75000000  1
  O  O40  1  0.07342500  0.52716600  0.88177400  1
  O  O41  1  0.42657500  0.97283400  0.88177400  1
  O  O42  1  0.55878600  0.35862000  0.96240500  1
  O  O43  1  0.94121400  0.14138000  0.96240500  1
