# generated using pymatgen
data_Li6V3P8O29
_symmetry_space_group_name_H-M   'P 1'
_cell_length_a   9.80824900
_cell_length_b   9.82727457
_cell_length_c   14.01527697
_cell_angle_alpha   89.83967569
_cell_angle_beta   90.66705722
_cell_angle_gamma   119.89267026
_symmetry_Int_Tables_number   1
_chemical_formula_structural   Li6V3P8O29
_chemical_formula_sum   'Li12 V6 P16 O58'
_cell_volume   1171.09879409
_cell_formula_units_Z   2
loop_
 _symmetry_equiv_pos_site_id
 _symmetry_equiv_pos_as_xyz
  1  'x, y, z'
loop_
 _atom_site_type_symbol
 _atom_site_label
 _atom_site_symmetry_multiplicity
 _atom_site_fract_x
 _atom_site_fract_y
 _atom_site_fract_z
 _atom_site_occupancy
  Li  Li0  1  0.67317300  0.90721000  0.55399100  1
  Li  Li1  1  0.24013200  0.33153600  0.55684200  1
  Li  Li2  1  0.34509700  0.66849600  0.89019400  1
  Li  Li3  1  0.08503000  0.31344600  0.06588500  1
  Li  Li4  1  0.22630600  0.90610300  0.06844200  1
  Li  Li5  1  0.90059400  0.23811000  0.43496600  1
  Li  Li6  1  0.09904700  0.76524100  0.55629500  1
  Li  Li7  1  0.77904300  0.08070400  0.94390200  1
  Li  Li8  1  0.90795500  0.68147800  0.94549500  1
  Li  Li9  1  0.76667200  0.66545000  0.43462700  1
  Li  Li10  1  0.31425200  0.22153500  0.94585000  1
  Li  Li11  1  0.05244200  0.01037900  0.48198000  1
  V  V12  1  0.99561400  0.43191200  0.24893500  1
  V  V13  1  0.00034300  0.56823200  0.74714600  1
  V  V14  1  0.56284500  0.00049300  0.74744700  1
  V  V15  1  0.43484900  0.00501200  0.25441900  1
  V  V16  1  0.56486100  0.56620100  0.24909000  1
  V  V17  1  0.43645300  0.43637800  0.75035500  1
  P  P18  1  0.68676600  0.77421300  0.84001200  1
  P  P19  1  0.69019900  0.91535500  0.34190000  1
  P  P20  1  0.22664700  0.31368900  0.34299800  1
  P  P21  1  0.32876700  0.66420800  0.13029300  1
  P  P22  1  0.33391300  0.66683300  0.62816200  1
  P  P23  1  0.09192400  0.32295800  0.84394900  1
  P  P24  1  0.91530900  0.22976600  0.65807600  1
  P  P25  1  0.23059600  0.90928200  0.84429200  1
  P  P26  1  0.76547700  0.08498800  0.15764000  1
  P  P27  1  0.08883500  0.77361900  0.34009000  1
  P  P28  1  0.90755200  0.68155000  0.15837500  1
  P  P29  1  0.66873500  0.33606500  0.37148000  1
  P  P30  1  0.66758200  0.33362900  0.87007300  1
  P  P31  1  0.76823600  0.68507500  0.65470500  1
  P  P32  1  0.30371300  0.08301300  0.65859500  1
  P  P33  1  0.31738800  0.23050800  0.16089300  1
  O  O34  1  0.76695900  0.76694400  0.56356100  1
  O  O35  1  0.66933800  0.74970700  0.34215100  1
  O  O36  1  0.75583100  0.00186200  0.06727000  1
  O  O37  1  0.66820000  0.92184900  0.84128500  1
  O  O38  1  0.51731100  0.62919300  0.82515000  1
  O  O39  1  0.47394900  0.66145300  0.17774000  1
  O  O40  1  0.38312500  0.46665500  0.33597000  1
  O  O41  1  0.23837500  0.24137500  0.07039900  1
  O  O42  1  0.25432300  0.33383400  0.84616700  1
  O  O43  1  0.48859600  0.81272000  0.67087900  1
  O  O44  1  0.53300700  0.91165600  0.33187300  1
  O  O45  1  0.32492000  0.51286400  0.67127600  1
  O  O46  1  0.33118500  0.65964500  0.02281700  1
  O  O47  1  0.33864100  0.66611900  0.52204000  1
  O  O48  1  0.18024700  0.51062500  0.16580300  1
  O  O49  1  0.37296900  0.88416800  0.82568600  1
  O  O50  1  0.32719400  0.81335300  0.16641800  1
  O  O51  1  0.08377300  0.34220000  0.33702500  1
  O  O52  1  0.00110200  0.21193700  0.75240800  1
  O  O53  1  0.00508700  0.23652100  0.56993000  1
  O  O54  1  0.99767700  0.24785500  0.93181900  1
  O  O55  1  0.11769600  0.48942400  0.82417900  1
  O  O56  1  0.18819200  0.67756000  0.66534400  1
  O  O57  1  0.91275200  0.25197800  0.15973200  1
  O  O58  1  0.08696700  0.61852500  0.33266700  1
  O  O59  1  0.25762300  0.91468200  0.33598500  1
  O  O60  1  0.79286100  0.99968700  0.24858300  1
  O  O61  1  0.78411400  0.00510800  0.43001600  1
  O  O62  1  0.19533500  0.98868700  0.57841300  1
  O  O63  1  0.74831400  0.08628300  0.65646100  1
  O  O64  1  0.91234200  0.38490300  0.67389800  1
  O  O65  1  0.07964500  0.74458900  0.84049100  1
  O  O66  1  0.81082600  0.32279800  0.33071300  1
  O  O67  1  0.90209600  0.52267700  0.17732700  1
  O  O68  1  0.00107900  0.75620500  0.06987800  1
  O  O69  1  0.00741900  0.78689000  0.42891600  1
  O  O70  1  0.99996900  0.79400600  0.24874800  1
  O  O71  1  0.91609800  0.66628600  0.65886200  1
  O  O72  1  0.66107700  0.18224700  0.82352500  1
  O  O73  1  0.61507900  0.09413400  0.17818100  1
  O  O74  1  0.81511900  0.48116300  0.83087300  1
  O  O75  1  0.66001400  0.32299200  0.97569100  1
  O  O76  1  0.67915200  0.34471900  0.47796900  1
  O  O77  1  0.67775600  0.49177400  0.33004300  1
  O  O78  1  0.45876300  0.07865900  0.66516000  1
  O  O79  1  0.51652900  0.19578900  0.32819800  1
  O  O80  1  0.74318400  0.65873600  0.15889100  1
  O  O81  1  0.78592300  0.79659600  0.74318000  1
  O  O82  1  0.77217000  0.75960100  0.92335400  1
  O  O83  1  0.61656300  0.52693800  0.66941000  1
  O  O84  1  0.51663900  0.33510300  0.82743300  1
  O  O85  1  0.47901100  0.37607100  0.17688100  1
  O  O86  1  0.33085700  0.08039200  0.16092400  1
  O  O87  1  0.24622100  0.99441900  0.93617200  1
  O  O88  1  0.21323200  0.00771400  0.75893000  1
  O  O89  1  0.33197000  0.25161100  0.65927200  1
  O  O90  1  0.20781100  0.22053200  0.43245300  1
  O  O91  1  0.20453800  0.20754700  0.25001100  1
