# generated using pymatgen
data_Li9P8W3O29
_symmetry_space_group_name_H-M   'P 1'
_cell_length_a   10.05600493
_cell_length_b   10.05600493
_cell_length_c   14.03603300
_cell_angle_alpha   90.00000000
_cell_angle_beta   90.00000000
_cell_angle_gamma   120.00000613
_symmetry_Int_Tables_number   1
_chemical_formula_structural   Li9P8W3O29
_chemical_formula_sum   'Li18 P16 W6 O58'
_cell_volume   1229.20959264
_cell_formula_units_Z   2
loop_
 _symmetry_equiv_pos_site_id
 _symmetry_equiv_pos_as_xyz
  1  'x, y, z'
loop_
 _atom_site_type_symbol
 _atom_site_label
 _atom_site_symmetry_multiplicity
 _atom_site_fract_x
 _atom_site_fract_y
 _atom_site_fract_z
 _atom_site_occupancy
  Li  Li0  1  0.00000000  0.00000000  0.50000000  1
  Li  Li1  1  0.00000000  0.00000000  0.00000000  1
  Li  Li2  1  0.33259000  0.23215000  0.56322200  1
  Li  Li3  1  0.33259000  0.10044000  0.06322200  1
  Li  Li4  1  0.76785000  0.66741000  0.06322200  1
  Li  Li5  1  0.66666700  0.33333300  0.38107300  1
  Li  Li6  1  0.66666700  0.33333300  0.88107300  1
  Li  Li7  1  0.89956000  0.66741000  0.56322200  1
  Li  Li8  1  0.76785000  0.10044000  0.56322200  1
  Li  Li9  1  0.10044000  0.76785000  0.93677800  1
  Li  Li10  1  0.89956000  0.23215000  0.06322200  1
  Li  Li11  1  0.23215000  0.89956000  0.43677800  1
  Li  Li12  1  0.10044000  0.33259000  0.43677800  1
  Li  Li13  1  0.33333300  0.66666700  0.61892700  1
  Li  Li14  1  0.33333300  0.66666700  0.11892700  1
  Li  Li15  1  0.23215000  0.33259000  0.93677800  1
  Li  Li16  1  0.66741000  0.89956000  0.93677800  1
  Li  Li17  1  0.66741000  0.76785000  0.43677800  1
  P  P18  1  0.31278400  0.22604300  0.34575500  1
  P  P19  1  0.31278400  0.08674100  0.84575500  1
  P  P20  1  0.77395700  0.68721600  0.84575500  1
  P  P21  1  0.66666700  0.33333300  0.11842100  1
  P  P22  1  0.66666700  0.33333300  0.61842100  1
  P  P23  1  0.91325900  0.68721600  0.34575500  1
  P  P24  1  0.08674100  0.77395700  0.15424500  1
  P  P25  1  0.77395700  0.08674100  0.34575500  1
  P  P26  1  0.22604300  0.91325900  0.65424500  1
  P  P27  1  0.91325900  0.22604300  0.84575500  1
  P  P28  1  0.08674100  0.31278400  0.65424500  1
  P  P29  1  0.33333300  0.66666700  0.88157900  1
  P  P30  1  0.33333300  0.66666700  0.38157900  1
  P  P31  1  0.22604300  0.31278400  0.15424500  1
  P  P32  1  0.68721600  0.91325900  0.15424500  1
  P  P33  1  0.68721600  0.77395700  0.65424500  1
  W  W34  1  0.43280300  0.43280300  0.75000000  1
  W  W35  1  0.56719700  0.56719700  0.25000000  1
  W  W36  1  0.43280300  0.00000000  0.25000000  1
  W  W37  1  0.56719700  0.00000000  0.75000000  1
  W  W38  1  0.00000000  0.56719700  0.75000000  1
  W  W39  1  0.00000000  0.43280300  0.25000000  1
  O  O40  1  0.21825500  0.21825500  0.25000000  1
  O  O41  1  0.22807100  0.22174100  0.06778400  1
  O  O42  1  0.32024300  0.24312400  0.84755100  1
  O  O43  1  0.21825500  0.00000000  0.75000000  1
  O  O44  1  0.22807100  0.00633000  0.56778400  1
  O  O45  1  0.32024300  0.07712000  0.34755100  1
  O  O46  1  0.47660800  0.36425600  0.33833900  1
  O  O47  1  0.51324100  0.31805900  0.65625900  1
  O  O48  1  0.63574400  0.52339200  0.83833900  1
  O  O49  1  0.77825900  0.77192900  0.56778400  1
  O  O50  1  0.78174500  0.78174500  0.75000000  1
  O  O51  1  0.75687600  0.67975700  0.34755100  1
  O  O52  1  0.51324100  0.19518200  0.15625900  1
  O  O53  1  0.47660800  0.11235200  0.83833900  1
  O  O54  1  0.68194100  0.48675900  0.15625900  1
  O  O55  1  0.66666700  0.33333300  0.01073800  1
  O  O56  1  0.66666700  0.33333300  0.51073800  1
  O  O57  1  0.80481800  0.48675900  0.65625900  1
  O  O58  1  0.63574400  0.11235200  0.33833900  1
  O  O59  1  0.68194100  0.19518200  0.65625900  1
  O  O60  1  0.92288000  0.67975700  0.84755100  1
  O  O61  1  0.00000000  0.78174500  0.25000000  1
  O  O62  1  0.99367000  0.77192900  0.06778400  1
  O  O63  1  0.00633000  0.77825900  0.43221600  1
  O  O64  1  0.88764800  0.52339200  0.33833900  1
  O  O65  1  0.80481800  0.31805900  0.15625900  1
  O  O66  1  0.07712000  0.75687600  0.65244900  1
  O  O67  1  0.88764800  0.36425600  0.83833900  1
  O  O68  1  0.75687600  0.07712000  0.84755100  1
  O  O69  1  0.22174100  0.99367000  0.93221600  1
  O  O70  1  0.77825900  0.00633000  0.06778400  1
  O  O71  1  0.78174500  0.00000000  0.25000000  1
  O  O72  1  0.24312400  0.92288000  0.15244900  1
  O  O73  1  0.11235200  0.63574400  0.16166100  1
  O  O74  1  0.92288000  0.24312400  0.34755100  1
  O  O75  1  0.19518200  0.68194100  0.84374100  1
  O  O76  1  0.11235200  0.47660800  0.66166100  1
  O  O77  1  0.99367000  0.22174100  0.56778400  1
  O  O78  1  0.00633000  0.22807100  0.93221600  1
  O  O79  1  0.00000000  0.21825500  0.75000000  1
  O  O80  1  0.07712000  0.32024300  0.15244900  1
  O  O81  1  0.31805900  0.80481800  0.34374100  1
  O  O82  1  0.36425600  0.88764800  0.66166100  1
  O  O83  1  0.19518200  0.51324100  0.34374100  1
  O  O84  1  0.33333300  0.66666700  0.98926200  1
  O  O85  1  0.33333300  0.66666700  0.48926200  1
  O  O86  1  0.31805900  0.51324100  0.84374100  1
  O  O87  1  0.52339200  0.88764800  0.16166100  1
  O  O88  1  0.48675900  0.80481800  0.84374100  1
  O  O89  1  0.24312400  0.32024300  0.65244900  1
  O  O90  1  0.22174100  0.22807100  0.43221600  1
  O  O91  1  0.36425600  0.47660800  0.16166100  1
  O  O92  1  0.48675900  0.68194100  0.34374100  1
  O  O93  1  0.52339200  0.63574400  0.66166100  1
  O  O94  1  0.67975700  0.92288000  0.65244900  1
  O  O95  1  0.77192900  0.99367000  0.43221600  1
  O  O96  1  0.67975700  0.75687600  0.15244900  1
  O  O97  1  0.77192900  0.77825900  0.93221600  1
