# generated using pymatgen
data_LiNiPO4
_symmetry_space_group_name_H-M   'P 1'
_cell_length_a   5.50131800
_cell_length_b   8.10896500
_cell_length_c   19.89832900
_cell_angle_alpha   90.00000000
_cell_angle_beta   90.00000000
_cell_angle_gamma   90.00000000
_symmetry_Int_Tables_number   1
_chemical_formula_structural   LiNiPO4
_chemical_formula_sum   'Li12 Ni12 P12 O48'
_cell_volume   887.66435950
_cell_formula_units_Z   12
loop_
 _symmetry_equiv_pos_site_id
 _symmetry_equiv_pos_as_xyz
  1  'x, y, z'
loop_
 _atom_site_type_symbol
 _atom_site_label
 _atom_site_symmetry_multiplicity
 _atom_site_fract_x
 _atom_site_fract_y
 _atom_site_fract_z
 _atom_site_occupancy
  Li  Li0  1  0.69358400  0.27082500  0.97527500  1
  Li  Li1  1  0.31435200  0.74871700  0.17876800  1
  Li  Li2  1  0.71340000  0.25705600  0.15950900  1
  Li  Li3  1  0.21340000  0.75705600  0.34049100  1
  Li  Li4  1  0.81435200  0.24871700  0.32123200  1
  Li  Li5  1  0.19358400  0.77082500  0.52472500  1
  Li  Li6  1  0.69358400  0.22917500  0.47527500  1
  Li  Li7  1  0.31435200  0.75128300  0.67876800  1
  Li  Li8  1  0.71340000  0.24294400  0.65950900  1
  Li  Li9  1  0.21340000  0.74294400  0.84049100  1
  Li  Li10  1  0.81435200  0.25128300  0.82123200  1
  Li  Li11  1  0.19358400  0.72917500  0.02472500  1
  Ni  Ni12  1  0.75254700  0.98327300  0.06231900  1
  Ni  Ni13  1  0.19070600  0.42276000  0.08922600  1
  Ni  Ni14  1  0.76401800  0.56084100  0.24098000  1
  Ni  Ni15  1  0.26401800  0.06084100  0.25902000  1
  Ni  Ni16  1  0.69070600  0.92276000  0.41077400  1
  Ni  Ni17  1  0.25254700  0.48327300  0.43768100  1
  Ni  Ni18  1  0.75254700  0.51672700  0.56231900  1
  Ni  Ni19  1  0.19070600  0.07724000  0.58922600  1
  Ni  Ni20  1  0.76401800  0.93915900  0.74098000  1
  Ni  Ni21  1  0.26401800  0.43915900  0.75902000  1
  Ni  Ni22  1  0.69070600  0.57724000  0.91077400  1
  Ni  Ni23  1  0.25254700  0.01672700  0.93768100  1
  P  P24  1  0.69482000  0.59098300  0.07050400  1
  P  P25  1  0.26451100  0.08980700  0.09521700  1
  P  P26  1  0.74586600  0.93836100  0.23433400  1
  P  P27  1  0.24586600  0.43836100  0.26566600  1
  P  P28  1  0.76451100  0.58980700  0.40478300  1
  P  P29  1  0.19482000  0.09098300  0.42949600  1
  P  P30  1  0.69482000  0.90901700  0.57050400  1
  P  P31  1  0.26451100  0.41019300  0.59521700  1
  P  P32  1  0.74586600  0.56163900  0.73433400  1
  P  P33  1  0.24586600  0.06163900  0.76566600  1
  P  P34  1  0.76451100  0.91019300  0.90478300  1
  P  P35  1  0.19482000  0.40901700  0.92949600  1
  O  O36  1  0.66601500  0.49799200  0.00383900  1
  O  O37  1  0.35070200  0.96846000  0.03796700  1
  O  O38  1  0.44260000  0.23937700  0.09670300  1
  O  O39  1  0.01538400  0.16791200  0.07659400  1
  O  O40  1  0.84344500  0.75094400  0.05919400  1
  O  O41  1  0.43510600  0.62421300  0.09983500  1
  O  O42  1  0.84325900  0.48300700  0.12102900  1
  O  O43  1  0.26267800  0.99273900  0.16059800  1
  O  O44  1  0.75914700  0.99554300  0.16141100  1
  O  O45  1  0.11655000  0.58005200  0.22671500  1
  O  O46  1  0.49352900  0.40771100  0.23166800  1
  O  O47  1  0.09162400  0.27710600  0.25803300  1
  O  O48  1  0.59162400  0.77710600  0.24196700  1
  O  O49  1  0.99352900  0.90771100  0.26833200  1
  O  O50  1  0.61655000  0.08005200  0.27328500  1
  O  O51  1  0.25914700  0.49554300  0.33858900  1
  O  O52  1  0.76267800  0.49273900  0.33940200  1
  O  O53  1  0.34325900  0.98300700  0.37897100  1
  O  O54  1  0.93510600  0.12421300  0.40016500  1
  O  O55  1  0.34344500  0.25094400  0.44080600  1
  O  O56  1  0.51538400  0.66791200  0.42340600  1
  O  O57  1  0.94260000  0.73937700  0.40329700  1
  O  O58  1  0.85070200  0.46846000  0.46203300  1
  O  O59  1  0.16601500  0.99799200  0.49616100  1
  O  O60  1  0.66601500  0.00200800  0.50383900  1
  O  O61  1  0.35070200  0.53154000  0.53796700  1
  O  O62  1  0.44260000  0.26062300  0.59670300  1
  O  O63  1  0.01538400  0.33208800  0.57659400  1
  O  O64  1  0.84344500  0.74905600  0.55919400  1
  O  O65  1  0.43510600  0.87578700  0.59983500  1
  O  O66  1  0.84325900  0.01699300  0.62102900  1
  O  O67  1  0.26267800  0.50726100  0.66059800  1
  O  O68  1  0.75914700  0.50445700  0.66141100  1
  O  O69  1  0.11655000  0.91994800  0.72671500  1
  O  O70  1  0.49352900  0.09228900  0.73166800  1
  O  O71  1  0.09162400  0.22289400  0.75803300  1
  O  O72  1  0.59162400  0.72289400  0.74196700  1
  O  O73  1  0.99352900  0.59228900  0.76833200  1
  O  O74  1  0.61655000  0.41994800  0.77328500  1
  O  O75  1  0.25914700  0.00445700  0.83858900  1
  O  O76  1  0.76267800  0.00726100  0.83940200  1
  O  O77  1  0.34325900  0.51699300  0.87897100  1
  O  O78  1  0.93510600  0.37578700  0.90016500  1
  O  O79  1  0.34344500  0.24905600  0.94080600  1
  O  O80  1  0.51538400  0.83208800  0.92340600  1
  O  O81  1  0.94260000  0.76062300  0.90329700  1
  O  O82  1  0.85070200  0.03154000  0.96203300  1
  O  O83  1  0.16601500  0.50200800  0.99616100  1
