# generated using pymatgen
data_Li5VCr3O8
_symmetry_space_group_name_H-M   'P 1'
_cell_length_a   5.99921697
_cell_length_b   5.99921697
_cell_length_c   9.92874900
_cell_angle_alpha   90.00000000
_cell_angle_beta   90.00000000
_cell_angle_gamma   119.99998863
_symmetry_Int_Tables_number   1
_chemical_formula_structural   Li5VCr3O8
_chemical_formula_sum   'Li10 V2 Cr6 O16'
_cell_volume   309.46700457
_cell_formula_units_Z   2
loop_
 _symmetry_equiv_pos_site_id
 _symmetry_equiv_pos_as_xyz
  1  'x, y, z'
loop_
 _atom_site_type_symbol
 _atom_site_label
 _atom_site_symmetry_multiplicity
 _atom_site_fract_x
 _atom_site_fract_y
 _atom_site_fract_z
 _atom_site_occupancy
  Li  Li0  1  0.19532700  0.80467300  0.04729500  1
  Li  Li1  1  0.60934600  0.80467300  0.04729500  1
  Li  Li2  1  0.33333300  0.66666700  0.26139400  1
  Li  Li3  1  0.19532700  0.39065400  0.04729500  1
  Li  Li4  1  0.80467300  0.60934600  0.54729500  1
  Li  Li5  1  0.00000000  0.00000000  0.47110000  1
  Li  Li6  1  0.66666700  0.33333300  0.76139400  1
  Li  Li7  1  0.39065400  0.19532700  0.54729500  1
  Li  Li8  1  0.00000000  0.00000000  0.97110000  1
  Li  Li9  1  0.80467300  0.19532700  0.54729500  1
  V  V10  1  0.33333300  0.66666700  0.51146500  1
  V  V11  1  0.66666700  0.33333300  0.01146500  1
  Cr  Cr12  1  0.16815500  0.83184500  0.77283800  1
  Cr  Cr13  1  0.66369000  0.83184500  0.77283800  1
  Cr  Cr14  1  0.16815500  0.33631000  0.77283800  1
  Cr  Cr15  1  0.83184500  0.66369000  0.27283800  1
  Cr  Cr16  1  0.33631000  0.16815500  0.27283800  1
  Cr  Cr17  1  0.83184500  0.16815500  0.27283800  1
  O  O18  1  0.15978900  0.84021100  0.38825800  1
  O  O19  1  0.49209300  0.98418500  0.65570900  1
  O  O20  1  0.33333300  0.66666700  0.88783900  1
  O  O21  1  0.68042300  0.84021100  0.38825800  1
  O  O22  1  0.01581500  0.50790700  0.65570900  1
  O  O23  1  0.49209300  0.50790700  0.65570900  1
  O  O24  1  0.15978900  0.31957700  0.38825800  1
  O  O25  1  0.84021100  0.68042300  0.88825800  1
  O  O26  1  0.50790700  0.49209300  0.15570900  1
  O  O27  1  0.66666700  0.33333300  0.38783900  1
  O  O28  1  0.98418500  0.49209300  0.15570900  1
  O  O29  1  0.00000000  0.00000000  0.16097700  1
  O  O30  1  0.31957700  0.15978900  0.88825800  1
  O  O31  1  0.00000000  0.00000000  0.66097700  1
  O  O32  1  0.50790700  0.01581500  0.15570900  1
  O  O33  1  0.84021100  0.15978900  0.88825800  1
