# generated using pymatgen
data_Li5Cu3F14
_symmetry_space_group_name_H-M   'P 1'
_cell_length_a   6.96576600
_cell_length_b   6.96576600
_cell_length_c   9.63802600
_cell_angle_alpha   90.00000000
_cell_angle_beta   90.00000000
_cell_angle_gamma   90.00000000
_symmetry_Int_Tables_number   1
_chemical_formula_structural   Li5Cu3F14
_chemical_formula_sum   'Li10 Cu6 F28'
_cell_volume   467.65529490
_cell_formula_units_Z   2
loop_
 _symmetry_equiv_pos_site_id
 _symmetry_equiv_pos_as_xyz
  1  'x, y, z'
loop_
 _atom_site_type_symbol
 _atom_site_label
 _atom_site_symmetry_multiplicity
 _atom_site_fract_x
 _atom_site_fract_y
 _atom_site_fract_z
 _atom_site_occupancy
  Li  Li0  1  0.00000000  0.00000000  0.50000000  1
  Li  Li1  1  0.22971600  0.27028400  0.25000000  1
  Li  Li2  1  0.22971600  0.27028400  0.75000000  1
  Li  Li3  1  0.27028400  0.77028400  0.75000000  1
  Li  Li4  1  0.27028400  0.77028400  0.25000000  1
  Li  Li5  1  0.50000000  0.50000000  0.00000000  1
  Li  Li6  1  0.72971600  0.22971600  0.75000000  1
  Li  Li7  1  0.72971600  0.22971600  0.25000000  1
  Li  Li8  1  0.77028400  0.72971600  0.75000000  1
  Li  Li9  1  0.77028400  0.72971600  0.25000000  1
  Cu  Cu10  1  0.00000000  0.00000000  0.00000000  1
  Cu  Cu11  1  0.00000000  0.50000000  0.00000000  1
  Cu  Cu12  1  0.00000000  0.50000000  0.50000000  1
  Cu  Cu13  1  0.50000000  0.50000000  0.50000000  1
  Cu  Cu14  1  0.50000000  0.00000000  0.00000000  1
  Cu  Cu15  1  0.50000000  0.00000000  0.50000000  1
  F  F16  1  0.00000000  0.00000000  0.19408300  1
  F  F17  1  0.00000000  0.00000000  0.80591700  1
  F  F18  1  0.03609600  0.69920700  0.36312200  1
  F  F19  1  0.03609600  0.69920700  0.63687800  1
  F  F20  1  0.10402200  0.24802000  0.00000000  1
  F  F21  1  0.19920700  0.53609600  0.13687800  1
  F  F22  1  0.19920700  0.53609600  0.86312200  1
  F  F23  1  0.24802000  0.89597800  0.00000000  1
  F  F24  1  0.25198000  0.39597800  0.50000000  1
  F  F25  1  0.30079300  0.03609600  0.36312200  1
  F  F26  1  0.30079300  0.03609600  0.63687800  1
  F  F27  1  0.39597800  0.74802000  0.50000000  1
  F  F28  1  0.46390400  0.19920700  0.13687800  1
  F  F29  1  0.46390400  0.19920700  0.86312200  1
  F  F30  1  0.50000000  0.50000000  0.30591700  1
  F  F31  1  0.50000000  0.50000000  0.69408300  1
  F  F32  1  0.53609600  0.80079300  0.13687800  1
  F  F33  1  0.53609600  0.80079300  0.86312200  1
  F  F34  1  0.60402200  0.25198000  0.50000000  1
  F  F35  1  0.69920700  0.96390400  0.36312200  1
  F  F36  1  0.69920700  0.96390400  0.63687800  1
  F  F37  1  0.74802000  0.60402200  0.50000000  1
  F  F38  1  0.75198000  0.10402200  0.00000000  1
  F  F39  1  0.80079300  0.46390400  0.13687800  1
  F  F40  1  0.80079300  0.46390400  0.86312200  1
  F  F41  1  0.89597800  0.75198000  0.00000000  1
  F  F42  1  0.96390400  0.30079300  0.36312200  1
  F  F43  1  0.96390400  0.30079300  0.63687800  1
