# generated using pymatgen
data_Li4TiCu2Ni3(PO4)6
_symmetry_space_group_name_H-M   'P 1'
_cell_length_a   8.35162600
_cell_length_b   8.53981405
_cell_length_c   8.75384980
_cell_angle_alpha   61.23394391
_cell_angle_beta   61.95957387
_cell_angle_gamma   62.08375718
_symmetry_Int_Tables_number   1
_chemical_formula_structural   Li4TiCu2Ni3(PO4)6
_chemical_formula_sum   'Li4 Ti1 Cu2 Ni3 P6 O24'
_cell_volume   458.81730516
_cell_formula_units_Z   1
loop_
 _symmetry_equiv_pos_site_id
 _symmetry_equiv_pos_as_xyz
  1  'x, y, z'
loop_
 _atom_site_type_symbol
 _atom_site_label
 _atom_site_symmetry_multiplicity
 _atom_site_fract_x
 _atom_site_fract_y
 _atom_site_fract_z
 _atom_site_occupancy
  Li  Li0  1  0.25525600  0.64086600  0.84638400  1
  Li  Li1  1  0.71839200  0.35675700  0.15735600  1
  Li  Li2  1  0.35110500  0.14672100  0.70339400  1
  Li  Li3  1  0.14481800  0.70506800  0.35660300  1
  Ti  Ti4  1  0.14879000  0.14584500  0.15322300  1
  Cu  Cu5  1  0.98727200  0.99345200  0.00864000  1
  Cu  Cu6  1  0.50753800  0.49632000  0.49908100  1
  Ni  Ni7  1  0.85724700  0.85777200  0.85266900  1
  Ni  Ni8  1  0.64038600  0.64395600  0.64538900  1
  Ni  Ni9  1  0.35758100  0.35202800  0.34827600  1
  P  P10  1  0.25325700  0.94955300  0.54854000  1
  P  P11  1  0.94537700  0.54857300  0.25675700  1
  P  P12  1  0.56294300  0.24790200  0.96097200  1
  P  P13  1  0.75204200  0.04440300  0.46267600  1
  P  P14  1  0.44179200  0.75403900  0.03111300  1
  P  P15  1  0.05397900  0.46347500  0.75411100  1
  O  O16  1  0.88441700  0.50614000  0.70531500  1
  O  O17  1  0.69723600  0.88732000  0.48614500  1
  O  O18  1  0.93727900  0.73494300  0.09165000  1
  O  O19  1  0.43894900  0.70613600  0.88559300  1
  O  O20  1  0.00401300  0.38301700  0.18808200  1
  O  O21  1  0.75187500  0.54881300  0.41219600  1
  O  O22  1  0.75813100  0.09287500  0.92823000  1
  O  O23  1  0.53963000  0.41255200  0.78243000  1
  O  O24  1  0.82569500  0.00939600  0.60685800  1
  O  O25  1  0.40637500  0.75173700  0.55758900  1
  O  O26  1  0.90210100  0.08901400  0.25960800  1
  O  O27  1  0.59939600  0.83140400  0.96747000  1
  O  O28  1  0.39072300  0.17419900  0.02925200  1
  O  O29  1  0.10182700  0.92253400  0.73971400  1
  O  O30  1  0.58568800  0.24135800  0.44728700  1
  O  O31  1  0.18645100  0.00339200  0.38366200  1
  O  O32  1  0.44142000  0.59144900  0.21989000  1
  O  O33  1  0.23274100  0.90795800  0.08356700  1
  O  O34  1  0.24665500  0.44852500  0.58428000  1
  O  O35  1  0.04013300  0.60427800  0.82193500  1
  O  O36  1  0.54292000  0.30540100  0.11088700  1
  O  O37  1  0.08995200  0.25736800  0.90375400  1
  O  O38  1  0.31972200  0.10442600  0.51618100  1
  O  O39  1  0.09890000  0.51603800  0.32623700  1
