# generated using pymatgen
data_Li6MnV3(PO4)6
_symmetry_space_group_name_H-M   'P 1'
_cell_length_a   6.37594500
_cell_length_b   8.59515685
_cell_length_c   8.66848990
_cell_angle_alpha   94.34737809
_cell_angle_beta   106.01070878
_cell_angle_gamma   105.95747886
_symmetry_Int_Tables_number   1
_chemical_formula_structural   Li6MnV3(PO4)6
_chemical_formula_sum   'Li6 Mn1 V3 P6 O24'
_cell_volume   433.08021436
_cell_formula_units_Z   1
loop_
 _symmetry_equiv_pos_site_id
 _symmetry_equiv_pos_as_xyz
  1  'x, y, z'
loop_
 _atom_site_type_symbol
 _atom_site_label
 _atom_site_symmetry_multiplicity
 _atom_site_fract_x
 _atom_site_fract_y
 _atom_site_fract_z
 _atom_site_occupancy
  Li  Li0  1  0.25156900  0.99504700  0.00433700  1
  Li  Li1  1  0.75145300  0.71528000  0.29017500  1
  Li  Li2  1  0.50085000  0.49937300  0.50043400  1
  Li  Li3  1  0.99823700  0.49747900  0.49983400  1
  Li  Li4  1  0.24733600  0.28774100  0.70989200  1
  Li  Li5  1  0.74755800  0.00823400  0.99723100  1
  Mn  Mn6  1  0.63407300  0.05979000  0.37381200  1
  V  V7  1  0.35880500  0.94187300  0.62142300  1
  V  V8  1  0.86282200  0.62122000  0.94326200  1
  V  V9  1  0.13917900  0.38102500  0.05654900  1
  P  P10  1  0.25061600  0.71419000  0.28735500  1
  P  P11  1  0.86329300  0.85959100  0.66399000  1
  P  P12  1  0.36469200  0.66123300  0.86170700  1
  P  P13  1  0.63409400  0.33946000  0.13240700  1
  P  P14  1  0.13598900  0.13836200  0.33965300  1
  P  P15  1  0.74884200  0.28500300  0.71409100  1
  O  O16  1  0.08837200  0.98623400  0.65825700  1
  O  O17  1  0.67209800  0.94515300  0.61516100  1
  O  O18  1  0.03452200  0.74251700  0.17209100  1
  O  O19  1  0.47294400  0.82779400  0.26259500  1
  O  O20  1  0.39340100  0.84494500  0.84159800  1
  O  O21  1  0.23129100  0.73556100  0.46180500  1
  O  O22  1  0.90618500  0.83891800  0.84838400  1
  O  O23  1  0.79455700  0.70204200  0.54488600  1
  O  O24  1  0.17752500  0.60249300  0.95124900  1
  O  O25  1  0.59431900  0.66121100  0.98601300  1
  O  O26  1  0.26677900  0.53695300  0.26225600  1
  O  O27  1  0.29457900  0.54304400  0.70430200  1
  O  O28  1  0.70322600  0.45210100  0.29351700  1
  O  O29  1  0.73231100  0.46223000  0.73776400  1
  O  O30  1  0.40652700  0.34648100  0.01059100  1
  O  O31  1  0.82507100  0.40254700  0.04749900  1
  O  O32  1  0.20401000  0.29699900  0.45745500  1
  O  O33  1  0.11247300  0.16053700  0.15824600  1
  O  O34  1  0.77110400  0.26248100  0.53922800  1
  O  O35  1  0.60237800  0.15379500  0.14201900  1
  O  O36  1  0.53076400  0.17212800  0.74095700  1
  O  O37  1  0.96545100  0.25770600  0.83050100  1
  O  O38  1  0.32552800  0.04877700  0.40116200  1
  O  O39  1  0.90517600  0.01245300  0.33631200  1
