# generated using pymatgen
data_Li2Cr3(CoO6)2
_symmetry_space_group_name_H-M   'P 1'
_cell_length_a   9.14969900
_cell_length_b   9.17571200
_cell_length_c   12.64332700
_cell_angle_alpha   90.00000000
_cell_angle_beta   90.00000000
_cell_angle_gamma   90.00000000
_symmetry_Int_Tables_number   1
_chemical_formula_structural   Li2Cr3(CoO6)2
_chemical_formula_sum   'Li8 Cr12 Co8 O48'
_cell_volume   1061.47055509
_cell_formula_units_Z   4
loop_
 _symmetry_equiv_pos_site_id
 _symmetry_equiv_pos_as_xyz
  1  'x, y, z'
loop_
 _atom_site_type_symbol
 _atom_site_label
 _atom_site_symmetry_multiplicity
 _atom_site_fract_x
 _atom_site_fract_y
 _atom_site_fract_z
 _atom_site_occupancy
  Li  Li0  1  0.22044300  0.27174700  0.68689400  1
  Li  Li1  1  0.77955700  0.77174700  0.68689400  1
  Li  Li2  1  0.27955700  0.77174700  0.81310600  1
  Li  Li3  1  0.72044300  0.27174700  0.81310600  1
  Li  Li4  1  0.27955700  0.72825300  0.18689400  1
  Li  Li5  1  0.72044300  0.22825300  0.18689400  1
  Li  Li6  1  0.22044300  0.22825300  0.31310600  1
  Li  Li7  1  0.77955700  0.72825300  0.31310600  1
  Cr  Cr8  1  0.46268500  0.25000000  0.50000000  1
  Cr  Cr9  1  0.53731500  0.75000000  0.50000000  1
  Cr  Cr10  1  0.10053900  0.60577800  0.64337100  1
  Cr  Cr11  1  0.89946100  0.10577800  0.64337100  1
  Cr  Cr12  1  0.39946100  0.10577800  0.85662900  1
  Cr  Cr13  1  0.60053900  0.60577800  0.85662900  1
  Cr  Cr14  1  0.03731500  0.75000000  0.00000000  1
  Cr  Cr15  1  0.96268500  0.25000000  0.00000000  1
  Cr  Cr16  1  0.39946100  0.39422200  0.14337100  1
  Cr  Cr17  1  0.60053900  0.89422200  0.14337100  1
  Cr  Cr18  1  0.10053900  0.89422200  0.35662900  1
  Cr  Cr19  1  0.89946100  0.39422200  0.35662900  1
  Co  Co20  1  0.25316400  0.96697500  0.61912600  1
  Co  Co21  1  0.74683600  0.46697500  0.61912600  1
  Co  Co22  1  0.24683600  0.46697500  0.88087400  1
  Co  Co23  1  0.75316400  0.96697500  0.88087400  1
  Co  Co24  1  0.24683600  0.03302500  0.11912600  1
  Co  Co25  1  0.75316400  0.53302500  0.11912600  1
  Co  Co26  1  0.25316400  0.53302500  0.38087400  1
  Co  Co27  1  0.74683600  0.03302500  0.38087400  1
  O  O28  1  0.14363900  0.56797700  0.52086300  1
  O  O29  1  0.85636100  0.06797700  0.52086300  1
  O  O30  1  0.56514300  0.36838100  0.56438700  1
  O  O31  1  0.43485700  0.86838100  0.56438700  1
  O  O32  1  0.35431000  0.16504200  0.58858300  1
  O  O33  1  0.64569000  0.66504200  0.58858300  1
  O  O34  1  0.08244600  0.10717400  0.65934500  1
  O  O35  1  0.91755400  0.60717400  0.65934500  1
  O  O36  1  0.16716600  0.76946500  0.67608600  1
  O  O37  1  0.83283400  0.26946500  0.67608600  1
  O  O38  1  0.17309100  0.47671200  0.72267500  1
  O  O39  1  0.82690900  0.97671200  0.72267500  1
  O  O40  1  0.32690900  0.97671200  0.77732500  1
  O  O41  1  0.67309100  0.47671200  0.77732500  1
  O  O42  1  0.66716600  0.76946500  0.82391400  1
  O  O43  1  0.33283400  0.26946500  0.82391400  1
  O  O44  1  0.41755400  0.60717400  0.84065500  1
  O  O45  1  0.58244600  0.10717400  0.84065500  1
  O  O46  1  0.14569000  0.66504200  0.91141700  1
  O  O47  1  0.85431000  0.16504200  0.91141700  1
  O  O48  1  0.06514300  0.36838100  0.93561300  1
  O  O49  1  0.93485700  0.86838100  0.93561300  1
  O  O50  1  0.64363900  0.56797700  0.97913700  1
  O  O51  1  0.35636100  0.06797700  0.97913700  1
  O  O52  1  0.35636100  0.43202300  0.02086300  1
  O  O53  1  0.64363900  0.93202300  0.02086300  1
  O  O54  1  0.06514300  0.13161900  0.06438700  1
  O  O55  1  0.93485700  0.63161900  0.06438700  1
  O  O56  1  0.14569000  0.83495800  0.08858300  1
  O  O57  1  0.85431000  0.33495800  0.08858300  1
  O  O58  1  0.41755400  0.89282600  0.15934500  1
  O  O59  1  0.58244600  0.39282600  0.15934500  1
  O  O60  1  0.33283400  0.23053500  0.17608600  1
  O  O61  1  0.66716600  0.73053500  0.17608600  1
  O  O62  1  0.32690900  0.52328800  0.22267500  1
  O  O63  1  0.67309100  0.02328800  0.22267500  1
  O  O64  1  0.17309100  0.02328800  0.27732500  1
  O  O65  1  0.82690900  0.52328800  0.27732500  1
  O  O66  1  0.16716600  0.73053500  0.32391400  1
  O  O67  1  0.83283400  0.23053500  0.32391400  1
  O  O68  1  0.08244600  0.39282600  0.34065500  1
  O  O69  1  0.91755400  0.89282600  0.34065500  1
  O  O70  1  0.35431000  0.33495800  0.41141700  1
  O  O71  1  0.64569000  0.83495800  0.41141700  1
  O  O72  1  0.43485700  0.63161900  0.43561300  1
  O  O73  1  0.56514300  0.13161900  0.43561300  1
  O  O74  1  0.14363900  0.93202300  0.47913700  1
  O  O75  1  0.85636100  0.43202300  0.47913700  1
