# generated using pymatgen
data_Li2CrSiO4
_symmetry_space_group_name_H-M   'P 1'
_cell_length_a   11.31630000
_cell_length_b   5.22721000
_cell_length_c   7.83717198
_cell_angle_alpha   51.22305260
_cell_angle_beta   90.00000000
_cell_angle_gamma   90.00000000
_symmetry_Int_Tables_number   1
_chemical_formula_structural   Li2CrSiO4
_chemical_formula_sum   'Li8 Cr4 Si4 O16'
_cell_volume   361.40989912
_cell_formula_units_Z   4
loop_
 _symmetry_equiv_pos_site_id
 _symmetry_equiv_pos_as_xyz
  1  'x, y, z'
loop_
 _atom_site_type_symbol
 _atom_site_label
 _atom_site_symmetry_multiplicity
 _atom_site_fract_x
 _atom_site_fract_y
 _atom_site_fract_z
 _atom_site_occupancy
  Li  Li0  1  0.65751800  0.68488700  0.50107400  1
  Li  Li1  1  0.43235500  0.45980600  0.74691300  1
  Li  Li2  1  0.93235500  0.54019400  0.75308700  1
  Li  Li3  1  0.15751800  0.31511300  0.99892600  1
  Li  Li4  1  0.84248200  0.68488700  0.00107400  1
  Li  Li5  1  0.06764500  0.45980600  0.24691300  1
  Li  Li6  1  0.56764500  0.54019400  0.25308700  1
  Li  Li7  1  0.34248200  0.31511300  0.49892600  1
  Cr  Cr8  1  0.83104500  0.18213900  0.50793800  1
  Cr  Cr9  1  0.33104500  0.81786100  0.99206200  1
  Cr  Cr10  1  0.66895500  0.18213900  0.00793800  1
  Cr  Cr11  1  0.16895500  0.81786100  0.49206200  1
  Si  Si12  1  0.09209100  0.05774300  0.74783700  1
  Si  Si13  1  0.59209100  0.94225700  0.75216300  1
  Si  Si14  1  0.40790900  0.05774300  0.24783700  1
  Si  Si15  1  0.90790900  0.94225700  0.25216300  1
  O  O16  1  0.17074100  0.18281900  0.52725300  1
  O  O17  1  0.65582300  0.26602600  0.52698800  1
  O  O18  1  0.45890200  0.06167900  0.76060300  1
  O  O19  1  0.08651000  0.37003000  0.74940900  1
  O  O20  1  0.58651000  0.62997000  0.75059100  1
  O  O21  1  0.95890200  0.93832100  0.73939700  1
  O  O22  1  0.15582300  0.73397400  0.97301200  1
  O  O23  1  0.67074100  0.81718100  0.97274700  1
  O  O24  1  0.32925900  0.18281900  0.02725300  1
  O  O25  1  0.84417700  0.26602600  0.02698800  1
  O  O26  1  0.04109800  0.06167900  0.26060300  1
  O  O27  1  0.41349000  0.37003000  0.24940900  1
  O  O28  1  0.91349000  0.62997000  0.25059100  1
  O  O29  1  0.54109800  0.93832100  0.23939700  1
  O  O30  1  0.34417700  0.73397400  0.47301200  1
  O  O31  1  0.82925900  0.81718100  0.47274700  1
