# generated using pymatgen
data_Li5Fe8(BO3)8
_symmetry_space_group_name_H-M   'P 1'
_cell_length_a   5.25726100
_cell_length_b   8.98026779
_cell_length_c   10.34804215
_cell_angle_alpha   89.63170102
_cell_angle_beta   88.50897370
_cell_angle_gamma   89.81904486
_symmetry_Int_Tables_number   1
_chemical_formula_structural   Li5Fe8(BO3)8
_chemical_formula_sum   'Li5 Fe8 B8 O24'
_cell_volume   488.37005464
_cell_formula_units_Z   1
loop_
 _symmetry_equiv_pos_site_id
 _symmetry_equiv_pos_as_xyz
  1  'x, y, z'
loop_
 _atom_site_type_symbol
 _atom_site_label
 _atom_site_symmetry_multiplicity
 _atom_site_fract_x
 _atom_site_fract_y
 _atom_site_fract_z
 _atom_site_occupancy
  Li  Li0  1  0.66294000  0.98652700  0.83294400  1
  Li  Li1  1  0.34774800  0.98542300  0.08974800  1
  Li  Li2  1  0.16006500  0.49080100  0.84480800  1
  Li  Li3  1  0.65796000  0.01101300  0.33501600  1
  Li  Li4  1  0.34532900  0.00757600  0.58317500  1
  Fe  Fe5  1  0.84383900  0.82788200  0.11557500  1
  Fe  Fe6  1  0.15049200  0.81924300  0.36887300  1
  Fe  Fe7  1  0.66583500  0.65604700  0.87054600  1
  Fe  Fe8  1  0.34369000  0.66693900  0.62555500  1
  Fe  Fe9  1  0.66681300  0.34476300  0.36068200  1
  Fe  Fe10  1  0.84136800  0.18004100  0.61737200  1
  Fe  Fe11  1  0.33413600  0.34008700  0.11901600  1
  Fe  Fe12  1  0.15159000  0.15942900  0.87120500  1
  B  B13  1  0.83215300  0.83445700  0.62754000  1
  B  B14  1  0.66166800  0.67312800  0.37903300  1
  B  B15  1  0.16671600  0.83300300  0.87000600  1
  B  B16  1  0.34364100  0.67000400  0.12035500  1
  B  B17  1  0.66388300  0.32714700  0.87668100  1
  B  B18  1  0.34519500  0.32869400  0.62139200  1
  B  B19  1  0.82942300  0.16898000  0.12715200  1
  B  B20  1  0.17668700  0.16637300  0.36529900  1
  O  O21  1  0.70383700  0.96852500  0.63367600  1
  O  O22  1  0.90991300  0.83854600  0.90085300  1
  O  O23  1  0.31619700  0.95738800  0.88968500  1
  O  O24  1  0.77525800  0.80519500  0.33763200  1
  O  O25  1  0.70236200  0.70470200  0.65942500  1
  O  O26  1  0.21998800  0.79909600  0.16482600  1
  O  O27  1  0.09134100  0.82999300  0.59320700  1
  O  O28  1  0.58380000  0.68139100  0.06814800  1
  O  O29  1  0.78020900  0.53944100  0.35995400  1
  O  O30  1  0.41973300  0.68139100  0.43726600  1
  O  O31  1  0.27864400  0.70156400  0.82382200  1
  O  O32  1  0.80515200  0.45275300  0.86970500  1
  O  O33  1  0.22071600  0.53512900  0.12626200  1
  O  O34  1  0.70214100  0.30133500  0.15899100  1
  O  O35  1  0.57350700  0.31545000  0.55091100  1
  O  O36  1  0.24996100  0.46331700  0.65597500  1
  O  O37  1  0.40697100  0.32944400  0.92245100  1
  O  O38  1  0.91345100  0.17826300  0.39055700  1
  O  O39  1  0.76965800  0.19190200  0.83656800  1
  O  O40  1  0.30882000  0.29156500  0.31773200  1
  O  O41  1  0.22102400  0.19729000  0.66100800  1
  O  O42  1  0.70058500  0.03697100  0.13551700  1
  O  O43  1  0.08719000  0.17286700  0.08924200  1
  O  O44  1  0.30080300  0.03577100  0.38865700  1
