# generated using pymatgen
data_Li3Mn4(BO3)4
_symmetry_space_group_name_H-M   'P 1'
_cell_length_a   6.19275200
_cell_length_b   9.07713544
_cell_length_c   9.67224295
_cell_angle_alpha   78.03873525
_cell_angle_beta   80.14275177
_cell_angle_gamma   72.81904888
_symmetry_Int_Tables_number   1
_chemical_formula_structural   Li3Mn4(BO3)4
_chemical_formula_sum   'Li6 Mn8 B8 O24'
_cell_volume   504.63056954
_cell_formula_units_Z   2
loop_
 _symmetry_equiv_pos_site_id
 _symmetry_equiv_pos_as_xyz
  1  'x, y, z'
loop_
 _atom_site_type_symbol
 _atom_site_label
 _atom_site_symmetry_multiplicity
 _atom_site_fract_x
 _atom_site_fract_y
 _atom_site_fract_z
 _atom_site_occupancy
  Li  Li0  1  0.31921600  0.61873400  0.99885600  1
  Li  Li1  1  0.41387000  0.89270200  0.24251900  1
  Li  Li2  1  0.18577100  0.38216700  0.50012300  1
  Li  Li3  1  0.81422900  0.61783300  0.49987700  1
  Li  Li4  1  0.58613000  0.10729800  0.75748100  1
  Li  Li5  1  0.68078400  0.38126600  0.00114400  1
  Mn  Mn6  1  0.01205100  0.81218400  0.22331000  1
  Mn  Mn7  1  0.21830600  0.70743100  0.53338000  1
  Mn  Mn8  1  0.73522800  0.70888400  0.02072200  1
  Mn  Mn9  1  0.53532400  0.79555100  0.71630100  1
  Mn  Mn10  1  0.46467600  0.20444900  0.28369900  1
  Mn  Mn11  1  0.26477200  0.29111600  0.97927800  1
  Mn  Mn12  1  0.78169400  0.29256900  0.46662000  1
  Mn  Mn13  1  0.98794900  0.18781600  0.77669000  1
  B  B14  1  0.04739900  0.47038600  0.23232300  1
  B  B15  1  0.46609900  0.54074100  0.26926700  1
  B  B16  1  0.28656100  0.96054800  0.97037900  1
  B  B17  1  0.75759800  0.96670200  0.47733900  1
  B  B18  1  0.24240200  0.03329800  0.52266100  1
  B  B19  1  0.71343900  0.03945200  0.02962100  1
  B  B20  1  0.53390100  0.45925900  0.73073300  1
  B  B21  1  0.95260100  0.52961400  0.76767700  1
  O  O22  1  0.18667200  0.96568400  0.10678800  1
  O  O23  1  0.03876500  0.60585200  0.13151300  1
  O  O24  1  0.25462100  0.89414200  0.62241200  1
  O  O25  1  0.70337600  0.90011000  0.12368600  1
  O  O26  1  0.35507500  0.68012600  0.31988800  1
  O  O27  1  0.18637400  0.32838000  0.19280900  1
  O  O28  1  0.06661500  0.52601800  0.63283500  1
  O  O29  1  0.57056400  0.53559100  0.13219700  1
  O  O30  1  0.65275500  0.97707800  0.61333100  1
  O  O31  1  0.46134200  0.39884500  0.36336400  1
  O  O32  1  0.11376900  0.17614300  0.56059200  1
  O  O33  1  0.39606300  0.81839200  0.92259800  1
  O  O34  1  0.60393700  0.18160800  0.07740200  1
  O  O35  1  0.88623100  0.82385700  0.43940800  1
  O  O36  1  0.53865800  0.60115500  0.63663600  1
  O  O37  1  0.34724500  0.02292200  0.38666900  1
  O  O38  1  0.42943600  0.46440900  0.86780300  1
  O  O39  1  0.93338500  0.47398200  0.36716500  1
  O  O40  1  0.81362600  0.67162000  0.80719100  1
  O  O41  1  0.64492500  0.31987400  0.68011200  1
  O  O42  1  0.29662400  0.09989000  0.87631400  1
  O  O43  1  0.74537900  0.10585800  0.37758800  1
  O  O44  1  0.96123500  0.39414800  0.86848700  1
  O  O45  1  0.81332800  0.03431600  0.89321200  1
