# generated using pymatgen
data_Na8Li9(FeO4)4
_symmetry_space_group_name_H-M   'P 1'
_cell_length_a   6.64760900
_cell_length_b   8.04104603
_cell_length_c   8.25572646
_cell_angle_alpha   89.82535287
_cell_angle_beta   89.11346073
_cell_angle_gamma   89.67920507
_symmetry_Int_Tables_number   1
_chemical_formula_structural   Na8Li9(FeO4)4
_chemical_formula_sum   'Na8 Li9 Fe4 O16'
_cell_volume   441.23769582
_cell_formula_units_Z   1
loop_
 _symmetry_equiv_pos_site_id
 _symmetry_equiv_pos_as_xyz
  1  'x, y, z'
loop_
 _atom_site_type_symbol
 _atom_site_label
 _atom_site_symmetry_multiplicity
 _atom_site_fract_x
 _atom_site_fract_y
 _atom_site_fract_z
 _atom_site_occupancy
  Na  Na0  1  0.74494300  0.49726800  0.98835400  1
  Na  Na1  1  0.25211400  0.49641200  0.02532200  1
  Na  Na2  1  0.99028400  0.74328000  0.25063400  1
  Na  Na3  1  0.49342300  0.24552000  0.25100300  1
  Na  Na4  1  0.23802400  0.99857400  0.50909500  1
  Na  Na5  1  0.75790800  0.00305200  0.47475400  1
  Na  Na6  1  0.53178700  0.73681800  0.73558700  1
  Na  Na7  1  0.97278600  0.27525700  0.74806400  1
  Li  Li8  1  0.52004000  0.79014300  0.08390600  1
  Li  Li9  1  0.24983800  0.99086100  0.15562100  1
  Li  Li10  1  0.75462100  0.48605300  0.36290600  1
  Li  Li11  1  0.02354100  0.28642600  0.41111100  1
  Li  Li12  1  0.97947000  0.70677200  0.58214400  1
  Li  Li13  1  0.24965600  0.51113000  0.63996800  1
  Li  Li14  1  0.74468100  0.01387400  0.86061600  1
  Li  Li15  1  0.25990500  0.02206600  0.84934000  1
  Li  Li16  1  0.49539200  0.23298200  0.91774800  1
  Fe  Fe17  1  0.98391400  0.21561400  0.12291900  1
  Fe  Fe18  1  0.48562000  0.71860500  0.37526900  1
  Fe  Fe19  1  0.50683800  0.27716000  0.62565300  1
  Fe  Fe20  1  0.01214600  0.77639600  0.87628300  1
  O  O21  1  0.75872700  0.20877600  0.99076700  1
  O  O22  1  0.24326300  0.19283000  0.01690200  1
  O  O23  1  0.51265100  0.55318000  0.22263000  1
  O  O24  1  0.97581700  0.43032800  0.21738800  1
  O  O25  1  0.47590400  0.93002700  0.28933300  1
  O  O26  1  0.01971800  0.05818300  0.29055400  1
  O  O27  1  0.25196300  0.70358600  0.49349500  1
  O  O28  1  0.73811200  0.71013700  0.46508700  1
  O  O29  1  0.74263600  0.29214400  0.50946000  1
  O  O30  1  0.25415200  0.28915800  0.54474000  1
  O  O31  1  0.00587400  0.95429000  0.73569100  1
  O  O32  1  0.50899000  0.06187600  0.71995200  1
  O  O33  1  0.02667600  0.56904800  0.78981800  1
  O  O34  1  0.48844500  0.44472200  0.77538600  1
  O  O35  1  0.75723200  0.78687000  0.95566400  1
  O  O36  1  0.25008500  0.80620100  0.98451800  1
