# generated using pymatgen
data_LiNbFeO4
_symmetry_space_group_name_H-M   'P 1'
_cell_length_a   6.14204691
_cell_length_b   6.14339572
_cell_length_c   8.78482320
_cell_angle_alpha   89.93315571
_cell_angle_beta   90.07215678
_cell_angle_gamma   90.33135971
_symmetry_Int_Tables_number   1
_chemical_formula_structural   LiNbFeO4
_chemical_formula_sum   'Li4 Nb4 Fe4 O16'
_cell_volume   331.47192185
_cell_formula_units_Z   4
loop_
 _symmetry_equiv_pos_site_id
 _symmetry_equiv_pos_as_xyz
  1  'x, y, z'
loop_
 _atom_site_type_symbol
 _atom_site_label
 _atom_site_symmetry_multiplicity
 _atom_site_fract_x
 _atom_site_fract_y
 _atom_site_fract_z
 _atom_site_occupancy
  Li  Li0  1  0.99997600  0.23515800  0.99996100  1
  Li  Li1  1  0.00011500  0.76521600  0.49966100  1
  Li  Li2  1  0.23514200  0.99999000  0.25009500  1
  Li  Li3  1  0.76519000  0.00019000  0.75038000  1
  Nb  Nb4  1  0.25203000  0.25207900  0.62496500  1
  Nb  Nb5  1  0.25037400  0.74837200  0.87474600  1
  Nb  Nb6  1  0.74824500  0.25029400  0.37527800  1
  Nb  Nb7  1  0.74890400  0.74874500  0.12502300  1
  Fe  Fe8  1  0.50039300  0.75761100  0.49994700  1
  Fe  Fe9  1  0.75766300  0.50040100  0.75001100  1
  Fe  Fe10  1  0.24213300  0.50051600  0.24990300  1
  Fe  Fe11  1  0.50043900  0.24212400  0.00011900  1
  O  O12  1  0.99898500  0.25203200  0.25411700  1
  O  O13  1  0.00196900  0.74484300  0.24596600  1
  O  O14  1  0.25263700  0.99938200  0.99586500  1
  O  O15  1  0.25111300  0.00157100  0.50392700  1
  O  O16  1  0.74520500  0.00141400  0.00400700  1
  O  O17  1  0.74388800  0.99681200  0.49649100  1
  O  O18  1  0.00154900  0.25114300  0.74605500  1
  O  O19  1  0.99687100  0.74389900  0.75351900  1
  O  O20  1  0.25701300  0.49770600  0.00177400  1
  O  O21  1  0.25779300  0.50384200  0.49773600  1
  O  O22  1  0.49724200  0.25752600  0.24826800  1
  O  O23  1  0.49933600  0.74588400  0.25146100  1
  O  O24  1  0.50383700  0.25775000  0.75216300  1
  O  O25  1  0.49967200  0.74690400  0.74829800  1
  O  O26  1  0.74704800  0.49965000  0.50167800  1
  O  O27  1  0.74523900  0.49894500  0.99858300  1
