# generated using pymatgen
data_Li2CoP2O7
_symmetry_space_group_name_H-M   'P 1'
_cell_length_a   5.07483140
_cell_length_b   8.82301196
_cell_length_c   13.29393763
_cell_angle_alpha   108.97349520
_cell_angle_beta   91.38873768
_cell_angle_gamma   73.56502588
_symmetry_Int_Tables_number   1
_chemical_formula_structural   Li2CoP2O7
_chemical_formula_sum   'Li8 Co4 P8 O28'
_cell_volume   538.39246305
_cell_formula_units_Z   4
loop_
 _symmetry_equiv_pos_site_id
 _symmetry_equiv_pos_as_xyz
  1  'x, y, z'
loop_
 _atom_site_type_symbol
 _atom_site_label
 _atom_site_symmetry_multiplicity
 _atom_site_fract_x
 _atom_site_fract_y
 _atom_site_fract_z
 _atom_site_occupancy
  Li  Li0  1  0.42895800  0.01069700  0.33888700  1
  Li  Li1  1  0.92879500  0.01114700  0.83869100  1
  Li  Li2  1  0.57109800  0.98924000  0.66115000  1
  Li  Li3  1  0.07116300  0.98886000  0.16132600  1
  Li  Li4  1  0.11958900  0.75664300  0.55660100  1
  Li  Li5  1  0.61964900  0.75633400  0.05656800  1
  Li  Li6  1  0.88005700  0.24340200  0.44333900  1
  Li  Li7  1  0.38016300  0.24374800  0.94337700  1
  Co  Co8  1  0.39710700  0.33728100  0.58738600  1
  Co  Co9  1  0.60296800  0.66264900  0.41265900  1
  Co  Co10  1  0.89735600  0.33543900  0.08683800  1
  Co  Co11  1  0.10267500  0.66427000  0.91320500  1
  P  P12  1  0.21673200  0.39240100  0.37086000  1
  P  P13  1  0.71622500  0.39325100  0.87097100  1
  P  P14  1  0.78333300  0.60753900  0.62917400  1
  P  P15  1  0.28385400  0.60676400  0.12897600  1
  P  P16  1  0.48099000  0.14493900  0.14970800  1
  P  P17  1  0.98096900  0.14539500  0.64960000  1
  P  P18  1  0.51890500  0.85511200  0.85032900  1
  P  P19  1  0.01911300  0.85455900  0.35036600  1
  O  O20  1  0.90260500  0.43747400  0.36627300  1
  O  O21  1  0.40209700  0.43780400  0.86612100  1
  O  O22  1  0.09741800  0.56236200  0.63382800  1
  O  O23  1  0.59801100  0.56220400  0.13389200  1
  O  O24  1  0.32031100  0.54193100  0.42433300  1
  O  O25  1  0.82032100  0.54252600  0.92449500  1
  O  O26  1  0.67956900  0.45809400  0.57567700  1
  O  O27  1  0.17986700  0.45751800  0.07526600  1
  O  O28  1  0.31440500  0.25431300  0.42424000  1
  O  O29  1  0.81364200  0.25516000  0.92452400  1
  O  O30  1  0.68603900  0.74558800  0.57573900  1
  O  O31  1  0.18633700  0.74507000  0.07556700  1
  O  O32  1  0.23367300  0.84002300  0.87288600  1
  O  O33  1  0.73379900  0.83940300  0.37284100  1
  O  O34  1  0.76615600  0.16008700  0.12714800  1
  O  O35  1  0.26632800  0.16053600  0.62718600  1
  O  O36  1  0.99114000  0.99363000  0.68367500  1
  O  O37  1  0.49143800  0.99315000  0.18370500  1
  O  O38  1  0.00883900  0.00637100  0.31632100  1
  O  O39  1  0.50853600  0.00688900  0.81630900  1
  O  O40  1  0.34539500  0.31374000  0.25024900  1
  O  O41  1  0.84536900  0.31429700  0.75029200  1
  O  O42  1  0.65442800  0.68632100  0.74975600  1
  O  O43  1  0.15455800  0.68568100  0.24964500  1
  O  O44  1  0.21370900  0.84635100  0.43956600  1
  O  O45  1  0.71367100  0.84660600  0.93940900  1
  O  O46  1  0.78645800  0.15363400  0.56038300  1
  O  O47  1  0.28618200  0.15356700  0.06065800  1
