# generated using pymatgen
data_Li5FeO3F2
_symmetry_space_group_name_H-M   'P 1'
_cell_length_a   5.34125710
_cell_length_b   5.34125710
_cell_length_c   6.04861763
_cell_angle_alpha   70.65149356
_cell_angle_beta   70.65149356
_cell_angle_gamma   42.61820997
_symmetry_Int_Tables_number   1
_chemical_formula_structural   Li5FeO3F2
_chemical_formula_sum   'Li5 Fe1 O3 F2'
_cell_volume   109.20465777
_cell_formula_units_Z   1
loop_
 _symmetry_equiv_pos_site_id
 _symmetry_equiv_pos_as_xyz
  1  'x, y, z'
loop_
 _atom_site_type_symbol
 _atom_site_label
 _atom_site_symmetry_multiplicity
 _atom_site_fract_x
 _atom_site_fract_y
 _atom_site_fract_z
 _atom_site_occupancy
  Li  Li0  1  0.31609200  0.31609200  0.86430400  1
  Li  Li1  1  0.31566700  0.31566700  0.34946800  1
  Li  Li2  1  0.71072100  0.71072100  0.68891500  1
  Li  Li3  1  0.68478800  0.68478800  0.13173000  1
  Li  Li4  1  0.01968000  0.01968000  0.52832400  1
  Fe  Fe5  1  0.00383900  0.00383900  0.97657200  1
  O  O6  1  0.85828400  0.85828400  0.83444200  1
  O  O7  1  0.50610100  0.50610100  0.05727200  1
  O  O8  1  0.16700500  0.16700500  0.68547400  1
  F  F9  1  0.83693800  0.83693800  0.34646700  1
  F  F10  1  0.16335700  0.16335700  0.20643600  1
