# generated using pymatgen
data_Li32Ti13Cr3O48
_symmetry_space_group_name_H-M   'P 1'
_cell_length_a   5.09105700
_cell_length_b   8.81240898
_cell_length_c   19.60622435
_cell_angle_alpha   98.30384554
_cell_angle_beta   94.92536147
_cell_angle_gamma   89.79577417
_symmetry_Int_Tables_number   1
_chemical_formula_structural   Li32Ti13Cr3O48
_chemical_formula_sum   'Li32 Ti13 Cr3 O48'
_cell_volume   867.15223002
_cell_formula_units_Z   1
loop_
 _symmetry_equiv_pos_site_id
 _symmetry_equiv_pos_as_xyz
  1  'x, y, z'
loop_
 _atom_site_type_symbol
 _atom_site_label
 _atom_site_symmetry_multiplicity
 _atom_site_fract_x
 _atom_site_fract_y
 _atom_site_fract_z
 _atom_site_occupancy
  Li  Li0  1  0.99301400  0.16755400  0.25035200  1
  Li  Li1  1  0.87521100  0.37511500  0.37500800  1
  Li  Li2  1  0.74960800  0.24995000  0.99997400  1
  Li  Li3  1  0.74283100  0.91883500  0.99979300  1
  Li  Li4  1  0.99229700  0.16925800  0.74944300  1
  Li  Li5  1  0.75617300  0.58016400  0.49941900  1
  Li  Li6  1  0.87500100  0.37514500  0.87491100  1
  Li  Li7  1  0.75310000  0.24825400  0.49971800  1
  Li  Li8  1  0.74141400  0.92112000  0.49934500  1
  Li  Li9  1  0.62498000  0.12500700  0.12504100  1
  Li  Li10  1  0.75629000  0.58059500  0.99946800  1
  Li  Li11  1  0.50770900  0.33237500  0.24992000  1
  Li  Li12  1  0.62572600  0.12575800  0.62474000  1
  Li  Li13  1  0.50126000  0.99902900  0.25009700  1
  Li  Li14  1  0.48956200  0.66770400  0.24951200  1
  Li  Li15  1  0.50456000  0.33038000  0.74953500  1
  Li  Li16  1  0.37512900  0.87645000  0.37500300  1
  Li  Li17  1  0.49952000  0.00008900  0.74993600  1
  Li  Li18  1  0.24844500  0.75076700  0.00012000  1
  Li  Li19  1  0.49199400  0.66918300  0.74973200  1
  Li  Li20  1  0.24377400  0.41948600  0.00058500  1
  Li  Li21  1  0.37497500  0.87420600  0.87505900  1
  Li  Li22  1  0.25497600  0.08002800  0.50022900  1
  Li  Li23  1  0.25196500  0.74930100  0.50016600  1
  Li  Li24  1  0.12487100  0.62510900  0.12511600  1
  Li  Li25  1  0.24282300  0.42088100  0.50109100  1
  Li  Li26  1  0.00921400  0.83337300  0.25109200  1
  Li  Li27  1  0.25862500  0.08051600  0.00015700  1
  Li  Li28  1  0.12548600  0.62325300  0.62514400  1
  Li  Li29  1  0.00022000  0.50008300  0.25023400  1
  Li  Li30  1  0.00916900  0.83104900  0.75046700  1
  Li  Li31  1  0.00231400  0.49958400  0.74970400  1
  Ti  Ti32  1  0.87282500  0.71107200  0.37483400  1
  Ti  Ti33  1  0.87707500  0.03967100  0.87529500  1
  Ti  Ti34  1  0.62675200  0.79139000  0.12512600  1
  Ti  Ti35  1  0.62413400  0.45866900  0.12507800  1
  Ti  Ti36  1  0.62401600  0.79177800  0.62504200  1
  Ti  Ti37  1  0.62516800  0.45871500  0.62622900  1
  Ti  Ti38  1  0.37560500  0.54026600  0.37512500  1
  Ti  Ti39  1  0.37504400  0.20381000  0.37494500  1
  Ti  Ti40  1  0.37584400  0.54572200  0.87496000  1
  Ti  Ti41  1  0.37411900  0.20958800  0.87473000  1
  Ti  Ti42  1  0.12399300  0.95860600  0.12530800  1
  Ti  Ti43  1  0.12648500  0.29115100  0.12528200  1
  Ti  Ti44  1  0.11926500  0.95944200  0.62341300  1
  Cr  Cr45  1  0.87663700  0.04380000  0.37534600  1
  Cr  Cr46  1  0.87316100  0.70663600  0.87464400  1
  Cr  Cr47  1  0.12996200  0.29025200  0.62463600  1
  O  O48  1  0.96253500  0.10641600  0.06833200  1
  O  O49  1  0.92899000  0.78427000  0.06858600  1
  O  O50  1  0.92763000  0.42772400  0.06725000  1
  O  O51  1  0.95975000  0.10566700  0.56821500  1
  O  O52  1  0.82146400  0.96574700  0.18170600  1
  O  O53  1  0.82263600  0.32234500  0.18287100  1
  O  O54  1  0.92904500  0.78519700  0.56818900  1
  O  O55  1  0.93005700  0.42524100  0.56805400  1
  O  O56  1  0.78720600  0.64351200  0.18177900  1
  O  O57  1  0.71312800  0.86072500  0.31940500  1
  O  O58  1  0.82149500  0.96579200  0.68178800  1
  O  O59  1  0.82665900  0.32020200  0.68163700  1
  O  O60  1  0.67874100  0.53539900  0.31831800  1
  O  O61  1  0.68339300  0.17434800  0.31797800  1
  O  O62  1  0.78694900  0.64292400  0.68169900  1
  O  O63  1  0.71346300  0.85299600  0.81917100  1
  O  O64  1  0.46148500  0.60643300  0.06818900  1
  O  O65  1  0.57157300  0.71568700  0.43167100  1
  O  O66  1  0.56932100  0.07222800  0.43325400  1
  O  O67  1  0.68358000  0.53739900  0.81879700  1
  O  O68  1  0.67723300  0.17634300  0.81683600  1
  O  O69  1  0.42718500  0.92764300  0.06723000  1
  O  O70  1  0.42853300  0.28428400  0.06843500  1
  O  O71  1  0.53617700  0.39264800  0.43202900  1
  O  O72  1  0.46417000  0.60570100  0.56802600  1
  O  O73  1  0.56973800  0.71572000  0.93177700  1
  O  O74  1  0.57290700  0.07261100  0.93281300  1
  O  O75  1  0.32321100  0.82243600  0.18294300  1
  O  O76  1  0.32171400  0.46576400  0.18176200  1
  O  O77  1  0.42719000  0.92777700  0.56709100  1
  O  O78  1  0.41883400  0.28314600  0.56878600  1
  O  O79  1  0.53601900  0.39406000  0.93180800  1
  O  O80  1  0.28845500  0.14352300  0.18190100  1
  O  O81  1  0.21393900  0.35581300  0.31850000  1
  O  O82  1  0.32401500  0.82376900  0.68282500  1
  O  O83  1  0.32524800  0.46650300  0.68179400  1
  O  O84  1  0.17699700  0.67760300  0.31726600  1
  O  O85  1  0.18164100  0.03404800  0.31816300  1
  O  O86  1  0.28648600  0.14817700  0.68091500  1
  O  O87  1  0.21359600  0.35697900  0.81817700  1
  O  O88  1  0.07202700  0.57357800  0.43298600  1
  O  O89  1  0.06405600  0.21168800  0.43074400  1
  O  O90  1  0.17959500  0.67786100  0.81689700  1
  O  O91  1  0.17808600  0.03456000  0.81797300  1
  O  O92  1  0.03643900  0.89705800  0.43076600  1
  O  O93  1  0.06709100  0.57557300  0.93192800  1
  O  O94  1  0.07077500  0.21445900  0.93174400  1
  O  O95  1  0.03722600  0.89025900  0.93089300  1
