# generated using pymatgen
data_Na5LiFe2P2(CO7)2
_symmetry_space_group_name_H-M   'P 1'
_cell_length_a   6.61630800
_cell_length_b   8.98314500
_cell_length_c   10.38656772
_cell_angle_alpha   88.98189590
_cell_angle_beta   90.00000000
_cell_angle_gamma   90.00000000
_symmetry_Int_Tables_number   1
_chemical_formula_structural   Na5LiFe2P2(CO7)2
_chemical_formula_sum   'Na10 Li2 Fe4 P4 C4 O28'
_cell_volume   617.23083479
_cell_formula_units_Z   2
loop_
 _symmetry_equiv_pos_site_id
 _symmetry_equiv_pos_as_xyz
  1  'x, y, z'
loop_
 _atom_site_type_symbol
 _atom_site_label
 _atom_site_symmetry_multiplicity
 _atom_site_fract_x
 _atom_site_fract_y
 _atom_site_fract_z
 _atom_site_occupancy
  Na  Na0  1  0.24968800  0.08301400  0.88092100  1
  Na  Na1  1  0.25225200  0.08271200  0.37955600  1
  Na  Na2  1  0.00077900  0.26080500  0.62417800  1
  Na  Na3  1  0.49897300  0.26051100  0.62443100  1
  Na  Na4  1  0.00169900  0.26014100  0.12462200  1
  Na  Na5  1  0.50169900  0.73985900  0.87537800  1
  Na  Na6  1  0.50077900  0.73919500  0.37582200  1
  Na  Na7  1  0.99897300  0.73948900  0.37556900  1
  Na  Na8  1  0.75225200  0.91728800  0.62044400  1
  Na  Na9  1  0.74968800  0.91698600  0.11907900  1
  Li  Li10  1  0.49621200  0.26888600  0.12311100  1
  Li  Li11  1  0.99621200  0.73111400  0.87688900  1
  Fe  Fe12  1  0.74791700  0.35538000  0.89353000  1
  Fe  Fe13  1  0.74975200  0.35543200  0.39141700  1
  Fe  Fe14  1  0.24975200  0.64456800  0.60858300  1
  Fe  Fe15  1  0.24791700  0.64462000  0.10647000  1
  P  P16  1  0.24610200  0.41576800  0.85105500  1
  P  P17  1  0.25265900  0.41202200  0.34895200  1
  P  P18  1  0.75265900  0.58797800  0.65104800  1
  P  P19  1  0.74610200  0.58423200  0.14894500  1
  C  C20  1  0.75458500  0.05652400  0.86679500  1
  C  C21  1  0.74786000  0.06055900  0.36468700  1
  C  C22  1  0.24786000  0.93944100  0.63531300  1
  C  C23  1  0.25458500  0.94347600  0.13320500  1
  O  O24  1  0.24974700  0.08262600  0.64308900  1
  O  O25  1  0.26633800  0.08739700  0.13979600  1
  O  O26  1  0.74873800  0.12131700  0.97852300  1
  O  O27  1  0.75012500  0.12331700  0.47742600  1
  O  O28  1  0.74794300  0.13944400  0.76253500  1
  O  O29  1  0.74416200  0.14484500  0.26097200  1
  O  O30  1  0.05986300  0.31904900  0.89128200  1
  O  O31  1  0.43455500  0.32444500  0.89727000  1
  O  O32  1  0.06272500  0.31839100  0.38821100  1
  O  O33  1  0.43815700  0.31798500  0.39428000  1
  O  O34  1  0.25182100  0.43265000  0.70138100  1
  O  O35  1  0.74989400  0.43362900  0.58815500  1
  O  O36  1  0.26082200  0.42916400  0.19865200  1
  O  O37  1  0.73663200  0.42741300  0.08917600  1
  O  O38  1  0.23663200  0.57258700  0.91082400  1
  O  O39  1  0.76082200  0.57083600  0.80134800  1
  O  O40  1  0.24989400  0.56637100  0.41184500  1
  O  O41  1  0.75182100  0.56735000  0.29861900  1
  O  O42  1  0.56272500  0.68160900  0.61178900  1
  O  O43  1  0.93815700  0.68201500  0.60572000  1
  O  O44  1  0.55986300  0.68095100  0.10871800  1
  O  O45  1  0.93455500  0.67555500  0.10273000  1
  O  O46  1  0.24416200  0.85515500  0.73902800  1
  O  O47  1  0.24794300  0.86055600  0.23746500  1
  O  O48  1  0.25012500  0.87668300  0.52257400  1
  O  O49  1  0.24873800  0.87868300  0.02147700  1
  O  O50  1  0.76633800  0.91260300  0.86020400  1
  O  O51  1  0.74974700  0.91737400  0.35691100  1
