# generated using pymatgen
data_Li7MgNi7O16
_symmetry_space_group_name_H-M   'P 1'
_cell_length_a   7.57737181
_cell_length_b   7.57737181
_cell_length_c   4.99618959
_cell_angle_alpha   77.39396365
_cell_angle_beta   77.39396365
_cell_angle_gamma   98.37072707
_symmetry_Int_Tables_number   1
_chemical_formula_structural   Li7MgNi7O16
_chemical_formula_sum   'Li7 Mg1 Ni7 O16'
_cell_volume   267.51919110
_cell_formula_units_Z   1
loop_
 _symmetry_equiv_pos_site_id
 _symmetry_equiv_pos_as_xyz
  1  'x, y, z'
loop_
 _atom_site_type_symbol
 _atom_site_label
 _atom_site_symmetry_multiplicity
 _atom_site_fract_x
 _atom_site_fract_y
 _atom_site_fract_z
 _atom_site_occupancy
  Li  Li0  1  0.50262000  0.00232600  0.50098000  1
  Li  Li1  1  0.23984600  0.24352000  0.52751200  1
  Li  Li2  1  0.88070200  0.11929800  0.50000000  1
  Li  Li3  1  0.99767400  0.49738000  0.49902000  1
  Li  Li4  1  0.62183300  0.37816700  0.50000000  1
  Li  Li5  1  0.37916400  0.62083600  0.50000000  1
  Li  Li6  1  0.75648000  0.76015400  0.47248800  1
  Mg  Mg7  1  0.11785100  0.88214900  0.50000000  1
  Ni  Ni8  1  0.36864500  0.12360200  0.00098500  1
  Ni  Ni9  1  0.74889700  0.25110300  0.00000000  1
  Ni  Ni10  1  0.12151800  0.36969000  0.99798300  1
  Ni  Ni11  1  0.50111900  0.49888100  0.00000000  1
  Ni  Ni12  1  0.87639800  0.63135500  0.99901500  1
  Ni  Ni13  1  0.24967100  0.75032900  0.00000000  1
  Ni  Ni14  1  0.63031000  0.87848200  0.00201700  1
  O  O15  1  0.73251500  0.01460200  0.22675200  1
  O  O16  1  0.15004800  0.13494200  0.24980100  1
  O  O17  1  0.61962800  0.12659700  0.78666100  1
  O  O18  1  0.51627400  0.26208600  0.21822300  1
  O  O19  1  0.25583100  0.50578200  0.20892600  1
  O  O20  1  0.36276900  0.36453300  0.76520400  1
  O  O21  1  0.87340300  0.38037200  0.21333900  1
  O  O22  1  0.98539800  0.26748500  0.77324800  1
  O  O23  1  0.63546700  0.63723100  0.23479600  1
  O  O24  1  0.12745200  0.63628600  0.77380600  1
  O  O25  1  0.02313700  0.73555100  0.23908200  1
  O  O26  1  0.73791400  0.48372600  0.78177700  1
  O  O27  1  0.36371400  0.87254800  0.22619400  1
  O  O28  1  0.49421800  0.74416900  0.79107400  1
  O  O29  1  0.26444900  0.97686300  0.76091800  1
  O  O30  1  0.86505800  0.84995200  0.75019900  1
