# generated using pymatgen
data_Li8Mn7Fe(BO3)8
_symmetry_space_group_name_H-M   'P 1'
_cell_length_a   5.28298300
_cell_length_b   6.06050722
_cell_length_c   17.71057334
_cell_angle_alpha   83.21340804
_cell_angle_beta   81.44886821
_cell_angle_gamma   66.57576590
_symmetry_Int_Tables_number   1
_chemical_formula_structural   Li8Mn7Fe(BO3)8
_chemical_formula_sum   'Li8 Mn7 Fe1 B8 O24'
_cell_volume   513.44163773
_cell_formula_units_Z   1
loop_
 _symmetry_equiv_pos_site_id
 _symmetry_equiv_pos_as_xyz
  1  'x, y, z'
loop_
 _atom_site_type_symbol
 _atom_site_label
 _atom_site_symmetry_multiplicity
 _atom_site_fract_x
 _atom_site_fract_y
 _atom_site_fract_z
 _atom_site_occupancy
  Li  Li0  1  0.09747300  0.90524100  0.76701700  1
  Li  Li1  1  0.90276200  0.59466400  0.73289100  1
  Li  Li2  1  0.40245700  0.84490200  0.48269800  1
  Li  Li3  1  0.59673100  0.65658200  0.01746700  1
  Li  Li4  1  0.40372600  0.34419400  0.98358900  1
  Li  Li5  1  0.59728100  0.15541000  0.51693300  1
  Li  Li6  1  0.09950400  0.40332500  0.26630900  1
  Li  Li7  1  0.90383700  0.09479400  0.23301400  1
  Mn  Mn8  1  0.54700400  0.91199200  0.85303600  1
  Mn  Mn9  1  0.95334100  0.83732500  0.39691900  1
  Mn  Mn10  1  0.95376200  0.33814100  0.89667100  1
  Mn  Mn11  1  0.45346900  0.58794200  0.64675800  1
  Mn  Mn12  1  0.54701300  0.41234300  0.35294900  1
  Mn  Mn13  1  0.04316500  0.66700800  0.10431600  1
  Mn  Mn14  1  0.04685900  0.16171600  0.60311500  1
  Fe  Fe15  1  0.44859700  0.09077600  0.14540100  1
  B  B16  1  0.94044500  0.69613400  0.56635300  1
  B  B17  1  0.44262100  0.94611900  0.31542100  1
  B  B18  1  0.05939000  0.80314200  0.93393500  1
  B  B19  1  0.44073600  0.44614400  0.81633600  1
  B  B20  1  0.55806000  0.55535100  0.18360200  1
  B  B21  1  0.93915300  0.19431300  0.06720600  1
  B  B22  1  0.55954100  0.05373300  0.68367700  1
  B  B23  1  0.05946400  0.30367300  0.43364200  1
  O  O24  1  0.72955600  0.96118200  0.74155100  1
  O  O25  1  0.83115000  0.74361200  0.93275600  1
  O  O26  1  0.33169000  0.99338500  0.68284800  1
  O  O27  1  0.12307000  0.95169200  0.87376400  1
  O  O28  1  0.77035600  0.78875100  0.50851400  1
  O  O29  1  0.22782700  0.70994200  0.99211200  1
  O  O30  1  0.87782000  0.54741200  0.62665300  1
  O  O31  1  0.37638000  0.79948000  0.37590400  1
  O  O32  1  0.66868600  0.50645100  0.81720100  1
  O  O33  1  0.16836200  0.75652200  0.56718000  1
  O  O34  1  0.62107800  0.70488200  0.12370200  1
  O  O35  1  0.27053800  0.53855500  0.75854400  1
  O  O36  1  0.72916000  0.46126200  0.24124400  1
  O  O37  1  0.37798400  0.29775400  0.87679600  1
  O  O38  1  0.83116900  0.24405300  0.43277500  1
  O  O39  1  0.33076400  0.49473200  0.18250900  1
  O  O40  1  0.62228100  0.20242100  0.62339300  1
  O  O41  1  0.12299200  0.45170900  0.37323700  1
  O  O42  1  0.77357400  0.28993100  0.00865700  1
  O  O43  1  0.22930000  0.21127300  0.49155800  1
  O  O44  1  0.86752300  0.05100800  0.12752500  1
  O  O45  1  0.67038500  0.00610100  0.31718400  1
  O  O46  1  0.17463200  0.24556100  0.06856900  1
  O  O47  1  0.27733200  0.03736700  0.25657000  1
