# generated using pymatgen
data_Li2Sn(PO3)5
_symmetry_space_group_name_H-M   'P 1'
_cell_length_a   13.76055800
_cell_length_b   5.41733200
_cell_length_c   8.98490562
_cell_angle_alpha   77.55170975
_cell_angle_beta   90.00000000
_cell_angle_gamma   90.00000000
_symmetry_Int_Tables_number   1
_chemical_formula_structural   Li2Sn(PO3)5
_chemical_formula_sum   'Li4 Sn2 P10 O30'
_cell_volume   654.03838608
_cell_formula_units_Z   2
loop_
 _symmetry_equiv_pos_site_id
 _symmetry_equiv_pos_as_xyz
  1  'x, y, z'
loop_
 _atom_site_type_symbol
 _atom_site_label
 _atom_site_symmetry_multiplicity
 _atom_site_fract_x
 _atom_site_fract_y
 _atom_site_fract_z
 _atom_site_occupancy
  Li  Li0  1  0.87187100  0.94245300  0.07873600  1
  Li  Li1  1  0.62812900  0.94245300  0.07873600  1
  Li  Li2  1  0.37187100  0.05754700  0.92126400  1
  Li  Li3  1  0.12812900  0.05754700  0.92126400  1
  Sn  Sn4  1  0.00000000  0.50000000  0.50000000  1
  Sn  Sn5  1  0.50000000  0.50000000  0.50000000  1
  P  P6  1  0.35584500  0.00702300  0.48399000  1
  P  P7  1  0.14415500  0.00702300  0.48399000  1
  P  P8  1  0.92108900  0.66590800  0.82105800  1
  P  P9  1  0.57891100  0.66590800  0.82105800  1
  P  P10  1  0.25000000  0.54130300  0.98581600  1
  P  P11  1  0.75000000  0.45869700  0.01418400  1
  P  P12  1  0.42108900  0.33409200  0.17894200  1
  P  P13  1  0.07891100  0.33409200  0.17894200  1
  P  P14  1  0.64415500  0.99297700  0.51601000  1
  P  P15  1  0.85584500  0.99297700  0.51601000  1
  O  O16  1  0.75000000  0.92533900  0.46251100  1
  O  O17  1  0.95659200  0.81991000  0.92913700  1
  O  O18  1  0.54340800  0.81991000  0.92913700  1
  O  O19  1  0.25000000  0.80256700  0.88691200  1
  O  O20  1  0.85591500  0.84505000  0.68997200  1
  O  O21  1  0.64408500  0.84505000  0.68997200  1
  O  O22  1  0.92538400  0.87657400  0.41943200  1
  O  O23  1  0.57461600  0.87657400  0.41943200  1
  O  O24  1  0.36249400  0.72755200  0.49034100  1
  O  O25  1  0.13750600  0.72755200  0.49034100  1
  O  O26  1  0.84141500  0.46022400  0.89776800  1
  O  O27  1  0.65858500  0.46022400  0.89776800  1
  O  O28  1  0.99424000  0.52444400  0.74487900  1
  O  O29  1  0.50576000  0.52444400  0.74487900  1
  O  O30  1  0.75000000  0.69663800  0.07475800  1
  O  O31  1  0.25000000  0.30336200  0.92524200  1
  O  O32  1  0.00576000  0.47555600  0.25512100  1
  O  O33  1  0.49424000  0.47555600  0.25512100  1
  O  O34  1  0.34141500  0.53977600  0.10223200  1
  O  O35  1  0.15858500  0.53977600  0.10223200  1
  O  O36  1  0.86249400  0.27244800  0.50965900  1
  O  O37  1  0.63750600  0.27244800  0.50965900  1
  O  O38  1  0.42538400  0.12342600  0.58056800  1
  O  O39  1  0.07461600  0.12342600  0.58056800  1
  O  O40  1  0.35591500  0.15495000  0.31002800  1
  O  O41  1  0.14408500  0.15495000  0.31002800  1
  O  O42  1  0.75000000  0.19743300  0.11308800  1
  O  O43  1  0.45659200  0.18009000  0.07086300  1
  O  O44  1  0.04340800  0.18009000  0.07086300  1
  O  O45  1  0.25000000  0.07466100  0.53748900  1
