# generated using pymatgen
data_Li2VCr3O8
_symmetry_space_group_name_H-M   'P 1'
_cell_length_a   5.24035900
_cell_length_b   7.81963962
_cell_length_c   7.84151255
_cell_angle_alpha   94.63498263
_cell_angle_beta   95.13423881
_cell_angle_gamma   109.27245414
_symmetry_Int_Tables_number   1
_chemical_formula_structural   Li2VCr3O8
_chemical_formula_sum   'Li4 V2 Cr6 O16'
_cell_volume   300.01511786
_cell_formula_units_Z   2
loop_
 _symmetry_equiv_pos_site_id
 _symmetry_equiv_pos_as_xyz
  1  'x, y, z'
loop_
 _atom_site_type_symbol
 _atom_site_label
 _atom_site_symmetry_multiplicity
 _atom_site_fract_x
 _atom_site_fract_y
 _atom_site_fract_z
 _atom_site_occupancy
  Li  Li0  1  0.01222100  0.00583000  0.99397900  1
  Li  Li1  1  0.25204900  0.23515200  0.74787200  1
  Li  Li2  1  0.51003200  0.51020500  0.51444700  1
  Li  Li3  1  0.75992100  0.76102400  0.26138100  1
  V  V4  1  0.94079600  0.42419600  0.31242600  1
  V  V5  1  0.20301800  0.68249400  0.05553200  1
  Cr  Cr6  1  0.79270400  0.31692900  0.93572900  1
  Cr  Cr7  1  0.69872800  0.17978800  0.56380300  1
  Cr  Cr8  1  0.54358700  0.06392300  0.18832800  1
  Cr  Cr9  1  0.04844400  0.56873700  0.68432300  1
  Cr  Cr10  1  0.45258400  0.93349600  0.80935300  1
  Cr  Cr11  1  0.29999300  0.81604400  0.43667500  1
  O  O12  1  0.42707900  0.14418500  0.96520300  1
  O  O13  1  0.33130900  0.03006200  0.60509600  1
  O  O14  1  0.67786900  0.39462900  0.71487000  1
  O  O15  1  0.59049200  0.29105600  0.35005000  1
  O  O16  1  0.07463100  0.77539500  0.86592900  1
  O  O17  1  0.91615400  0.63509300  0.45677700  1
  O  O18  1  0.84225500  0.53667100  0.11383200  1
  O  O19  1  0.82855900  0.10721300  0.78794600  1
  O  O20  1  0.16698400  0.88745300  0.20477800  1
  O  O21  1  0.17814300  0.48322500  0.90592700  1
  O  O22  1  0.07807300  0.36154200  0.51911700  1
  O  O23  1  0.92725000  0.23109200  0.15644000  1
  O  O24  1  0.41574300  0.71838300  0.64288300  1
  O  O25  1  0.30915400  0.59729900  0.27395100  1
  O  O26  1  0.66574800  0.96864700  0.39271200  1
  O  O27  1  0.55647600  0.84023500  0.04064200  1
