# generated using pymatgen
data_LiMn2(BO3)2
_symmetry_space_group_name_H-M   'P 1'
_cell_length_a   5.23663000
_cell_length_b   9.08575485
_cell_length_c   10.34468400
_cell_angle_alpha   88.52475038
_cell_angle_beta   89.33548330
_cell_angle_gamma   88.50569848
_symmetry_Int_Tables_number   1
_chemical_formula_structural   LiMn2(BO3)2
_chemical_formula_sum   'Li4 Mn8 B8 O24'
_cell_volume   491.82712658
_cell_formula_units_Z   4
loop_
 _symmetry_equiv_pos_site_id
 _symmetry_equiv_pos_as_xyz
  1  'x, y, z'
loop_
 _atom_site_type_symbol
 _atom_site_label
 _atom_site_symmetry_multiplicity
 _atom_site_fract_x
 _atom_site_fract_y
 _atom_site_fract_z
 _atom_site_occupancy
  Li  Li0  1  0.05517200  0.06673100  0.31830500  1
  Li  Li1  1  0.11112900  0.07406000  0.85076700  1
  Li  Li2  1  0.41343000  0.42093700  0.06168100  1
  Li  Li3  1  0.40908300  0.43704700  0.59906700  1
  Mn  Mn4  1  0.09199600  0.72370400  0.37894700  1
  Mn  Mn5  1  0.03195100  0.41784900  0.86837700  1
  Mn  Mn6  1  0.45190400  0.07635000  0.11871700  1
  Mn  Mn7  1  0.41217300  0.77676600  0.62049600  1
  Mn  Mn8  1  0.56492700  0.26812800  0.36516200  1
  Mn  Mn9  1  0.61810500  0.88999900  0.87574600  1
  Mn  Mn10  1  0.89253100  0.60481900  0.12203700  1
  Mn  Mn11  1  0.92759200  0.23323200  0.61177000  1
  B  B12  1  0.07169600  0.41942700  0.37939200  1
  B  B13  1  0.11853900  0.75139900  0.86567400  1
  B  B14  1  0.39049700  0.74271300  0.13252900  1
  B  B15  1  0.43812700  0.08278300  0.63339500  1
  B  B16  1  0.57830100  0.92557500  0.37129200  1
  B  B17  1  0.57765200  0.24031200  0.88270300  1
  B  B18  1  0.91373500  0.25865300  0.11415600  1
  B  B19  1  0.91347100  0.57643500  0.62239100  1
  O  O20  1  0.06505900  0.14010400  0.13999800  1
  O  O21  1  0.08147700  0.68037000  0.56734000  1
  O  O22  1  0.01603800  0.38985100  0.06075000  1
  O  O23  1  0.04068800  0.44983500  0.67870900  1
  O  O24  1  0.15363600  0.75858400  0.19524400  1
  O  O25  1  0.18686200  0.07969400  0.66483300  1
  O  O26  1  0.32199100  0.43759600  0.40590400  1
  O  O27  1  0.35650200  0.73998600  0.80355300  1
  O  O28  1  0.45004700  0.04829200  0.30876000  1
  O  O29  1  0.47293000  0.10475500  0.92823600  1
  O  O30  1  0.40867000  0.82879300  0.43436700  1
  O  O31  1  0.43035100  0.36378300  0.87577100  1
  O  O32  1  0.50425500  0.60954100  0.11463100  1
  O  O33  1  0.54736000  0.20761900  0.57780900  1
  O  O34  1  0.50510800  0.86824800  0.08142800  1
  O  O35  1  0.59243700  0.95626000  0.66087900  1
  O  O36  1  0.64756700  0.26353300  0.14330300  1
  O  O37  1  0.65988700  0.59066300  0.61718900  1
  O  O38  1  0.83195100  0.90861800  0.37161500  1
  O  O39  1  0.83863300  0.23436500  0.84770100  1
  O  O40  1  0.92426400  0.54096600  0.33362100  1
  O  O41  1  0.00601000  0.62410000  0.91391000  1
  O  O42  1  0.95413100  0.28451400  0.40276000  1
  O  O43  1  0.00146100  0.88233900  0.88717600  1
