# generated using pymatgen
data_LiTi4O8
_symmetry_space_group_name_H-M   'P 1'
_cell_length_a   5.93636676
_cell_length_b   5.93636676
_cell_length_c   5.93636683
_cell_angle_alpha   60.64615053
_cell_angle_beta   60.64615053
_cell_angle_gamma   60.64615079
_symmetry_Int_Tables_number   1
_chemical_formula_structural   LiTi4O8
_chemical_formula_sum   'Li1 Ti4 O8'
_cell_volume   150.08500365
_cell_formula_units_Z   1
loop_
 _symmetry_equiv_pos_site_id
 _symmetry_equiv_pos_as_xyz
  1  'x, y, z'
loop_
 _atom_site_type_symbol
 _atom_site_label
 _atom_site_symmetry_multiplicity
 _atom_site_fract_x
 _atom_site_fract_y
 _atom_site_fract_z
 _atom_site_occupancy
  Li  Li0  1  0.50000000  0.50000000  0.50000000  1
  Ti  Ti1  1  0.00000000  0.50000000  0.00000000  1
  Ti  Ti2  1  0.50000000  0.00000000  0.00000000  1
  Ti  Ti3  1  0.00000000  0.00000000  0.50000000  1
  Ti  Ti4  1  0.00000000  0.00000000  0.00000000  1
  O  O5  1  0.24002100  0.78948300  0.24002100  1
  O  O6  1  0.78948300  0.24002100  0.24002100  1
  O  O7  1  0.75997900  0.75997900  0.21051700  1
  O  O8  1  0.23493400  0.23493400  0.23493400  1
  O  O9  1  0.76506600  0.76506600  0.76506600  1
  O  O10  1  0.24002100  0.24002100  0.78948300  1
  O  O11  1  0.21051700  0.75997900  0.75997900  1
  O  O12  1  0.75997900  0.21051700  0.75997900  1
