# generated using pymatgen
data_Li7Mn8(BO3)8
_symmetry_space_group_name_H-M   'P 1'
_cell_length_a   5.22784400
_cell_length_b   9.11563224
_cell_length_c   11.53350367
_cell_angle_alpha   111.39699719
_cell_angle_beta   102.20251936
_cell_angle_gamma   89.28174999
_symmetry_Int_Tables_number   1
_chemical_formula_structural   Li7Mn8(BO3)8
_chemical_formula_sum   'Li7 Mn8 B8 O24'
_cell_volume   498.92397566
_cell_formula_units_Z   1
loop_
 _symmetry_equiv_pos_site_id
 _symmetry_equiv_pos_as_xyz
  1  'x, y, z'
loop_
 _atom_site_type_symbol
 _atom_site_label
 _atom_site_symmetry_multiplicity
 _atom_site_fract_x
 _atom_site_fract_y
 _atom_site_fract_z
 _atom_site_occupancy
  Li  Li0  1  0.02025200  0.99291300  0.83758000  1
  Li  Li1  1  0.20691100  0.21960600  0.58087800  1
  Li  Li2  1  0.52387000  0.49115900  0.83692800  1
  Li  Li3  1  0.47007100  0.46274400  0.09793600  1
  Li  Li4  1  0.70856800  0.70790000  0.57383700  1
  Li  Li5  1  0.72696600  0.75005900  0.33438300  1
  Li  Li6  1  0.95982700  0.95518100  0.07821600  1
  Mn  Mn7  1  0.03069800  0.34281100  0.87336600  1
  Mn  Mn8  1  0.23510300  0.56385200  0.61845300  1
  Mn  Mn9  1  0.25069800  0.95229700  0.36302100  1
  Mn  Mn10  1  0.52325500  0.84563800  0.86669300  1
  Mn  Mn11  1  0.45752300  0.13920400  0.12406700  1
  Mn  Mn12  1  0.72977200  0.05587500  0.61830100  1
  Mn  Mn13  1  0.78288600  0.40846900  0.36983600  1
  Mn  Mn14  1  0.97533200  0.64758000  0.11950100  1
  B  B15  1  0.03058800  0.68260900  0.87316200  1
  B  B16  1  0.23989600  0.89513400  0.62440900  1
  B  B17  1  0.25956000  0.61846600  0.37524000  1
  B  B18  1  0.53416300  0.18718700  0.87927900  1
  B  B19  1  0.47165700  0.81280500  0.12421900  1
  B  B20  1  0.73587600  0.38576700  0.62245400  1
  B  B21  1  0.76366100  0.11057400  0.37803800  1
  B  B22  1  0.96988800  0.30938900  0.12817500  1
  O  O23  1  0.02609700  0.14301500  0.39732600  1
  O  O24  1  0.26022300  0.64650700  0.82753900  1
  O  O25  1  0.10628100  0.72062500  0.32990900  1
  O  O26  1  0.40172600  0.07722700  0.90834500  1
  O  O27  1  0.13125500  0.52020000  0.41781200  1
  O  O28  1  0.44000900  0.33582800  0.90184900  1
  O  O29  1  0.06438700  0.16665200  0.11482900  1
  O  O30  1  0.32383700  0.00859900  0.58360700  1
  O  O31  1  0.08393500  0.41622200  0.08964800  1
  O  O32  1  0.41721100  0.79085200  0.65600700  1
  O  O33  1  0.22612900  0.84912400  0.15300400  1
  O  O34  1  0.48700700  0.39448100  0.64427000  1
  O  O35  1  0.52718000  0.61467200  0.38589800  1
  O  O36  1  0.76141800  0.14933000  0.83254100  1
  O  O37  1  0.58739200  0.20780200  0.33470200  1
  O  O38  1  0.90650500  0.57380300  0.90688600  1
  O  O39  1  0.66195000  0.98790700  0.40452200  1
  O  O40  1  0.92684700  0.82614900  0.88668100  1
  O  O41  1  0.58867300  0.68294700  0.14075600  1
  O  O42  1  0.82550600  0.48328600  0.56531300  1
  O  O43  1  0.59583200  0.91071800  0.08110800  1
  O  O44  1  0.90738100  0.28491500  0.65947600  1
  O  O45  1  0.73821100  0.34935600  0.17882000  1
  O  O46  1  0.98454800  0.88450900  0.63814500  1
