# generated using pymatgen
data_LiFeSiO4
_symmetry_space_group_name_H-M   'P 1'
_cell_length_a   8.97302756
_cell_length_b   8.97302756
_cell_length_c   8.97302732
_cell_angle_alpha   90.57230997
_cell_angle_beta   90.57230997
_cell_angle_gamma   90.57231102
_symmetry_Int_Tables_number   1
_chemical_formula_structural   LiFeSiO4
_chemical_formula_sum   'Li6 Fe6 Si6 O24'
_cell_volume   722.35645083
_cell_formula_units_Z   6
loop_
 _symmetry_equiv_pos_site_id
 _symmetry_equiv_pos_as_xyz
  1  'x, y, z'
loop_
 _atom_site_type_symbol
 _atom_site_label
 _atom_site_symmetry_multiplicity
 _atom_site_fract_x
 _atom_site_fract_y
 _atom_site_fract_z
 _atom_site_occupancy
  Li  Li0  1  0.78150300  0.76871600  0.22622200  1
  Li  Li1  1  0.28150300  0.72622200  0.26871600  1
  Li  Li2  1  0.72622200  0.26871600  0.28150300  1
  Li  Li3  1  0.26871600  0.28150300  0.72622200  1
  Li  Li4  1  0.22622200  0.78150300  0.76871600  1
  Li  Li5  1  0.76871600  0.22622200  0.78150300  1
  Fe  Fe6  1  0.50387900  0.75254300  0.99087900  1
  Fe  Fe7  1  0.49087900  0.25254300  0.00387900  1
  Fe  Fe8  1  0.00387900  0.49087900  0.25254300  1
  Fe  Fe9  1  0.25254300  0.00387900  0.49087900  1
  Fe  Fe10  1  0.75254300  0.99087900  0.50387900  1
  Fe  Fe11  1  0.99087900  0.50387900  0.75254300  1
  Si  Si12  1  0.74667100  0.49287500  0.00913900  1
  Si  Si13  1  0.24667100  0.50913900  0.99287500  1
  Si  Si14  1  0.50913900  0.99287500  0.24667100  1
  Si  Si15  1  0.99287500  0.24667100  0.50913900  1
  Si  Si16  1  0.00913900  0.74667100  0.49287500  1
  Si  Si17  1  0.49287500  0.00913900  0.74667100  1
  O  O18  1  0.34517100  0.64129000  0.07943300  1
  O  O19  1  0.65358500  0.35876600  0.09513900  1
  O  O20  1  0.84517100  0.57943300  0.14129000  1
  O  O21  1  0.14134400  0.42783600  0.11483400  1
  O  O22  1  0.59513900  0.85876600  0.15358500  1
  O  O23  1  0.42783600  0.11483400  0.14134400  1
  O  O24  1  0.37774200  0.91102100  0.34631200  1
  O  O25  1  0.64129000  0.07943300  0.34517100  1
  O  O26  1  0.09513900  0.65358500  0.35876600  1
  O  O27  1  0.91102100  0.34631200  0.37774200  1
  O  O28  1  0.87774200  0.84631200  0.41102100  1
  O  O29  1  0.11483400  0.14134400  0.42783600  1
  O  O30  1  0.14129000  0.84517100  0.57943300  1
  O  O31  1  0.85876600  0.15358500  0.59513900  1
  O  O32  1  0.92783600  0.64134400  0.61483400  1
  O  O33  1  0.07943300  0.34517100  0.64129000  1
  O  O34  1  0.61483400  0.92783600  0.64134400  1
  O  O35  1  0.35876600  0.09513900  0.65358500  1
  O  O36  1  0.41102100  0.87774200  0.84631200  1
  O  O37  1  0.57943300  0.14129000  0.84517100  1
  O  O38  1  0.84631200  0.41102100  0.87774200  1
  O  O39  1  0.15358500  0.59513900  0.85876600  1
  O  O40  1  0.64134400  0.61483400  0.92783600  1
  O  O41  1  0.34631200  0.37774200  0.91102100  1
