# generated using pymatgen
data_Li4Fe2Co3Te3O16
_symmetry_space_group_name_H-M   'P 1'
_cell_length_a   6.18392100
_cell_length_b   6.19817713
_cell_length_c   9.72331116
_cell_angle_alpha   89.45008827
_cell_angle_beta   91.24133041
_cell_angle_gamma   119.88415230
_symmetry_Int_Tables_number   1
_chemical_formula_structural   Li4Fe2Co3Te3O16
_chemical_formula_sum   'Li4 Fe2 Co3 Te3 O16'
_cell_volume   323.05478585
_cell_formula_units_Z   1
loop_
 _symmetry_equiv_pos_site_id
 _symmetry_equiv_pos_as_xyz
  1  'x, y, z'
loop_
 _atom_site_type_symbol
 _atom_site_label
 _atom_site_symmetry_multiplicity
 _atom_site_fract_x
 _atom_site_fract_y
 _atom_site_fract_z
 _atom_site_occupancy
  Li  Li0  1  0.32462500  0.66441500  0.87908800  1
  Li  Li1  1  0.96858600  0.98497300  0.98742500  1
  Li  Li2  1  0.97955900  0.98212500  0.50783900  1
  Li  Li3  1  0.64942500  0.33505200  0.40224000  1
  Fe  Fe4  1  0.36573400  0.68565500  0.50948800  1
  Fe  Fe5  1  0.70400600  0.33246000  0.97084600  1
  Co  Co6  1  0.66218900  0.84077100  0.21239600  1
  Co  Co7  1  0.83899500  0.66316600  0.71567200  1
  Co  Co8  1  0.83877500  0.17519300  0.71179600  1
  Te  Te9  1  0.16450300  0.82962600  0.21650200  1
  Te  Te10  1  0.17446000  0.34080500  0.21882300  1
  Te  Te11  1  0.34679200  0.17407700  0.71430200  1
  O  O12  1  0.19467500  0.86581500  0.59870700  1
  O  O13  1  0.02930700  0.53869500  0.34326200  1
  O  O14  1  0.31746100  0.68286200  0.10096600  1
  O  O15  1  0.00595000  0.97726600  0.32151400  1
  O  O16  1  0.02669600  0.01196600  0.80491600  1
  O  O17  1  0.19060500  0.32885500  0.59555200  1
  O  O18  1  0.46200000  0.96326200  0.33436500  1
  O  O19  1  0.47897500  0.52567700  0.34231300  1
  O  O20  1  0.30929600  0.13008200  0.10225700  1
  O  O21  1  0.67421900  0.83988200  0.59854900  1
  O  O22  1  0.49963800  0.45702700  0.84472400  1
  O  O23  1  0.50194700  0.03485900  0.83761600  1
  O  O24  1  0.64912100  0.32896200  0.60601500  1
  O  O25  1  0.85779100  0.67952800  0.10359000  1
  O  O26  1  0.96689800  0.48019300  0.83974400  1
  O  O27  1  0.81777300  0.14704800  0.08733600  1
