# generated using pymatgen
data_Li4Nb2V3Co3O16
_symmetry_space_group_name_H-M   'P 1'
_cell_length_a   5.98985841
_cell_length_b   5.98985841
_cell_length_c   9.78845845
_cell_angle_alpha   89.52032090
_cell_angle_beta   89.52032090
_cell_angle_gamma   59.79772739
_symmetry_Int_Tables_number   1
_chemical_formula_structural   Li4Nb2V3Co3O16
_chemical_formula_sum   'Li4 Nb2 V3 Co3 O16'
_cell_volume   303.50719278
_cell_formula_units_Z   1
loop_
 _symmetry_equiv_pos_site_id
 _symmetry_equiv_pos_as_xyz
  1  'x, y, z'
loop_
 _atom_site_type_symbol
 _atom_site_label
 _atom_site_symmetry_multiplicity
 _atom_site_fract_x
 _atom_site_fract_y
 _atom_site_fract_z
 _atom_site_occupancy
  Li  Li0  1  0.66668500  0.66668500  0.90295500  1
  Li  Li1  1  0.99458500  0.99458500  0.99544100  1
  Li  Li2  1  0.99606200  0.99606200  0.48771300  1
  Li  Li3  1  0.33790000  0.33790000  0.39938400  1
  Nb  Nb4  1  0.65319700  0.65319700  0.48876900  1
  Nb  Nb5  1  0.33383200  0.33383200  0.99988200  1
  V  V6  1  0.82403100  0.82403100  0.22811900  1
  V  V7  1  0.65299500  0.16287100  0.71770200  1
  V  V8  1  0.16287100  0.65299500  0.71770200  1
  Co  Co9  1  0.83525600  0.34148600  0.21168700  1
  Co  Co10  1  0.34148600  0.83525600  0.21168700  1
  Co  Co11  1  0.16900900  0.16900900  0.70861100  1
  O  O12  1  0.82700300  0.32881800  0.59504700  1
  O  O13  1  0.52147200  0.52147200  0.34921500  1
  O  O14  1  0.68528600  0.68528600  0.10877200  1
  O  O15  1  0.98987200  0.98987200  0.29857700  1
  O  O16  1  0.99092600  0.99092600  0.80625900  1
  O  O17  1  0.32881800  0.82700300  0.59504700  1
  O  O18  1  0.96760700  0.53232900  0.35261400  1
  O  O19  1  0.53232900  0.96760700  0.35261400  1
  O  O20  1  0.16607800  0.16607800  0.08132000  1
  O  O21  1  0.83448500  0.83448500  0.60280100  1
  O  O22  1  0.49621500  0.03805900  0.83691100  1
  O  O23  1  0.03805900  0.49621500  0.83691100  1
  O  O24  1  0.35118000  0.35118000  0.60440300  1
  O  O25  1  0.65889700  0.16539200  0.09043800  1
  O  O26  1  0.48097800  0.48097800  0.83537300  1
  O  O27  1  0.16539200  0.65889700  0.09043800  1
